DiffSBDD_38_num_sample_100
     RDKit          3D

  0  0  0  0  0  0  0  0  0  0999 V3000
M  V30 BEGIN CTAB
M  V30 COUNTS 81 83 0 0 1
M  V30 BEGIN ATOM
M  V30 1 C 38.627737 29.600370 60.277800 0
M  V30 2 C 37.480900 25.685363 54.808610 0
M  V30 3 C 37.926106 32.150887 54.707896 0
M  V30 4 C 38.836218 33.518932 59.663474 0
M  V30 5 C 39.111095 34.606843 60.684468 0
M  V30 6 F 36.667358 23.677946 55.820327 0
M  V30 7 C 38.625521 36.813986 61.594343 0
M  V30 8 C 37.560110 32.661856 59.898390 0 CFG=2
M  V30 9 O 36.403762 31.221430 61.453444 0
M  V30 10 N 37.867401 31.146954 55.789692 0 CFG=2 CHG=1
M  V30 11 C 40.063066 30.604124 50.799622 0
M  V30 12 C 41.245996 30.421565 49.853512 0
M  V30 13 C 40.115783 34.424588 61.658005 0
M  V30 14 C 36.307020 33.579147 59.981761 0
M  V30 15 C 38.498772 24.821460 56.849640 0
M  V30 16 C 39.626446 36.636272 62.563057 0
M  V30 17 C 38.750474 30.751244 61.294241 0
M  V30 18 C 39.281505 28.402289 51.345062 0
M  V30 19 C 38.983114 31.284281 56.754391 0
M  V30 20 C 38.539540 29.273475 54.209553 0
M  V30 21 C 37.651540 31.833672 61.210396 0 CFG=1
M  V30 22 C 39.067488 29.975991 58.884071 0
M  V30 23 C 39.354621 26.869443 55.836825 0
M  V30 24 C 40.376944 35.441047 62.597875 0
M  V30 25 C 37.537377 24.715112 55.826312 0
M  V30 26 C 37.330505 31.774897 58.657847 0
M  V30 27 C 41.462306 35.249794 63.643681 0
M  V30 28 C 38.384668 26.768950 54.812007 0
M  V30 29 C 38.314784 27.822398 53.706202 0 CFG=2
M  V30 30 C 38.500183 30.946634 58.150338 0
M  V30 31 C 37.606145 29.750348 55.343904 0
M  V30 32 C 39.408522 25.896254 56.853800 0
M  V30 33 C 39.234891 27.414145 52.525466 0
M  V30 34 O 40.028480 29.544324 51.739741 0
M  V30 35 C 38.370436 35.806158 60.653994 0
M  V30 36 O 39.867401 37.621431 63.461597 0
M  V30 37 H 37.609299 29.221519 60.224964 0
M  V30 38 H 39.247882 28.765329 60.604856 0
M  V30 39 H 36.745332 25.597411 54.023415 0
M  V30 40 H 38.837162 32.062975 54.113962 0
M  V30 41 H 37.067362 32.020635 54.060746 0
M  V30 42 H 37.876339 33.162174 55.114708 0
M  V30 43 H 38.760974 34.003968 58.690766 0
M  V30 44 H 39.718279 32.884817 59.601971 0
M  V30 45 H 38.055002 37.730806 61.569589 0
M  V30 46 H 35.730795 31.819832 61.161221 0
M  V30 47 H 39.123971 30.701685 50.253153 0
M  V30 48 H 40.199472 31.530382 51.357800 0
M  V30 49 H 41.417448 31.318770 49.268379 0
M  V30 50 H 42.160489 30.221262 50.410757 0
M  V30 51 H 41.067332 29.616599 49.146520 0
M  V30 52 H 40.686853 33.508094 61.680626 0
M  V30 53 H 35.375863 33.015186 59.914057 0
M  V30 54 H 36.267276 34.141467 60.914862 0
M  V30 55 H 36.278490 34.290594 59.155719 0
M  V30 56 H 38.540614 24.075404 57.629307 0
M  V30 57 H 38.708789 30.316987 62.294578 0
M  V30 58 H 39.738862 31.204721 61.221834 0
M  V30 59 H 39.758372 27.935592 50.482336 0
M  V30 60 H 38.267591 28.679274 51.053271 0
M  V30 61 H 39.339844 32.315407 56.778565 0
M  V30 62 H 39.834358 30.668726 56.461524 0
M  V30 63 H 38.362110 29.937892 53.368604 0
M  V30 64 H 39.582895 29.412574 54.491726 0
M  V30 65 H 37.810179 32.526191 62.038572 0
M  V30 66 H 39.895825 29.414526 58.474891 0
M  V30 67 H 40.055255 27.690546 55.843527 0
M  V30 68 H 36.471869 31.115903 58.793035 0
M  V30 69 H 37.067404 32.463220 57.856636 0
M  V30 70 H 41.926757 34.266697 63.562274 0
M  V30 71 H 42.242995 36.002844 63.525556 0
M  V30 72 H 41.045783 35.341719 64.646919 0
M  V30 73 H 37.292317 27.797168 53.324454 0
M  V30 74 H 37.657496 29.084923 56.205592 0
M  V30 75 H 36.575376 29.706885 54.995633 0
M  V30 76 H 40.148876 25.973795 57.636813 0
M  V30 77 H 40.247808 27.221180 52.872357 0
M  V30 78 H 38.886323 26.455789 52.144039 0
M  V30 79 H 37.606134 35.952662 59.906236 0
M  V30 80 H 40.695698 37.570053 63.931521 0
M  V30 81 H 37.019102 31.406084 56.300567 0
M  V30 END ATOM
M  V30 BEGIN BOND
M  V30 1 1 5 4
M  V30 2 1 8 4 CFG=3
M  V30 3 1 10 3
M  V30 4 1 12 11
M  V30 5 2 13 5
M  V30 6 1 14 8
M  V30 7 1 16 7
M  V30 8 1 17 1
M  V30 9 1 19 10
M  V30 10 1 21 8
M  V30 11 1 21 9
M  V30 12 1 21 17
M  V30 13 1 22 1
M  V30 14 1 24 13
M  V30 15 2 24 16
M  V30 16 2 25 2
M  V30 17 1 25 6
M  V30 18 1 25 15
M  V30 19 1 26 8
M  V30 20 1 27 24
M  V30 21 1 28 2
M  V30 22 2 28 23
M  V30 23 1 29 20
M  V30 24 1 29 28
M  V30 25 1 30 19
M  V30 26 2 30 22
M  V30 27 1 30 26
M  V30 28 1 31 10
M  V30 29 1 31 20
M  V30 30 2 32 15
M  V30 31 1 32 23
M  V30 32 1 33 18
M  V30 33 1 33 29
M  V30 34 1 34 11
M  V30 35 1 34 18
M  V30 36 1 35 5
M  V30 37 2 35 7
M  V30 38 1 36 16
M  V30 39 1 37 1
M  V30 40 1 38 1
M  V30 41 1 39 2
M  V30 42 1 40 3
M  V30 43 1 41 3
M  V30 44 1 42 3
M  V30 45 1 43 4
M  V30 46 1 44 4
M  V30 47 1 45 7
M  V30 48 1 46 9
M  V30 49 1 47 11
M  V30 50 1 48 11
M  V30 51 1 49 12
M  V30 52 1 50 12
M  V30 53 1 51 12
M  V30 54 1 52 13
M  V30 55 1 53 14
M  V30 56 1 54 14
M  V30 57 1 55 14
M  V30 58 1 56 15
M  V30 59 1 57 17
M  V30 60 1 58 17
M  V30 61 1 59 18
M  V30 62 1 60 18
M  V30 63 1 61 19
M  V30 64 1 62 19
M  V30 65 1 63 20
M  V30 66 1 64 20
M  V30 67 1 21 65 CFG=1
M  V30 68 1 66 22
M  V30 69 1 67 23
M  V30 70 1 68 26
M  V30 71 1 69 26
M  V30 72 1 70 27
M  V30 73 1 71 27
M  V30 74 1 72 27
M  V30 75 1 29 73 CFG=3
M  V30 76 1 74 31
M  V30 77 1 75 31
M  V30 78 1 76 32
M  V30 79 1 77 33
M  V30 80 1 78 33
M  V30 81 1 79 35
M  V30 82 1 80 36
M  V30 83 1 10 81 CFG=1
M  V30 END BOND
M  V30 END CTAB
M  END
>  <i_epik_Tot_Q>  (1) 
1

>  <i_epik_Tot_abs_Q>  (1) 
1

>  <i_i_glide_confnum>  (1) 
3253

>  <i_i_glide_lignum>  (1) 
92

>  <i_i_glide_posenum>  (1) 
61

>  <i_i_glide_rotatable_bonds>  (1) 
14

>  <i_lp_mmshare_version>  (1) 
72125

>  <i_m_source_file_index>  (1) 
39

>  <i_f3d_flags>  (1) 
0

>  <num_sample>  (1) 
100

>  <b_lp_Chiralities_Consistent>  (1) 
1

>  <r_epik_Charging_Adjusted_Penalty>  (1) 
0.028990441090162262

>  <r_epik_Ionization_Penalty>  (1) 
0.014915146811677001

>  <r_epik_Ionization_Penalty_Charging>  (1) 
0.014495220545081134

>  <r_epik_Ionization_Penalty_Neutral>  (1) 
0.00041992626659586555

>  <r_epik_State_Penalty>  (1) 
0.014495220545081127

>  <r_glide_ring_energy>  (1) 
0

>  <r_i_docking_score>  (1) 
-11.363149287261368

>  <r_i_glide_ecoul>  (1) 
-13.099295399971577

>  <r_i_glide_eff_state_penalty>  (1) 
0.014495220545081127

>  <r_i_glide_einternal>  (1) 
7.4023736417865695

>  <r_i_glide_emodel>  (1) 
-106.33460557862441

>  <r_i_glide_emodel_strain>  (1) 
1.6204000929571833

>  <r_i_glide_energy>  (1) 
-63.074458720522827

>  <r_i_glide_erotb>  (1) 
0.82055052293910336

>  <r_i_glide_esite>  (1) 
-0.10000000000000001

>  <r_i_glide_evdw>  (1) 
-49.975163320551246

>  <r_i_glide_gscore>  (1) 
-11.377644507806449

>  <r_i_glide_gscore_strain>  (1) 
0

>  <r_i_glide_hbond>  (1) 
-0.79326038010040634

>  <r_i_glide_ligand_efficiency>  (1) 
-0.31564303575726022

>  <r_i_glide_ligand_efficiency_ln>  (1) 
-2.4791321776645425

>  <r_i_glide_ligand_efficiency_sa>  (1) 
-1.0422303406907187

>  <r_i_glide_lipo>  (1) 
-5.5140318723406549

>  <r_i_glide_metal>  (1) 
-0

>  <r_i_glide_rewards>  (1) 
-1.3272503022811912

>  <r_lp_Energy>  (1) 
36.023807999999995

>  <r_lp_tautomer_probability>  (1) 
0.99999999999736477

>  <s_epik_cmdline>  (1) 
J2VwaWtfcHl0aG9uJywgJy1waHQnLCAnMS4wJywgJy1waCcsICc3LjQnLCAnLXRuJywgJzgnLCAnLW1hJywgJzUwMCcsICctaW1hZScsICc8aW5maWxlLm1hZT4nLCAnLW9tYWUnLCAnPG91dGZpbGUubWFlPic=

>  <s_epik_input>  (1) 
W2NIXTFbY0hdYyhbT0hdKWMoW0NIM10pW2NIXWMxW0NIMl1bQ0BdMihbQ0gzXSlbQ0BASF0oW09IXSlbQ0gyXVtDSDJdW0NIXT1DKFtDSDJdMilbQ0gyXU4oW0NIM10pW0NIMl1bQ0gyXVtDQEhdKGMoW2NIXWMzRilbY0hdW2NIXVtjSF0zKVtDSDJdW0NIMl1PW0NIMl1bQ0gzXQ==

>  <s_glide_docking_method>  (1) 
confgen

>  <s_i_glide_gridfile>  (1) 
gpcr_5ht2c_6bqh_protein_autoprepared_prepared

>  <s_lp_Force_Field>  (1) 
S-OPLS

>  <s_lp_Variant>  (1) 
DiffSBDD_38_num_sample_100-1

>  <s_m_source_file>  (1) 
generated__ligand_DiffSBDD_2026-05-06_prepared.sdf

>  <GenAI_Model>  (1) 
DiffSBDD

>  <Protein>  (1) 
GPCR_5HT2C

$$$$
DiffSBDD_38_num_sample_100
     RDKit          3D

  0  0  0  0  0  0  0  0  0  0999 V3000
M  V30 BEGIN CTAB
M  V30 COUNTS 81 83 0 0 1
M  V30 BEGIN ATOM
M  V30 1 C 38.624000 29.526409 60.202777 0
M  V30 2 C 37.527586 25.745422 54.840244 0
M  V30 3 C 37.867282 32.240670 54.745874 0
M  V30 4 C 38.967487 33.457917 59.691958 0
M  V30 5 C 39.212032 34.562305 60.702058 0
M  V30 6 F 36.724823 23.750911 55.882028 0
M  V30 7 C 40.419638 35.441657 62.629317 0
M  V30 8 C 37.665404 32.631497 59.905724 0 CFG=2
M  V30 9 O 36.485834 31.221429 61.453442 0
M  V30 10 N 37.867405 31.180321 55.770540 0 CFG=2 CHG=1
M  V30 11 C 40.045524 29.584156 49.981755 0
M  V30 12 C 40.976266 30.187012 51.026891 0
M  V30 13 C 38.458995 35.746855 60.637373 0
M  V30 14 C 36.423936 33.565288 60.012019 0
M  V30 15 C 38.587528 24.888585 56.860971 0
M  V30 16 C 39.656650 36.624253 62.559479 0
M  V30 17 C 38.816236 30.649727 61.236722 0
M  V30 18 C 38.712906 27.970558 51.160031 0
M  V30 19 C 39.003920 31.278196 56.717150 0
M  V30 20 C 38.576949 29.328309 54.164353 0
M  V30 21 C 37.756057 31.777278 61.199443 0 CFG=1
M  V30 22 C 39.067462 29.917112 58.815109 0
M  V30 23 C 39.429569 26.927183 55.815311 0
M  V30 24 C 38.674282 36.773061 61.558179 0
M  V30 25 C 37.601628 24.782292 55.861720 0
M  V30 26 C 37.388245 31.773538 58.652894 0
M  V30 27 C 37.853709 38.042340 61.465954 0
M  V30 28 C 38.436389 26.823902 54.814549 0
M  V30 29 C 38.342423 27.867922 53.701670 0 CFG=2
M  V30 30 C 38.526444 30.923046 58.110988 0
M  V30 31 C 37.596228 29.811021 55.258373 0
M  V30 32 C 39.502462 25.959399 56.837020 0
M  V30 33 C 39.246437 27.489972 52.509769 0
M  V30 34 O 39.776090 28.215616 50.253775 0
M  V30 35 C 40.196688 34.407933 61.699825 0
M  V30 36 O 39.867363 37.621498 63.453536 0
M  V30 37 H 37.582317 29.219465 60.147375 0
M  V30 38 H 39.189947 28.644164 60.502697 0
M  V30 39 H 36.773666 25.656571 54.073371 0
M  V30 40 H 38.667550 32.124537 54.015386 0
M  V30 41 H 36.902755 32.207665 54.253496 0
M  V30 42 H 37.952976 33.227635 55.201223 0
M  V30 43 H 38.930743 33.923934 58.708142 0
M  V30 44 H 39.847635 32.821345 59.669794 0
M  V30 45 H 41.174660 35.327514 63.394505 0
M  V30 46 H 36.172329 30.831962 60.650707 0
M  V30 47 H 40.542399 29.621357 49.014323 0
M  V30 48 H 39.142050 30.184349 49.894812 0
M  V30 49 H 41.215725 31.220769 50.780938 0
M  V30 50 H 40.535257 30.170565 52.022301 0
M  V30 51 H 41.903867 29.622489 51.053505 0
M  V30 52 H 37.713961 35.869423 59.867540 0
M  V30 53 H 35.485657 33.011249 59.953570 0
M  V30 54 H 36.399374 34.119792 60.950471 0
M  V30 55 H 36.388418 34.277456 59.187935 0
M  V30 56 H 38.643996 24.146544 57.643767 0
M  V30 57 H 38.787956 30.199232 62.229335 0
M  V30 58 H 39.820219 31.064397 61.144378 0
M  V30 59 H 38.120033 27.159402 50.745217 0
M  V30 60 H 38.049770 28.827888 51.265278 0
M  V30 61 H 39.385621 32.298984 56.756084 0
M  V30 62 H 39.838198 30.649767 56.405651 0
M  V30 63 H 38.475689 29.975999 53.295247 0
M  V30 64 H 39.607228 29.451292 54.494078 0
M  V30 65 H 37.965390 32.441796 62.039692 0
M  V30 66 H 39.872488 29.337327 58.385655 0
M  V30 67 H 40.134454 27.744633 55.800127 0
M  V30 68 H 36.524688 31.124506 58.799584 0
M  V30 69 H 37.094545 32.471591 57.870653 0
M  V30 70 H 37.263152 38.064032 60.549185 0
M  V30 71 H 37.160676 38.095994 62.305500 0
M  V30 72 H 38.500115 38.919599 61.453108 0
M  V30 73 H 37.310576 27.816062 53.347533 0
M  V30 74 H 37.584455 29.121246 56.102416 0
M  V30 75 H 36.584775 29.804189 54.855327 0
M  V30 76 H 40.261925 26.038112 57.601197 0
M  V30 77 H 40.261631 27.832903 52.651866 0
M  V30 78 H 39.340014 26.410707 52.442504 0
M  V30 79 H 40.780669 33.499647 61.750390 0
M  V30 80 H 40.656958 37.563076 63.981660 0
M  V30 81 H 37.029971 31.407977 56.313168 0
M  V30 END ATOM
M  V30 BEGIN BOND
M  V30 1 1 5 4
M  V30 2 1 8 4 CFG=3
M  V30 3 1 10 3
M  V30 4 1 12 11
M  V30 5 2 13 5
M  V30 6 1 14 8
M  V30 7 1 16 7
M  V30 8 1 17 1
M  V30 9 1 19 10
M  V30 10 1 21 8
M  V30 11 1 21 9
M  V30 12 1 21 17
M  V30 13 1 22 1
M  V30 14 1 24 13
M  V30 15 2 24 16
M  V30 16 2 25 2
M  V30 17 1 25 6
M  V30 18 1 25 15
M  V30 19 1 26 8
M  V30 20 1 27 24
M  V30 21 1 28 2
M  V30 22 2 28 23
M  V30 23 1 29 20
M  V30 24 1 29 28
M  V30 25 1 30 19
M  V30 26 2 30 22
M  V30 27 1 30 26
M  V30 28 1 31 10
M  V30 29 1 31 20
M  V30 30 2 32 15
M  V30 31 1 32 23
M  V30 32 1 33 18
M  V30 33 1 33 29
M  V30 34 1 34 11
M  V30 35 1 34 18
M  V30 36 1 35 5
M  V30 37 2 35 7
M  V30 38 1 36 16
M  V30 39 1 37 1
M  V30 40 1 38 1
M  V30 41 1 39 2
M  V30 42 1 40 3
M  V30 43 1 41 3
M  V30 44 1 42 3
M  V30 45 1 43 4
M  V30 46 1 44 4
M  V30 47 1 45 7
M  V30 48 1 46 9
M  V30 49 1 47 11
M  V30 50 1 48 11
M  V30 51 1 49 12
M  V30 52 1 50 12
M  V30 53 1 51 12
M  V30 54 1 52 13
M  V30 55 1 53 14
M  V30 56 1 54 14
M  V30 57 1 55 14
M  V30 58 1 56 15
M  V30 59 1 57 17
M  V30 60 1 58 17
M  V30 61 1 59 18
M  V30 62 1 60 18
M  V30 63 1 61 19
M  V30 64 1 62 19
M  V30 65 1 63 20
M  V30 66 1 64 20
M  V30 67 1 21 65 CFG=1
M  V30 68 1 66 22
M  V30 69 1 67 23
M  V30 70 1 68 26
M  V30 71 1 69 26
M  V30 72 1 70 27
M  V30 73 1 71 27
M  V30 74 1 72 27
M  V30 75 1 29 73 CFG=3
M  V30 76 1 74 31
M  V30 77 1 75 31
M  V30 78 1 76 32
M  V30 79 1 77 33
M  V30 80 1 78 33
M  V30 81 1 79 35
M  V30 82 1 80 36
M  V30 83 1 10 81 CFG=1
M  V30 END BOND
M  V30 END CTAB
M  END
>  <i_epik_Tot_Q>  (1) 
1

>  <i_epik_Tot_abs_Q>  (1) 
1

>  <i_i_glide_confnum>  (1) 
4391

>  <i_i_glide_lignum>  (1) 
92

>  <i_i_glide_posenum>  (1) 
26

>  <i_i_glide_rotatable_bonds>  (1) 
14

>  <i_lp_mmshare_version>  (1) 
72125

>  <i_m_source_file_index>  (1) 
39

>  <i_f3d_flags>  (1) 
0

>  <num_sample>  (1) 
100

>  <b_lp_Chiralities_Consistent>  (1) 
1

>  <r_epik_Charging_Adjusted_Penalty>  (1) 
0.028990441090162262

>  <r_epik_Ionization_Penalty>  (1) 
0.014915146811677001

>  <r_epik_Ionization_Penalty_Charging>  (1) 
0.014495220545081134

>  <r_epik_Ionization_Penalty_Neutral>  (1) 
0.00041992626659586555

>  <r_epik_State_Penalty>  (1) 
0.014495220545081127

>  <r_glide_ring_energy>  (1) 
0

>  <r_i_docking_score>  (1) 
-11.256268857958103

>  <r_i_glide_ecoul>  (1) 
-12.626414391800999

>  <r_i_glide_eff_state_penalty>  (1) 
0.014495220545081127

>  <r_i_glide_einternal>  (1) 
10.417736866763258

>  <r_i_glide_emodel>  (1) 
-100.85923130022462

>  <r_i_glide_emodel_strain>  (1) 
1.6569552630465054

>  <r_i_glide_energy>  (1) 
-59.599693064959965

>  <r_i_glide_erotb>  (1) 
0.82055052293910336

>  <r_i_glide_esite>  (1) 
-0.10000000000000001

>  <r_i_glide_evdw>  (1) 
-46.973278673158966

>  <r_i_glide_gscore>  (1) 
-11.270764078503184

>  <r_i_glide_gscore_strain>  (1) 
0

>  <r_i_glide_hbond>  (1) 
-0.79087424768697567

>  <r_i_glide_ligand_efficiency>  (1) 
-0.31267413494328067

>  <r_i_glide_ligand_efficiency_ln>  (1) 
-2.4558137555660693

>  <r_i_glide_ligand_efficiency_sa>  (1) 
-1.032427246193774

>  <r_i_glide_lipo>  (1) 
-5.5990024431453929

>  <r_i_glide_metal>  (1) 
-0

>  <r_i_glide_rewards>  (1) 
-1.3588118181818205

>  <r_lp_Energy>  (1) 
36.023807999999995

>  <r_lp_tautomer_probability>  (1) 
0.99999999999736477

>  <s_epik_cmdline>  (1) 
J2VwaWtfcHl0aG9uJywgJy1waHQnLCAnMS4wJywgJy1waCcsICc3LjQnLCAnLXRuJywgJzgnLCAnLW1hJywgJzUwMCcsICctaW1hZScsICc8aW5maWxlLm1hZT4nLCAnLW9tYWUnLCAnPG91dGZpbGUubWFlPic=

>  <s_epik_input>  (1) 
W2NIXTFbY0hdYyhbT0hdKWMoW0NIM10pW2NIXWMxW0NIMl1bQ0BdMihbQ0gzXSlbQ0BASF0oW09IXSlbQ0gyXVtDSDJdW0NIXT1DKFtDSDJdMilbQ0gyXU4oW0NIM10pW0NIMl1bQ0gyXVtDQEhdKGMoW2NIXWMzRilbY0hdW2NIXVtjSF0zKVtDSDJdW0NIMl1PW0NIMl1bQ0gzXQ==

>  <s_glide_docking_method>  (1) 
confgen

>  <s_i_glide_gridfile>  (1) 
gpcr_5ht2c_6bqh_protein_autoprepared_prepared

>  <s_lp_Force_Field>  (1) 
S-OPLS

>  <s_lp_Variant>  (1) 
DiffSBDD_38_num_sample_100-1

>  <s_m_source_file>  (1) 
generated__ligand_DiffSBDD_2026-05-06_prepared.sdf

>  <GenAI_Model>  (1) 
DiffSBDD

>  <Protein>  (1) 
GPCR_5HT2C

$$$$
DiffSBDD_38_num_sample_100
     RDKit          3D

  0  0  0  0  0  0  0  0  0  0999 V3000
M  V30 BEGIN CTAB
M  V30 COUNTS 81 83 0 0 1
M  V30 BEGIN ATOM
M  V30 1 C 38.626223 29.591904 60.252443 0
M  V30 2 C 39.118491 26.944316 55.931469 0
M  V30 3 C 37.941321 32.232895 54.719738 0
M  V30 4 C 38.843539 33.525563 59.659045 0
M  V30 5 C 39.116972 34.611983 60.680368 0
M  V30 6 F 39.899964 26.088304 58.024292 0
M  V30 7 C 38.626146 36.815648 61.594494 0
M  V30 8 C 37.570964 32.666914 59.897703 0 CFG=2
M  V30 9 O 36.426544 31.221431 61.453495 0
M  V30 10 N 37.867403 31.211121 55.781998 0 CFG=2 CHG=1
M  V30 11 C 40.109851 30.628995 50.809942 0
M  V30 12 C 41.278462 30.421438 49.853457 0
M  V30 13 C 40.123264 34.430719 61.651490 0
M  V30 14 C 36.317097 33.582256 59.993253 0
M  V30 15 C 38.286111 24.821420 56.797704 0
M  V30 16 C 39.628588 36.638524 62.561013 0
M  V30 17 C 38.765419 30.738328 61.271710 0
M  V30 18 C 39.298153 28.439242 51.352047 0
M  V30 19 C 38.989087 31.305956 56.744777 0
M  V30 20 C 38.534713 29.324863 54.215422 0
M  V30 21 C 37.673226 31.829803 61.204577 0 CFG=1
M  V30 22 C 39.067404 29.976712 58.861910 0
M  V30 23 C 37.467402 25.667961 54.661017 0
M  V30 24 C 40.382304 35.445629 62.592675 0
M  V30 25 C 39.112134 25.952509 56.932014 0
M  V30 26 C 37.337258 31.785555 58.653494 0
M  V30 27 C 41.468359 35.255663 63.636418 0
M  V30 28 C 38.288645 26.807331 54.792647 0
M  V30 29 C 38.279441 27.881679 53.701087 0 CFG=2
M  V30 30 C 38.504193 30.956782 58.137380 0
M  V30 31 C 37.568339 29.832557 55.308952 0
M  V30 32 C 37.466176 24.677698 55.662148 0
M  V30 33 C 39.206329 27.453348 52.531926 0
M  V30 34 O 40.061634 29.568049 51.749507 0
M  V30 35 C 38.372414 35.809134 60.653510 0
M  V30 36 O 39.867403 37.621429 63.460642 0
M  V30 37 H 37.605194 29.221576 60.198048 0
M  V30 38 H 39.239725 28.748643 60.571648 0
M  V30 39 H 39.755597 27.807528 56.040033 0
M  V30 40 H 38.837861 32.128557 54.107911 0
M  V30 41 H 37.067397 32.137310 54.089596 0
M  V30 42 H 37.926361 33.236933 55.145899 0
M  V30 43 H 38.765366 34.013053 58.687870 0
M  V30 44 H 39.726856 32.893563 59.593379 0
M  V30 45 H 38.053033 37.730869 61.572564 0
M  V30 46 H 36.146861 30.799751 60.653556 0
M  V30 47 H 39.173993 30.749948 50.261513 0
M  V30 48 H 40.266986 31.549614 51.371771 0
M  V30 49 H 41.467149 31.312625 49.265230 0
M  V30 50 H 42.192195 30.198680 50.402499 0
M  V30 51 H 41.067397 29.620696 49.150198 0
M  V30 52 H 40.696887 33.516071 61.671432 0
M  V30 53 H 35.388647 33.011406 59.947750 0
M  V30 54 H 36.286308 34.145495 60.926010 0
M  V30 55 H 36.271001 34.290547 59.165123 0
M  V30 56 H 38.283162 24.061257 57.564926 0
M  V30 57 H 38.734888 30.300356 62.270949 0
M  V30 58 H 39.755544 31.186810 61.189716 0
M  V30 59 H 39.778304 27.959671 50.498099 0
M  V30 60 H 38.295353 28.736129 51.044146 0
M  V30 61 H 39.370861 32.327559 56.783698 0
M  V30 62 H 39.825102 30.675717 56.441056 0
M  V30 63 H 38.413493 30.000397 53.373667 0
M  V30 64 H 39.571445 29.425987 54.534468 0
M  V30 65 H 37.844996 32.510385 62.039550 0
M  V30 66 H 39.892489 29.414956 58.447488 0
M  V30 67 H 36.838254 25.553125 53.789709 0
M  V30 68 H 36.478314 31.127385 58.785136 0
M  V30 69 H 37.067404 32.478080 57.858020 0
M  V30 70 H 41.930954 34.271545 63.557937 0
M  V30 71 H 42.248539 36.008381 63.514085 0
M  V30 72 H 41.050824 35.352246 64.638972 0
M  V30 73 H 37.264010 27.890815 53.300059 0
M  V30 74 H 37.547909 29.163402 56.168330 0
M  V30 75 H 36.553359 29.836820 54.913047 0
M  V30 76 H 36.834933 23.806680 55.558869 0
M  V30 77 H 40.206014 27.221416 52.894152 0
M  V30 78 H 38.830805 26.510096 52.138536 0
M  V30 79 H 37.606458 35.954660 59.907427 0
M  V30 80 H 40.660357 37.536812 63.978658 0
M  V30 81 H 37.024545 31.478428 56.298333 0
M  V30 END ATOM
M  V30 BEGIN BOND
M  V30 1 1 5 4
M  V30 2 1 8 4 CFG=3
M  V30 3 1 10 3
M  V30 4 1 12 11
M  V30 5 2 13 5
M  V30 6 1 14 8
M  V30 7 1 16 7
M  V30 8 1 17 1
M  V30 9 1 19 10
M  V30 10 1 21 8
M  V30 11 1 21 9
M  V30 12 1 21 17
M  V30 13 1 22 1
M  V30 14 1 24 13
M  V30 15 2 24 16
M  V30 16 2 25 2
M  V30 17 1 25 6
M  V30 18 1 25 15
M  V30 19 1 26 8
M  V30 20 1 27 24
M  V30 21 1 28 2
M  V30 22 2 28 23
M  V30 23 1 29 20
M  V30 24 1 29 28
M  V30 25 1 30 19
M  V30 26 2 30 22
M  V30 27 1 30 26
M  V30 28 1 31 10
M  V30 29 1 31 20
M  V30 30 2 32 15
M  V30 31 1 32 23
M  V30 32 1 33 18
M  V30 33 1 33 29
M  V30 34 1 34 11
M  V30 35 1 34 18
M  V30 36 1 35 5
M  V30 37 2 35 7
M  V30 38 1 36 16
M  V30 39 1 37 1
M  V30 40 1 38 1
M  V30 41 1 39 2
M  V30 42 1 40 3
M  V30 43 1 41 3
M  V30 44 1 42 3
M  V30 45 1 43 4
M  V30 46 1 44 4
M  V30 47 1 45 7
M  V30 48 1 46 9
M  V30 49 1 47 11
M  V30 50 1 48 11
M  V30 51 1 49 12
M  V30 52 1 50 12
M  V30 53 1 51 12
M  V30 54 1 52 13
M  V30 55 1 53 14
M  V30 56 1 54 14
M  V30 57 1 55 14
M  V30 58 1 56 15
M  V30 59 1 57 17
M  V30 60 1 58 17
M  V30 61 1 59 18
M  V30 62 1 60 18
M  V30 63 1 61 19
M  V30 64 1 62 19
M  V30 65 1 63 20
M  V30 66 1 64 20
M  V30 67 1 21 65 CFG=1
M  V30 68 1 66 22
M  V30 69 1 67 23
M  V30 70 1 68 26
M  V30 71 1 69 26
M  V30 72 1 70 27
M  V30 73 1 71 27
M  V30 74 1 72 27
M  V30 75 1 29 73 CFG=3
M  V30 76 1 74 31
M  V30 77 1 75 31
M  V30 78 1 76 32
M  V30 79 1 77 33
M  V30 80 1 78 33
M  V30 81 1 79 35
M  V30 82 1 80 36
M  V30 83 1 10 81 CFG=1
M  V30 END BOND
M  V30 END CTAB
M  END
>  <i_epik_Tot_Q>  (1) 
1

>  <i_epik_Tot_abs_Q>  (1) 
1

>  <i_i_glide_confnum>  (1) 
3253

>  <i_i_glide_lignum>  (1) 
92

>  <i_i_glide_posenum>  (1) 
61

>  <i_i_glide_rotatable_bonds>  (1) 
14

>  <i_lp_mmshare_version>  (1) 
72125

>  <i_m_source_file_index>  (1) 
39

>  <i_f3d_flags>  (1) 
0

>  <num_sample>  (1) 
100

>  <b_lp_Chiralities_Consistent>  (1) 
1

>  <r_epik_Charging_Adjusted_Penalty>  (1) 
0.028990441090162262

>  <r_epik_Ionization_Penalty>  (1) 
0.014915146811677001

>  <r_epik_Ionization_Penalty_Charging>  (1) 
0.014495220545081134

>  <r_epik_Ionization_Penalty_Neutral>  (1) 
0.00041992626659586555

>  <r_epik_State_Penalty>  (1) 
0.014495220545081127

>  <r_glide_ring_energy>  (1) 
0

>  <r_i_docking_score>  (1) 
-11.19766926135793

>  <r_i_glide_ecoul>  (1) 
-13.085542135224014

>  <r_i_glide_eff_state_penalty>  (1) 
0.014495220545081127

>  <r_i_glide_einternal>  (1) 
7.0036999215977875

>  <r_i_glide_emodel>  (1) 
-105.55854147546506

>  <r_i_glide_emodel_strain>  (1) 
1.7649635199387248

>  <r_i_glide_energy>  (1) 
-62.950209139033433

>  <r_i_glide_erotb>  (1) 
0.82055052293910336

>  <r_i_glide_esite>  (1) 
-0.10000000000000001

>  <r_i_glide_evdw>  (1) 
-49.864667003809416

>  <r_i_glide_gscore>  (1) 
-11.212164481903011

>  <r_i_glide_gscore_strain>  (1) 
0

>  <r_i_glide_hbond>  (1) 
-0.77838874977079064

>  <r_i_glide_ligand_efficiency>  (1) 
-0.31104636837105359

>  <r_i_glide_ligand_efficiency_ln>  (1) 
-2.4430289067660529

>  <r_i_glide_ligand_efficiency_sa>  (1) 
-1.0270524793940978

>  <r_i_glide_lipo>  (1) 
-5.4489570580907545

>  <r_i_glide_metal>  (1) 
-0

>  <r_i_glide_rewards>  (1) 
-1.249304526506497

>  <r_lp_Energy>  (1) 
36.023807999999995

>  <r_lp_tautomer_probability>  (1) 
0.99999999999736477

>  <s_epik_cmdline>  (1) 
J2VwaWtfcHl0aG9uJywgJy1waHQnLCAnMS4wJywgJy1waCcsICc3LjQnLCAnLXRuJywgJzgnLCAnLW1hJywgJzUwMCcsICctaW1hZScsICc8aW5maWxlLm1hZT4nLCAnLW9tYWUnLCAnPG91dGZpbGUubWFlPic=

>  <s_epik_input>  (1) 
W2NIXTFbY0hdYyhbT0hdKWMoW0NIM10pW2NIXWMxW0NIMl1bQ0BdMihbQ0gzXSlbQ0BASF0oW09IXSlbQ0gyXVtDSDJdW0NIXT1DKFtDSDJdMilbQ0gyXU4oW0NIM10pW0NIMl1bQ0gyXVtDQEhdKGMoW2NIXWMzRilbY0hdW2NIXVtjSF0zKVtDSDJdW0NIMl1PW0NIMl1bQ0gzXQ==

>  <s_glide_docking_method>  (1) 
confgen

>  <s_i_glide_gridfile>  (1) 
gpcr_5ht2c_6bqh_protein_autoprepared_prepared

>  <s_lp_Force_Field>  (1) 
S-OPLS

>  <s_lp_Variant>  (1) 
DiffSBDD_38_num_sample_100-1

>  <s_m_source_file>  (1) 
generated__ligand_DiffSBDD_2026-05-06_prepared.sdf

>  <GenAI_Model>  (1) 
DiffSBDD

>  <Protein>  (1) 
GPCR_5HT2C

$$$$
DiffSBDD_38_num_sample_100
     RDKit          3D

  0  0  0  0  0  0  0  0  0  0999 V3000
M  V30 BEGIN CTAB
M  V30 COUNTS 81 83 0 0 1
M  V30 BEGIN ATOM
M  V30 1 C 39.276385 29.414795 60.036256 0
M  V30 2 C 38.884344 26.836216 56.458115 0
M  V30 3 C 37.670541 32.057805 54.656836 0
M  V30 4 C 38.931186 33.503857 59.637461 0
M  V30 5 C 39.192061 34.602451 60.655006 0
M  V30 6 F 39.520331 26.147475 58.653480 0
M  V30 7 C 38.603778 36.761499 61.619678 0
M  V30 8 C 37.926476 32.410533 60.079001 0 CFG=2
M  V30 9 O 37.467399 30.821450 61.853462 0
M  V30 10 N 37.746245 31.124920 55.795663 0 CFG=2 CHG=1
M  V30 11 C 40.038568 29.497168 50.435688 0
M  V30 12 C 41.098550 30.590711 50.512889 0
M  V30 13 C 40.251773 34.476376 61.579849 0
M  V30 14 C 36.613702 33.104832 60.533177 0
M  V30 15 C 37.943824 24.815741 57.449572 0
M  V30 16 C 39.655137 36.636709 62.544444 0
M  V30 17 C 39.633731 30.561692 61.005150 0
M  V30 18 C 39.111227 27.711452 51.662045 0
M  V30 19 C 38.910438 31.367996 56.666870 0
M  V30 20 C 38.515613 29.071377 54.480406 0
M  V30 21 C 38.491965 31.568433 61.268190 0 CFG=1
M  V30 22 C 39.422228 29.900189 58.622824 0
M  V30 23 C 37.276691 25.490516 55.205267 0
M  V30 24 C 40.483235 35.493666 62.528108 0
M  V30 25 C 38.792871 25.935610 57.535229 0
M  V30 26 C 37.541474 31.554553 58.845415 0
M  V30 27 C 41.614844 35.356718 63.533614 0
M  V30 28 C 38.118383 26.621530 55.289924 0
M  V30 29 C 38.200336 27.599718 54.112384 0 CFG=2
M  V30 30 C 38.667567 30.869171 58.079456 0
M  V30 31 C 37.493315 29.701249 55.455168 0
M  V30 32 C 37.189537 24.591727 56.283740 0
M  V30 33 C 39.132406 27.019051 53.033180 0
M  V30 34 O 40.009246 28.806288 51.671145 0
M  V30 35 C 38.372371 35.749182 60.676055 0
M  V30 36 O 39.867392 37.621451 63.453500 0
M  V30 37 H 38.276575 29.013565 60.201621 0
M  V30 38 H 39.970608 28.585258 60.177481 0
M  V30 39 H 39.538307 27.690010 56.530705 0
M  V30 40 H 38.410288 31.858907 53.881294 0
M  V30 41 H 36.667410 31.974895 54.253602 0
M  V30 42 H 37.792041 33.090121 54.985758 0
M  V30 43 H 38.564494 33.985807 58.730065 0
M  V30 44 H 39.867390 33.043805 59.360512 0
M  V30 45 H 37.973143 37.637694 61.635175 0
M  V30 46 H 37.867504 30.235178 62.482623 0
M  V30 47 H 40.255753 28.821563 49.608123 0
M  V30 48 H 39.067373 29.948420 50.253436 0
M  V30 49 H 41.111917 31.194424 49.605064 0
M  V30 50 H 40.893492 31.248165 51.355774 0
M  V30 51 H 42.094645 30.173136 50.653198 0
M  V30 52 H 40.880444 33.598290 61.563756 0
M  V30 53 H 35.801616 32.390531 60.669657 0
M  V30 54 H 36.733643 33.631359 61.480353 0
M  V30 55 H 36.265021 33.825771 59.792931 0
M  V30 56 H 37.873962 24.126058 58.277092 0
M  V30 57 H 39.926952 30.119861 61.959185 0
M  V30 58 H 40.524386 31.086865 60.658957 0
M  V30 59 H 39.428272 27.003656 50.893114 0
M  V30 60 H 38.100275 28.033561 51.405381 0
M  V30 61 H 39.107546 32.438471 56.737632 0
M  V30 62 H 39.811151 30.927033 56.240188 0
M  V30 63 H 38.516004 29.649574 53.558505 0
M  V30 64 H 39.528389 29.145862 54.872281 0
M  V30 65 H 38.822968 32.246274 62.055032 0
M  V30 66 H 40.215879 29.452771 58.041650 0
M  V30 67 H 36.695834 25.313576 54.311147 0
M  V30 68 H 36.789480 30.808849 59.106207 0
M  V30 69 H 37.067405 32.235857 58.146311 0
M  V30 70 H 42.141225 34.407972 63.429336 0
M  V30 71 H 42.335990 36.165672 63.415293 0
M  V30 72 H 41.218861 35.403022 64.548553 0
M  V30 73 H 37.198827 27.609696 53.677571 0
M  V30 74 H 37.451493 29.132445 56.382274 0
M  V30 75 H 36.494950 29.637907 55.026748 0
M  V30 76 H 36.542442 23.729402 56.216997 0
M  V30 77 H 40.149776 26.876077 53.395234 0
M  V30 78 H 38.763650 26.021429 52.860340 0
M  V30 79 H 37.562818 35.849183 59.967937 0
M  V30 80 H 40.700929 37.594140 63.916782 0
M  V30 81 H 36.928205 31.396021 56.349801 0
M  V30 END ATOM
M  V30 BEGIN BOND
M  V30 1 1 5 4
M  V30 2 1 8 4 CFG=3
M  V30 3 1 10 3
M  V30 4 1 12 11
M  V30 5 2 13 5
M  V30 6 1 14 8
M  V30 7 1 16 7
M  V30 8 1 17 1
M  V30 9 1 19 10
M  V30 10 1 21 8
M  V30 11 1 21 9
M  V30 12 1 21 17
M  V30 13 1 22 1
M  V30 14 1 24 13
M  V30 15 2 24 16
M  V30 16 2 25 2
M  V30 17 1 25 6
M  V30 18 1 25 15
M  V30 19 1 26 8
M  V30 20 1 27 24
M  V30 21 1 28 2
M  V30 22 2 28 23
M  V30 23 1 29 20
M  V30 24 1 29 28
M  V30 25 1 30 19
M  V30 26 2 30 22
M  V30 27 1 30 26
M  V30 28 1 31 10
M  V30 29 1 31 20
M  V30 30 2 32 15
M  V30 31 1 32 23
M  V30 32 1 33 18
M  V30 33 1 33 29
M  V30 34 1 34 11
M  V30 35 1 34 18
M  V30 36 1 35 5
M  V30 37 2 35 7
M  V30 38 1 36 16
M  V30 39 1 37 1
M  V30 40 1 38 1
M  V30 41 1 39 2
M  V30 42 1 40 3
M  V30 43 1 41 3
M  V30 44 1 42 3
M  V30 45 1 43 4
M  V30 46 1 44 4
M  V30 47 1 45 7
M  V30 48 1 46 9
M  V30 49 1 47 11
M  V30 50 1 48 11
M  V30 51 1 49 12
M  V30 52 1 50 12
M  V30 53 1 51 12
M  V30 54 1 52 13
M  V30 55 1 53 14
M  V30 56 1 54 14
M  V30 57 1 55 14
M  V30 58 1 56 15
M  V30 59 1 57 17
M  V30 60 1 58 17
M  V30 61 1 59 18
M  V30 62 1 60 18
M  V30 63 1 61 19
M  V30 64 1 62 19
M  V30 65 1 63 20
M  V30 66 1 64 20
M  V30 67 1 21 65 CFG=1
M  V30 68 1 66 22
M  V30 69 1 67 23
M  V30 70 1 68 26
M  V30 71 1 69 26
M  V30 72 1 70 27
M  V30 73 1 71 27
M  V30 74 1 72 27
M  V30 75 1 29 73 CFG=3
M  V30 76 1 74 31
M  V30 77 1 75 31
M  V30 78 1 76 32
M  V30 79 1 77 33
M  V30 80 1 78 33
M  V30 81 1 79 35
M  V30 82 1 80 36
M  V30 83 1 10 81 CFG=1
M  V30 END BOND
M  V30 END CTAB
M  END
>  <i_epik_Tot_Q>  (1) 
1

>  <i_epik_Tot_abs_Q>  (1) 
1

>  <i_i_glide_confnum>  (1) 
3253

>  <i_i_glide_lignum>  (1) 
92

>  <i_i_glide_posenum>  (1) 
147

>  <i_i_glide_rotatable_bonds>  (1) 
14

>  <i_lp_mmshare_version>  (1) 
72125

>  <i_m_source_file_index>  (1) 
39

>  <i_f3d_flags>  (1) 
0

>  <num_sample>  (1) 
100

>  <b_lp_Chiralities_Consistent>  (1) 
1

>  <r_epik_Charging_Adjusted_Penalty>  (1) 
0.028990441090162262

>  <r_epik_Ionization_Penalty>  (1) 
0.014915146811677001

>  <r_epik_Ionization_Penalty_Charging>  (1) 
0.014495220545081134

>  <r_epik_Ionization_Penalty_Neutral>  (1) 
0.00041992626659586555

>  <r_epik_State_Penalty>  (1) 
0.014495220545081127

>  <r_glide_ring_energy>  (1) 
0

>  <r_i_docking_score>  (1) 
-10.841816299234397

>  <r_i_glide_ecoul>  (1) 
-12.535674744432139

>  <r_i_glide_eff_state_penalty>  (1) 
0.014495220545081127

>  <r_i_glide_einternal>  (1) 
6.819737321587338

>  <r_i_glide_emodel>  (1) 
-99.861332534693602

>  <r_i_glide_emodel_strain>  (1) 
1.418741770630092

>  <r_i_glide_energy>  (1) 
-58.334264017154823

>  <r_i_glide_erotb>  (1) 
0.82055052293910336

>  <r_i_glide_esite>  (1) 
-0.10000000000000001

>  <r_i_glide_evdw>  (1) 
-45.79858927272268

>  <r_i_glide_gscore>  (1) 
-10.856311519779478

>  <r_i_glide_gscore_strain>  (1) 
0

>  <r_i_glide_hbond>  (1) 
-0.76700239778232659

>  <r_i_glide_ligand_efficiency>  (1) 
-0.30116156386762216

>  <r_i_glide_ligand_efficiency_ln>  (1) 
-2.3653914044666959

>  <r_i_glide_ligand_efficiency_sa>  (1) 
-0.99441357405422115

>  <r_i_glide_lipo>  (1) 
-5.6118576249063628

>  <r_i_glide_metal>  (1) 
-0

>  <r_i_glide_rewards>  (1) 
-1.0277213447289375

>  <r_lp_Energy>  (1) 
36.023807999999995

>  <r_lp_tautomer_probability>  (1) 
0.99999999999736477

>  <s_epik_cmdline>  (1) 
J2VwaWtfcHl0aG9uJywgJy1waHQnLCAnMS4wJywgJy1waCcsICc3LjQnLCAnLXRuJywgJzgnLCAnLW1hJywgJzUwMCcsICctaW1hZScsICc8aW5maWxlLm1hZT4nLCAnLW9tYWUnLCAnPG91dGZpbGUubWFlPic=

>  <s_epik_input>  (1) 
W2NIXTFbY0hdYyhbT0hdKWMoW0NIM10pW2NIXWMxW0NIMl1bQ0BdMihbQ0gzXSlbQ0BASF0oW09IXSlbQ0gyXVtDSDJdW0NIXT1DKFtDSDJdMilbQ0gyXU4oW0NIM10pW0NIMl1bQ0gyXVtDQEhdKGMoW2NIXWMzRilbY0hdW2NIXVtjSF0zKVtDSDJdW0NIMl1PW0NIMl1bQ0gzXQ==

>  <s_glide_docking_method>  (1) 
confgen

>  <s_i_glide_gridfile>  (1) 
gpcr_5ht2c_6bqh_protein_autoprepared_prepared

>  <s_lp_Force_Field>  (1) 
S-OPLS

>  <s_lp_Variant>  (1) 
DiffSBDD_38_num_sample_100-1

>  <s_m_source_file>  (1) 
generated__ligand_DiffSBDD_2026-05-06_prepared.sdf

>  <GenAI_Model>  (1) 
DiffSBDD

>  <Protein>  (1) 
GPCR_5HT2C

$$$$
DiffSBDD_38_num_sample_100
     RDKit          3D

  0  0  0  0  0  0  0  0  0  0999 V3000
M  V30 BEGIN CTAB
M  V30 COUNTS 81 83 0 0 1
M  V30 BEGIN ATOM
M  V30 1 C 37.873721 29.867184 60.112483 0
M  V30 2 C 37.723165 26.277755 55.954150 0
M  V30 3 C 37.867419 32.609328 54.851914 0
M  V30 4 C 39.388736 33.401656 60.420324 0
M  V30 5 C 40.021782 33.995581 61.674606 0
M  V30 6 F 37.345462 24.628745 57.643819 0
M  V30 7 C 40.744393 35.940965 62.961425 0
M  V30 8 C 37.852763 33.104678 60.447413 0 CFG=2
M  V30 9 O 36.094751 31.756055 61.453570 0
M  V30 10 N 38.048583 31.591713 55.898330 0 CFG=2 CHG=1
M  V30 11 C 39.887784 29.448419 50.137251 0
M  V30 12 C 41.028144 30.010660 50.982030 0
M  V30 13 C 40.504948 33.146600 62.694256 0
M  V30 14 C 37.106537 34.411203 60.810522 0
M  V30 15 C 39.442485 25.775052 57.608331 0
M  V30 16 C 41.225525 35.090943 63.979058 0
M  V30 17 C 38.217941 30.668963 61.370720 0
M  V30 18 C 38.490884 28.147007 51.608372 0
M  V30 19 C 38.866878 32.089692 57.029472 0
M  V30 20 C 37.628761 29.486833 54.497258 0
M  V30 21 C 37.487086 32.020070 61.499793 0 CFG=1
M  V30 22 C 38.478853 30.402242 58.837415 0
M  V30 23 C 39.863804 27.453174 55.897294 0
M  V30 24 C 41.103771 33.692460 63.845559 0
M  V30 25 C 38.159873 25.547680 57.075883 0
M  V30 26 C 37.363026 32.657772 59.035421 0
M  V30 27 C 41.618280 32.775241 64.939454 0
M  V30 28 C 38.571779 27.237978 55.362593 0
M  V30 29 C 38.092847 28.040556 54.148713 0 CFG=2
M  V30 30 C 38.253442 31.635672 58.337644 0
M  V30 31 C 38.589182 30.305930 55.377160 0
M  V30 32 C 40.292416 26.724856 57.018782 0
M  V30 33 C 39.121485 28.010950 52.999195 0
M  V30 34 O 39.477073 28.162075 50.589082 0
M  V30 35 C 40.143350 35.394237 61.810964 0
M  V30 36 O 41.810239 35.621457 65.091442 0
M  V30 37 H 36.798446 29.750871 59.974724 0
M  V30 38 H 38.267300 28.857091 60.235917 0
M  V30 39 H 36.736477 26.102955 55.550030 0
M  V30 40 H 38.767700 32.727105 54.255633 0
M  V30 41 H 37.057617 32.287153 54.213929 0
M  V30 42 H 37.585410 33.576577 55.269060 0
M  V30 43 H 39.606417 34.075483 59.591276 0
M  V30 44 H 39.950567 32.498310 60.199463 0
M  V30 45 H 40.838142 37.012609 63.061930 0
M  V30 46 H 35.856670 31.577033 60.555379 0
M  V30 47 H 40.242691 29.323192 49.114198 0
M  V30 48 H 39.067496 30.163413 50.097442 0
M  V30 49 H 41.544287 30.815985 50.458309 0
M  V30 50 H 40.667334 30.419084 51.924383 0
M  V30 51 H 41.746631 29.221489 51.197757 0
M  V30 52 H 40.420317 32.078819 62.593661 0
M  V30 53 H 36.024954 34.297496 60.730864 0
M  V30 54 H 37.319437 34.729317 61.831308 0
M  V30 55 H 37.391655 35.228675 60.147548 0
M  V30 56 H 39.775536 25.221432 58.468451 0
M  V30 57 H 37.974475 30.070494 62.248535 0
M  V30 58 H 39.296610 30.777667 61.416842 0
M  V30 59 H 37.867535 27.272791 51.428705 0
M  V30 60 H 37.835169 29.011643 51.543056 0
M  V30 61 H 38.980724 33.174906 57.023073 0
M  V30 62 H 39.867395 31.689495 56.941801 0
M  V30 63 H 36.667407 29.436847 55.006760 0
M  V30 64 H 37.467301 30.028912 53.571055 0
M  V30 65 H 37.700427 32.412657 62.494757 0
M  V30 66 H 39.121299 29.721720 58.301612 0
M  V30 67 H 40.520990 28.183465 55.453524 0
M  V30 68 H 36.342362 32.277870 59.053170 0
M  V30 69 H 37.293848 33.538514 58.395401 0
M  V30 70 H 41.438415 31.727066 64.700889 0
M  V30 71 H 42.689998 32.914901 65.076871 0
M  V30 72 H 41.120288 32.997987 65.883508 0
M  V30 73 H 37.211873 27.514821 53.775083 0
M  V30 74 H 39.532004 30.481080 54.856229 0
M  V30 75 H 38.822460 29.706679 56.244482 0
M  V30 76 H 41.278162 26.894172 57.428236 0
M  V30 77 H 39.867036 28.784398 53.155348 0
M  V30 78 H 39.656387 27.059656 53.010797 0
M  V30 79 H 39.778708 36.047262 61.032194 0
M  V30 80 H 41.869316 36.572369 65.053489 0
M  V30 81 H 37.117789 31.437154 56.280641 0
M  V30 END ATOM
M  V30 BEGIN BOND
M  V30 1 1 5 4
M  V30 2 1 8 4 CFG=3
M  V30 3 1 10 3
M  V30 4 1 12 11
M  V30 5 2 13 5
M  V30 6 1 14 8
M  V30 7 1 16 7
M  V30 8 1 17 1
M  V30 9 1 19 10
M  V30 10 1 21 8
M  V30 11 1 21 9
M  V30 12 1 21 17
M  V30 13 1 22 1
M  V30 14 1 24 13
M  V30 15 2 24 16
M  V30 16 2 25 2
M  V30 17 1 25 6
M  V30 18 1 25 15
M  V30 19 1 26 8
M  V30 20 1 27 24
M  V30 21 1 28 2
M  V30 22 2 28 23
M  V30 23 1 29 20
M  V30 24 1 29 28
M  V30 25 1 30 19
M  V30 26 2 30 22
M  V30 27 1 30 26
M  V30 28 1 31 10
M  V30 29 1 31 20
M  V30 30 2 32 15
M  V30 31 1 32 23
M  V30 32 1 33 18
M  V30 33 1 33 29
M  V30 34 1 34 11
M  V30 35 1 34 18
M  V30 36 1 35 5
M  V30 37 2 35 7
M  V30 38 1 36 16
M  V30 39 1 37 1
M  V30 40 1 38 1
M  V30 41 1 39 2
M  V30 42 1 40 3
M  V30 43 1 41 3
M  V30 44 1 42 3
M  V30 45 1 43 4
M  V30 46 1 44 4
M  V30 47 1 45 7
M  V30 48 1 46 9
M  V30 49 1 47 11
M  V30 50 1 48 11
M  V30 51 1 49 12
M  V30 52 1 50 12
M  V30 53 1 51 12
M  V30 54 1 52 13
M  V30 55 1 53 14
M  V30 56 1 54 14
M  V30 57 1 55 14
M  V30 58 1 56 15
M  V30 59 1 57 17
M  V30 60 1 58 17
M  V30 61 1 59 18
M  V30 62 1 60 18
M  V30 63 1 61 19
M  V30 64 1 62 19
M  V30 65 1 63 20
M  V30 66 1 64 20
M  V30 67 1 21 65 CFG=1
M  V30 68 1 66 22
M  V30 69 1 67 23
M  V30 70 1 68 26
M  V30 71 1 69 26
M  V30 72 1 70 27
M  V30 73 1 71 27
M  V30 74 1 72 27
M  V30 75 1 29 73 CFG=3
M  V30 76 1 74 31
M  V30 77 1 75 31
M  V30 78 1 76 32
M  V30 79 1 77 33
M  V30 80 1 78 33
M  V30 81 1 79 35
M  V30 82 1 80 36
M  V30 83 1 10 81 CFG=1
M  V30 END BOND
M  V30 END CTAB
M  END
>  <i_epik_Tot_Q>  (1) 
1

>  <i_epik_Tot_abs_Q>  (1) 
1

>  <i_i_glide_confnum>  (1) 
2792

>  <i_i_glide_lignum>  (1) 
92

>  <i_i_glide_posenum>  (1) 
151

>  <i_i_glide_rotatable_bonds>  (1) 
14

>  <i_lp_mmshare_version>  (1) 
72125

>  <i_m_source_file_index>  (1) 
39

>  <i_f3d_flags>  (1) 
0

>  <num_sample>  (1) 
100

>  <b_lp_Chiralities_Consistent>  (1) 
1

>  <r_epik_Charging_Adjusted_Penalty>  (1) 
0.028990441090162262

>  <r_epik_Ionization_Penalty>  (1) 
0.014915146811677001

>  <r_epik_Ionization_Penalty_Charging>  (1) 
0.014495220545081134

>  <r_epik_Ionization_Penalty_Neutral>  (1) 
0.00041992626659586555

>  <r_epik_State_Penalty>  (1) 
0.014495220545081127

>  <r_glide_ring_energy>  (1) 
0

>  <r_i_docking_score>  (1) 
-10.835619771819983

>  <r_i_glide_ecoul>  (1) 
-10.805145552051574

>  <r_i_glide_eff_state_penalty>  (1) 
0.014495220545081127

>  <r_i_glide_einternal>  (1) 
9.9894376109666307

>  <r_i_glide_emodel>  (1) 
-104.25295652415916

>  <r_i_glide_emodel_strain>  (1) 
0.52084291700199969

>  <r_i_glide_energy>  (1) 
-63.439298029535536

>  <r_i_glide_erotb>  (1) 
0.82055052293910336

>  <r_i_glide_esite>  (1) 
-0.10000000000000001

>  <r_i_glide_evdw>  (1) 
-52.634152477483958

>  <r_i_glide_gscore>  (1) 
-10.850114992365064

>  <r_i_glide_gscore_strain>  (1) 
0

>  <r_i_glide_hbond>  (1) 
-0.80800000000000005

>  <r_i_glide_ligand_efficiency>  (1) 
-0.30098943810611067

>  <r_i_glide_ligand_efficiency_ln>  (1) 
-2.3640394895956951

>  <r_i_glide_ligand_efficiency_sa>  (1) 
-0.99384522731204961

>  <r_i_glide_lipo>  (1) 
-5.2605344527142099

>  <r_i_glide_metal>  (1) 
-0

>  <r_i_glide_rewards>  (1) 
-1.249651605908022

>  <r_lp_Energy>  (1) 
36.023807999999995

>  <r_lp_tautomer_probability>  (1) 
0.99999999999736477

>  <s_epik_cmdline>  (1) 
J2VwaWtfcHl0aG9uJywgJy1waHQnLCAnMS4wJywgJy1waCcsICc3LjQnLCAnLXRuJywgJzgnLCAnLW1hJywgJzUwMCcsICctaW1hZScsICc8aW5maWxlLm1hZT4nLCAnLW9tYWUnLCAnPG91dGZpbGUubWFlPic=

>  <s_epik_input>  (1) 
W2NIXTFbY0hdYyhbT0hdKWMoW0NIM10pW2NIXWMxW0NIMl1bQ0BdMihbQ0gzXSlbQ0BASF0oW09IXSlbQ0gyXVtDSDJdW0NIXT1DKFtDSDJdMilbQ0gyXU4oW0NIM10pW0NIMl1bQ0gyXVtDQEhdKGMoW2NIXWMzRilbY0hdW2NIXVtjSF0zKVtDSDJdW0NIMl1PW0NIMl1bQ0gzXQ==

>  <s_glide_docking_method>  (1) 
confgen

>  <s_i_glide_gridfile>  (1) 
gpcr_5ht2c_6bqh_protein_autoprepared_prepared

>  <s_lp_Force_Field>  (1) 
S-OPLS

>  <s_lp_Variant>  (1) 
DiffSBDD_38_num_sample_100-1

>  <s_m_source_file>  (1) 
generated__ligand_DiffSBDD_2026-05-06_prepared.sdf

>  <GenAI_Model>  (1) 
DiffSBDD

>  <Protein>  (1) 
GPCR_5HT2C

$$$$
DiffSBDD_38_num_sample_100
     RDKit          3D

  0  0  0  0  0  0  0  0  0  0999 V3000
M  V30 BEGIN CTAB
M  V30 COUNTS 81 83 0 0 1
M  V30 BEGIN ATOM
M  V30 1 C 38.766154 30.152483 61.241295 0
M  V30 2 C 37.428632 25.849941 55.306234 0
M  V30 3 C 38.042495 28.711004 57.288054 0
M  V30 4 C 38.949503 33.661164 59.973476 0
M  V30 5 C 39.661657 34.197600 61.208711 0
M  V30 6 F 37.139658 24.020074 56.808502 0
M  V30 7 C 41.467406 34.016510 62.838292 0
M  V30 8 C 37.578033 32.921394 60.129048 0 CFG=2
M  V30 9 O 36.062885 31.621456 61.453511 0
M  V30 10 N 38.232762 30.031520 56.631296 0 CFG=1 CHG=1
M  V30 11 C 39.836303 29.552201 50.125523 0
M  V30 12 C 41.015916 30.481268 50.410065 0
M  V30 13 C 39.185926 35.352417 61.860755 0
M  V30 14 C 36.462865 33.967256 59.850996 0
M  V30 15 C 39.301780 25.005631 56.603384 0
M  V30 16 C 41.000246 35.164895 63.493064 0
M  V30 17 C 38.369904 31.357811 62.088479 0
M  V30 18 C 39.672268 28.172923 52.076290 0
M  V30 19 C 39.166188 30.878437 57.406529 0
M  V30 20 C 37.556271 29.326853 54.293089 0
M  V30 21 C 37.302405 32.309143 61.520951 0 CFG=1
M  V30 22 C 39.255407 30.237058 59.818029 0
M  V30 23 C 39.622600 26.875730 55.080572 0
M  V30 24 C 39.854997 35.840983 63.005372 0
M  V30 25 C 37.948115 24.944138 56.244411 0
M  V30 26 C 37.447820 31.824658 59.041526 0
M  V30 27 C 39.338987 37.082478 63.709906 0
M  V30 28 C 38.263362 26.831311 54.723700 0
M  V30 29 C 37.678783 27.865305 53.743711 0 CFG=2
M  V30 30 C 38.667401 30.947947 58.830218 0
M  V30 31 C 38.637037 29.949887 55.204367 0
M  V30 32 C 40.136723 25.970703 56.018053 0
M  V30 33 C 38.201274 27.809762 52.286455 0
M  V30 34 O 40.001271 28.265804 50.699943 0
M  V30 35 C 40.810116 33.538562 61.697332 0
M  V30 36 O 41.657400 35.621433 64.597342 0
M  V30 37 H 37.867405 29.621427 61.053440 0
M  V30 38 H 39.422217 29.490591 61.808440 0
M  V30 39 H 36.389958 25.801441 55.053518 0
M  V30 40 H 38.997550 28.229307 57.502490 0
M  V30 41 H 37.479143 28.785751 58.218126 0
M  V30 42 H 37.467408 28.043129 56.681697 0
M  V30 43 H 38.828538 34.421434 59.226905 0
M  V30 44 H 39.699996 33.034523 59.506733 0
M  V30 45 H 42.341033 33.502459 63.211316 0
M  V30 46 H 35.440474 32.196517 61.031977 0
M  V30 47 H 39.749685 29.420870 49.048768 0
M  V30 48 H 38.916486 30.015493 50.471413 0
M  V30 49 H 40.916065 31.399633 49.833690 0
M  V30 50 H 41.067478 30.762051 51.458996 0
M  V30 51 H 41.959836 30.021440 50.135553 0
M  V30 52 H 38.310768 35.862307 61.486690 0
M  V30 53 H 35.468701 33.520570 59.824448 0
M  V30 54 H 36.447600 34.750638 60.608108 0
M  V30 55 H 36.595416 34.454584 58.883722 0
M  V30 56 H 39.702240 24.311716 57.328245 0
M  V30 57 H 37.976402 30.948663 63.018305 0
M  V30 58 H 39.253930 31.868576 62.429192 0
M  V30 59 H 39.932623 29.083652 52.615481 0
M  V30 60 H 40.267399 27.354189 52.472227 0
M  V30 61 H 39.252452 31.880590 56.982950 0
M  V30 62 H 40.153074 30.418084 57.377071 0
M  V30 63 H 36.607313 29.435102 54.809489 0
M  V30 64 H 37.467408 30.003084 53.453446 0
M  V30 65 H 37.172473 33.117196 62.241617 0
M  V30 66 H 40.113503 29.623950 59.581517 0
M  V30 67 H 40.267366 27.610762 54.653569 0
M  V30 68 H 36.565220 31.191670 59.133748 0
M  V30 69 H 37.285734 32.348031 58.099848 0
M  V30 70 H 38.280448 37.225780 63.492769 0
M  V30 71 H 39.442556 37.004078 64.792083 0
M  V30 72 H 39.879515 37.965997 63.372325 0
M  V30 73 H 36.641752 27.557025 53.618331 0
M  V30 74 H 38.765435 30.980953 54.868953 0
M  V30 75 H 39.621769 29.511599 55.085397 0
M  V30 76 H 41.171618 26.022067 56.293062 0
M  V30 77 H 38.028706 26.821432 51.869997 0
M  V30 78 H 37.585166 28.470540 51.678131 0
M  V30 79 H 41.180224 32.655684 61.197179 0
M  V30 80 H 41.594429 36.565374 64.711428 0
M  V30 81 H 37.333072 30.501774 56.653650 0
M  V30 END ATOM
M  V30 BEGIN BOND
M  V30 1 1 5 4
M  V30 2 1 8 4 CFG=1
M  V30 3 1 10 3
M  V30 4 1 12 11
M  V30 5 2 13 5
M  V30 6 1 14 8
M  V30 7 1 16 7
M  V30 8 1 17 1
M  V30 9 1 19 10
M  V30 10 1 21 8
M  V30 11 1 21 9
M  V30 12 1 21 17
M  V30 13 1 22 1
M  V30 14 1 24 13
M  V30 15 2 24 16
M  V30 16 2 25 2
M  V30 17 1 25 6
M  V30 18 1 25 15
M  V30 19 1 26 8
M  V30 20 1 27 24
M  V30 21 1 28 2
M  V30 22 2 28 23
M  V30 23 1 29 20
M  V30 24 1 29 28
M  V30 25 1 30 19
M  V30 26 2 30 22
M  V30 27 1 30 26
M  V30 28 1 31 10
M  V30 29 1 31 20
M  V30 30 2 32 15
M  V30 31 1 32 23
M  V30 32 1 33 18
M  V30 33 1 33 29
M  V30 34 1 34 11
M  V30 35 1 34 18
M  V30 36 1 35 5
M  V30 37 2 35 7
M  V30 38 1 36 16
M  V30 39 1 37 1
M  V30 40 1 38 1
M  V30 41 1 39 2
M  V30 42 1 40 3
M  V30 43 1 41 3
M  V30 44 1 42 3
M  V30 45 1 43 4
M  V30 46 1 44 4
M  V30 47 1 45 7
M  V30 48 1 46 9
M  V30 49 1 47 11
M  V30 50 1 48 11
M  V30 51 1 49 12
M  V30 52 1 50 12
M  V30 53 1 51 12
M  V30 54 1 52 13
M  V30 55 1 53 14
M  V30 56 1 54 14
M  V30 57 1 55 14
M  V30 58 1 56 15
M  V30 59 1 57 17
M  V30 60 1 58 17
M  V30 61 1 59 18
M  V30 62 1 60 18
M  V30 63 1 61 19
M  V30 64 1 62 19
M  V30 65 1 63 20
M  V30 66 1 64 20
M  V30 67 1 21 65 CFG=1
M  V30 68 1 66 22
M  V30 69 1 67 23
M  V30 70 1 68 26
M  V30 71 1 69 26
M  V30 72 1 70 27
M  V30 73 1 71 27
M  V30 74 1 72 27
M  V30 75 1 29 73 CFG=3
M  V30 76 1 74 31
M  V30 77 1 75 31
M  V30 78 1 76 32
M  V30 79 1 77 33
M  V30 80 1 78 33
M  V30 81 1 79 35
M  V30 82 1 80 36
M  V30 83 1 10 81 CFG=3
M  V30 END BOND
M  V30 END CTAB
M  END
>  <i_epik_Tot_Q>  (1) 
1

>  <i_epik_Tot_abs_Q>  (1) 
1

>  <i_i_glide_confnum>  (1) 
1493

>  <i_i_glide_lignum>  (1) 
93

>  <i_i_glide_posenum>  (1) 
336

>  <i_i_glide_rotatable_bonds>  (1) 
14

>  <i_lp_mmshare_version>  (1) 
72125

>  <i_m_source_file_index>  (1) 
39

>  <i_f3d_flags>  (1) 
0

>  <num_sample>  (1) 
100

>  <b_lp_Chiralities_Consistent>  (1) 
1

>  <r_epik_Charging_Adjusted_Penalty>  (1) 
0.028990441090162262

>  <r_epik_Ionization_Penalty>  (1) 
0.014915146811677001

>  <r_epik_Ionization_Penalty_Charging>  (1) 
0.014495220545081134

>  <r_epik_Ionization_Penalty_Neutral>  (1) 
0.00041992626659586555

>  <r_epik_State_Penalty>  (1) 
0.014495220545081127

>  <r_glide_ring_energy>  (1) 
0

>  <r_i_docking_score>  (1) 
-10.011533334476235

>  <r_i_glide_ecoul>  (1) 
-9.794655219613702

>  <r_i_glide_eff_state_penalty>  (1) 
0.014495220545081127

>  <r_i_glide_einternal>  (1) 
9.7984319729952798

>  <r_i_glide_emodel>  (1) 
-75.662995494599727

>  <r_i_glide_emodel_strain>  (1) 
2.1512520397411095

>  <r_i_glide_energy>  (1) 
-52.029547723193055

>  <r_i_glide_erotb>  (1) 
0.82055052293910336

>  <r_i_glide_esite>  (1) 
-0.048032184113249742

>  <r_i_glide_evdw>  (1) 
-42.234892503579353

>  <r_i_glide_gscore>  (1) 
-10.026028555021316

>  <r_i_glide_gscore_strain>  (1) 
0

>  <r_i_glide_hbond>  (1) 
-0.62337467244387312

>  <r_i_glide_ligand_efficiency>  (1) 
-0.27809814817989542

>  <r_i_glide_ligand_efficiency_ln>  (1) 
-2.1842460932098757

>  <r_i_glide_ligand_efficiency_sa>  (1) 
-0.91825985334233251

>  <r_i_glide_lipo>  (1) 
-5.3799310701184426

>  <r_i_glide_metal>  (1) 
-0

>  <r_i_glide_rewards>  (1) 
-1.2142982431638296

>  <r_lp_Energy>  (1) 
37.150380999999996

>  <r_lp_tautomer_probability>  (1) 
0.99999999999736477

>  <s_epik_cmdline>  (1) 
J2VwaWtfcHl0aG9uJywgJy1waHQnLCAnMS4wJywgJy1waCcsICc3LjQnLCAnLXRuJywgJzgnLCAnLW1hJywgJzUwMCcsICctaW1hZScsICc8aW5maWxlLm1hZT4nLCAnLW9tYWUnLCAnPG91dGZpbGUubWFlPic=

>  <s_epik_input>  (1) 
W2NIXTFbY0hdYyhbT0hdKWMoW0NIM10pW2NIXWMxW0NIMl1bQ0BdMihbQ0gzXSlbQ0BASF0oW09IXSlbQ0gyXVtDSDJdW0NIXT1DKFtDSDJdMilbQ0gyXU4oW0NIM10pW0NIMl1bQ0gyXVtDQEhdKGMoW2NIXWMzRilbY0hdW2NIXVtjSF0zKVtDSDJdW0NIMl1PW0NIMl1bQ0gzXQ==

>  <s_glide_docking_method>  (1) 
confgen

>  <s_i_glide_gridfile>  (1) 
gpcr_5ht2c_6bqh_protein_autoprepared_prepared

>  <s_lp_Force_Field>  (1) 
S-OPLS

>  <s_lp_Variant>  (1) 
DiffSBDD_38_num_sample_100-2

>  <s_m_source_file>  (1) 
generated__ligand_DiffSBDD_2026-05-06_prepared.sdf

>  <GenAI_Model>  (1) 
DiffSBDD

>  <Protein>  (1) 
GPCR_5HT2C

$$$$
DiffSBDD_69_num_sample_100
     RDKit          3D

  0  0  0  0  0  0  0  0  0  0999 V3000
M  V30 BEGIN CTAB
M  V30 COUNTS 67 72 0 0 1
M  V30 BEGIN ATOM
M  V30 1 C 36.809998 35.143996 59.876361 0
M  V30 2 C 39.171594 28.932571 50.492952 0 CFG=1
M  V30 3 C 38.516844 27.540447 58.017696 0
M  V30 4 C 39.561665 27.694976 51.264793 0 CFG=1
M  V30 5 C 39.937428 28.116206 59.911313 0
M  V30 6 C 41.488307 35.196913 63.789798 0
M  V30 7 C 38.025557 26.512041 57.019001 0
M  V30 8 C 40.236294 32.600526 61.214667 0
M  V30 9 N 38.990458 26.230094 55.967763 0
M  V30 10 C 39.654482 26.723972 53.669146 0
M  V30 11 C 38.472533 29.808628 58.936970 0
M  V30 12 O 37.635991 27.481514 54.428632 0
M  V30 13 C 41.639838 34.693344 65.225100 0
M  V30 14 C 37.934888 31.239568 58.917252 0 CFG=1
M  V30 15 C 39.480518 27.176116 58.973515 0
M  V30 16 C 36.667389 36.533099 59.692308 0
M  V30 17 O 40.267406 29.600738 49.848659 0
M  V30 18 C 37.561435 34.655292 60.965199 0
M  V30 19 C 40.550416 28.816910 51.020482 0 CFG=1
M  V30 20 C 37.724721 33.150095 61.182393 0 CFG=1
M  V30 21 C 39.434646 29.426837 59.897354 0
M  V30 22 N 41.793066 35.621429 66.165425 0
M  V30 23 C 36.564232 32.299318 60.711119 0
M  V30 24 C 38.026335 36.947157 61.664478 0
M  V30 25 C 39.014482 27.442652 52.641464 0
M  V30 26 O 41.616711 33.491533 65.475852 0
M  V30 27 C 37.273959 37.431930 60.586539 0
M  V30 28 C 36.663063 31.433881 59.702184 0
M  V30 29 O 35.937767 37.009933 58.653509 0
M  V30 30 C 39.043637 32.639642 60.579972 0
M  V30 31 C 41.581959 34.126331 62.683456 0
M  V30 32 C 38.010385 28.860567 57.994530 0
M  V30 33 O 38.940929 32.205087 59.272545 0
M  V30 34 C 38.170147 35.565027 61.853509 0
M  V30 35 C 40.482013 33.051601 62.646803 0
M  V30 36 C 38.786361 26.787478 54.710155 0
M  V30 37 C 37.808895 27.878818 53.119117 0
M  V30 38 H 36.341707 34.456312 59.186282 0
M  V30 39 H 38.519601 29.621429 51.019654 0
M  V30 40 H 39.683351 26.776574 50.696427 0
M  V30 41 H 40.675698 27.830298 60.646247 0
M  V30 42 H 42.268306 35.939812 63.616214 0
M  V30 43 H 40.550228 35.743419 63.719032 0
M  V30 44 H 37.833725 25.581685 57.553803 0
M  V30 45 H 37.067365 26.821464 56.612539 0
M  V30 46 H 41.097308 32.223085 60.684831 0
M  V30 47 H 39.843235 25.754774 56.225081 0
M  V30 48 H 40.617922 26.236828 53.655000 0
M  V30 49 H 37.682254 31.467343 57.881272 0
M  V30 50 H 39.867405 26.168037 58.990126 0
M  V30 51 H 40.796354 29.432321 51.880890 0
M  V30 52 H 37.734247 32.966002 62.253505 0
M  V30 53 H 39.788118 30.137430 60.621293 0
M  V30 54 H 41.812539 36.602655 65.908093 0
M  V30 55 H 41.892438 35.346517 67.130530 0
M  V30 56 H 35.627137 32.412301 61.236387 0
M  V30 57 H 38.493809 37.634819 62.350423 0
M  V30 58 H 37.160670 38.496049 60.442450 0
M  V30 59 H 35.806809 30.847226 59.402935 0
M  V30 60 H 35.867434 36.420839 57.903082 0
M  V30 61 H 42.544788 33.620566 62.749896 0
M  V30 62 H 41.586027 34.660035 61.731882 0
M  V30 63 H 37.271799 29.145032 57.258199 0
M  V30 64 H 38.741025 35.203301 62.684311 0
M  V30 65 H 39.586145 33.389320 63.152354 0
M  V30 66 H 40.808910 32.182547 63.219762 0
M  V30 67 H 36.997178 28.453526 52.698912 0
M  V30 END ATOM
M  V30 BEGIN BOND
M  V30 1 1 4 2
M  V30 2 1 7 3
M  V30 3 1 9 7
M  V30 4 1 13 6
M  V30 5 1 14 11
M  V30 6 1 15 3
M  V30 7 2 15 5
M  V30 8 2 16 1
M  V30 9 1 17 2
M  V30 10 1 18 1
M  V30 11 1 19 2
M  V30 12 1 19 4
M  V30 13 1 19 17
M  V30 14 1 20 18
M  V30 15 1 21 5
M  V30 16 2 21 11
M  V30 17 1 22 13
M  V30 18 1 23 20
M  V30 19 1 25 4
M  V30 20 1 25 10
M  V30 21 2 26 13
M  V30 22 1 27 16
M  V30 23 2 27 24
M  V30 24 1 28 14
M  V30 25 2 28 23
M  V30 26 1 29 16
M  V30 27 2 30 8
M  V30 28 1 30 20
M  V30 29 1 31 6
M  V30 30 2 32 3
M  V30 31 1 32 11
M  V30 32 1 33 14
M  V30 33 1 33 30
M  V30 34 2 34 18
M  V30 35 1 34 24
M  V30 36 1 35 8
M  V30 37 1 35 31
M  V30 38 1 36 9
M  V30 39 2 36 10
M  V30 40 1 36 12
M  V30 41 1 37 12
M  V30 42 2 37 25
M  V30 43 1 38 1
M  V30 44 1 2 39 CFG=1
M  V30 45 1 4 40 CFG=3
M  V30 46 1 41 5
M  V30 47 1 42 6
M  V30 48 1 43 6
M  V30 49 1 44 7
M  V30 50 1 45 7
M  V30 51 1 46 8
M  V30 52 1 47 9
M  V30 53 1 48 10
M  V30 54 1 14 49 CFG=3
M  V30 55 1 50 15
M  V30 56 1 19 51 CFG=1
M  V30 57 1 20 52 CFG=1
M  V30 58 1 53 21
M  V30 59 1 54 22
M  V30 60 1 55 22
M  V30 61 1 56 23
M  V30 62 1 57 24
M  V30 63 1 58 27
M  V30 64 1 59 28
M  V30 65 1 60 29
M  V30 66 1 61 31
M  V30 67 1 62 31
M  V30 68 1 63 32
M  V30 69 1 64 34
M  V30 70 1 65 35
M  V30 71 1 66 35
M  V30 72 1 67 37
M  V30 END BOND
M  V30 END CTAB
M  END
>  <i_epik_Tot_Q>  (1) 
0

>  <i_epik_Tot_abs_Q>  (1) 
0

>  <i_i_glide_confnum>  (1) 
302

>  <i_i_glide_lignum>  (1) 
178

>  <i_i_glide_posenum>  (1) 
339

>  <i_i_glide_rotatable_bonds>  (1) 
11

>  <i_lp_mmshare_version>  (1) 
72125

>  <i_m_source_file_index>  (1) 
70

>  <i_f3d_flags>  (1) 
0

>  <num_sample>  (1) 
100

>  <b_lp_Chiralities_Consistent>  (1) 
1

>  <r_epik_Charging_Adjusted_Penalty>  (1) 
0

>  <r_epik_Ionization_Penalty>  (1) 
0.0027858750297933624

>  <r_epik_Ionization_Penalty_Charging>  (1) 
0

>  <r_epik_Ionization_Penalty_Neutral>  (1) 
0.0027858750297933624

>  <r_epik_State_Penalty>  (1) 
-0

>  <r_glide_ring_energy>  (1) 
1.6699314456563878

>  <r_i_docking_score>  (1) 
-9.889725772685992

>  <r_i_glide_ecoul>  (1) 
-11.241525115198771

>  <r_i_glide_eff_state_penalty>  (1) 
-0

>  <r_i_glide_einternal>  (1) 
6.9363962484993023

>  <r_i_glide_emodel>  (1) 
-77.336903565309996

>  <r_i_glide_emodel_strain>  (1) 
1.5542485109358424

>  <r_i_glide_energy>  (1) 
-53.504271222286413

>  <r_i_glide_erotb>  (1) 
0.7388310729384443

>  <r_i_glide_esite>  (1) 
-0.00858698297739857

>  <r_i_glide_evdw>  (1) 
-42.262746107087644

>  <r_i_glide_gscore>  (1) 
-9.889725772685992

>  <r_i_glide_gscore_strain>  (1) 
0

>  <r_i_glide_hbond>  (1) 
-0.65877625015514374

>  <r_i_glide_ligand_efficiency>  (1) 
-0.26728988574827006

>  <r_i_glide_ligand_efficiency_ln>  (1) 
-2.1448496720286503

>  <r_i_glide_ligand_efficiency_sa>  (1) 
-0.89066919801433586

>  <r_i_glide_lipo>  (1) 
-4.9928279709644041

>  <r_i_glide_metal>  (1) 
-0

>  <r_i_glide_rewards>  (1) 
-1.1689995688932913

>  <r_lp_Energy>  (1) 
41.231663999999995

>  <r_lp_tautomer_probability>  (1) 
1

>  <s_epik_cmdline>  (1) 
J2VwaWtfcHl0aG9uJywgJy1waHQnLCAnMS4wJywgJy1waCcsICc3LjQnLCAnLXRuJywgJzgnLCAnLW1hJywgJzUwMCcsICctaW1hZScsICc8aW5maWxlLm1hZT4nLCAnLW9tYWUnLCAnPG91dGZpbGUubWFlPic=

>  <s_epik_input>  (1) 
W05IMl1DKD1PKVtDSDJdW0NIMl1bQ0gyXS9bQ0hdPUMoTzEpXFtDQEBIXShjKFtjSF1jMltPSF0pW2NIXVtjSF1bY0hdMilbQ0hdPVtDSF1bQ0BASF0xYyhbY0hdMylbY0hdW2NIXVtjSF1jM1tDSDJdW05IXWMob1tjSF00KVtjSF1jNFtDQEBIXTVbQ0hdKE82KVtDSF01Ng==

>  <s_glide_docking_method>  (1) 
confgen

>  <s_i_glide_gridfile>  (1) 
gpcr_5ht2c_6bqh_protein_autoprepared_prepared

>  <s_lp_Force_Field>  (1) 
S-OPLS

>  <s_lp_Variant>  (1) 
DiffSBDD_69_num_sample_100-2

>  <s_m_source_file>  (1) 
generated__ligand_DiffSBDD_2026-05-06_prepared.sdf

>  <GenAI_Model>  (1) 
DiffSBDD

>  <Protein>  (1) 
GPCR_5HT2C

$$$$
DiffSBDD_38_num_sample_100
     RDKit          3D

  0  0  0  0  0  0  0  0  0  0999 V3000
M  V30 BEGIN CTAB
M  V30 COUNTS 81 83 0 0 1
M  V30 BEGIN ATOM
M  V30 1 C 38.141092 29.671251 60.173876 0
M  V30 2 C 37.807932 26.026812 56.006355 0
M  V30 3 C 37.867403 32.656483 55.284177 0
M  V30 4 C 39.411171 33.465570 60.175186 0
M  V30 5 C 39.977865 34.034774 61.468216 0
M  V30 6 F 37.839087 24.242276 57.597858 0
M  V30 7 C 41.452873 33.824610 63.403785 0
M  V30 8 C 37.950250 32.921898 60.168189 0 CFG=2
M  V30 9 O 36.304364 31.621429 61.453497 0
M  V30 10 N 38.559292 31.417944 55.676762 0 CFG=1 CHG=1
M  V30 11 C 39.309181 28.978247 50.857264 0
M  V30 12 C 40.093642 30.262530 50.575013 0
M  V30 13 C 39.589416 35.316707 61.904847 0
M  V30 14 C 36.983932 34.125081 60.320062 0
M  V30 15 C 39.730853 25.698862 57.468489 0
M  V30 16 C 41.067412 35.106090 63.840180 0
M  V30 17 C 38.473692 30.613184 61.341105 0
M  V30 18 C 39.282631 27.096581 52.338197 0
M  V30 19 C 39.336474 31.547597 56.934911 0
M  V30 20 C 38.060550 29.433212 54.261816 0
M  V30 21 C 37.681997 31.936152 61.350554 0 CFG=1
M  V30 22 C 38.815769 30.059977 58.886755 0
M  V30 23 C 39.733254 27.524149 55.854663 0
M  V30 24 C 40.126780 35.853483 63.090681 0
M  V30 25 C 38.451366 25.308459 57.031657 0
M  V30 26 C 37.648821 32.293620 58.768120 0
M  V30 27 C 39.689673 37.228706 63.555717 0
M  V30 28 C 38.445461 27.138995 55.414422 0
M  V30 29 C 37.738683 27.919559 54.303755 0 CFG=2
M  V30 30 C 38.608746 31.222185 58.241046 0
M  V30 31 C 37.731601 30.188548 55.561390 0
M  V30 32 C 40.370075 26.805809 56.880742 0
M  V30 33 C 37.865342 27.221793 52.936125 0
M  V30 34 O 39.867400 28.345155 51.993579 0
M  V30 35 C 40.910232 33.288621 62.220907 0
M  V30 36 O 41.607032 35.621430 64.983946 0
M  V30 37 H 37.067104 29.596715 60.001978 0
M  V30 38 H 38.491465 28.666257 60.411647 0
M  V30 39 H 36.824837 25.725962 55.673824 0
M  V30 40 H 37.075489 32.861296 55.995004 0
M  V30 41 H 38.546018 33.509370 55.276038 0
M  V30 42 H 37.435151 32.561590 54.288337 0
M  V30 43 H 39.522861 34.235931 59.418094 0
M  V30 44 H 40.086103 32.676711 59.875569 0
M  V30 45 H 42.170088 33.253614 63.975233 0
M  V30 46 H 35.996341 31.370605 60.594389 0
M  V30 47 H 39.344231 28.317689 49.990470 0
M  V30 48 H 38.267404 29.221437 51.053497 0
M  V30 49 H 39.694861 30.778339 49.701086 0
M  V30 50 H 40.040277 30.950498 51.419240 0
M  V30 51 H 41.145679 30.047255 50.385498 0
M  V30 52 H 38.879711 35.891205 61.328379 0
M  V30 53 H 35.951076 33.843025 60.111115 0
M  V30 54 H 36.996829 34.531793 61.331083 0
M  V30 55 H 37.231905 34.933886 59.631914 0
M  V30 56 H 40.224137 25.148170 58.253502 0
M  V30 57 H 38.267412 30.087427 62.274948 0
M  V30 58 H 39.544655 30.807399 61.361234 0
M  V30 59 H 39.939051 26.600659 53.053369 0
M  V30 60 H 39.264762 26.453421 51.456782 0
M  V30 61 H 39.809729 32.528646 56.999159 0
M  V30 62 H 40.139438 30.821434 56.826542 0
M  V30 63 H 37.503987 29.898809 53.453494 0
M  V30 64 H 39.109870 29.577328 54.008130 0
M  V30 65 H 37.926484 32.446075 62.282886 0
M  V30 66 H 39.506814 29.338429 58.473910 0
M  V30 67 H 40.231564 28.369078 55.408830 0
M  V30 68 H 36.647071 31.870669 58.749099 0
M  V30 69 H 37.628071 33.109860 58.049172 0
M  V30 70 H 38.638671 37.382964 63.310576 0
M  V30 71 H 39.787406 37.356752 64.633422 0
M  V30 72 H 40.267400 38.003499 63.053498 0
M  V30 73 H 36.676983 27.858648 54.536485 0
M  V30 74 H 37.915922 29.529080 56.404904 0
M  V30 75 H 36.667414 30.421433 55.609157 0
M  V30 76 H 41.353614 27.101310 57.216166 0
M  V30 77 H 37.459786 26.216725 53.053502 0
M  V30 78 H 37.200253 27.711768 52.228570 0
M  V30 79 H 41.214754 32.308714 61.887429 0
M  V30 80 H 41.560810 36.571161 65.028290 0
M  V30 81 H 39.271184 31.310229 54.969015 0
M  V30 END ATOM
M  V30 BEGIN BOND
M  V30 1 1 5 4
M  V30 2 1 8 4 CFG=3
M  V30 3 1 10 3
M  V30 4 1 12 11
M  V30 5 2 13 5
M  V30 6 1 14 8
M  V30 7 1 16 7
M  V30 8 1 17 1
M  V30 9 1 19 10
M  V30 10 1 21 8
M  V30 11 1 21 9
M  V30 12 1 21 17
M  V30 13 1 22 1
M  V30 14 1 24 13
M  V30 15 2 24 16
M  V30 16 2 25 2
M  V30 17 1 25 6
M  V30 18 1 25 15
M  V30 19 1 26 8
M  V30 20 1 27 24
M  V30 21 1 28 2
M  V30 22 2 28 23
M  V30 23 1 29 20
M  V30 24 1 29 28
M  V30 25 1 30 19
M  V30 26 2 30 22
M  V30 27 1 30 26
M  V30 28 1 31 10
M  V30 29 1 31 20
M  V30 30 2 32 15
M  V30 31 1 32 23
M  V30 32 1 33 18
M  V30 33 1 33 29
M  V30 34 1 34 11
M  V30 35 1 34 18
M  V30 36 1 35 5
M  V30 37 2 35 7
M  V30 38 1 36 16
M  V30 39 1 37 1
M  V30 40 1 38 1
M  V30 41 1 39 2
M  V30 42 1 40 3
M  V30 43 1 41 3
M  V30 44 1 42 3
M  V30 45 1 43 4
M  V30 46 1 44 4
M  V30 47 1 45 7
M  V30 48 1 46 9
M  V30 49 1 47 11
M  V30 50 1 48 11
M  V30 51 1 49 12
M  V30 52 1 50 12
M  V30 53 1 51 12
M  V30 54 1 52 13
M  V30 55 1 53 14
M  V30 56 1 54 14
M  V30 57 1 55 14
M  V30 58 1 56 15
M  V30 59 1 57 17
M  V30 60 1 58 17
M  V30 61 1 59 18
M  V30 62 1 60 18
M  V30 63 1 61 19
M  V30 64 1 62 19
M  V30 65 1 63 20
M  V30 66 1 64 20
M  V30 67 1 21 65 CFG=1
M  V30 68 1 66 22
M  V30 69 1 67 23
M  V30 70 1 68 26
M  V30 71 1 69 26
M  V30 72 1 70 27
M  V30 73 1 71 27
M  V30 74 1 72 27
M  V30 75 1 29 73 CFG=1
M  V30 76 1 74 31
M  V30 77 1 75 31
M  V30 78 1 76 32
M  V30 79 1 77 33
M  V30 80 1 78 33
M  V30 81 1 79 35
M  V30 82 1 80 36
M  V30 83 1 10 81 CFG=3
M  V30 END BOND
M  V30 END CTAB
M  END
>  <i_epik_Tot_Q>  (1) 
1

>  <i_epik_Tot_abs_Q>  (1) 
1

>  <i_i_glide_confnum>  (1) 
3146

>  <i_i_glide_lignum>  (1) 
93

>  <i_i_glide_posenum>  (1) 
8

>  <i_i_glide_rotatable_bonds>  (1) 
14

>  <i_lp_mmshare_version>  (1) 
72125

>  <i_m_source_file_index>  (1) 
39

>  <i_f3d_flags>  (1) 
0

>  <num_sample>  (1) 
100

>  <b_lp_Chiralities_Consistent>  (1) 
1

>  <r_epik_Charging_Adjusted_Penalty>  (1) 
0.028990441090162262

>  <r_epik_Ionization_Penalty>  (1) 
0.014915146811677001

>  <r_epik_Ionization_Penalty_Charging>  (1) 
0.014495220545081134

>  <r_epik_Ionization_Penalty_Neutral>  (1) 
0.00041992626659586555

>  <r_epik_State_Penalty>  (1) 
0.014495220545081127

>  <r_glide_ring_energy>  (1) 
0

>  <r_i_docking_score>  (1) 
-9.889532486174005

>  <r_i_glide_ecoul>  (1) 
-9.8056607632541599

>  <r_i_glide_eff_state_penalty>  (1) 
0.014495220545081127

>  <r_i_glide_einternal>  (1) 
9.9558945081232633

>  <r_i_glide_emodel>  (1) 
-82.126633128908622

>  <r_i_glide_emodel_strain>  (1) 
1.921637743481277

>  <r_i_glide_energy>  (1) 
-58.715676864496217

>  <r_i_glide_erotb>  (1) 
0.82055052293910336

>  <r_i_glide_esite>  (1) 
-0.046697432463220168

>  <r_i_glide_evdw>  (1) 
-48.910016101242057

>  <r_i_glide_gscore>  (1) 
-9.9040277067190861

>  <r_i_glide_gscore_strain>  (1) 
0

>  <r_i_glide_hbond>  (1) 
-0.60799999999999998

>  <r_i_glide_ligand_efficiency>  (1) 
-0.27470923572705569

>  <r_i_glide_ligand_efficiency_ln>  (1) 
-2.157628804192341

>  <r_i_glide_ligand_efficiency_sa>  (1) 
-0.90706991097018264

>  <r_i_glide_lipo>  (1) 
-4.9988063860632694

>  <r_i_glide_metal>  (1) 
-0

>  <r_i_glide_rewards>  (1) 
-1.1547244915814729

>  <r_lp_Energy>  (1) 
37.150380999999996

>  <r_lp_tautomer_probability>  (1) 
0.99999999999736477

>  <s_epik_cmdline>  (1) 
J2VwaWtfcHl0aG9uJywgJy1waHQnLCAnMS4wJywgJy1waCcsICc3LjQnLCAnLXRuJywgJzgnLCAnLW1hJywgJzUwMCcsICctaW1hZScsICc8aW5maWxlLm1hZT4nLCAnLW9tYWUnLCAnPG91dGZpbGUubWFlPic=

>  <s_epik_input>  (1) 
W2NIXTFbY0hdYyhbT0hdKWMoW0NIM10pW2NIXWMxW0NIMl1bQ0BdMihbQ0gzXSlbQ0BASF0oW09IXSlbQ0gyXVtDSDJdW0NIXT1DKFtDSDJdMilbQ0gyXU4oW0NIM10pW0NIMl1bQ0gyXVtDQEhdKGMoW2NIXWMzRilbY0hdW2NIXVtjSF0zKVtDSDJdW0NIMl1PW0NIMl1bQ0gzXQ==

>  <s_glide_docking_method>  (1) 
confgen

>  <s_i_glide_gridfile>  (1) 
gpcr_5ht2c_6bqh_protein_autoprepared_prepared

>  <s_lp_Force_Field>  (1) 
S-OPLS

>  <s_lp_Variant>  (1) 
DiffSBDD_38_num_sample_100-2

>  <s_m_source_file>  (1) 
generated__ligand_DiffSBDD_2026-05-06_prepared.sdf

>  <GenAI_Model>  (1) 
DiffSBDD

>  <Protein>  (1) 
GPCR_5HT2C

$$$$
DiffSBDD_77_num_sample_100
     RDKit          3D

  0  0  0  0  0  0  0  0  0  0999 V3000
M  V30 BEGIN CTAB
M  V30 COUNTS 76 78 0 0 1
M  V30 BEGIN ATOM
M  V30 1 C 39.094287 27.949264 51.053350 0
M  V30 2 F 40.656885 31.205759 51.708632 0
M  V30 3 C 40.524139 28.112735 62.361046 0
M  V30 4 C 38.363585 27.768408 52.241693 0
M  V30 5 C 40.752138 34.929306 62.176152 0
M  V30 6 C 38.645848 29.932231 56.453317 0
M  V30 7 C 38.760134 30.233093 61.118492 0
M  V30 8 C 39.356130 29.216704 58.878068 0 CFG=2
M  V30 9 O 41.523199 32.414206 62.466829 0
M  V30 10 C 40.752345 36.470072 62.179292 0
M  V30 11 N 38.556704 25.447945 56.151508 0
M  V30 12 C 37.604321 28.553887 54.532271 0
M  V30 13 C 39.913343 30.089784 51.882950 0
M  V30 14 O 42.961415 28.748837 63.472502 0
M  V30 15 C 42.185446 29.901153 63.203010 0
M  V30 16 C 38.406463 28.748971 53.254945 0
M  V30 17 F 40.563065 29.289505 49.725262 0
M  V30 18 C 40.457650 27.781291 57.022858 0
M  V30 19 O 36.714864 24.144854 56.253036 0
M  V30 20 O 37.032241 29.707539 58.232357 0
M  V30 21 C 39.866962 29.111147 50.872348 0
M  V30 22 C 38.337290 36.411039 61.477134 0
M  V30 23 N 39.440426 32.831725 61.628123 0
M  V30 24 C 39.442937 26.309109 55.375881 0
M  V30 25 C 39.185600 29.909608 53.074549 0
M  V30 26 C 40.878387 29.594842 62.440938 0
M  V30 27 C 37.468050 24.876736 55.621705 0
M  V30 28 C 38.329638 34.957656 61.379447 0
M  V30 29 C 39.668624 27.796663 58.349920 0
M  V30 30 F 37.211495 37.086933 61.186866 0
M  V30 31 C 37.070252 34.226418 60.927786 0
M  V30 32 C 38.397002 28.511953 55.866681 0 CFG=1
M  V30 33 C 40.453382 32.006549 62.026808 0
M  V30 34 N 38.788678 29.070539 60.218468 0
M  V30 35 C 40.071718 30.569906 61.881276 0
M  V30 36 C 39.445936 34.262418 61.703377 0
M  V30 37 C 39.423623 37.105107 61.846052 0
M  V30 38 C 38.390040 30.041002 57.973862 0 CFG=2
M  V30 39 N 39.628609 27.698619 55.812799 0
M  V30 40 H 39.059920 27.197120 50.278581 0
M  V30 41 H 41.014082 27.643534 61.510700 0
M  V30 42 H 40.812661 27.589227 63.271582 0
M  V30 43 H 39.453591 27.944713 62.290120 0
M  V30 44 H 37.768045 26.877554 52.376334 0
M  V30 45 H 40.951088 34.621194 63.202887 0
M  V30 46 H 41.582243 34.616284 61.541411 0
M  V30 47 H 39.646902 30.290225 56.210635 0
M  V30 48 H 37.976147 30.644819 55.969930 0
M  V30 49 H 38.027194 30.051713 61.903130 0
M  V30 50 H 38.354309 31.063996 60.547761 0
M  V30 51 H 40.308824 29.739566 58.945997 0
M  V30 52 H 41.467575 36.830182 61.440664 0
M  V30 53 H 41.090437 36.837377 63.147591 0
M  V30 54 H 38.783316 25.279384 57.120283 0
M  V30 55 H 37.045917 27.623049 54.433072 0
M  V30 56 H 36.839380 29.331508 54.573110 0
M  V30 57 H 43.328645 28.421131 62.659479 0
M  V30 58 H 41.944067 30.374547 64.154789 0
M  V30 59 H 42.854345 30.556173 62.653502 0
M  V30 60 H 41.072064 28.678743 56.961715 0
M  V30 61 H 41.174376 26.958823 57.031416 0
M  V30 62 H 36.473875 30.346962 57.796318 0
M  V30 63 H 38.589342 32.409212 61.293206 0
M  V30 64 H 39.137336 26.313901 54.331662 0
M  V30 65 H 40.415561 25.816427 55.340970 0
M  V30 66 H 39.220661 30.664587 53.844377 0
M  V30 67 H 37.343881 25.148306 54.562300 0
M  V30 68 H 40.296386 27.304713 59.093342 0
M  V30 69 H 38.768150 27.184597 58.298027 0
M  V30 70 H 36.202222 34.884030 60.917157 0
M  V30 71 H 37.204414 33.827667 59.921549 0
M  V30 72 H 36.830086 33.400891 61.598952 0
M  V30 73 H 37.718631 28.005001 56.551855 0
M  V30 74 H 37.821366 28.797051 60.057771 0
M  V30 75 H 39.376232 38.181822 61.900607 0
M  V30 76 H 38.499009 31.091142 58.249047 0
M  V30 END ATOM
M  V30 BEGIN BOND
M  V30 1 2 4 1
M  V30 2 1 10 5
M  V30 3 1 13 2
M  V30 4 1 15 14
M  V30 5 1 16 4
M  V30 6 1 16 12
M  V30 7 1 21 1
M  V30 8 2 21 13
M  V30 9 1 21 17
M  V30 10 1 24 11
M  V30 11 1 25 13
M  V30 12 2 25 16
M  V30 13 1 26 3
M  V30 14 1 26 15
M  V30 15 1 27 11
M  V30 16 2 27 19
M  V30 17 1 28 22
M  V30 18 1 29 8
M  V30 19 1 29 18
M  V30 20 1 30 22
M  V30 21 1 31 28
M  V30 22 1 32 6
M  V30 23 1 32 12
M  V30 24 2 33 9
M  V30 25 1 33 23
M  V30 26 1 34 7
M  V30 27 1 34 8
M  V30 28 1 35 7
M  V30 29 2 35 26
M  V30 30 1 35 33
M  V30 31 1 36 5
M  V30 32 1 36 23
M  V30 33 2 36 28
M  V30 34 1 37 10
M  V30 35 2 37 22
M  V30 36 1 38 6
M  V30 37 1 38 8
M  V30 38 1 38 20
M  V30 39 1 39 18
M  V30 40 1 39 24
M  V30 41 1 39 32
M  V30 42 1 40 1
M  V30 43 1 41 3
M  V30 44 1 42 3
M  V30 45 1 43 3
M  V30 46 1 44 4
M  V30 47 1 45 5
M  V30 48 1 46 5
M  V30 49 1 47 6
M  V30 50 1 48 6
M  V30 51 1 49 7
M  V30 52 1 50 7
M  V30 53 1 8 51 CFG=1
M  V30 54 1 52 10
M  V30 55 1 53 10
M  V30 56 1 54 11
M  V30 57 1 55 12
M  V30 58 1 56 12
M  V30 59 1 57 14
M  V30 60 1 58 15
M  V30 61 1 59 15
M  V30 62 1 60 18
M  V30 63 1 61 18
M  V30 64 1 62 20
M  V30 65 1 63 23
M  V30 66 1 64 24
M  V30 67 1 65 24
M  V30 68 1 66 25
M  V30 69 1 67 27
M  V30 70 1 68 29
M  V30 71 1 69 29
M  V30 72 1 70 31
M  V30 73 1 71 31
M  V30 74 1 72 31
M  V30 75 1 32 73 CFG=1
M  V30 76 1 74 34
M  V30 77 1 75 37
M  V30 78 1 38 76 CFG=1
M  V30 END BOND
M  V30 END CTAB
M  END
>  <i_epik_Tot_Q>  (1) 
0

>  <i_epik_Tot_abs_Q>  (1) 
0

>  <i_i_glide_confnum>  (1) 
1159

>  <i_i_glide_lignum>  (1) 
190

>  <i_i_glide_posenum>  (1) 
329

>  <i_i_glide_rotatable_bonds>  (1) 
14

>  <i_lp_mmshare_version>  (1) 
72125

>  <i_m_source_file_index>  (1) 
78

>  <i_f3d_flags>  (1) 
0

>  <num_sample>  (1) 
100

>  <b_lp_Chiralities_Consistent>  (1) 
1

>  <r_epik_Charging_Adjusted_Penalty>  (1) 
0.53836467660946008

>  <r_epik_Ionization_Penalty>  (1) 
0.66160028736033039

>  <r_epik_Ionization_Penalty_Charging>  (1) 
0

>  <r_epik_Ionization_Penalty_Neutral>  (1) 
0.66160028736033039

>  <r_epik_State_Penalty>  (1) 
0.53836467660946008

>  <r_glide_ring_energy>  (1) 
0

>  <r_i_docking_score>  (1) 
-9.8296865523416344

>  <r_i_glide_ecoul>  (1) 
-4.9868833619029083

>  <r_i_glide_eff_state_penalty>  (1) 
0.53836467660946008

>  <r_i_glide_einternal>  (1) 
14.93952562333131

>  <r_i_glide_emodel>  (1) 
-91.123023476490445

>  <r_i_glide_emodel_strain>  (1) 
1.3641053280669553

>  <r_i_glide_energy>  (1) 
-60.599105108464144

>  <r_i_glide_erotb>  (1) 
0.6830181953671759

>  <r_i_glide_esite>  (1) 
0

>  <r_i_glide_evdw>  (1) 
-55.612221746561239

>  <r_i_glide_gscore>  (1) 
-10.368051228951094

>  <r_i_glide_gscore_strain>  (1) 
0

>  <r_i_glide_hbond>  (1) 
-0.44681883172970166

>  <r_i_glide_ligand_efficiency>  (1) 
-0.25204324493183677

>  <r_i_glide_ligand_efficiency_ln>  (1) 
-2.1077638290681597

>  <r_i_glide_ligand_efficiency_sa>  (1) 
-0.85473193634726741

>  <r_i_glide_lipo>  (1) 
-4.5367709508780818

>  <r_i_glide_metal>  (1) 
-0

>  <r_i_glide_rewards>  (1) 
-2.5388360500969882

>  <r_lp_Energy>  (1) 
37.727160999999995

>  <s_epik_Chemistry_Notes>  (1) 
This compound contains an acetal/aminal-like group ( X-CH(R)-Y where X, Y are N, S, or O) that may be acid/base labile, releasing an aldehyde.

>  <s_epik_cmdline>  (1) 
J2VwaWtfcHl0aG9uJywgJy1waHQnLCAnMS4wJywgJy1waCcsICc3LjQnLCAnLXRuJywgJzgnLCAnLW1hJywgJzUwMCcsICctaW1hZScsICc8aW5maWxlLm1hZT4nLCAnLW9tYWUnLCAnPG91dGZpbGUubWFlPic=

>  <s_epik_input>  (1) 
RmMxYyhGKVtjSF1bY0hdYyhbY0hdMSlbQ0gyXVtDQEhdKFtDSDJdW0NASF0yW09IXSlOKFtDSDJdW05IXVtDSF09TylbQ0gyXVtDSDJdW0NAQEhdMltOSF1bQ0gyXS9DKD1DKFxbQ0gzXSlbQ0gyXVtPSF0pQyg9TylbTkhdQyg9QzNbQ0gzXSlbQ0gyXVtDSDJdW0NIXT1DM0Y=

>  <s_glide_docking_method>  (1) 
confgen

>  <s_i_glide_gridfile>  (1) 
gpcr_5ht2c_6bqh_protein_autoprepared_prepared

>  <s_lp_Force_Field>  (1) 
S-OPLS

>  <s_lp_Variant>  (1) 
DiffSBDD_77_num_sample_100-1

>  <s_m_source_file>  (1) 
generated__ligand_DiffSBDD_2026-05-06_prepared.sdf

>  <GenAI_Model>  (1) 
DiffSBDD

>  <Protein>  (1) 
GPCR_5HT2C

$$$$
DiffSBDD_48_num_sample_100
     RDKit          3D

  0  0  0  0  0  0  0  0  0  0999 V3000
M  V30 BEGIN CTAB
M  V30 COUNTS 71 75 0 0 1
M  V30 BEGIN ATOM
M  V30 1 C 37.298047 25.549169 54.395820 0
M  V30 2 C 37.359722 33.239665 60.661237 0 CFG=1
M  V30 3 C 38.428111 25.644229 56.942506 0
M  V30 4 C 40.294358 29.531866 49.460993 0
M  V30 5 C 38.897736 27.702621 52.679298 0
M  V30 6 C 39.573092 27.309993 58.100884 0 CFG=1
M  V30 7 O 38.893098 35.093672 60.993594 0
M  V30 8 O 40.994645 33.402844 61.726970 0
M  V30 9 C 38.006133 27.942622 53.920601 0
M  V30 10 C 38.961502 28.253098 59.149753 0
M  V30 11 C 39.083787 25.789136 58.254750 0
M  V30 12 N 39.199837 27.781729 56.732993 0
M  V30 13 C 38.550832 30.731964 59.288385 0
M  V30 14 C 39.891149 32.930549 61.453223 0
M  V30 15 C 40.224929 30.685374 62.689167 0
M  V30 16 C 39.081027 28.884015 51.690330 0 CFG=1
M  V30 17 N 39.464588 29.621941 58.927531 0 CHG=1
M  V30 18 C 38.371002 30.915114 60.819468 0 CFG=2
M  V30 19 C 39.761890 30.137032 52.274761 0
M  V30 20 C 37.204879 24.423443 55.247897 0
M  V30 21 C 40.267277 28.323166 55.908721 0
M  V30 22 O 40.780118 30.600290 61.373355 0
M  V30 23 O 39.904754 30.293599 53.480599 0
M  V30 24 O 35.974477 31.226290 60.749165 0
M  V30 25 C 37.181979 31.810346 61.201189 0 CFG=2
M  V30 26 C 40.213909 31.199135 51.287903 0
M  V30 27 C 36.186689 34.160290 61.058700 0
M  V30 28 C 38.721509 33.874973 61.033845 0
M  V30 29 C 39.616422 31.433047 61.520373 0 CFG=1
M  V30 30 C 39.804273 28.410975 50.401762 0
M  V30 31 C 37.952445 26.720116 54.836805 0
M  V30 32 C 38.521289 26.724977 56.145177 0
M  V30 33 C 37.774303 24.473622 56.533837 0
M  V30 34 C 41.105578 30.576820 50.215395 0
M  V30 35 H 36.855129 25.516570 53.413015 0
M  V30 36 H 37.356280 33.189714 59.572114 0
M  V30 37 H 39.467410 30.032559 48.975294 0
M  V30 38 H 40.900216 29.134044 48.653501 0
M  V30 39 H 39.867755 27.334455 52.994425 0
M  V30 40 H 38.462432 26.874288 52.118374 0
M  V30 41 H 40.658225 27.319284 58.215896 0
M  V30 42 H 36.989521 28.115442 53.566183 0
M  V30 43 H 38.234225 28.847540 54.472822 0
M  V30 44 H 39.201712 27.932488 60.163471 0
M  V30 45 H 37.876350 28.242712 59.051568 0
M  V30 46 H 39.931883 25.105368 58.260092 0
M  V30 47 H 38.380567 25.609722 59.059651 0
M  V30 48 H 37.592327 30.550154 58.799878 0
M  V30 49 H 38.940028 31.647548 58.842390 0
M  V30 50 H 40.848651 31.216653 63.406291 0
M  V30 51 H 39.753964 29.769664 63.041351 0
M  V30 52 H 39.616503 29.675285 57.927621 0
M  V30 53 H 38.178462 29.937463 61.246436 0
M  V30 54 H 36.698053 23.530261 54.913271 0
M  V30 55 H 40.462320 27.685259 55.053540 0
M  V30 56 H 40.026458 29.336966 55.606352 0
M  V30 57 H 41.204583 28.386647 56.460725 0
M  V30 58 H 39.348042 31.646944 50.804848 0
M  V30 59 H 35.849281 31.420433 59.828439 0
M  V30 60 H 37.114307 31.853460 62.289077 0
M  V30 61 H 40.679193 31.995293 51.853336 0
M  V30 62 H 38.085894 29.216779 51.400309 0
M  V30 63 H 36.306892 35.163473 60.647970 0
M  V30 64 H 35.237930 33.780980 60.677374 0
M  V30 65 H 36.090368 34.250251 62.140787 0
M  V30 66 H 40.666580 27.806952 50.669867 0
M  V30 67 H 39.129562 27.752242 49.855665 0
M  V30 68 H 37.713277 23.621195 57.193703 0
M  V30 69 H 41.451975 31.327955 49.511565 0
M  V30 70 H 41.998007 30.131522 50.653618 0
M  V30 71 H 40.349943 29.731030 59.403700 0
M  V30 END ATOM
M  V30 BEGIN BOND
M  V30 1 1 9 5
M  V30 2 1 10 6
M  V30 3 1 11 3
M  V30 4 1 11 6
M  V30 5 1 12 6
M  V30 6 2 14 8
M  V30 7 1 16 5
M  V30 8 1 17 10
M  V30 9 1 17 13
M  V30 10 1 18 13
M  V30 11 1 19 16
M  V30 12 2 20 1
M  V30 13 1 21 12
M  V30 14 1 22 15
M  V30 15 2 23 19
M  V30 16 1 25 2
M  V30 17 1 25 18
M  V30 18 1 25 24
M  V30 19 1 26 19
M  V30 20 1 27 2
M  V30 21 1 28 2
M  V30 22 2 28 7
M  V30 23 1 28 14
M  V30 24 1 29 14
M  V30 25 1 29 15
M  V30 26 1 29 18
M  V30 27 1 29 22 CFG=3
M  V30 28 1 30 4
M  V30 29 1 30 16
M  V30 30 1 31 1
M  V30 31 1 31 9
M  V30 32 1 32 3
M  V30 33 1 32 12
M  V30 34 2 32 31
M  V30 35 2 33 3
M  V30 36 1 33 20
M  V30 37 1 34 4
M  V30 38 1 34 26
M  V30 39 1 35 1
M  V30 40 1 2 36 CFG=3
M  V30 41 1 37 4
M  V30 42 1 38 4
M  V30 43 1 39 5
M  V30 44 1 40 5
M  V30 45 1 6 41 CFG=3
M  V30 46 1 42 9
M  V30 47 1 43 9
M  V30 48 1 44 10
M  V30 49 1 45 10
M  V30 50 1 46 11
M  V30 51 1 47 11
M  V30 52 1 48 13
M  V30 53 1 49 13
M  V30 54 1 50 15
M  V30 55 1 51 15
M  V30 56 1 52 17
M  V30 57 1 18 53 CFG=1
M  V30 58 1 54 20
M  V30 59 1 55 21
M  V30 60 1 56 21
M  V30 61 1 57 21
M  V30 62 1 58 26
M  V30 63 1 59 24
M  V30 64 1 25 60 CFG=1
M  V30 65 1 61 26
M  V30 66 1 16 62 CFG=3
M  V30 67 1 63 27
M  V30 68 1 64 27
M  V30 69 1 65 27
M  V30 70 1 66 30
M  V30 71 1 67 30
M  V30 72 1 68 33
M  V30 73 1 69 34
M  V30 74 1 70 34
M  V30 75 1 71 17
M  V30 END BOND
M  V30 END CTAB
M  END
>  <i_epik_Tot_Q>  (1) 
1

>  <i_epik_Tot_abs_Q>  (1) 
1

>  <i_i_glide_confnum>  (1) 
497

>  <i_i_glide_lignum>  (1) 
131

>  <i_i_glide_posenum>  (1) 
105

>  <i_i_glide_rotatable_bonds>  (1) 
8

>  <i_lp_mmshare_version>  (1) 
72125

>  <i_m_source_file_index>  (1) 
49

>  <i_f3d_flags>  (1) 
0

>  <num_sample>  (1) 
100

>  <b_lp_Chiralities_Consistent>  (1) 
1

>  <r_epik_Charging_Adjusted_Penalty>  (1) 
0.027363245261170371

>  <r_epik_Ionization_Penalty>  (1) 
0.0277407901544389

>  <r_epik_Ionization_Penalty_Charging>  (1) 
0.027363245261170371

>  <r_epik_Ionization_Penalty_Neutral>  (1) 
0.00037754489326852995

>  <r_epik_State_Penalty>  (1) 
-0

>  <r_glide_ring_energy>  (1) 
0

>  <r_i_docking_score>  (1) 
-9.8079287405356723

>  <r_i_glide_ecoul>  (1) 
-4.1350237116417867

>  <r_i_glide_eff_state_penalty>  (1) 
-0

>  <r_i_glide_einternal>  (1) 
12.124871885814612

>  <r_i_glide_emodel>  (1) 
-75.657185134714908

>  <r_i_glide_emodel_strain>  (1) 
0.20032585371160394

>  <r_i_glide_energy>  (1) 
-47.850092580146708

>  <r_i_glide_erotb>  (1) 
0.64114366914740972

>  <r_i_glide_esite>  (1) 
0

>  <r_i_glide_evdw>  (1) 
-43.715068868504922

>  <r_i_glide_gscore>  (1) 
-9.8079287405356723

>  <r_i_glide_gscore_strain>  (1) 
0

>  <r_i_glide_hbond>  (1) 
-0.45946401537446291

>  <r_i_glide_ligand_efficiency>  (1) 
-0.28846849236869626

>  <r_i_glide_ligand_efficiency_ln>  (1) 
-2.1668465618671395

>  <r_i_glide_ligand_efficiency_sa>  (1) 
-0.93452593217435209

>  <r_i_glide_lipo>  (1) 
-5.1918597349010813

>  <r_i_glide_metal>  (1) 
-0

>  <r_i_glide_rewards>  (1) 
-1.9917416592360215

>  <r_lp_Energy>  (1) 
35.25817

>  <r_lp_tautomer_probability>  (1) 
1

>  <s_epik_cmdline>  (1) 
J2VwaWtfcHl0aG9uJywgJy1waHQnLCAnMS4wJywgJy1waCcsICc3LjQnLCAnLXRuJywgJzgnLCAnLW1hJywgJzUwMCcsICctaW1hZScsICc8aW5maWxlLm1hZT4nLCAnLW9tYWUnLCAnPG91dGZpbGUubWFlPic=

>  <s_epik_input>  (1) 
W0NIMl0xW0NIMl1bQ0gyXVtDSDJdQyhbT0hdKT1DMVtDSDJdW0NIMl1jKFtjSF1bY0hdW2NIXTIpYyhjMjMpTihbQ0gzXSlbQ0BIXShbQ0gyXTMpW0NIMl1bTkhdW0NIMl1bQ0BASF00W0NASF0oW09IXSlbQ0BASF0oW0NIM10pQyg9TylDKD1PKVtDQEBdNDVbQ0gyXU81

>  <s_glide_docking_method>  (1) 
confgen

>  <s_i_glide_gridfile>  (1) 
gpcr_5ht2c_6bqh_protein_autoprepared_prepared

>  <s_lp_Force_Field>  (1) 
S-OPLS

>  <s_lp_Variant>  (1) 
DiffSBDD_48_num_sample_100-1

>  <s_m_source_file>  (1) 
generated__ligand_DiffSBDD_2026-05-06_prepared.sdf

>  <GenAI_Model>  (1) 
DiffSBDD

>  <Protein>  (1) 
GPCR_5HT2C

$$$$
DiffSBDD_77_num_sample_100
     RDKit          3D

  0  0  0  0  0  0  0  0  0  0999 V3000
M  V30 BEGIN CTAB
M  V30 COUNTS 77 79 0 0 1
M  V30 BEGIN ATOM
M  V30 1 C 39.099115 27.974206 51.052864 0
M  V30 2 F 40.667246 31.221271 51.729630 0
M  V30 3 C 41.087303 31.651541 64.041607 0
M  V30 4 C 38.356197 27.793284 52.232985 0
M  V30 5 C 37.800017 34.238672 61.068043 0
M  V30 6 C 38.605048 30.007163 56.405554 0
M  V30 7 C 39.529298 29.123134 61.354536 0
M  V30 8 C 39.281664 29.323410 58.855610 0 CFG=2
M  V30 9 O 37.954819 31.613659 61.155520 0
M  V30 10 C 37.312569 35.664389 60.736412 0
M  V30 11 N 38.315349 25.533702 56.031894 0
M  V30 12 C 37.572932 28.578113 54.514957 0
M  V30 13 C 39.918143 30.108747 51.894567 0
M  V30 14 O 41.067421 28.652241 64.751336 0
M  V30 15 C 41.543201 29.182666 63.532724 0
M  V30 16 C 38.392494 28.771293 53.249295 0
M  V30 17 F 40.584742 29.311427 49.741159 0
M  V30 18 C 40.431038 27.834672 57.061546 0
M  V30 19 O 37.644425 24.159675 57.686759 0
M  V30 20 O 36.969976 29.899529 58.159537 0
M  V30 21 C 39.876817 29.133276 50.881559 0
M  V30 22 C 39.227338 36.559771 62.103369 0
M  V30 23 N 39.609574 32.821172 62.156287 0
M  V30 24 C 39.370366 26.314812 55.400773 0
M  V30 25 C 39.178881 29.929058 53.079227 0
M  V30 26 C 40.750934 30.437145 63.168909 0
M  V30 27 C 38.519266 24.821398 57.141088 0
M  V30 28 C 39.756656 35.229778 62.371378 0
M  V30 29 C 39.646053 27.898498 58.386554 0
M  V30 30 F 39.867395 37.624051 62.611150 0
M  V30 31 C 41.034879 35.068062 63.182400 0
M  V30 32 C 38.346600 28.576133 55.858402 0 CFG=1
M  V30 33 C 39.018415 31.653118 61.771158 0
M  V30 34 N 38.667390 29.229930 60.175884 0
M  V30 35 C 39.812144 30.422589 62.145764 0
M  V30 36 C 39.100016 34.143324 61.896433 0
M  V30 37 C 38.124364 36.769051 61.370675 0
M  V30 38 C 38.345391 30.150297 57.918880 0 CFG=2
M  V30 39 N 39.578457 27.725811 55.842401 0 CFG=1 CHG=1
M  V30 40 H 39.067939 27.225109 50.273791 0
M  V30 41 H 41.622604 31.316485 64.930862 0
M  V30 42 H 41.766903 32.333143 63.531674 0
M  V30 43 H 40.209264 32.163201 64.437075 0
M  V30 44 H 37.753747 26.905048 52.356207 0
M  V30 45 H 37.936183 33.737826 60.108488 0
M  V30 46 H 36.987784 33.751516 61.610251 0
M  V30 47 H 39.609846 30.349730 56.157372 0
M  V30 48 H 37.939927 30.715334 55.907997 0
M  V30 49 H 40.470078 28.667995 61.051359 0
M  V30 50 H 39.067659 28.429564 62.058047 0
M  V30 51 H 40.210839 29.886204 58.939958 0
M  V30 52 H 36.269762 35.775751 61.034956 0
M  V30 53 H 37.334596 35.818623 59.656746 0
M  V30 54 H 37.399767 25.533150 55.606141 0
M  V30 55 H 37.030143 27.637046 54.420836 0
M  V30 56 H 36.793667 29.340819 54.536856 0
M  V30 57 H 40.144813 28.441205 64.653646 0
M  V30 58 H 42.594990 29.447159 63.647951 0
M  V30 59 H 41.521076 28.390868 62.789258 0
M  V30 60 H 41.066909 28.714490 56.974491 0
M  V30 61 H 41.130675 26.998211 57.097077 0
M  V30 62 H 36.444546 30.586710 57.746260 0
M  V30 63 H 40.475420 32.768430 62.672011 0
M  V30 64 H 39.143213 26.316308 54.337916 0
M  V30 65 H 40.314349 25.767249 55.451050 0
M  V30 66 H 39.208982 30.684667 53.849240 0
M  V30 67 H 39.559459 24.908242 57.492398 0
M  V30 68 H 40.278863 27.443544 59.149039 0
M  V30 69 H 38.752767 27.276377 58.360276 0
M  V30 70 H 41.499437 36.029117 63.405058 0
M  V30 71 H 40.822864 34.581443 64.134323 0
M  V30 72 H 41.769076 34.479306 62.633291 0
M  V30 73 H 37.651726 28.102339 56.550630 0
M  V30 74 H 37.989914 29.985993 60.300422 0
M  V30 75 H 37.778172 37.779093 61.204564 0
M  V30 76 H 38.485733 31.200888 58.179478 0
M  V30 77 H 40.151550 28.124345 55.112235 0
M  V30 END ATOM
M  V30 BEGIN BOND
M  V30 1 2 4 1
M  V30 2 1 10 5
M  V30 3 1 13 2
M  V30 4 1 15 14
M  V30 5 1 16 4
M  V30 6 1 16 12
M  V30 7 1 21 1
M  V30 8 2 21 13
M  V30 9 1 21 17
M  V30 10 1 24 11
M  V30 11 1 25 13
M  V30 12 2 25 16
M  V30 13 1 26 3
M  V30 14 1 26 15
M  V30 15 1 27 11
M  V30 16 2 27 19
M  V30 17 1 28 22
M  V30 18 1 29 8
M  V30 19 1 29 18
M  V30 20 1 30 22
M  V30 21 1 31 28
M  V30 22 1 32 6
M  V30 23 1 32 12
M  V30 24 2 33 9
M  V30 25 1 33 23
M  V30 26 1 34 7
M  V30 27 1 34 8
M  V30 28 1 35 7
M  V30 29 2 35 26
M  V30 30 1 35 33
M  V30 31 1 36 5
M  V30 32 1 36 23
M  V30 33 2 36 28
M  V30 34 1 37 10
M  V30 35 2 37 22
M  V30 36 1 38 6
M  V30 37 1 38 8
M  V30 38 1 38 20
M  V30 39 1 39 18
M  V30 40 1 39 24
M  V30 41 1 39 32
M  V30 42 1 40 1
M  V30 43 1 41 3
M  V30 44 1 42 3
M  V30 45 1 43 3
M  V30 46 1 44 4
M  V30 47 1 45 5
M  V30 48 1 46 5
M  V30 49 1 47 6
M  V30 50 1 48 6
M  V30 51 1 49 7
M  V30 52 1 50 7
M  V30 53 1 8 51 CFG=1
M  V30 54 1 52 10
M  V30 55 1 53 10
M  V30 56 1 54 11
M  V30 57 1 55 12
M  V30 58 1 56 12
M  V30 59 1 57 14
M  V30 60 1 58 15
M  V30 61 1 59 15
M  V30 62 1 60 18
M  V30 63 1 61 18
M  V30 64 1 62 20
M  V30 65 1 63 23
M  V30 66 1 64 24
M  V30 67 1 65 24
M  V30 68 1 66 25
M  V30 69 1 67 27
M  V30 70 1 68 29
M  V30 71 1 69 29
M  V30 72 1 70 31
M  V30 73 1 71 31
M  V30 74 1 72 31
M  V30 75 1 32 73 CFG=1
M  V30 76 1 74 34
M  V30 77 1 75 37
M  V30 78 1 38 76 CFG=1
M  V30 79 1 39 77 CFG=3
M  V30 END BOND
M  V30 END CTAB
M  END
>  <i_epik_Tot_Q>  (1) 
1

>  <i_epik_Tot_abs_Q>  (1) 
1

>  <i_i_glide_confnum>  (1) 
4282

>  <i_i_glide_lignum>  (1) 
196

>  <i_i_glide_posenum>  (1) 
60

>  <i_i_glide_rotatable_bonds>  (1) 
14

>  <i_lp_mmshare_version>  (1) 
72125

>  <i_m_source_file_index>  (1) 
78

>  <i_f3d_flags>  (1) 
0

>  <num_sample>  (1) 
100

>  <b_lp_Chiralities_Consistent>  (1) 
1

>  <r_epik_Charging_Adjusted_Penalty>  (1) 
1.2599673287133732

>  <r_epik_Ionization_Penalty>  (1) 
0.56885031527891383

>  <r_epik_Ionization_Penalty_Charging>  (1) 
0.52000942162343

>  <r_epik_Ionization_Penalty_Neutral>  (1) 
0.048840893655483872

>  <r_epik_State_Penalty>  (1) 
0.73995790708994325

>  <r_glide_ring_energy>  (1) 
0

>  <r_i_docking_score>  (1) 
-9.8072939798639069

>  <r_i_glide_ecoul>  (1) 
-7.5427046612918174

>  <r_i_glide_eff_state_penalty>  (1) 
0.73995790708994325

>  <r_i_glide_einternal>  (1) 
31.439800356923357

>  <r_i_glide_emodel>  (1) 
-87.108551899468225

>  <r_i_glide_emodel_strain>  (1) 
1.5009128948713482

>  <r_i_glide_energy>  (1) 
-62.566834617717788

>  <r_i_glide_erotb>  (1) 
0.67934156738045093

>  <r_i_glide_esite>  (1) 
0

>  <r_i_glide_evdw>  (1) 
-55.024129956425973

>  <r_i_glide_gscore>  (1) 
-10.54725188695385

>  <r_i_glide_gscore_strain>  (1) 
0

>  <r_i_glide_hbond>  (1) 
-0.45599999999999996

>  <r_i_glide_ligand_efficiency>  (1) 
-0.25146907640676686

>  <r_i_glide_ligand_efficiency_ln>  (1) 
-2.102962225877965

>  <r_i_glide_ligand_efficiency_sa>  (1) 
-0.8527848094748316

>  <r_i_glide_lipo>  (1) 
-4.3564364622840825

>  <r_i_glide_metal>  (1) 
-0

>  <r_i_glide_rewards>  (1) 
-2.5315447950351468

>  <r_lp_Energy>  (1) 
52.110675999999998

>  <s_epik_Chemistry_Notes>  (1) 
This compound contains an acetal/aminal-like group ( X-CH(R)-Y where X, Y are N, S, or O) that may be acid/base labile, releasing an aldehyde.

>  <s_epik_cmdline>  (1) 
J2VwaWtfcHl0aG9uJywgJy1waHQnLCAnMS4wJywgJy1waCcsICc3LjQnLCAnLXRuJywgJzgnLCAnLW1hJywgJzUwMCcsICctaW1hZScsICc8aW5maWxlLm1hZT4nLCAnLW9tYWUnLCAnPG91dGZpbGUubWFlPic=

>  <s_epik_input>  (1) 
RmMxYyhGKVtjSF1bY0hdYyhbY0hdMSlbQ0gyXVtDQEhdKFtDSDJdW0NASF0yW09IXSlOKFtDSDJdW05IXVtDSF09TylbQ0gyXVtDSDJdW0NAQEhdMltOSF1bQ0gyXVxDKD1DKFxbQ0gzXSlbQ0gyXVtPSF0pQyg9TylbTkhdQyg9QzNbQ0gzXSlbQ0gyXVtDSDJdW0NIXT1DM0Y=

>  <s_glide_docking_method>  (1) 
confgen

>  <s_i_glide_gridfile>  (1) 
gpcr_5ht2c_6bqh_protein_autoprepared_prepared

>  <s_lp_Force_Field>  (1) 
S-OPLS

>  <s_lp_Variant>  (1) 
DiffSBDD_77_num_sample_100-7

>  <s_m_source_file>  (1) 
generated__ligand_DiffSBDD_2026-05-06_prepared.sdf

>  <GenAI_Model>  (1) 
DiffSBDD

>  <Protein>  (1) 
GPCR_5HT2C

$$$$
DiffSBDD_78_num_sample_100
     RDKit          3D

  0  0  0  0  0  0  0  0  0  0999 V3000
M  V30 BEGIN CTAB
M  V30 COUNTS 65 70 0 0 1
M  V30 BEGIN ATOM
M  V30 1 C 38.475107 29.275638 57.154270 0
M  V30 2 C 40.467435 30.065853 63.419211 0
M  V30 3 C 40.340676 34.260156 62.597224 0
M  V30 4 C 38.459170 32.747900 61.836198 0 CFG=1
M  V30 5 C 38.492132 29.025789 55.657680 0
M  V30 6 C 37.314083 35.612894 61.052981 0
M  V30 7 C 40.690216 28.239113 60.080977 0
M  V30 8 C 40.209034 29.613886 61.996129 0
M  V30 9 C 40.594780 35.605105 62.643512 0
M  V30 10 C 38.981238 30.242791 61.328969 0 CFG=1
M  V30 11 C 39.249434 28.527998 52.679425 0
M  V30 12 C 39.115547 37.618580 61.853497 0
M  V30 13 C 39.469777 36.260191 62.075096 0
M  V30 14 O 38.209059 32.488653 60.454931 0
M  V30 15 C 38.815965 30.677608 53.862292 0
M  V30 16 C 39.403871 30.008334 52.860913 0
M  V30 17 C 38.970186 27.895886 55.118817 0
M  V30 18 C 39.252677 31.719470 61.077953 0 CFG=1
M  V30 19 C 39.750892 29.111974 59.215782 0 CFG=2
M  V30 20 O 38.686516 27.230970 58.253841 0
M  V30 21 C 40.724112 29.916606 50.728645 0
M  V30 22 C 36.995851 36.959185 60.834396 0
M  V30 23 C 39.605391 28.947766 50.369864 0
M  V30 24 N 39.085493 34.041996 62.014351 0
M  V30 25 C 39.059545 27.617419 53.684295 0
M  V30 26 O 37.571042 39.276512 61.044531 0
M  V30 27 C 37.882956 30.094999 54.842184 0
M  V30 28 C 37.888287 37.962479 61.240318 0
M  V30 29 C 40.236770 30.791657 51.867355 0
M  V30 30 C 38.535850 29.524436 60.044972 0
M  V30 31 N 40.974044 28.781562 61.407010 0
M  V30 32 C 38.531958 35.273751 61.666135 0
M  V30 33 N 39.394620 28.464087 57.948563 0
M  V30 34 O 39.410502 28.013926 51.414747 0
M  V30 35 H 37.449052 29.196612 57.518156 0
M  V30 36 H 38.771304 30.318740 57.276840 0
M  V30 37 H 39.544804 30.385358 63.905268 0
M  V30 38 H 40.891229 29.250184 64.006178 0
M  V30 39 H 41.171990 30.897574 63.427338 0
M  V30 40 H 40.942805 33.430603 62.939993 0
M  V30 41 H 37.638828 32.524084 62.516675 0
M  V30 42 H 36.624744 34.837703 60.751503 0
M  V30 43 H 41.631758 28.089423 59.549469 0
M  V30 44 H 40.267253 27.244449 60.215455 0
M  V30 45 H 41.474696 36.087863 63.043623 0
M  V30 46 H 38.154167 30.179640 62.035058 0
M  V30 47 H 39.796176 38.400164 62.156185 0
M  V30 48 H 38.966325 31.745808 53.935267 0
M  V30 49 H 39.327480 27.131152 55.787563 0
M  V30 50 H 40.238724 31.974569 60.692207 0
M  V30 51 H 40.282868 30.021409 58.950375 0
M  V30 52 H 39.241397 26.584022 57.844833 0
M  V30 53 H 41.599267 29.356378 51.053502 0
M  V30 54 H 41.019579 30.522863 49.871809 0
M  V30 55 H 36.060823 37.223068 60.361842 0
M  V30 56 H 39.838996 28.423286 49.453580 0
M  V30 57 H 38.667406 29.481417 50.253502 0
M  V30 58 H 39.049926 26.577041 53.392726 0
M  V30 59 H 36.781566 39.409027 60.530688 0
M  V30 60 H 37.018525 29.691824 54.312870 0
M  V30 61 H 37.491490 30.893498 55.474601 0
M  V30 62 H 41.067392 31.239414 52.394182 0
M  V30 63 H 39.636784 31.612049 51.471112 0
M  V30 64 H 37.958703 28.628813 60.253492 0
M  V30 65 H 37.859072 30.176774 59.493838 0
M  V30 END ATOM
M  V30 BEGIN BOND
M  V30 1 1 5 1
M  V30 2 1 8 2
M  V30 3 2 9 3
M  V30 4 1 10 8
M  V30 5 1 13 9
M  V30 6 1 13 12
M  V30 7 1 14 4
M  V30 8 1 16 11
M  V30 9 2 16 15
M  V30 10 2 17 5
M  V30 11 1 18 4
M  V30 12 1 18 10
M  V30 13 1 18 14
M  V30 14 1 19 7
M  V30 15 2 22 6
M  V30 16 1 23 21
M  V30 17 1 24 3
M  V30 18 1 24 4
M  V30 19 2 25 11
M  V30 20 1 25 17
M  V30 21 1 27 5
M  V30 22 1 27 15
M  V30 23 2 28 12
M  V30 24 1 28 22
M  V30 25 1 28 26
M  V30 26 1 29 16
M  V30 27 1 29 21
M  V30 28 1 30 10
M  V30 29 1 30 19
M  V30 30 1 31 7
M  V30 31 2 31 8
M  V30 32 1 32 6
M  V30 33 2 32 13
M  V30 34 1 32 24
M  V30 35 1 33 1
M  V30 36 1 33 19
M  V30 37 1 33 20
M  V30 38 1 34 11
M  V30 39 1 34 23
M  V30 40 1 35 1
M  V30 41 1 36 1
M  V30 42 1 37 2
M  V30 43 1 38 2
M  V30 44 1 39 2
M  V30 45 1 40 3
M  V30 46 1 4 41 CFG=1
M  V30 47 1 42 6
M  V30 48 1 43 7
M  V30 49 1 44 7
M  V30 50 1 45 9
M  V30 51 1 10 46 CFG=1
M  V30 52 1 47 12
M  V30 53 1 48 15
M  V30 54 1 49 17
M  V30 55 1 18 50 CFG=3
M  V30 56 1 19 51 CFG=3
M  V30 57 1 52 20
M  V30 58 1 53 21
M  V30 59 1 54 21
M  V30 60 1 55 22
M  V30 61 1 56 23
M  V30 62 1 57 23
M  V30 63 1 58 25
M  V30 64 1 59 26
M  V30 65 1 60 27
M  V30 66 1 61 27
M  V30 67 1 62 29
M  V30 68 1 63 29
M  V30 69 1 64 30
M  V30 70 1 65 30
M  V30 END BOND
M  V30 END CTAB
M  END
>  <i_epik_Tot_Q>  (1) 
0

>  <i_epik_Tot_abs_Q>  (1) 
0

>  <i_i_glide_confnum>  (1) 
162

>  <i_i_glide_lignum>  (1) 
198

>  <i_i_glide_posenum>  (1) 
200

>  <i_i_glide_rotatable_bonds>  (1) 
7

>  <i_lp_mmshare_version>  (1) 
72125

>  <i_m_source_file_index>  (1) 
79

>  <i_f3d_flags>  (1) 
0

>  <num_sample>  (1) 
100

>  <b_lp_Chiralities_Consistent>  (1) 
1

>  <r_epik_Charging_Adjusted_Penalty>  (1) 
0

>  <r_epik_Ionization_Penalty>  (1) 
0.004645851909936884

>  <r_epik_Ionization_Penalty_Charging>  (1) 
0

>  <r_epik_Ionization_Penalty_Neutral>  (1) 
0.004645851909936884

>  <r_epik_State_Penalty>  (1) 
-0

>  <r_glide_ring_energy>  (1) 
0

>  <r_i_docking_score>  (1) 
-9.7575652496493834

>  <r_i_glide_ecoul>  (1) 
-4.9265044407879941

>  <r_i_glide_eff_state_penalty>  (1) 
-0

>  <r_i_glide_einternal>  (1) 
9.4755472145817503

>  <r_i_glide_emodel>  (1) 
-71.950982798401313

>  <r_i_glide_emodel_strain>  (1) 
0.16843536801086145

>  <r_i_glide_energy>  (1) 
-49.770862369305469

>  <r_i_glide_erotb>  (1) 
0.47260877555534697

>  <r_i_glide_esite>  (1) 
0

>  <r_i_glide_evdw>  (1) 
-44.844357928517475

>  <r_i_glide_gscore>  (1) 
-9.7575652496493834

>  <r_i_glide_gscore_strain>  (1) 
0

>  <r_i_glide_hbond>  (1) 
-0.54268641758308367

>  <r_i_glide_ligand_efficiency>  (1) 
-0.28698721322498189

>  <r_i_glide_ligand_efficiency_ln>  (1) 
-2.1557198540822888

>  <r_i_glide_ligand_efficiency_sa>  (1) 
-0.92972716277938883

>  <r_i_glide_lipo>  (1) 
-4.8238526517145592

>  <r_i_glide_metal>  (1) 
-0

>  <r_i_glide_rewards>  (1) 
-1.8824413933630151

>  <r_lp_Energy>  (1) 
27.740355999999998

>  <r_lp_tautomer_probability>  (1) 
1

>  <s_epik_Chemistry_Notes>  (1) 
This compound has an imine and may undergo hydrolysis. This compound contains an acetal/aminal-like group ( X-CH(R)-Y where X, Y are N, S, or O) that may be acid/base labile, releasing an aldehyde. This compound has a N-S or N-O group and may undergo hydrolysis at high or low pH.

>  <s_epik_cmdline>  (1) 
J2VwaWtfcHl0aG9uJywgJy1waHQnLCAnMS4wJywgJy1waCcsICc3LjQnLCAnLXRuJywgJzgnLCAnLW1hJywgJzUwMCcsICctaW1hZScsICc8aW5maWxlLm1hZT4nLCAnLW9tYWUnLCAnPG91dGZpbGUubWFlPic=

>  <s_epik_input>  (1) 
TzFbQ0gyXVtDSDJdW0NIMl1DKEMxPTIpPVtDSF1bQ0gyXUMoPVtDSF1bQ0hdMilbQ0gyXU4oW09IXSlbQ0BIXShbQ0gyXU49QzNbQ0gzXSlbQ0gyXVtDQEBIXTNbQ0BIXTRPW0NAQEhdNG4oW2NIXVtjSF01KWMoYzU2KVtjSF1bY0hdYyhbY0hdNilbT0hd

>  <s_glide_docking_method>  (1) 
confgen

>  <s_i_glide_gridfile>  (1) 
gpcr_5ht2c_6bqh_protein_autoprepared_prepared

>  <s_lp_Force_Field>  (1) 
S-OPLS

>  <s_lp_Variant>  (1) 
DiffSBDD_78_num_sample_100-1

>  <s_m_source_file>  (1) 
generated__ligand_DiffSBDD_2026-05-06_prepared.sdf

>  <GenAI_Model>  (1) 
DiffSBDD

>  <Protein>  (1) 
GPCR_5HT2C

$$$$
DiffSBDD_38_num_sample_100
     RDKit          3D

  0  0  0  0  0  0  0  0  0  0999 V3000
M  V30 BEGIN CTAB
M  V30 COUNTS 81 83 0 0 1
M  V30 BEGIN ATOM
M  V30 1 C 39.003246 29.748600 60.107558 0
M  V30 2 C 39.140868 26.365294 56.233859 0
M  V30 3 C 39.359454 31.639698 54.446127 0
M  V30 4 C 38.507329 33.589515 59.901200 0
M  V30 5 C 38.221042 35.020664 60.253392 0
M  V30 6 F 40.267376 25.454669 58.123104 0
M  V30 7 C 37.032453 37.084778 59.791950 0
M  V30 8 C 37.363250 32.576461 60.173795 0 CFG=2
M  V30 9 O 36.690723 30.821429 61.453504 0
M  V30 10 N 39.265850 30.896242 55.719436 0 CFG=1 CHG=1
M  V30 11 C 40.520089 29.179883 51.280112 0
M  V30 12 C 40.589682 30.189546 50.132947 0
M  V30 13 C 38.921788 35.639512 61.294828 0
M  V30 14 C 36.004625 33.261920 60.576300 0
M  V30 15 C 38.261093 24.402754 57.372798 0
M  V30 16 C 37.743602 37.726682 60.817396 0
M  V30 17 C 39.048916 30.819120 61.203296 0
M  V30 18 C 38.508059 28.020586 51.808665 0
M  V30 19 C 38.275528 31.527869 56.631563 0
M  V30 20 C 37.858067 28.905785 54.811251 0
M  V30 21 C 37.775882 31.676483 61.339375 0 CFG=1
M  V30 22 C 39.067403 30.234426 58.673406 0
M  V30 23 C 37.087865 25.302970 55.446207 0
M  V30 24 C 38.695479 36.992709 61.582261 0
M  V30 25 C 39.237694 25.406487 57.253356 0
M  V30 26 C 37.065924 31.756011 58.894805 0
M  V30 27 C 39.486969 37.652989 62.689735 0
M  V30 28 C 38.046709 26.341480 55.339006 0
M  V30 29 C 37.891626 27.434295 54.260487 0 CFG=2
M  V30 30 C 38.204373 31.112947 58.112668 0
M  V30 31 C 39.147347 29.430507 55.487638 0
M  V30 32 C 37.198642 24.343898 56.461037 0
M  V30 33 C 38.884043 27.263774 53.098914 0
M  V30 34 O 39.620070 28.135579 50.937319 0
M  V30 35 C 37.273536 35.745634 59.505855 0
M  V30 36 O 37.524417 39.052086 61.053496 0
M  V30 37 H 38.134860 29.099793 60.212601 0
M  V30 38 H 39.860040 29.089604 60.249026 0
M  V30 39 H 39.901966 27.116401 56.146844 0
M  V30 40 H 38.464198 31.537596 53.833941 0
M  V30 41 H 39.467338 32.702197 54.653657 0
M  V30 42 H 40.221143 31.312241 53.864198 0
M  V30 43 H 38.752790 33.609654 58.840179 0
M  V30 44 H 39.443195 33.316726 60.379215 0
M  V30 45 H 36.309462 37.621411 59.211627 0
M  V30 46 H 36.555543 30.420960 60.607581 0
M  V30 47 H 40.251875 29.685305 52.207089 0
M  V30 48 H 41.496732 28.737222 51.453498 0
M  V30 49 H 41.332391 30.961067 50.335914 0
M  V30 50 H 40.862962 29.700178 49.197981 0
M  V30 51 H 39.628346 30.681141 49.982738 0
M  V30 52 H 39.651920 35.080167 61.862648 0
M  V30 53 H 35.202066 32.555889 60.788450 0
M  V30 54 H 36.105174 33.886722 61.464153 0
M  V30 55 H 35.577809 33.865045 59.779807 0
M  V30 56 H 38.329981 23.665734 58.157122 0
M  V30 57 H 39.184743 30.299292 62.153465 0
M  V30 58 H 39.948456 31.420816 61.095393 0
M  V30 59 H 37.737977 27.465143 51.282718 0
M  V30 60 H 38.088769 29.008541 51.992923 0
M  V30 61 H 37.304730 31.362467 56.173051 0
M  V30 62 H 38.429108 32.607885 56.630608 0
M  V30 63 H 37.067419 29.005230 55.545393 0
M  V30 64 H 37.556753 29.568816 54.005850 0
M  V30 65 H 37.846146 32.268311 62.253540 0
M  V30 66 H 39.862404 29.818460 58.083300 0
M  V30 67 H 36.270169 25.236080 54.755648 0
M  V30 68 H 36.254993 31.036300 59.011768 0
M  V30 69 H 36.667410 32.531963 58.253526 0
M  V30 70 H 40.406105 37.096003 62.877184 0
M  V30 71 H 39.801458 38.664442 62.431606 0
M  V30 72 H 38.912559 37.621484 63.614872 0
M  V30 73 H 36.903766 27.268054 53.827363 0
M  V30 74 H 40.030823 29.127714 54.932162 0
M  V30 75 H 39.202664 28.944908 56.444474 0
M  V30 76 H 36.461822 23.559304 56.542838 0
M  V30 77 H 39.867392 27.546891 53.435355 0
M  V30 78 H 38.968474 26.211846 52.849012 0
M  V30 79 H 36.741687 35.267417 58.695485 0
M  V30 80 H 36.848748 39.410018 60.488493 0
M  V30 81 H 40.158678 31.035023 56.170204 0
M  V30 END ATOM
M  V30 BEGIN BOND
M  V30 1 1 5 4
M  V30 2 1 8 4 CFG=3
M  V30 3 1 10 3
M  V30 4 1 12 11
M  V30 5 2 13 5
M  V30 6 1 14 8
M  V30 7 1 16 7
M  V30 8 1 17 1
M  V30 9 1 19 10
M  V30 10 1 21 8
M  V30 11 1 21 9
M  V30 12 1 21 17
M  V30 13 1 22 1
M  V30 14 1 24 13
M  V30 15 2 24 16
M  V30 16 2 25 2
M  V30 17 1 25 6
M  V30 18 1 25 15
M  V30 19 1 26 8
M  V30 20 1 27 24
M  V30 21 1 28 2
M  V30 22 2 28 23
M  V30 23 1 29 20
M  V30 24 1 29 28
M  V30 25 1 30 19
M  V30 26 2 30 22
M  V30 27 1 30 26
M  V30 28 1 31 10
M  V30 29 1 31 20
M  V30 30 2 32 15
M  V30 31 1 32 23
M  V30 32 1 33 18
M  V30 33 1 33 29
M  V30 34 1 34 11
M  V30 35 1 34 18
M  V30 36 1 35 5
M  V30 37 2 35 7
M  V30 38 1 36 16
M  V30 39 1 37 1
M  V30 40 1 38 1
M  V30 41 1 39 2
M  V30 42 1 40 3
M  V30 43 1 41 3
M  V30 44 1 42 3
M  V30 45 1 43 4
M  V30 46 1 44 4
M  V30 47 1 45 7
M  V30 48 1 46 9
M  V30 49 1 47 11
M  V30 50 1 48 11
M  V30 51 1 49 12
M  V30 52 1 50 12
M  V30 53 1 51 12
M  V30 54 1 52 13
M  V30 55 1 53 14
M  V30 56 1 54 14
M  V30 57 1 55 14
M  V30 58 1 56 15
M  V30 59 1 57 17
M  V30 60 1 58 17
M  V30 61 1 59 18
M  V30 62 1 60 18
M  V30 63 1 61 19
M  V30 64 1 62 19
M  V30 65 1 63 20
M  V30 66 1 64 20
M  V30 67 1 21 65 CFG=1
M  V30 68 1 66 22
M  V30 69 1 67 23
M  V30 70 1 68 26
M  V30 71 1 69 26
M  V30 72 1 70 27
M  V30 73 1 71 27
M  V30 74 1 72 27
M  V30 75 1 29 73 CFG=3
M  V30 76 1 74 31
M  V30 77 1 75 31
M  V30 78 1 76 32
M  V30 79 1 77 33
M  V30 80 1 78 33
M  V30 81 1 79 35
M  V30 82 1 80 36
M  V30 83 1 10 81 CFG=1
M  V30 END BOND
M  V30 END CTAB
M  END
>  <i_epik_Tot_Q>  (1) 
1

>  <i_epik_Tot_abs_Q>  (1) 
1

>  <i_i_glide_confnum>  (1) 
4118

>  <i_i_glide_lignum>  (1) 
93

>  <i_i_glide_posenum>  (1) 
242

>  <i_i_glide_rotatable_bonds>  (1) 
14

>  <i_lp_mmshare_version>  (1) 
72125

>  <i_m_source_file_index>  (1) 
39

>  <i_f3d_flags>  (1) 
0

>  <num_sample>  (1) 
100

>  <b_lp_Chiralities_Consistent>  (1) 
1

>  <r_epik_Charging_Adjusted_Penalty>  (1) 
0.028990441090162262

>  <r_epik_Ionization_Penalty>  (1) 
0.014915146811677001

>  <r_epik_Ionization_Penalty_Charging>  (1) 
0.014495220545081134

>  <r_epik_Ionization_Penalty_Neutral>  (1) 
0.00041992626659586555

>  <r_epik_State_Penalty>  (1) 
0.014495220545081127

>  <r_glide_ring_energy>  (1) 
0

>  <r_i_docking_score>  (1) 
-9.7000012080222291

>  <r_i_glide_ecoul>  (1) 
-10.070111668822848

>  <r_i_glide_eff_state_penalty>  (1) 
0.014495220545081127

>  <r_i_glide_einternal>  (1) 
18.876001429732391

>  <r_i_glide_emodel>  (1) 
-61.714936106175529

>  <r_i_glide_emodel_strain>  (1) 
4.9649457620901956

>  <r_i_glide_energy>  (1) 
-46.387387722193154

>  <r_i_glide_erotb>  (1) 
0.82055052293910336

>  <r_i_glide_esite>  (1) 
0

>  <r_i_glide_evdw>  (1) 
-36.317276053370307

>  <r_i_glide_gscore>  (1) 
-9.7144964285673101

>  <r_i_glide_gscore_strain>  (1) 
0.24123644052254889

>  <r_i_glide_hbond>  (1) 
-0.60799999999999998

>  <r_i_glide_ligand_efficiency>  (1) 
-0.26944447800061749

>  <r_i_glide_ligand_efficiency_ln>  (1) 
-2.1162781998430074

>  <r_i_glide_ligand_efficiency_sa>  (1) 
-0.88968606397442784

>  <r_i_glide_lipo>  (1) 
-5.7622145438328243

>  <r_i_glide_metal>  (1) 
-0

>  <r_i_glide_rewards>  (1) 
-1.0796882952041942

>  <r_lp_Energy>  (1) 
37.150380999999996

>  <r_lp_tautomer_probability>  (1) 
0.99999999999736477

>  <s_epik_cmdline>  (1) 
J2VwaWtfcHl0aG9uJywgJy1waHQnLCAnMS4wJywgJy1waCcsICc3LjQnLCAnLXRuJywgJzgnLCAnLW1hJywgJzUwMCcsICctaW1hZScsICc8aW5maWxlLm1hZT4nLCAnLW9tYWUnLCAnPG91dGZpbGUubWFlPic=

>  <s_epik_input>  (1) 
W2NIXTFbY0hdYyhbT0hdKWMoW0NIM10pW2NIXWMxW0NIMl1bQ0BdMihbQ0gzXSlbQ0BASF0oW09IXSlbQ0gyXVtDSDJdW0NIXT1DKFtDSDJdMilbQ0gyXU4oW0NIM10pW0NIMl1bQ0gyXVtDQEhdKGMoW2NIXWMzRilbY0hdW2NIXVtjSF0zKVtDSDJdW0NIMl1PW0NIMl1bQ0gzXQ==

>  <s_glide_docking_method>  (1) 
confgen

>  <s_i_glide_gridfile>  (1) 
gpcr_5ht2c_6bqh_protein_autoprepared_prepared

>  <s_lp_Force_Field>  (1) 
S-OPLS

>  <s_lp_Variant>  (1) 
DiffSBDD_38_num_sample_100-2

>  <s_m_source_file>  (1) 
generated__ligand_DiffSBDD_2026-05-06_prepared.sdf

>  <GenAI_Model>  (1) 
DiffSBDD

>  <Protein>  (1) 
GPCR_5HT2C

$$$$
DiffSBDD_38_num_sample_100
     RDKit          3D

  0  0  0  0  0  0  0  0  0  0999 V3000
M  V30 BEGIN CTAB
M  V30 COUNTS 81 83 0 0 1
M  V30 BEGIN ATOM
M  V30 1 C 37.307159 30.284133 60.092341 0
M  V30 2 C 37.680098 26.320880 55.954962 0
M  V30 3 C 37.867651 33.119085 55.374320 0
M  V30 4 C 39.532397 33.537628 60.321104 0
M  V30 5 C 40.172672 34.095213 61.588906 0
M  V30 6 F 37.564192 24.449075 57.441444 0
M  V30 7 C 40.960175 35.999259 62.901388 0
M  V30 8 C 37.980125 33.446366 60.255153 0 CFG=2
M  V30 9 O 36.006195 32.560554 61.440610 0
M  V30 10 N 38.509268 31.845026 55.741153 0 CFG=1 CHG=1
M  V30 11 C 40.401925 28.889526 50.982144 0
M  V30 12 C 39.741594 30.172701 50.504722 0
M  V30 13 C 40.605868 33.217597 62.606119 0
M  V30 14 C 37.392649 34.863299 60.471708 0
M  V30 15 C 39.546536 25.786231 57.430664 0
M  V30 16 C 41.394734 35.122989 63.915840 0
M  V30 17 C 37.832632 31.032648 61.321370 0
M  V30 18 C 39.181782 27.354275 52.387702 0
M  V30 19 C 39.171997 31.915325 57.060336 0
M  V30 20 C 38.224933 29.794684 54.350464 0
M  V30 21 C 37.419615 32.514058 61.376520 0 CFG=1
M  V30 22 C 38.146765 30.536621 58.878243 0
M  V30 23 C 39.698763 27.698732 55.923816 0
M  V30 24 C 41.216485 33.729523 63.768755 0
M  V30 25 C 38.255205 25.504589 56.948677 0
M  V30 26 C 37.574598 32.988310 58.814291 0
M  V30 27 C 41.682014 32.782637 64.859847 0
M  V30 28 C 38.396978 27.424960 55.440201 0
M  V30 29 C 37.761388 28.311509 54.360297 0 CFG=2
M  V30 30 C 38.279079 31.732714 58.286727 0
M  V30 31 C 37.691308 30.618756 55.525951 0
M  V30 32 C 40.268091 26.879935 56.917523 0
M  V30 33 C 37.791066 27.640217 52.969957 0
M  V30 34 O 39.867236 28.588566 52.253511 0
M  V30 35 C 40.351747 35.486849 61.739238 0
M  V30 36 O 41.989364 35.621433 65.039619 0
M  V30 37 H 36.253530 30.474323 59.887933 0
M  V30 38 H 37.403107 29.220480 60.253495 0
M  V30 39 H 36.687955 26.101356 55.588003 0
M  V30 40 H 37.114634 33.380019 56.113577 0
M  V30 41 H 38.601848 33.924940 55.374865 0
M  V30 42 H 37.433222 33.067123 54.376409 0
M  V30 43 H 39.867448 34.143410 59.480101 0
M  V30 44 H 39.969880 32.554673 60.168078 0
M  V30 45 H 41.095746 37.064501 63.013562 0
M  V30 46 H 35.663113 32.378110 60.577468 0
M  V30 47 H 41.467610 29.064251 51.092708 0
M  V30 48 H 40.267558 28.093085 50.250586 0
M  V30 49 H 40.041219 30.428148 49.487983 0
M  V30 50 H 38.667410 30.021611 50.527523 0
M  V30 51 H 39.981013 31.012932 51.157556 0
M  V30 52 H 40.473988 32.152153 62.493198 0
M  V30 53 H 36.321674 34.895526 60.266788 0
M  V30 54 H 37.527288 35.203526 61.498753 0
M  V30 55 H 37.863372 35.600020 59.821233 0
M  V30 56 H 39.985120 25.162347 58.193329 0
M  V30 57 H 37.467430 30.538263 62.219542 0
M  V30 58 H 38.915195 30.927483 61.376736 0
M  V30 59 H 39.754704 26.696966 53.042522 0
M  V30 60 H 39.066568 26.821364 51.442866 0
M  V30 61 H 39.766198 32.823954 57.145303 0
M  V30 62 H 39.867535 31.081000 57.053281 0
M  V30 63 H 37.866349 30.282376 53.453374 0
M  V30 64 H 39.307556 29.875729 54.283019 0
M  V30 65 H 37.767626 32.893458 62.335115 0
M  V30 66 H 38.672880 29.683053 58.475781 0
M  V30 67 H 40.262305 28.531180 55.535962 0
M  V30 68 H 36.497251 32.830378 58.749424 0
M  V30 69 H 37.784907 33.811951 58.133786 0
M  V30 70 H 41.605045 31.740308 64.549346 0
M  V30 71 H 42.721461 32.981985 65.119271 0
M  V30 72 H 41.075048 32.918000 65.755617 0
M  V30 73 H 36.702359 28.353611 54.606587 0
M  V30 74 H 37.688633 29.977964 56.402690 0
M  V30 75 H 36.649409 30.863206 55.346175 0
M  V30 76 H 41.262257 27.090428 57.286744 0
M  V30 77 H 37.251193 26.695436 53.040459 0
M  V30 78 H 37.229042 28.248253 52.258581 0
M  V30 79 H 40.024748 36.159740 60.962931 0
M  V30 80 H 42.036860 36.573620 65.050836 0
M  V30 81 H 39.265669 31.755044 55.077817 0
M  V30 END ATOM
M  V30 BEGIN BOND
M  V30 1 1 5 4
M  V30 2 1 8 4 CFG=3
M  V30 3 1 10 3
M  V30 4 1 12 11
M  V30 5 2 13 5
M  V30 6 1 14 8
M  V30 7 1 16 7
M  V30 8 1 17 1
M  V30 9 1 19 10
M  V30 10 1 21 8
M  V30 11 1 21 9
M  V30 12 1 21 17
M  V30 13 1 22 1
M  V30 14 1 24 13
M  V30 15 2 24 16
M  V30 16 2 25 2
M  V30 17 1 25 6
M  V30 18 1 25 15
M  V30 19 1 26 8
M  V30 20 1 27 24
M  V30 21 1 28 2
M  V30 22 2 28 23
M  V30 23 1 29 20
M  V30 24 1 29 28
M  V30 25 1 30 19
M  V30 26 2 30 22
M  V30 27 1 30 26
M  V30 28 1 31 10
M  V30 29 1 31 20
M  V30 30 2 32 15
M  V30 31 1 32 23
M  V30 32 1 33 18
M  V30 33 1 33 29
M  V30 34 1 34 11
M  V30 35 1 34 18
M  V30 36 1 35 5
M  V30 37 2 35 7
M  V30 38 1 36 16
M  V30 39 1 37 1
M  V30 40 1 38 1
M  V30 41 1 39 2
M  V30 42 1 40 3
M  V30 43 1 41 3
M  V30 44 1 42 3
M  V30 45 1 43 4
M  V30 46 1 44 4
M  V30 47 1 45 7
M  V30 48 1 46 9
M  V30 49 1 47 11
M  V30 50 1 48 11
M  V30 51 1 49 12
M  V30 52 1 50 12
M  V30 53 1 51 12
M  V30 54 1 52 13
M  V30 55 1 53 14
M  V30 56 1 54 14
M  V30 57 1 55 14
M  V30 58 1 56 15
M  V30 59 1 57 17
M  V30 60 1 58 17
M  V30 61 1 59 18
M  V30 62 1 60 18
M  V30 63 1 61 19
M  V30 64 1 62 19
M  V30 65 1 63 20
M  V30 66 1 64 20
M  V30 67 1 21 65 CFG=1
M  V30 68 1 66 22
M  V30 69 1 67 23
M  V30 70 1 68 26
M  V30 71 1 69 26
M  V30 72 1 70 27
M  V30 73 1 71 27
M  V30 74 1 72 27
M  V30 75 1 29 73 CFG=1
M  V30 76 1 74 31
M  V30 77 1 75 31
M  V30 78 1 76 32
M  V30 79 1 77 33
M  V30 80 1 78 33
M  V30 81 1 79 35
M  V30 82 1 80 36
M  V30 83 1 10 81 CFG=3
M  V30 END BOND
M  V30 END CTAB
M  END
>  <i_epik_Tot_Q>  (1) 
1

>  <i_epik_Tot_abs_Q>  (1) 
1

>  <i_i_glide_confnum>  (1) 
3146

>  <i_i_glide_lignum>  (1) 
93

>  <i_i_glide_posenum>  (1) 
21

>  <i_i_glide_rotatable_bonds>  (1) 
14

>  <i_lp_mmshare_version>  (1) 
72125

>  <i_m_source_file_index>  (1) 
39

>  <i_f3d_flags>  (1) 
0

>  <num_sample>  (1) 
100

>  <b_lp_Chiralities_Consistent>  (1) 
1

>  <r_epik_Charging_Adjusted_Penalty>  (1) 
0.028990441090162262

>  <r_epik_Ionization_Penalty>  (1) 
0.014915146811677001

>  <r_epik_Ionization_Penalty_Charging>  (1) 
0.014495220545081134

>  <r_epik_Ionization_Penalty_Neutral>  (1) 
0.00041992626659586555

>  <r_epik_State_Penalty>  (1) 
0.014495220545081127

>  <r_glide_ring_energy>  (1) 
0

>  <r_i_docking_score>  (1) 
-9.6414644986633053

>  <r_i_glide_ecoul>  (1) 
-7.8778347397015489

>  <r_i_glide_eff_state_penalty>  (1) 
0.014495220545081127

>  <r_i_glide_einternal>  (1) 
7.9195168586380138

>  <r_i_glide_emodel>  (1) 
-81.112343721070545

>  <r_i_glide_emodel_strain>  (1) 
2.0017965011570595

>  <r_i_glide_energy>  (1) 
-57.522551042302133

>  <r_i_glide_erotb>  (1) 
0.82055052293910336

>  <r_i_glide_esite>  (1) 
-0.062208235510830004

>  <r_i_glide_evdw>  (1) 
-49.644716302600585

>  <r_i_glide_gscore>  (1) 
-9.6559597192083864

>  <r_i_glide_gscore_strain>  (1) 
0

>  <r_i_glide_hbond>  (1) 
-0.32000000000000001

>  <r_i_glide_ligand_efficiency>  (1) 
-0.26781845829620293

>  <r_i_glide_ligand_efficiency_ln>  (1) 
-2.1035070713400148

>  <r_i_glide_ligand_efficiency_sa>  (1) 
-0.88431706520518183

>  <r_i_glide_lipo>  (1) 
-5.2187492844531853

>  <r_i_glide_metal>  (1) 
-0

>  <r_i_glide_rewards>  (1) 
-1.2116416960982113

>  <r_lp_Energy>  (1) 
37.150380999999996

>  <r_lp_tautomer_probability>  (1) 
0.99999999999736477

>  <s_epik_cmdline>  (1) 
J2VwaWtfcHl0aG9uJywgJy1waHQnLCAnMS4wJywgJy1waCcsICc3LjQnLCAnLXRuJywgJzgnLCAnLW1hJywgJzUwMCcsICctaW1hZScsICc8aW5maWxlLm1hZT4nLCAnLW9tYWUnLCAnPG91dGZpbGUubWFlPic=

>  <s_epik_input>  (1) 
W2NIXTFbY0hdYyhbT0hdKWMoW0NIM10pW2NIXWMxW0NIMl1bQ0BdMihbQ0gzXSlbQ0BASF0oW09IXSlbQ0gyXVtDSDJdW0NIXT1DKFtDSDJdMilbQ0gyXU4oW0NIM10pW0NIMl1bQ0gyXVtDQEhdKGMoW2NIXWMzRilbY0hdW2NIXVtjSF0zKVtDSDJdW0NIMl1PW0NIMl1bQ0gzXQ==

>  <s_glide_docking_method>  (1) 
confgen

>  <s_i_glide_gridfile>  (1) 
gpcr_5ht2c_6bqh_protein_autoprepared_prepared

>  <s_lp_Force_Field>  (1) 
S-OPLS

>  <s_lp_Variant>  (1) 
DiffSBDD_38_num_sample_100-2

>  <s_m_source_file>  (1) 
generated__ligand_DiffSBDD_2026-05-06_prepared.sdf

>  <GenAI_Model>  (1) 
DiffSBDD

>  <Protein>  (1) 
GPCR_5HT2C

$$$$
DiffSBDD_78_num_sample_100
     RDKit          3D

  0  0  0  0  0  0  0  0  0  0999 V3000
M  V30 BEGIN CTAB
M  V30 COUNTS 65 70 0 0 1
M  V30 BEGIN ATOM
M  V30 1 C 39.618345 29.515921 57.569179 0
M  V30 2 C 40.707420 29.742286 63.889855 0
M  V30 3 C 41.116139 34.875997 62.376520 0
M  V30 4 C 39.733806 33.125592 61.197024 0 CFG=1
M  V30 5 C 39.194656 28.972958 56.217405 0
M  V30 6 C 37.988566 35.728686 60.687800 0
M  V30 7 C 39.539119 28.527473 60.488848 0
M  V30 8 C 40.015829 29.633223 62.546646 0
M  V30 9 C 41.053000 36.219396 62.600326 0
M  V30 10 C 39.011851 30.761505 62.235408 0 CFG=1
M  V30 11 C 39.026551 27.671494 53.371338 0
M  V30 12 C 39.252310 37.953726 61.853496 0
M  V30 13 C 39.866190 36.686365 61.983047 0
M  V30 14 O 40.856287 32.279830 61.455750 0
M  V30 15 C 39.009714 30.101324 53.967740 0
M  V30 16 C 39.223784 29.127062 53.067358 0
M  V30 17 C 39.431758 27.703591 55.882379 0
M  V30 18 C 39.713604 32.108166 62.317169 0 CFG=1
M  V30 19 C 39.141201 29.890377 59.874743 0 CFG=2
M  V30 20 O 38.005144 31.056097 58.191843 0
M  V30 21 C 39.690139 28.383949 50.674713 0
M  V30 22 C 37.397930 36.994211 60.579193 0
M  V30 23 C 38.599481 27.388052 51.042044 0
M  V30 24 N 40.003085 34.472568 61.632483 0
M  V30 25 C 39.118969 27.076849 54.600562 0
M  V30 26 O 37.467348 39.346575 61.053443 0
M  V30 27 C 38.472169 29.923588 55.334152 0
M  V30 28 C 38.029635 38.108064 61.159743 0
M  V30 29 C 39.700266 29.528738 51.676380 0
M  V30 30 C 38.241096 30.585317 60.907734 0
M  V30 31 N 40.260405 28.673881 61.741890 0
M  V30 32 C 39.205702 35.583954 61.379679 0
M  V30 33 N 38.544010 29.747776 58.538107 0
M  V30 34 O 38.825432 26.821501 52.314869 0
M  V30 35 H 40.193411 30.421763 57.407967 0
M  V30 36 H 40.341501 28.805824 57.964701 0
M  V30 37 H 40.023603 30.127887 64.646464 0
M  V30 38 H 41.059081 28.764159 64.219606 0
M  V30 39 H 41.566436 30.409502 63.817472 0
M  V30 40 H 41.866773 34.161396 62.681037 0
M  V30 41 H 39.332890 33.038279 60.189226 0
M  V30 42 H 37.511715 34.868702 60.241157 0
M  V30 43 H 40.171543 27.951232 59.817382 0
M  V30 44 H 38.657189 27.909129 60.647494 0
M  V30 45 H 41.768342 36.821336 63.140210 0
M  V30 46 H 38.267899 30.758426 63.031896 0
M  V30 47 H 39.732294 38.817600 62.284653 0
M  V30 48 H 39.182909 31.126838 53.669228 0
M  V30 49 H 39.904560 27.078906 56.626865 0
M  V30 50 H 39.876193 32.471789 63.330356 0
M  V30 51 H 40.050806 30.475551 59.789703 0
M  V30 52 H 37.153683 30.856395 57.815467 0
M  V30 53 H 40.656345 27.886240 50.660405 0
M  V30 54 H 39.526929 28.778031 49.670832 0
M  V30 55 H 36.462824 37.112261 60.049053 0
M  V30 56 H 38.575517 26.579431 50.313606 0
M  V30 57 H 37.624284 27.871419 51.053550 0
M  V30 58 H 39.019211 26.000913 54.612164 0
M  V30 59 H 36.716002 39.387492 60.470365 0
M  V30 60 H 37.418706 29.645824 55.283259 0
M  V30 61 H 38.494958 30.920224 55.770693 0
M  V30 62 H 40.698248 29.959056 51.743570 0
M  V30 63 H 39.067404 30.315836 51.283673 0
M  V30 64 H 37.332226 30.021435 61.053430 0
M  V30 65 H 37.846008 31.539993 60.571043 0
M  V30 END ATOM
M  V30 BEGIN BOND
M  V30 1 1 5 1
M  V30 2 1 8 2
M  V30 3 2 9 3
M  V30 4 1 10 8
M  V30 5 1 13 9
M  V30 6 1 13 12
M  V30 7 1 14 4
M  V30 8 1 16 11
M  V30 9 2 16 15
M  V30 10 2 17 5
M  V30 11 1 18 4
M  V30 12 1 18 10
M  V30 13 1 18 14
M  V30 14 1 19 7
M  V30 15 2 22 6
M  V30 16 1 23 21
M  V30 17 1 24 3
M  V30 18 1 24 4
M  V30 19 2 25 11
M  V30 20 1 25 17
M  V30 21 1 27 5
M  V30 22 1 27 15
M  V30 23 2 28 12
M  V30 24 1 28 22
M  V30 25 1 28 26
M  V30 26 1 29 16
M  V30 27 1 29 21
M  V30 28 1 30 10
M  V30 29 1 30 19
M  V30 30 1 31 7
M  V30 31 2 31 8
M  V30 32 1 32 6
M  V30 33 2 32 13
M  V30 34 1 32 24
M  V30 35 1 33 1
M  V30 36 1 33 19
M  V30 37 1 33 20
M  V30 38 1 34 11
M  V30 39 1 34 23
M  V30 40 1 35 1
M  V30 41 1 36 1
M  V30 42 1 37 2
M  V30 43 1 38 2
M  V30 44 1 39 2
M  V30 45 1 40 3
M  V30 46 1 4 41 CFG=3
M  V30 47 1 42 6
M  V30 48 1 43 7
M  V30 49 1 44 7
M  V30 50 1 45 9
M  V30 51 1 10 46 CFG=1
M  V30 52 1 47 12
M  V30 53 1 48 15
M  V30 54 1 49 17
M  V30 55 1 18 50 CFG=1
M  V30 56 1 19 51 CFG=3
M  V30 57 1 52 20
M  V30 58 1 53 21
M  V30 59 1 54 21
M  V30 60 1 55 22
M  V30 61 1 56 23
M  V30 62 1 57 23
M  V30 63 1 58 25
M  V30 64 1 59 26
M  V30 65 1 60 27
M  V30 66 1 61 27
M  V30 67 1 62 29
M  V30 68 1 63 29
M  V30 69 1 64 30
M  V30 70 1 65 30
M  V30 END BOND
M  V30 END CTAB
M  END
>  <i_epik_Tot_Q>  (1) 
0

>  <i_epik_Tot_abs_Q>  (1) 
0

>  <i_i_glide_confnum>  (1) 
286

>  <i_i_glide_lignum>  (1) 
198

>  <i_i_glide_posenum>  (1) 
141

>  <i_i_glide_rotatable_bonds>  (1) 
7

>  <i_lp_mmshare_version>  (1) 
72125

>  <i_m_source_file_index>  (1) 
79

>  <i_f3d_flags>  (1) 
0

>  <num_sample>  (1) 
100

>  <b_lp_Chiralities_Consistent>  (1) 
1

>  <r_epik_Charging_Adjusted_Penalty>  (1) 
0

>  <r_epik_Ionization_Penalty>  (1) 
0.004645851909936884

>  <r_epik_Ionization_Penalty_Charging>  (1) 
0

>  <r_epik_Ionization_Penalty_Neutral>  (1) 
0.004645851909936884

>  <r_epik_State_Penalty>  (1) 
-0

>  <r_glide_ring_energy>  (1) 
0

>  <r_i_docking_score>  (1) 
-9.6154328591784175

>  <r_i_glide_ecoul>  (1) 
-6.756701283041779

>  <r_i_glide_eff_state_penalty>  (1) 
-0

>  <r_i_glide_einternal>  (1) 
13.538117323953998

>  <r_i_glide_emodel>  (1) 
-68.954023576348533

>  <r_i_glide_emodel_strain>  (1) 
0.26145740573865339

>  <r_i_glide_energy>  (1) 
-49.292759970960425

>  <r_i_glide_erotb>  (1) 
0.47260877555534697

>  <r_i_glide_esite>  (1) 
-0.1087638628546702

>  <r_i_glide_evdw>  (1) 
-42.536058687918647

>  <r_i_glide_gscore>  (1) 
-9.6154328591784175

>  <r_i_glide_gscore_strain>  (1) 
0

>  <r_i_glide_hbond>  (1) 
-0.38105765249882112

>  <r_i_glide_ligand_efficiency>  (1) 
-0.28280684879936524

>  <r_i_glide_ligand_efficiency_ln>  (1) 
-2.1243188223487373

>  <r_i_glide_ligand_efficiency_sa>  (1) 
-0.91618440485252051

>  <r_i_glide_lipo>  (1) 
-4.9328327966451448

>  <r_i_glide_metal>  (1) 
-0

>  <r_i_glide_rewards>  (1) 
-1.5250791958829297

>  <r_lp_Energy>  (1) 
27.740355999999998

>  <r_lp_tautomer_probability>  (1) 
1

>  <s_epik_Chemistry_Notes>  (1) 
This compound has an imine and may undergo hydrolysis. This compound contains an acetal/aminal-like group ( X-CH(R)-Y where X, Y are N, S, or O) that may be acid/base labile, releasing an aldehyde. This compound has a N-S or N-O group and may undergo hydrolysis at high or low pH.

>  <s_epik_cmdline>  (1) 
J2VwaWtfcHl0aG9uJywgJy1waHQnLCAnMS4wJywgJy1waCcsICc3LjQnLCAnLXRuJywgJzgnLCAnLW1hJywgJzUwMCcsICctaW1hZScsICc8aW5maWxlLm1hZT4nLCAnLW9tYWUnLCAnPG91dGZpbGUubWFlPic=

>  <s_epik_input>  (1) 
TzFbQ0gyXVtDSDJdW0NIMl1DKEMxPTIpPVtDSF1bQ0gyXUMoPVtDSF1bQ0hdMilbQ0gyXU4oW09IXSlbQ0BIXShbQ0gyXU49QzNbQ0gzXSlbQ0gyXVtDQEBIXTNbQ0BIXTRPW0NAQEhdNG4oW2NIXVtjSF01KWMoYzU2KVtjSF1bY0hdYyhbY0hdNilbT0hd

>  <s_glide_docking_method>  (1) 
confgen

>  <s_i_glide_gridfile>  (1) 
gpcr_5ht2c_6bqh_protein_autoprepared_prepared

>  <s_lp_Force_Field>  (1) 
S-OPLS

>  <s_lp_Variant>  (1) 
DiffSBDD_78_num_sample_100-1

>  <s_m_source_file>  (1) 
generated__ligand_DiffSBDD_2026-05-06_prepared.sdf

>  <GenAI_Model>  (1) 
DiffSBDD

>  <Protein>  (1) 
GPCR_5HT2C

$$$$
DiffSBDD_80_num_sample_100
     RDKit          3D

  0  0  0  0  0  0  0  0  0  0999 V3000
M  V30 BEGIN CTAB
M  V30 COUNTS 73 76 0 0 1
M  V30 BEGIN ATOM
M  V30 1 C 38.042913 30.205153 58.359241 0
M  V30 2 C 39.415823 29.848367 62.355106 0
M  V30 3 N 40.498987 30.511719 63.115099 0 CFG=1 CHG=1
M  V30 4 O 39.454366 29.087791 56.248098 0
M  V30 5 O 41.467403 28.373310 61.305219 0
M  V30 6 O 37.067404 30.021428 57.354909 0
M  V30 7 C 41.814416 32.104045 65.197371 0 CFG=2
M  V30 8 C 41.575458 32.720857 63.786088 0 CFG=2
M  V30 9 C 39.987083 30.434049 52.274304 0
M  V30 10 C 39.428428 26.916887 55.558340 0
M  V30 11 O 37.981885 26.821494 52.935491 0
M  V30 12 C 38.649057 27.993853 52.725182 0
M  V30 13 O 41.467290 35.108305 66.968450 0
M  V30 14 C 39.722361 30.015798 53.593030 0
M  V30 15 C 42.290561 35.051185 64.717106 0
M  V30 16 C 38.921534 28.417793 51.411313 0
M  V30 17 O 40.267400 25.971732 57.626536 0
M  V30 18 C 41.935027 30.570783 65.101995 0
M  V30 19 O 39.867423 30.037355 49.911191 0
M  V30 20 C 41.419306 34.263656 63.752469 0
M  V30 21 C 39.597649 29.631321 51.185915 0
M  V30 22 C 39.616113 28.337256 57.456920 0 CFG=1
M  V30 23 C 39.697262 29.892295 60.861186 0 CFG=2
M  V30 24 C 38.709787 28.834779 58.618074 0 CFG=1
M  V30 25 C 40.406660 31.991486 63.075891 0
M  V30 26 C 39.344015 26.877734 57.064104 0 CFG=1
M  V30 27 C 41.424314 35.602102 65.847667 0
M  V30 28 C 39.375415 28.684260 59.990490 0 CFG=1
M  V30 29 C 40.563576 34.889877 62.916725 0
M  V30 30 C 40.994201 32.167176 67.441670 0
M  V30 31 C 40.816366 29.081787 60.263015 0 CFG=2
M  V30 32 C 38.820021 28.292790 55.251312 0 CFG=2
M  V30 33 C 39.067387 28.780432 53.823717 0
M  V30 34 C 40.667430 29.975658 64.482208 0
M  V30 35 O 40.745536 32.451194 66.067316 0
M  V30 36 H 37.527828 30.564549 59.250304 0
M  V30 37 H 38.765596 30.963099 58.054933 0
M  V30 38 H 38.441575 30.286478 62.575083 0
M  V30 39 H 39.367225 28.802017 62.653337 0
M  V30 40 H 42.327527 28.021427 61.032503 0
M  V30 41 H 36.491467 30.790018 57.267970 0
M  V30 42 H 42.749526 32.485218 65.605696 0
M  V30 43 H 42.478777 32.518361 63.208209 0
M  V30 44 H 40.497446 31.369980 52.097639 0
M  V30 45 H 39.220730 29.734818 49.285805 0
M  V30 46 H 38.905662 26.075471 55.106197 0
M  V30 47 H 40.468359 26.886045 55.230816 0
M  V30 48 H 37.518542 26.498936 52.171679 0
M  V30 49 H 40.035639 30.628534 54.425440 0
M  V30 50 H 43.131778 34.473232 65.092098 0
M  V30 51 H 42.707085 35.908721 64.187411 0
M  V30 52 H 38.614248 27.809650 50.574932 0
M  V30 53 H 41.115007 26.094936 57.218715 0
M  V30 54 H 42.124841 30.121311 66.075887 0
M  V30 55 H 42.800303 30.308934 64.490886 0
M  V30 56 H 40.669669 28.462584 57.700099 0
M  V30 57 H 39.572276 30.878730 60.421518 0
M  V30 58 H 37.862952 28.154333 58.678193 0
M  V30 59 H 40.381272 32.286878 62.028181 0
M  V30 60 H 39.467391 32.300959 63.526738 0
M  V30 61 H 38.335672 26.564966 57.340155 0
M  V30 62 H 40.781860 36.440984 65.583258 0
M  V30 63 H 39.050667 27.784576 60.508724 0
M  V30 64 H 40.480305 35.967171 62.918482 0
M  V30 65 H 39.941814 34.344381 62.227240 0
M  V30 66 H 40.267409 32.687538 68.063759 0
M  V30 67 H 40.901081 31.103822 67.658654 0
M  V30 68 H 41.983175 32.503983 67.756456 0
M  V30 69 H 41.456240 29.542533 59.511885 0
M  V30 70 H 37.745100 28.274913 55.435914 0
M  V30 71 H 39.787261 30.197911 65.087976 0
M  V30 72 H 40.762696 28.889223 64.445179 0
M  V30 73 H 41.345319 30.238962 62.638042 0
M  V30 END ATOM
M  V30 BEGIN BOND
M  V30 1 1 3 2
M  V30 2 1 6 1
M  V30 3 1 8 7
M  V30 4 1 12 11
M  V30 5 2 14 9
M  V30 6 1 16 12
M  V30 7 1 18 7
M  V30 8 1 20 8
M  V30 9 1 20 15
M  V30 10 1 21 9
M  V30 11 2 21 16
M  V30 12 1 21 19
M  V30 13 1 22 4
M  V30 14 1 23 2
M  V30 15 1 24 1
M  V30 16 1 24 22
M  V30 17 1 25 3
M  V30 18 1 25 8
M  V30 19 1 26 10
M  V30 20 1 26 17
M  V30 21 1 26 22
M  V30 22 2 27 13
M  V30 23 1 27 15
M  V30 24 1 28 23
M  V30 25 1 28 24
M  V30 26 2 29 20
M  V30 27 1 31 5
M  V30 28 1 31 23
M  V30 29 1 31 28
M  V30 30 1 32 4
M  V30 31 1 32 10
M  V30 32 2 33 12
M  V30 33 1 33 14
M  V30 34 1 33 32
M  V30 35 1 34 3
M  V30 36 1 34 18
M  V30 37 1 35 7
M  V30 38 1 35 30
M  V30 39 1 36 1
M  V30 40 1 37 1
M  V30 41 1 38 2
M  V30 42 1 39 2
M  V30 43 1 40 5
M  V30 44 1 41 6
M  V30 45 1 7 42 CFG=1
M  V30 46 1 8 43 CFG=3
M  V30 47 1 44 9
M  V30 48 1 45 19
M  V30 49 1 46 10
M  V30 50 1 47 10
M  V30 51 1 48 11
M  V30 52 1 49 14
M  V30 53 1 50 15
M  V30 54 1 51 15
M  V30 55 1 52 16
M  V30 56 1 53 17
M  V30 57 1 54 18
M  V30 58 1 55 18
M  V30 59 1 22 56 CFG=1
M  V30 60 1 23 57 CFG=3
M  V30 61 1 24 58 CFG=1
M  V30 62 1 59 25
M  V30 63 1 60 25
M  V30 64 1 26 61 CFG=3
M  V30 65 1 62 27
M  V30 66 1 28 63 CFG=1
M  V30 67 1 64 29
M  V30 68 1 65 29
M  V30 69 1 66 30
M  V30 70 1 67 30
M  V30 71 1 68 30
M  V30 72 1 31 69 CFG=3
M  V30 73 1 32 70 CFG=1
M  V30 74 1 71 34
M  V30 75 1 72 34
M  V30 76 1 3 73 CFG=3
M  V30 END BOND
M  V30 END CTAB
M  END
>  <i_epik_Tot_Q>  (1) 
1

>  <i_epik_Tot_abs_Q>  (1) 
1

>  <i_i_glide_confnum>  (1) 
862

>  <i_i_glide_lignum>  (1) 
210

>  <i_i_glide_posenum>  (1) 
232

>  <i_i_glide_rotatable_bonds>  (1) 
15

>  <i_lp_mmshare_version>  (1) 
72125

>  <i_m_source_file_index>  (1) 
81

>  <i_f3d_flags>  (1) 
0

>  <num_sample>  (1) 
100

>  <b_lp_Chiralities_Consistent>  (1) 
1

>  <r_epik_Charging_Adjusted_Penalty>  (1) 
0.034071705691259377

>  <r_epik_Ionization_Penalty>  (1) 
0.043305258844254187

>  <r_epik_Ionization_Penalty_Charging>  (1) 
0.034071705691259377

>  <r_epik_Ionization_Penalty_Neutral>  (1) 
0.009233553152994808

>  <r_epik_State_Penalty>  (1) 
-0

>  <r_glide_ring_energy>  (1) 
0

>  <r_i_docking_score>  (1) 
-9.6102824089826928

>  <r_i_glide_ecoul>  (1) 
-19.539992911333719

>  <r_i_glide_eff_state_penalty>  (1) 
-0

>  <r_i_glide_einternal>  (1) 
16.992442243053617

>  <r_i_glide_emodel>  (1) 
-66.913936727810466

>  <r_i_glide_emodel_strain>  (1) 
6.9085650453794472

>  <r_i_glide_energy>  (1) 
-53.419738427130305

>  <r_i_glide_erotb>  (1) 
0.67144220787932085

>  <r_i_glide_esite>  (1) 
-0.016240182665117005

>  <r_i_glide_evdw>  (1) 
-33.879745515796586

>  <r_i_glide_gscore>  (1) 
-9.6102824089826928

>  <r_i_glide_gscore_strain>  (1) 
0.72714126134486179

>  <r_i_glide_hbond>  (1) 
-1.4131935558115376

>  <r_i_glide_ligand_efficiency>  (1) 
-0.27457949739950549

>  <r_i_glide_ligand_efficiency_ln>  (1) 
-2.109670277498076

>  <r_i_glide_ligand_efficiency_sa>  (1) 
-0.89816774341203809

>  <r_i_glide_lipo>  (1) 
-4.5259718610278314

>  <r_i_glide_metal>  (1) 
-0

>  <r_i_glide_rewards>  (1) 
-0.42847406621250411

>  <r_lp_Energy>  (1) 
30.281509

>  <r_lp_tautomer_probability>  (1) 
1

>  <s_epik_cmdline>  (1) 
J2VwaWtfcHl0aG9uJywgJy1waHQnLCAnMS4wJywgJy1waCcsICc3LjQnLCAnLXRuJywgJzgnLCAnLW1hJywgJzUwMCcsICctaW1hZScsICc8aW5maWxlLm1hZT4nLCAnLW9tYWUnLCAnPG91dGZpbGUubWFlPic=

>  <s_epik_input>  (1) 
Tz1bQ0hdW0NIMl1DKD1bQ0gyXSlbQ0BASF0oW0NASF0oW0NIMl1bQ0gyXTEpT1tDSDNdKVtDSDJdTjFbQ0gyXVtDQEBIXTJbQ0BASF0oW0NAQEhdMltPSF0pW0NAQEhdKFtDSDJdW09IXSlbQ0BASF0zT1tDQEhdKFtDSDJdW0NASF0zW09IXSlDND1bQ0hdW0NIMl1DKD1PKVtDSF09QzRbT0hd

>  <s_glide_docking_method>  (1) 
confgen

>  <s_i_glide_gridfile>  (1) 
gpcr_5ht2c_6bqh_protein_autoprepared_prepared

>  <s_lp_Force_Field>  (1) 
S-OPLS

>  <s_lp_Variant>  (1) 
DiffSBDD_80_num_sample_100-6

>  <s_m_source_file>  (1) 
generated__ligand_DiffSBDD_2026-05-06_prepared.sdf

>  <GenAI_Model>  (1) 
DiffSBDD

>  <Protein>  (1) 
GPCR_5HT2C

$$$$
DiffSBDD_78_num_sample_100
     RDKit          3D

  0  0  0  0  0  0  0  0  0  0999 V3000
M  V30 BEGIN CTAB
M  V30 COUNTS 65 70 0 0 1
M  V30 BEGIN ATOM
M  V30 1 C 39.008037 29.346173 57.315469 0
M  V30 2 C 40.440738 30.126971 63.729978 0
M  V30 3 C 40.542302 34.459673 62.708957 0
M  V30 4 C 38.692637 32.872026 62.034751 0 CFG=1
M  V30 5 C 38.816036 28.877620 55.884865 0
M  V30 6 C 37.434774 35.655261 61.198565 0
M  V30 7 C 40.795303 28.190775 60.472425 0
M  V30 8 C 40.268920 29.657207 62.299892 0
M  V30 9 C 40.756196 35.812024 62.694705 0
M  V30 10 C 39.144922 30.348053 61.523096 0 CFG=1
M  V30 11 C 39.067132 27.860242 52.945176 0
M  V30 12 C 39.199594 37.740069 61.853530 0
M  V30 13 C 39.598387 36.408223 62.127661 0
M  V30 14 O 38.504221 32.600517 60.646497 0
M  V30 15 C 38.806625 30.201274 53.772028 0
M  V30 16 C 39.203655 29.348190 52.815687 0
M  V30 17 C 39.199480 27.664464 55.469381 0
M  V30 18 C 39.492918 31.813608 61.329528 0 CFG=1
M  V30 19 C 40.047417 29.123716 59.497017 0 CFG=2
M  V30 20 O 38.856440 27.339164 58.510552 0
M  V30 21 C 40.304230 28.826327 50.639309 0
M  V30 22 C 37.068810 36.978789 60.932567 0
M  V30 23 C 39.204786 27.771002 50.558295 0
M  V30 24 N 39.282345 34.182737 62.163901 0
M  V30 25 C 39.067220 27.148889 54.111594 0
M  V30 26 O 37.588244 39.316678 61.015961 0
M  V30 27 C 38.102594 29.833292 55.012470 0
M  V30 28 C 37.945432 38.021557 61.263322 0
M  V30 29 C 39.815242 29.923908 51.547432 0
M  V30 30 C 38.800305 29.699485 60.173115 0
M  V30 31 N 41.021256 28.762310 61.793825 0
M  V30 32 C 38.681227 35.380109 61.788800 0
M  V30 33 N 39.740363 28.462052 58.223629 0
M  V30 34 O 39.036471 27.115935 51.794698 0
M  V30 35 H 38.006076 29.545315 57.694006 0
M  V30 36 H 39.529939 30.303935 57.270967 0
M  V30 37 H 39.483886 30.421053 64.161976 0
M  V30 38 H 40.855547 29.325430 64.343846 0
M  V30 39 H 41.117305 30.981125 63.769403 0
M  V30 40 H 41.177806 33.663375 63.066359 0
M  V30 41 H 37.818519 32.693172 62.653527 0
M  V30 42 H 36.762549 34.847264 60.948887 0
M  V30 43 H 41.757421 27.931396 60.031035 0
M  V30 44 H 40.267235 27.247716 60.598382 0
M  V30 45 H 41.631316 36.337472 63.050182 0
M  V30 46 H 38.245078 30.306364 62.137718 0
M  V30 47 H 39.865925 38.552960 62.100770 0
M  V30 48 H 38.940908 31.262661 53.609058 0
M  V30 49 H 39.645960 27.004252 56.194622 0
M  V30 50 H 40.508563 32.036582 61.006159 0
M  V30 51 H 40.720384 29.949776 59.280129 0
M  V30 52 H 38.093241 27.772383 58.862032 0
M  V30 53 H 41.210067 28.418315 51.070995 0
M  V30 54 H 40.553796 29.221367 49.653497 0
M  V30 55 H 36.114080 37.196243 60.476892 0
M  V30 56 H 39.446012 26.986695 49.853456 0
M  V30 57 H 38.267787 28.232079 50.253501 0
M  V30 58 H 39.039168 26.072812 54.011184 0
M  V30 59 H 36.796373 39.408913 60.496860 0
M  V30 60 H 37.120014 29.428386 54.762506 0
M  V30 61 H 37.906324 30.756316 55.562183 0
M  V30 62 H 40.618579 30.621506 51.786934 0
M  V30 63 H 39.067403 30.465771 50.982085 0
M  V30 64 H 38.046154 28.922203 60.254682 0
M  V30 65 H 38.325720 30.455097 59.550578 0
M  V30 END ATOM
M  V30 BEGIN BOND
M  V30 1 1 5 1
M  V30 2 1 8 2
M  V30 3 2 9 3
M  V30 4 1 10 8
M  V30 5 1 13 9
M  V30 6 1 13 12
M  V30 7 1 14 4
M  V30 8 1 16 11
M  V30 9 2 16 15
M  V30 10 2 17 5
M  V30 11 1 18 4
M  V30 12 1 18 10
M  V30 13 1 18 14
M  V30 14 1 19 7
M  V30 15 2 22 6
M  V30 16 1 23 21
M  V30 17 1 24 3
M  V30 18 1 24 4
M  V30 19 2 25 11
M  V30 20 1 25 17
M  V30 21 1 27 5
M  V30 22 1 27 15
M  V30 23 2 28 12
M  V30 24 1 28 22
M  V30 25 1 28 26
M  V30 26 1 29 16
M  V30 27 1 29 21
M  V30 28 1 30 10
M  V30 29 1 30 19
M  V30 30 1 31 7
M  V30 31 2 31 8
M  V30 32 1 32 6
M  V30 33 2 32 13
M  V30 34 1 32 24
M  V30 35 1 33 1
M  V30 36 1 33 19
M  V30 37 1 33 20
M  V30 38 1 34 11
M  V30 39 1 34 23
M  V30 40 1 35 1
M  V30 41 1 36 1
M  V30 42 1 37 2
M  V30 43 1 38 2
M  V30 44 1 39 2
M  V30 45 1 40 3
M  V30 46 1 4 41 CFG=1
M  V30 47 1 42 6
M  V30 48 1 43 7
M  V30 49 1 44 7
M  V30 50 1 45 9
M  V30 51 1 10 46 CFG=1
M  V30 52 1 47 12
M  V30 53 1 48 15
M  V30 54 1 49 17
M  V30 55 1 18 50 CFG=3
M  V30 56 1 19 51 CFG=3
M  V30 57 1 52 20
M  V30 58 1 53 21
M  V30 59 1 54 21
M  V30 60 1 55 22
M  V30 61 1 56 23
M  V30 62 1 57 23
M  V30 63 1 58 25
M  V30 64 1 59 26
M  V30 65 1 60 27
M  V30 66 1 61 27
M  V30 67 1 62 29
M  V30 68 1 63 29
M  V30 69 1 64 30
M  V30 70 1 65 30
M  V30 END BOND
M  V30 END CTAB
M  END
>  <i_epik_Tot_Q>  (1) 
0

>  <i_epik_Tot_abs_Q>  (1) 
0

>  <i_i_glide_confnum>  (1) 
162

>  <i_i_glide_lignum>  (1) 
198

>  <i_i_glide_posenum>  (1) 
200

>  <i_i_glide_rotatable_bonds>  (1) 
7

>  <i_lp_mmshare_version>  (1) 
72125

>  <i_m_source_file_index>  (1) 
79

>  <i_f3d_flags>  (1) 
0

>  <num_sample>  (1) 
100

>  <b_lp_Chiralities_Consistent>  (1) 
1

>  <r_epik_Charging_Adjusted_Penalty>  (1) 
0

>  <r_epik_Ionization_Penalty>  (1) 
0.004645851909936884

>  <r_epik_Ionization_Penalty_Charging>  (1) 
0

>  <r_epik_Ionization_Penalty_Neutral>  (1) 
0.004645851909936884

>  <r_epik_State_Penalty>  (1) 
-0

>  <r_glide_ring_energy>  (1) 
0

>  <r_i_docking_score>  (1) 
-9.5789768188530982

>  <r_i_glide_ecoul>  (1) 
-4.1076223457892427

>  <r_i_glide_eff_state_penalty>  (1) 
-0

>  <r_i_glide_einternal>  (1) 
6.4374395877569803

>  <r_i_glide_emodel>  (1) 
-71.94702691169131

>  <r_i_glide_emodel_strain>  (1) 
0.015718765683033098

>  <r_i_glide_energy>  (1) 
-48.590885256391701

>  <r_i_glide_erotb>  (1) 
0.47260877555534697

>  <r_i_glide_esite>  (1) 
-0.018992501422515309

>  <r_i_glide_evdw>  (1) 
-44.483262910602456

>  <r_i_glide_gscore>  (1) 
-9.5789768188530982

>  <r_i_glide_gscore_strain>  (1) 
0

>  <r_i_glide_hbond>  (1) 
-0.51377313616819531

>  <r_i_glide_ligand_efficiency>  (1) 
-0.28173461231920877

>  <r_i_glide_ligand_efficiency_ln>  (1) 
-2.1162646604835795

>  <r_i_glide_ligand_efficiency_sa>  (1) 
-0.91271077489764552

>  <r_i_glide_lipo>  (1) 
-5.023683576516774

>  <r_i_glide_metal>  (1) 
-0

>  <r_i_glide_rewards>  (1) 
-1.6548298829024528

>  <r_lp_Energy>  (1) 
27.740355999999998

>  <r_lp_tautomer_probability>  (1) 
1

>  <s_epik_Chemistry_Notes>  (1) 
This compound has an imine and may undergo hydrolysis. This compound contains an acetal/aminal-like group ( X-CH(R)-Y where X, Y are N, S, or O) that may be acid/base labile, releasing an aldehyde. This compound has a N-S or N-O group and may undergo hydrolysis at high or low pH.

>  <s_epik_cmdline>  (1) 
J2VwaWtfcHl0aG9uJywgJy1waHQnLCAnMS4wJywgJy1waCcsICc3LjQnLCAnLXRuJywgJzgnLCAnLW1hJywgJzUwMCcsICctaW1hZScsICc8aW5maWxlLm1hZT4nLCAnLW9tYWUnLCAnPG91dGZpbGUubWFlPic=

>  <s_epik_input>  (1) 
TzFbQ0gyXVtDSDJdW0NIMl1DKEMxPTIpPVtDSF1bQ0gyXUMoPVtDSF1bQ0hdMilbQ0gyXU4oW09IXSlbQ0BIXShbQ0gyXU49QzNbQ0gzXSlbQ0gyXVtDQEBIXTNbQ0BIXTRPW0NAQEhdNG4oW2NIXVtjSF01KWMoYzU2KVtjSF1bY0hdYyhbY0hdNilbT0hd

>  <s_glide_docking_method>  (1) 
confgen

>  <s_i_glide_gridfile>  (1) 
gpcr_5ht2c_6bqh_protein_autoprepared_prepared

>  <s_lp_Force_Field>  (1) 
S-OPLS

>  <s_lp_Variant>  (1) 
DiffSBDD_78_num_sample_100-1

>  <s_m_source_file>  (1) 
generated__ligand_DiffSBDD_2026-05-06_prepared.sdf

>  <GenAI_Model>  (1) 
DiffSBDD

>  <Protein>  (1) 
GPCR_5HT2C

$$$$
DiffSBDD_77_num_sample_100
     RDKit          3D

  0  0  0  0  0  0  0  0  0  0999 V3000
M  V30 BEGIN CTAB
M  V30 COUNTS 76 78 0 0 1
M  V30 BEGIN ATOM
M  V30 1 C 39.890228 30.309606 52.145448 0
M  V30 2 F 39.261615 27.221719 50.258596 0
M  V30 3 C 42.337794 30.503557 63.328602 0
M  V30 4 C 39.186225 30.038204 53.334265 0
M  V30 5 C 40.329539 35.251880 62.071888 0
M  V30 6 C 38.732392 29.954905 56.665511 0
M  V30 7 C 38.881347 30.296927 61.309871 0
M  V30 8 C 39.563411 29.312496 59.072107 0 CFG=2
M  V30 9 O 41.395031 32.862970 62.465873 0
M  V30 10 C 40.136146 36.781705 62.043027 0
M  V30 11 N 39.184716 25.390399 56.617643 0
M  V30 12 C 37.727950 28.521582 54.761881 0
M  V30 13 C 39.237230 28.135288 51.256143 0
M  V30 14 O 41.067500 27.995576 64.005697 0
M  V30 15 C 40.882051 28.480204 62.692117 0
M  V30 16 C 38.503363 28.814304 53.484994 0
M  V30 17 F 40.597046 29.621555 49.965671 0
M  V30 18 C 40.672595 27.907831 57.187024 0
M  V30 19 O 37.467368 24.311497 57.604096 0
M  V30 20 O 37.186493 29.678006 58.489283 0
M  V30 21 C 39.917152 29.358630 51.107252 0
M  V30 22 C 37.886925 36.411358 60.972052 0
M  V30 23 N 39.315467 32.990958 61.529551 0
M  V30 24 C 39.667248 26.348814 55.630871 0
M  V30 25 C 38.529788 27.862738 52.441863 0
M  V30 26 C 41.067529 29.999548 62.633714 0
M  V30 27 C 37.887741 25.110514 56.774752 0
M  V30 28 C 38.040862 34.963793 60.981658 0
M  V30 29 C 39.944897 27.910866 58.548359 0
M  V30 30 F 36.760569 36.939993 60.464336 0
M  V30 31 C 36.934056 34.072481 60.431307 0
M  V30 32 C 38.530242 28.519143 56.095132 0 CFG=1
M  V30 33 C 40.386896 32.310683 62.034736 0
M  V30 34 N 39.063757 29.130320 60.433283 0
M  V30 35 C 40.155394 30.833279 62.012871 0
M  V30 36 C 39.169522 34.416741 61.492140 0
M  V30 37 C 38.822023 37.242436 61.453509 0
M  V30 38 C 38.520863 30.069006 58.191795 0 CFG=2
M  V30 39 N 39.795082 27.761012 56.017016 0
M  V30 40 H 40.411298 31.248539 52.029753 0
M  V30 41 H 42.093499 31.095456 64.211361 0
M  V30 42 H 42.958459 29.672225 63.662783 0
M  V30 43 H 42.973391 31.082551 62.659135 0
M  V30 44 H 39.165849 30.772043 54.124814 0
M  V30 45 H 40.483801 34.981370 63.117256 0
M  V30 46 H 41.244286 35.045132 61.514184 0
M  V30 47 H 39.706870 30.355620 56.385550 0
M  V30 48 H 38.014517 30.633688 56.202880 0
M  V30 49 H 38.221491 30.021425 62.131037 0
M  V30 50 H 38.316218 31.038073 60.751088 0
M  V30 51 H 40.481195 29.894716 59.110497 0
M  V30 52 H 40.940683 37.221373 61.453749 0
M  V30 53 H 40.230895 37.193664 63.048937 0
M  V30 54 H 39.864383 24.927561 57.202352 0
M  V30 55 H 37.227325 27.560083 54.647449 0
M  V30 56 H 36.910928 29.240821 54.822794 0
M  V30 57 H 40.267578 28.155930 64.488069 0
M  V30 58 H 41.608191 28.021448 62.022337 0
M  V30 59 H 39.895108 28.118760 62.426216 0
M  V30 60 H 41.249756 28.821418 57.088512 0
M  V30 61 H 41.422055 27.114282 57.176656 0
M  V30 62 H 36.592799 30.259455 58.023811 0
M  V30 63 H 38.536935 32.456864 61.177815 0
M  V30 64 H 39.095121 26.245873 54.709637 0
M  V30 65 H 40.664949 26.008922 55.350273 0
M  V30 66 H 38.005047 26.924634 52.550243 0
M  V30 67 H 37.261642 25.683505 56.073333 0
M  V30 68 H 40.635635 27.475617 59.270908 0
M  V30 69 H 39.081343 27.246328 58.552415 0
M  V30 70 H 36.104058 34.652385 60.027557 0
M  V30 71 H 37.312374 33.443481 59.624144 0
M  V30 72 H 36.534248 33.430829 61.216873 0
M  V30 73 H 37.882907 27.994610 56.796744 0
M  V30 74 H 38.149941 28.698026 60.318420 0
M  V30 75 H 38.653920 38.308505 61.422356 0
M  V30 76 H 38.584587 31.127431 58.447834 0
M  V30 END ATOM
M  V30 BEGIN BOND
M  V30 1 2 4 1
M  V30 2 1 10 5
M  V30 3 1 13 2
M  V30 4 1 15 14
M  V30 5 1 16 4
M  V30 6 1 16 12
M  V30 7 1 21 1
M  V30 8 2 21 13
M  V30 9 1 21 17
M  V30 10 1 24 11
M  V30 11 1 25 13
M  V30 12 2 25 16
M  V30 13 1 26 3
M  V30 14 1 26 15
M  V30 15 1 27 11
M  V30 16 2 27 19
M  V30 17 1 28 22
M  V30 18 1 29 8
M  V30 19 1 29 18
M  V30 20 1 30 22
M  V30 21 1 31 28
M  V30 22 1 32 6
M  V30 23 1 32 12
M  V30 24 2 33 9
M  V30 25 1 33 23
M  V30 26 1 34 7
M  V30 27 1 34 8
M  V30 28 1 35 7
M  V30 29 2 35 26
M  V30 30 1 35 33
M  V30 31 1 36 5
M  V30 32 1 36 23
M  V30 33 2 36 28
M  V30 34 1 37 10
M  V30 35 2 37 22
M  V30 36 1 38 6
M  V30 37 1 38 8
M  V30 38 1 38 20
M  V30 39 1 39 18
M  V30 40 1 39 24
M  V30 41 1 39 32
M  V30 42 1 40 1
M  V30 43 1 41 3
M  V30 44 1 42 3
M  V30 45 1 43 3
M  V30 46 1 44 4
M  V30 47 1 45 5
M  V30 48 1 46 5
M  V30 49 1 47 6
M  V30 50 1 48 6
M  V30 51 1 49 7
M  V30 52 1 50 7
M  V30 53 1 8 51 CFG=1
M  V30 54 1 52 10
M  V30 55 1 53 10
M  V30 56 1 54 11
M  V30 57 1 55 12
M  V30 58 1 56 12
M  V30 59 1 57 14
M  V30 60 1 58 15
M  V30 61 1 59 15
M  V30 62 1 60 18
M  V30 63 1 61 18
M  V30 64 1 62 20
M  V30 65 1 63 23
M  V30 66 1 64 24
M  V30 67 1 65 24
M  V30 68 1 66 25
M  V30 69 1 67 27
M  V30 70 1 68 29
M  V30 71 1 69 29
M  V30 72 1 70 31
M  V30 73 1 71 31
M  V30 74 1 72 31
M  V30 75 1 32 73 CFG=1
M  V30 76 1 74 34
M  V30 77 1 75 37
M  V30 78 1 38 76 CFG=1
M  V30 END BOND
M  V30 END CTAB
M  END
>  <i_epik_Tot_Q>  (1) 
0

>  <i_epik_Tot_abs_Q>  (1) 
0

>  <i_i_glide_confnum>  (1) 
1240

>  <i_i_glide_lignum>  (1) 
191

>  <i_i_glide_posenum>  (1) 
59

>  <i_i_glide_rotatable_bonds>  (1) 
14

>  <i_lp_mmshare_version>  (1) 
72125

>  <i_m_source_file_index>  (1) 
78

>  <i_f3d_flags>  (1) 
0

>  <num_sample>  (1) 
100

>  <b_lp_Chiralities_Consistent>  (1) 
1

>  <r_epik_Charging_Adjusted_Penalty>  (1) 
0.53836467660946008

>  <r_epik_Ionization_Penalty>  (1) 
0.66160028736033039

>  <r_epik_Ionization_Penalty_Charging>  (1) 
0

>  <r_epik_Ionization_Penalty_Neutral>  (1) 
0.66160028736033039

>  <r_epik_State_Penalty>  (1) 
0.53836467660946008

>  <r_glide_ring_energy>  (1) 
0

>  <r_i_docking_score>  (1) 
-9.5687704208093542

>  <r_i_glide_ecoul>  (1) 
-4.6009410735614686

>  <r_i_glide_eff_state_penalty>  (1) 
0.53836467660946008

>  <r_i_glide_einternal>  (1) 
27.656889835444151

>  <r_i_glide_emodel>  (1) 
-80.048456019114482

>  <r_i_glide_emodel_strain>  (1) 
0.6205907093623324

>  <r_i_glide_energy>  (1) 
-62.973344304908636

>  <r_i_glide_erotb>  (1) 
0.6830181953671759

>  <r_i_glide_esite>  (1) 
0

>  <r_i_glide_evdw>  (1) 
-58.372403231347171

>  <r_i_glide_gscore>  (1) 
-10.107135097418814

>  <r_i_glide_gscore_strain>  (1) 
0

>  <r_i_glide_hbond>  (1) 
-0.29705130590261702

>  <r_i_glide_ligand_efficiency>  (1) 
-0.24535308771306036

>  <r_i_glide_ligand_efficiency_ln>  (1) 
-2.0518160039227973

>  <r_i_glide_ligand_efficiency_sa>  (1) 
-0.83204419863138901

>  <r_i_glide_lipo>  (1) 
-4.3722843958114543

>  <r_i_glide_metal>  (1) 
-0

>  <r_i_glide_rewards>  (1) 
-2.5120562684703391

>  <r_lp_Energy>  (1) 
35.999558999999998

>  <s_epik_Chemistry_Notes>  (1) 
This compound contains an acetal/aminal-like group ( X-CH(R)-Y where X, Y are N, S, or O) that may be acid/base labile, releasing an aldehyde.

>  <s_epik_cmdline>  (1) 
J2VwaWtfcHl0aG9uJywgJy1waHQnLCAnMS4wJywgJy1waCcsICc3LjQnLCAnLXRuJywgJzgnLCAnLW1hJywgJzUwMCcsICctaW1hZScsICc8aW5maWxlLm1hZT4nLCAnLW9tYWUnLCAnPG91dGZpbGUubWFlPic=

>  <s_epik_input>  (1) 
RmMxYyhGKVtjSF1bY0hdYyhbY0hdMSlbQ0gyXVtDQEhdKFtDSDJdW0NASF0yW09IXSlOKFtDSDJdW05IXVtDSF09TylbQ0gyXVtDSDJdW0NAQEhdMltOSF1bQ0gyXVxDKD1DKFxbQ0gzXSlbQ0gyXVtPSF0pQyg9TylbTkhdQyg9QzNbQ0gzXSlbQ0gyXVtDSDJdW0NIXT1DM0Y=

>  <s_glide_docking_method>  (1) 
confgen

>  <s_i_glide_gridfile>  (1) 
gpcr_5ht2c_6bqh_protein_autoprepared_prepared

>  <s_lp_Force_Field>  (1) 
S-OPLS

>  <s_lp_Variant>  (1) 
DiffSBDD_77_num_sample_100-2

>  <s_m_source_file>  (1) 
generated__ligand_DiffSBDD_2026-05-06_prepared.sdf

>  <GenAI_Model>  (1) 
DiffSBDD

>  <Protein>  (1) 
GPCR_5HT2C

$$$$
DiffSBDD_77_num_sample_100
     RDKit          3D

  0  0  0  0  0  0  0  0  0  0999 V3000
M  V30 BEGIN CTAB
M  V30 COUNTS 76 78 0 0 1
M  V30 BEGIN ATOM
M  V30 1 C 39.867406 30.357473 52.131641 0
M  V30 2 F 39.604642 27.217888 50.253500 0
M  V30 3 C 40.411187 28.201870 62.359934 0
M  V30 4 C 39.082619 30.052652 53.258797 0
M  V30 5 C 40.745328 35.024684 62.215115 0
M  V30 6 C 38.511754 29.936263 56.488215 0
M  V30 7 C 38.660345 30.374302 61.161218 0
M  V30 8 C 39.259314 29.362018 58.931626 0 CFG=2
M  V30 9 O 41.456365 32.494051 62.539040 0
M  V30 10 C 40.795672 36.562719 62.138951 0
M  V30 11 N 38.621675 25.472405 56.572585 0
M  V30 12 C 37.604698 28.463095 54.579309 0
M  V30 13 C 39.433947 28.137245 51.226711 0
M  V30 14 O 42.829109 28.794723 63.530152 0
M  V30 15 C 42.092890 29.964716 63.223511 0
M  V30 16 C 38.467027 28.789975 53.369824 0
M  V30 17 F 40.796790 29.697341 50.030660 0
M  V30 18 C 40.423510 27.902562 57.135233 0
M  V30 19 O 37.067404 24.798007 55.061983 0
M  V30 20 O 36.909707 29.721129 58.267587 0
M  V30 21 C 40.042927 29.401119 51.115450 0
M  V30 22 C 38.358299 36.551593 61.524553 0
M  V30 23 N 39.386287 32.952467 61.687256 0
M  V30 24 C 39.408837 26.281962 55.641945 0
M  V30 25 C 38.645210 27.831307 52.350633 0
M  V30 26 C 40.779125 29.683459 62.463324 0
M  V30 27 C 37.517377 24.803761 56.206402 0
M  V30 28 C 38.318804 35.099263 61.434807 0
M  V30 29 C 39.649170 27.943434 58.467644 0
M  V30 30 F 37.237612 37.248186 61.270183 0
M  V30 31 C 37.041314 34.392835 60.998117 0
M  V30 32 C 38.324427 28.485127 55.953794 0 CFG=1
M  V30 33 C 40.382902 32.107498 62.087294 0
M  V30 34 N 38.667402 29.221427 60.253504 0
M  V30 35 C 39.980479 30.678631 61.923104 0
M  V30 36 C 39.422379 34.382471 61.755077 0
M  V30 37 C 39.469362 37.224602 61.853504 0
M  V30 38 C 38.254490 30.098626 57.998625 0 CFG=2
M  V30 39 N 39.581079 27.708319 55.948720 0
M  V30 40 H 40.334404 31.327560 52.045487 0
M  V30 41 H 40.936511 27.736191 61.527752 0
M  V30 42 H 40.667414 27.667093 63.274457 0
M  V30 43 H 39.345448 28.021427 62.253498 0
M  V30 44 H 38.947147 30.792392 54.030743 0
M  V30 45 H 40.927676 34.750944 63.255385 0
M  V30 46 H 41.572394 34.664725 61.603493 0
M  V30 47 H 39.493772 30.330417 56.226214 0
M  V30 48 H 37.801718 30.598872 55.990909 0
M  V30 49 H 37.915980 30.209655 61.939664 0
M  V30 50 H 38.281926 31.216294 60.586327 0
M  V30 51 H 40.178877 29.941959 58.999762 0
M  V30 52 H 41.467399 36.853623 61.332863 0
M  V30 53 H 41.217769 36.972806 63.053498 0
M  V30 54 H 38.928718 25.426522 57.532372 0
M  V30 55 H 37.142308 27.487649 54.427525 0
M  V30 56 H 36.766492 29.160171 54.592361 0
M  V30 57 H 43.176282 28.421430 62.729164 0
M  V30 58 H 41.865745 30.472240 64.162002 0
M  V30 59 H 42.777707 30.586484 62.653502 0
M  V30 60 H 40.994862 28.821423 57.019490 0
M  V30 61 H 41.179578 27.116807 57.175557 0
M  V30 62 H 36.332625 30.332174 57.813602 0
M  V30 63 H 38.527612 32.546732 61.350155 0
M  V30 64 H 39.040912 26.186887 54.621491 0
M  V30 65 H 40.397255 25.822910 55.589104 0
M  V30 66 H 38.174268 26.861720 52.429756 0
M  V30 67 H 37.075831 24.267158 57.060446 0
M  V30 68 H 40.309673 27.522339 59.226041 0
M  V30 69 H 38.778528 27.289119 58.461198 0
M  V30 70 H 36.261754 35.100950 60.720340 0
M  V30 71 H 37.227414 33.761680 60.128215 0
M  V30 72 H 36.651647 33.770640 61.804457 0
M  V30 73 H 37.636807 27.984864 56.635089 0
M  V30 74 H 37.694204 28.989319 60.060657 0
M  V30 75 H 39.445940 38.302657 61.904633 0
M  V30 76 H 38.313880 31.163462 58.228575 0
M  V30 END ATOM
M  V30 BEGIN BOND
M  V30 1 2 4 1
M  V30 2 1 10 5
M  V30 3 1 13 2
M  V30 4 1 15 14
M  V30 5 1 16 4
M  V30 6 1 16 12
M  V30 7 1 21 1
M  V30 8 2 21 13
M  V30 9 1 21 17
M  V30 10 1 24 11
M  V30 11 1 25 13
M  V30 12 2 25 16
M  V30 13 1 26 3
M  V30 14 1 26 15
M  V30 15 1 27 11
M  V30 16 2 27 19
M  V30 17 1 28 22
M  V30 18 1 29 8
M  V30 19 1 29 18
M  V30 20 1 30 22
M  V30 21 1 31 28
M  V30 22 1 32 6
M  V30 23 1 32 12
M  V30 24 2 33 9
M  V30 25 1 33 23
M  V30 26 1 34 7
M  V30 27 1 34 8
M  V30 28 1 35 7
M  V30 29 2 35 26
M  V30 30 1 35 33
M  V30 31 1 36 5
M  V30 32 1 36 23
M  V30 33 2 36 28
M  V30 34 1 37 10
M  V30 35 2 37 22
M  V30 36 1 38 6
M  V30 37 1 38 8
M  V30 38 1 38 20
M  V30 39 1 39 18
M  V30 40 1 39 24
M  V30 41 1 39 32
M  V30 42 1 40 1
M  V30 43 1 41 3
M  V30 44 1 42 3
M  V30 45 1 43 3
M  V30 46 1 44 4
M  V30 47 1 45 5
M  V30 48 1 46 5
M  V30 49 1 47 6
M  V30 50 1 48 6
M  V30 51 1 49 7
M  V30 52 1 50 7
M  V30 53 1 8 51 CFG=1
M  V30 54 1 52 10
M  V30 55 1 53 10
M  V30 56 1 54 11
M  V30 57 1 55 12
M  V30 58 1 56 12
M  V30 59 1 57 14
M  V30 60 1 58 15
M  V30 61 1 59 15
M  V30 62 1 60 18
M  V30 63 1 61 18
M  V30 64 1 62 20
M  V30 65 1 63 23
M  V30 66 1 64 24
M  V30 67 1 65 24
M  V30 68 1 66 25
M  V30 69 1 67 27
M  V30 70 1 68 29
M  V30 71 1 69 29
M  V30 72 1 70 31
M  V30 73 1 71 31
M  V30 74 1 72 31
M  V30 75 1 32 73 CFG=1
M  V30 76 1 74 34
M  V30 77 1 75 37
M  V30 78 1 38 76 CFG=1
M  V30 END BOND
M  V30 END CTAB
M  END
>  <i_epik_Tot_Q>  (1) 
0

>  <i_epik_Tot_abs_Q>  (1) 
0

>  <i_i_glide_confnum>  (1) 
1159

>  <i_i_glide_lignum>  (1) 
190

>  <i_i_glide_posenum>  (1) 
329

>  <i_i_glide_rotatable_bonds>  (1) 
14

>  <i_lp_mmshare_version>  (1) 
72125

>  <i_m_source_file_index>  (1) 
78

>  <i_f3d_flags>  (1) 
0

>  <num_sample>  (1) 
100

>  <b_lp_Chiralities_Consistent>  (1) 
1

>  <r_epik_Charging_Adjusted_Penalty>  (1) 
0.53836467660946008

>  <r_epik_Ionization_Penalty>  (1) 
0.66160028736033039

>  <r_epik_Ionization_Penalty_Charging>  (1) 
0

>  <r_epik_Ionization_Penalty_Neutral>  (1) 
0.66160028736033039

>  <r_epik_State_Penalty>  (1) 
0.53836467660946008

>  <r_glide_ring_energy>  (1) 
0

>  <r_i_docking_score>  (1) 
-9.4958340059082396

>  <r_i_glide_ecoul>  (1) 
-3.8726409813975078

>  <r_i_glide_eff_state_penalty>  (1) 
0.53836467660946008

>  <r_i_glide_einternal>  (1) 
14.268368248193841

>  <r_i_glide_emodel>  (1) 
-89.199383949250489

>  <r_i_glide_emodel_strain>  (1) 
1.9629366005628555

>  <r_i_glide_energy>  (1) 
-60.20604381466925

>  <r_i_glide_erotb>  (1) 
0.6830181953671759

>  <r_i_glide_esite>  (1) 
0

>  <r_i_glide_evdw>  (1) 
-56.333402833271741

>  <r_i_glide_gscore>  (1) 
-10.034198682517699

>  <r_i_glide_gscore_strain>  (1) 
0

>  <r_i_glide_hbond>  (1) 
-0.45599999999999996

>  <r_i_glide_ligand_efficiency>  (1) 
-0.24348292322841639

>  <r_i_glide_ligand_efficiency_ln>  (1) 
-2.0361763661447387

>  <r_i_glide_ligand_efficiency_sa>  (1) 
-0.8257020754307457

>  <r_i_glide_lipo>  (1) 
-4.4469380472340507

>  <r_i_glide_metal>  (1) 
-0

>  <r_i_glide_rewards>  (1) 
-2.4167125417776116

>  <r_lp_Energy>  (1) 
37.727160999999995

>  <s_epik_Chemistry_Notes>  (1) 
This compound contains an acetal/aminal-like group ( X-CH(R)-Y where X, Y are N, S, or O) that may be acid/base labile, releasing an aldehyde.

>  <s_epik_cmdline>  (1) 
J2VwaWtfcHl0aG9uJywgJy1waHQnLCAnMS4wJywgJy1waCcsICc3LjQnLCAnLXRuJywgJzgnLCAnLW1hJywgJzUwMCcsICctaW1hZScsICc8aW5maWxlLm1hZT4nLCAnLW9tYWUnLCAnPG91dGZpbGUubWFlPic=

>  <s_epik_input>  (1) 
RmMxYyhGKVtjSF1bY0hdYyhbY0hdMSlbQ0gyXVtDQEhdKFtDSDJdW0NASF0yW09IXSlOKFtDSDJdW05IXVtDSF09TylbQ0gyXVtDSDJdW0NAQEhdMltOSF1bQ0gyXS9DKD1DKFxbQ0gzXSlbQ0gyXVtPSF0pQyg9TylbTkhdQyg9QzNbQ0gzXSlbQ0gyXVtDSDJdW0NIXT1DM0Y=

>  <s_glide_docking_method>  (1) 
confgen

>  <s_i_glide_gridfile>  (1) 
gpcr_5ht2c_6bqh_protein_autoprepared_prepared

>  <s_lp_Force_Field>  (1) 
S-OPLS

>  <s_lp_Variant>  (1) 
DiffSBDD_77_num_sample_100-1

>  <s_m_source_file>  (1) 
generated__ligand_DiffSBDD_2026-05-06_prepared.sdf

>  <GenAI_Model>  (1) 
DiffSBDD

>  <Protein>  (1) 
GPCR_5HT2C

$$$$
DiffSBDD_77_num_sample_100
     RDKit          3D

  0  0  0  0  0  0  0  0  0  0999 V3000
M  V30 BEGIN CTAB
M  V30 COUNTS 77 79 0 0 1
M  V30 BEGIN ATOM
M  V30 1 C 39.125563 27.983121 51.013778 0
M  V30 2 F 40.667402 31.221423 51.784887 0
M  V30 3 C 41.106419 31.200255 64.100733 0
M  V30 4 C 38.337147 27.791402 52.160752 0
M  V30 5 C 37.769061 33.864531 61.316258 0
M  V30 6 C 38.585348 29.779146 56.388720 0
M  V30 7 C 39.592460 28.765345 61.298012 0
M  V30 8 C 39.236231 28.960122 58.785472 0 CFG=2
M  V30 9 O 37.998818 31.240608 61.198725 0
M  V30 10 C 37.201949 35.292660 61.172699 0
M  V30 11 N 37.745380 25.490029 55.721826 0
M  V30 12 C 37.467471 28.553695 54.416062 0
M  V30 13 C 39.911726 30.107787 51.908226 0
M  V30 14 O 42.980530 29.015619 63.453506 0
M  V30 15 C 41.594917 28.754385 63.504371 0
M  V30 16 C 38.334009 28.758080 53.186114 0
M  V30 17 F 40.660518 29.333129 49.774020 0
M  V30 18 C 40.184630 27.438659 56.925342 0
M  V30 19 O 38.672192 24.370419 57.453500 0
M  V30 20 O 36.952939 29.621428 58.174320 0
M  V30 21 C 39.909349 29.143454 50.884278 0
M  V30 22 C 39.308806 36.164637 62.238803 0
M  V30 23 N 39.652762 32.423285 62.231773 0
M  V30 24 C 38.988170 26.105170 55.258940 0
M  V30 25 C 39.126866 29.915687 53.060241 0
M  V30 26 C 40.790267 30.014585 63.179933 0
M  V30 27 C 37.692843 24.672794 56.778404 0
M  V30 28 C 39.844178 34.826541 62.448857 0
M  V30 29 C 39.418429 27.518738 58.262142 0
M  V30 30 F 40.033266 37.221399 62.640784 0
M  V30 31 C 41.190898 34.643972 63.135797 0
M  V30 32 C 38.210025 28.405792 55.769198 0 CFG=1
M  V30 33 C 39.061351 31.266527 61.816420 0
M  V30 34 N 38.667422 28.918422 60.147592 0 CHG=1
M  V30 35 C 39.858969 30.031169 62.148059 0
M  V30 36 C 39.135368 33.750547 62.026895 0
M  V30 37 C 38.119559 36.388330 61.662202 0
M  V30 38 C 38.327565 29.863032 57.907344 0 CFG=2
M  V30 39 N 39.339376 27.456810 55.723769 0
M  V30 40 H 39.124561 27.241404 50.230218 0
M  V30 41 H 41.623313 30.832479 64.987893 0
M  V30 42 H 41.796085 31.900975 63.631961 0
M  V30 43 H 40.221619 31.698980 64.497922 0
M  V30 44 H 37.731451 26.902401 52.253529 0
M  V30 45 H 37.860402 33.466249 60.304506 0
M  V30 46 H 37.012529 33.291313 61.853500 0
M  V30 47 H 39.615452 30.049854 56.153395 0
M  V30 48 H 37.980716 30.562126 55.928623 0
M  V30 49 H 40.533661 28.350373 60.935394 0
M  V30 50 H 39.151164 28.021427 61.961039 0
M  V30 51 H 40.216173 29.438060 58.835424 0
M  V30 52 H 36.267406 35.369544 61.729249 0
M  V30 53 H 36.953393 35.492067 60.129557 0
M  V30 54 H 36.898416 25.691703 55.211938 0
M  V30 55 H 36.846486 27.673191 54.251488 0
M  V30 56 H 36.756126 29.378696 54.470159 0
M  V30 57 H 43.381258 28.456442 62.797087 0
M  V30 58 H 41.378768 27.894823 62.876181 0
M  V30 59 H 41.344446 28.444309 64.519782 0
M  V30 60 H 40.893271 28.265295 56.864155 0
M  V30 61 H 40.810693 26.545388 56.920387 0
M  V30 62 H 36.430761 30.300045 57.748437 0
M  V30 63 H 40.535884 32.358176 62.717199 0
M  V30 64 H 38.895556 26.151198 54.177537 0
M  V30 65 H 39.828783 25.420881 55.395292 0
M  V30 66 H 39.127369 30.660938 53.840643 0
M  V30 67 H 36.667422 24.314602 56.955874 0
M  V30 68 H 40.001114 26.960347 58.995072 0
M  V30 69 H 38.460724 27.003401 58.211494 0
M  V30 70 H 41.702455 35.595324 63.285790 0
M  V30 71 H 41.056886 34.187177 64.116081 0
M  V30 72 H 41.851679 34.017318 62.536422 0
M  V30 73 H 37.467464 27.967560 56.433321 0
M  V30 74 H 37.972589 28.186270 60.158745 0
M  V30 75 H 37.771683 37.403042 61.533171 0
M  V30 76 H 38.504194 30.896336 58.212141 0
M  V30 77 H 38.168063 29.794500 60.289001 0
M  V30 END ATOM
M  V30 BEGIN BOND
M  V30 1 2 4 1
M  V30 2 1 10 5
M  V30 3 1 13 2
M  V30 4 1 15 14
M  V30 5 1 16 4
M  V30 6 1 16 12
M  V30 7 1 21 1
M  V30 8 2 21 13
M  V30 9 1 21 17
M  V30 10 1 24 11
M  V30 11 1 25 13
M  V30 12 2 25 16
M  V30 13 1 26 3
M  V30 14 1 26 15
M  V30 15 1 27 11
M  V30 16 2 27 19
M  V30 17 1 28 22
M  V30 18 1 29 8
M  V30 19 1 29 18
M  V30 20 1 30 22
M  V30 21 1 31 28
M  V30 22 1 32 6
M  V30 23 1 32 12
M  V30 24 2 33 9
M  V30 25 1 33 23
M  V30 26 1 34 7
M  V30 27 1 34 8
M  V30 28 1 35 7
M  V30 29 2 35 26
M  V30 30 1 35 33
M  V30 31 1 36 5
M  V30 32 1 36 23
M  V30 33 2 36 28
M  V30 34 1 37 10
M  V30 35 2 37 22
M  V30 36 1 38 6
M  V30 37 1 38 8
M  V30 38 1 38 20
M  V30 39 1 39 18
M  V30 40 1 39 24
M  V30 41 1 39 32
M  V30 42 1 40 1
M  V30 43 1 41 3
M  V30 44 1 42 3
M  V30 45 1 43 3
M  V30 46 1 44 4
M  V30 47 1 45 5
M  V30 48 1 46 5
M  V30 49 1 47 6
M  V30 50 1 48 6
M  V30 51 1 49 7
M  V30 52 1 50 7
M  V30 53 1 8 51 CFG=1
M  V30 54 1 52 10
M  V30 55 1 53 10
M  V30 56 1 54 11
M  V30 57 1 55 12
M  V30 58 1 56 12
M  V30 59 1 57 14
M  V30 60 1 58 15
M  V30 61 1 59 15
M  V30 62 1 60 18
M  V30 63 1 61 18
M  V30 64 1 62 20
M  V30 65 1 63 23
M  V30 66 1 64 24
M  V30 67 1 65 24
M  V30 68 1 66 25
M  V30 69 1 67 27
M  V30 70 1 68 29
M  V30 71 1 69 29
M  V30 72 1 70 31
M  V30 73 1 71 31
M  V30 74 1 72 31
M  V30 75 1 32 73 CFG=1
M  V30 76 1 74 34
M  V30 77 1 75 37
M  V30 78 1 38 76 CFG=1
M  V30 79 1 77 34
M  V30 END BOND
M  V30 END CTAB
M  END
>  <i_epik_Tot_Q>  (1) 
1

>  <i_epik_Tot_abs_Q>  (1) 
1

>  <i_i_glide_confnum>  (1) 
4512

>  <i_i_glide_lignum>  (1) 
193

>  <i_i_glide_posenum>  (1) 
329

>  <i_i_glide_rotatable_bonds>  (1) 
14

>  <i_lp_mmshare_version>  (1) 
72125

>  <i_m_source_file_index>  (1) 
78

>  <i_f3d_flags>  (1) 
0

>  <num_sample>  (1) 
100

>  <b_lp_Chiralities_Consistent>  (1) 
1

>  <r_epik_Charging_Adjusted_Penalty>  (1) 
1.1871079539409661

>  <r_epik_Ionization_Penalty>  (1) 
0.55718335861310397

>  <r_epik_Ionization_Penalty_Charging>  (1) 
0.49341796909107616

>  <r_epik_Ionization_Penalty_Neutral>  (1) 
0.063765389522027774

>  <r_epik_State_Penalty>  (1) 
0.69368998484988997

>  <r_glide_ring_energy>  (1) 
0

>  <r_i_docking_score>  (1) 
-9.4583512106615348

>  <r_i_glide_ecoul>  (1) 
-7.1333182793712169

>  <r_i_glide_eff_state_penalty>  (1) 
0.69368998484988997

>  <r_i_glide_einternal>  (1) 
29.976977743190936

>  <r_i_glide_emodel>  (1) 
-83.660571239898445

>  <r_i_glide_emodel_strain>  (1) 
1.2938139085588176

>  <r_i_glide_energy>  (1) 
-62.915550842850834

>  <r_i_glide_erotb>  (1) 
0.67934156738045093

>  <r_i_glide_esite>  (1) 
0

>  <r_i_glide_evdw>  (1) 
-55.782232563479617

>  <r_i_glide_gscore>  (1) 
-10.152041195511424

>  <r_i_glide_gscore_strain>  (1) 
0

>  <r_i_glide_hbond>  (1) 
-0.4501159071233547

>  <r_i_glide_ligand_efficiency>  (1) 
-0.24252182591439833

>  <r_i_glide_ligand_efficiency_ln>  (1) 
-2.0281389908314282

>  <r_i_glide_ligand_efficiency_sa>  (1) 
-0.82244279122159736

>  <r_i_glide_lipo>  (1) 
-4.2268416713681924

>  <r_i_glide_metal>  (1) 
-0

>  <r_i_glide_rewards>  (1) 
-2.2953158143206651

>  <r_lp_Energy>  (1) 
42.462567

>  <s_epik_Chemistry_Notes>  (1) 
This compound contains an acetal/aminal-like group ( X-CH(R)-Y where X, Y are N, S, or O) that may be acid/base labile, releasing an aldehyde.

>  <s_epik_cmdline>  (1) 
J2VwaWtfcHl0aG9uJywgJy1waHQnLCAnMS4wJywgJy1waCcsICc3LjQnLCAnLXRuJywgJzgnLCAnLW1hJywgJzUwMCcsICctaW1hZScsICc8aW5maWxlLm1hZT4nLCAnLW9tYWUnLCAnPG91dGZpbGUubWFlPic=

>  <s_epik_input>  (1) 
RmMxYyhGKVtjSF1bY0hdYyhbY0hdMSlbQ0gyXVtDQEhdKFtDSDJdW0NASF0yW09IXSlOKFtDSDJdW05IXVtDSF09TylbQ0gyXVtDSDJdW0NAQEhdMltOSF1bQ0gyXVxDKD1DKFxbQ0gzXSlbQ0gyXVtPSF0pQyg9TylbTkhdQyg9QzNbQ0gzXSlbQ0gyXVtDSDJdW0NIXT1DM0Y=

>  <s_glide_docking_method>  (1) 
confgen

>  <s_i_glide_gridfile>  (1) 
gpcr_5ht2c_6bqh_protein_autoprepared_prepared

>  <s_lp_Force_Field>  (1) 
S-OPLS

>  <s_lp_Variant>  (1) 
DiffSBDD_77_num_sample_100-4

>  <s_m_source_file>  (1) 
generated__ligand_DiffSBDD_2026-05-06_prepared.sdf

>  <GenAI_Model>  (1) 
DiffSBDD

>  <Protein>  (1) 
GPCR_5HT2C

$$$$
DiffSBDD_33_num_sample_100
     RDKit          3D

  0  0  0  0  0  0  0  0  0  0999 V3000
M  V30 BEGIN CTAB
M  V30 COUNTS 54 57 0 0 1
M  V30 BEGIN ATOM
M  V30 1 O 38.001724 29.963917 59.118651 0
M  V30 2 O 37.877970 28.010436 54.580894 0
M  V30 3 C 39.866843 26.238583 56.027862 0
M  V30 4 C 38.290564 31.960554 61.191319 0
M  V30 5 C 38.759731 29.647807 60.034136 0
M  V30 6 N 39.568568 28.576979 59.971767 0
M  V30 7 C 37.011532 32.315059 60.736230 0
M  V30 8 C 38.311176 28.244548 55.923517 0
M  V30 9 O 39.249427 25.468692 56.763367 0
M  V30 10 C 39.585420 27.671639 58.822909 0
M  V30 11 O 41.673786 28.021419 57.669055 0
M  V30 12 C 37.246751 36.044757 60.988024 0
M  V30 13 C 39.204030 32.914757 61.564039 0
M  V30 14 F 40.557740 30.021412 50.140236 0
M  V30 15 C 40.204797 30.959789 61.858199 0
M  V30 16 C 36.666201 33.685416 60.660783 0
M  V30 17 F 39.158594 30.537589 54.677995 0
M  V30 18 C 39.757743 27.762321 56.205621 0 CFG=1
M  V30 19 C 39.822460 35.325985 61.920380 0
M  V30 20 C 40.281390 28.275487 57.577751 0 CFG=1
M  V30 21 C 39.271448 28.286703 51.166361 0
M  V30 22 C 38.803138 30.471537 61.333861 0 CFG=1
M  V30 23 C 39.867408 30.294602 52.413149 0
M  V30 24 C 39.192683 29.798649 53.546252 0
M  V30 25 C 37.604604 34.684692 61.053506 0
M  V30 26 C 38.552208 28.529312 53.490093 0
M  V30 27 C 39.907377 29.540018 51.226060 0
M  V30 28 C 38.157982 37.037196 61.389305 0
M  V30 29 C 38.900098 34.307781 61.517835 0
M  V30 30 C 38.594225 27.783661 52.294014 0
M  V30 31 O 41.067740 35.016108 62.376351 0
M  V30 32 C 39.437948 36.680679 61.853737 0
M  V30 33 C 40.368990 32.270741 61.964004 0
M  V30 34 H 40.518019 25.905898 55.219444 0
M  V30 35 H 40.170893 28.364047 60.752923 0
M  V30 36 H 36.301360 31.554811 60.444780 0
M  V30 37 H 37.620592 27.688518 56.557593 0
M  V30 38 H 38.152713 29.278776 56.223133 0
M  V30 39 H 40.049959 26.729184 59.105590 0
M  V30 40 H 38.548838 27.418115 58.599003 0
M  V30 41 H 41.825823 27.087271 57.683972 0
M  V30 42 H 36.267407 36.327819 60.632824 0
M  V30 43 H 40.970146 30.243374 62.115555 0
M  V30 44 H 35.685523 33.973332 60.309664 0
M  V30 45 H 40.406560 28.206143 55.453534 0
M  V30 46 H 40.165810 29.360082 57.577582 0
M  V30 47 H 39.300956 27.710009 50.253508 0
M  V30 48 H 38.267406 29.973367 62.139659 0
M  V30 49 H 40.354180 31.257186 52.455285 0
M  V30 50 H 37.874574 38.078220 61.339797 0
M  V30 51 H 38.105043 26.821781 52.242934 0
M  V30 52 H 41.531050 35.768690 62.712232 0
M  V30 53 H 40.130105 37.451761 62.159210 0
M  V30 54 H 41.253444 32.774270 62.304689 0
M  V30 END ATOM
M  V30 BEGIN BOND
M  V30 1 2 5 1
M  V30 2 1 6 5
M  V30 3 1 7 4
M  V30 4 1 8 2
M  V30 5 2 9 3
M  V30 6 1 10 6
M  V30 7 2 13 4
M  V30 8 2 16 7
M  V30 9 1 18 3
M  V30 10 1 18 8
M  V30 11 1 20 10
M  V30 12 1 20 11
M  V30 13 1 20 18
M  V30 14 1 22 4
M  V30 15 1 22 5
M  V30 16 1 22 15
M  V30 17 1 24 17
M  V30 18 1 24 23
M  V30 19 2 25 12
M  V30 20 1 25 16
M  V30 21 1 26 2
M  V30 22 2 26 24
M  V30 23 1 27 14
M  V30 24 1 27 21
M  V30 25 2 27 23
M  V30 26 1 28 12
M  V30 27 1 29 13
M  V30 28 2 29 19
M  V30 29 1 29 25
M  V30 30 2 30 21
M  V30 31 1 30 26
M  V30 32 1 31 19
M  V30 33 1 32 19
M  V30 34 2 32 28
M  V30 35 1 33 13
M  V30 36 2 33 15
M  V30 37 1 34 3
M  V30 38 1 35 6
M  V30 39 1 36 7
M  V30 40 1 37 8
M  V30 41 1 38 8
M  V30 42 1 39 10
M  V30 43 1 40 10
M  V30 44 1 41 11
M  V30 45 1 42 12
M  V30 46 1 43 15
M  V30 47 1 44 16
M  V30 48 1 18 45 CFG=3
M  V30 49 1 20 46 CFG=3
M  V30 50 1 47 21
M  V30 51 1 22 48 CFG=1
M  V30 52 1 49 23
M  V30 53 1 50 28
M  V30 54 1 51 30
M  V30 55 1 52 31
M  V30 56 1 53 32
M  V30 57 1 54 33
M  V30 END BOND
M  V30 END CTAB
M  END
>  <i_epik_Tot_Q>  (1) 
0

>  <i_epik_Tot_abs_Q>  (1) 
0

>  <i_i_glide_confnum>  (1) 
205

>  <i_i_glide_lignum>  (1) 
88

>  <i_i_glide_posenum>  (1) 
320

>  <i_i_glide_rotatable_bonds>  (1) 
11

>  <i_lp_mmshare_version>  (1) 
72125

>  <i_m_source_file_index>  (1) 
34

>  <i_f3d_flags>  (1) 
0

>  <num_sample>  (1) 
100

>  <b_lp_Chiralities_Consistent>  (1) 
1

>  <r_epik_Charging_Adjusted_Penalty>  (1) 
0.017498169133041582

>  <r_epik_Ionization_Penalty>  (1) 
0.017508665323932474

>  <r_epik_Ionization_Penalty_Charging>  (1) 
0

>  <r_epik_Ionization_Penalty_Neutral>  (1) 
0.017508665323932474

>  <r_epik_State_Penalty>  (1) 
0.017498169133041582

>  <r_glide_ring_energy>  (1) 
0

>  <r_i_docking_score>  (1) 
-9.4450614342148391

>  <r_i_glide_ecoul>  (1) 
-1.5284818969508245

>  <r_i_glide_eff_state_penalty>  (1) 
0.017498169133041582

>  <r_i_glide_einternal>  (1) 
19.251152596892602

>  <r_i_glide_emodel>  (1) 
-75.822741365691314

>  <r_i_glide_emodel_strain>  (1) 
0.19102499540883855

>  <r_i_glide_energy>  (1) 
-56.314465655521488

>  <r_i_glide_erotb>  (1) 
0.68337992358868593

>  <r_i_glide_esite>  (1) 
0

>  <r_i_glide_evdw>  (1) 
-54.785983758570666

>  <r_i_glide_gscore>  (1) 
-9.4625596033478807

>  <r_i_glide_gscore_strain>  (1) 
0

>  <r_i_glide_hbond>  (1) 
0

>  <r_i_glide_ligand_efficiency>  (1) 
-0.28621398285499511

>  <r_i_glide_ligand_efficiency_ln>  (1) 
-2.100532759058555

>  <r_i_glide_ligand_efficiency_sa>  (1) 
-0.91804117573223387

>  <r_i_glide_lipo>  (1) 
-4.7005757820413656

>  <r_i_glide_metal>  (1) 
-0

>  <r_i_glide_rewards>  (1) 
-2.4767922724240425

>  <r_lp_Energy>  (1) 
35.553354999999996

>  <r_lp_tautomer_probability>  (1) 
0.99990000499974985

>  <s_epik_cmdline>  (1) 
J2VwaWtfcHl0aG9uJywgJy1waHQnLCAnMS4wJywgJy1waCcsICc3LjQnLCAnLXRuJywgJzgnLCAnLW1hJywgJzUwMCcsICctaW1hZScsICc8aW5maWxlLm1hZT4nLCAnLW9tYWUnLCAnPG91dGZpbGUubWFlPic=

>  <s_epik_input>  (1) 
W09IXWMxW2NIXVtjSF1bY0hdYyhbY0hdW2NIXTIpYzFjKGMyMylbQ0hdPVtDSF1bQ0BASF0zQyg9TylbTkhdW0NIMl1bQ0BASF0oW09IXSlbQ0BASF0oW0NIXT1PKVtDSDJdT2M0W2NIXVtjSF1jKEYpW2NIXWM0Rg==

>  <s_glide_docking_method>  (1) 
confgen

>  <s_i_glide_gridfile>  (1) 
gpcr_5ht2c_6bqh_protein_autoprepared_prepared

>  <s_lp_Force_Field>  (1) 
S-OPLS

>  <s_lp_Variant>  (1) 
DiffSBDD_33_num_sample_100-1

>  <s_m_source_file>  (1) 
generated__ligand_DiffSBDD_2026-05-06_prepared.sdf

>  <GenAI_Model>  (1) 
DiffSBDD

>  <Protein>  (1) 
GPCR_5HT2C

$$$$
DiffSBDD_77_num_sample_100
     RDKit          3D

  0  0  0  0  0  0  0  0  0  0999 V3000
M  V30 BEGIN CTAB
M  V30 COUNTS 76 78 0 0 1
M  V30 BEGIN ATOM
M  V30 1 C 39.009946 27.274978 51.439347 0
M  V30 2 F 40.184876 30.753139 51.418331 0
M  V30 3 C 40.761335 32.048843 63.808165 0
M  V30 4 C 38.322229 27.236538 52.666582 0
M  V30 5 C 37.661930 34.725485 60.799639 0
M  V30 6 C 39.280736 29.327298 56.250797 0
M  V30 7 C 39.414357 29.645081 60.913296 0
M  V30 8 C 40.195391 28.947858 58.610592 0 CFG=2
M  V30 9 O 37.943116 32.109378 60.610752 0
M  V30 10 C 37.031153 36.129364 60.791953 0
M  V30 11 N 36.719205 25.308086 56.120833 0
M  V30 12 C 37.467901 28.351440 54.761018 0
M  V30 13 C 39.586815 29.607272 51.827653 0
M  V30 14 O 40.668164 29.056467 64.459962 0
M  V30 15 C 41.221028 29.588133 63.274366 0
M  V30 16 C 38.260656 28.383683 53.470606 0
M  V30 17 F 40.267539 28.499963 49.834460 0
M  V30 18 C 39.741480 26.762895 57.413288 0
M  V30 19 O 36.667897 23.620079 54.654598 0
M  V30 20 O 38.182141 30.335279 58.154065 0
M  V30 21 C 39.635075 28.459751 51.019936 0
M  V30 22 C 39.145430 37.023053 61.807727 0
M  V30 23 N 39.482798 33.280374 61.818229 0
M  V30 24 C 37.471538 26.109734 57.048106 0
M  V30 25 C 38.899147 29.573416 53.050132 0
M  V30 26 C 40.487126 30.860829 62.876233 0
M  V30 27 C 37.287238 24.342054 55.415548 0
M  V30 28 C 39.676960 35.687330 62.038854 0
M  V30 29 C 39.576117 27.548400 58.727460 0
M  V30 30 F 39.867402 38.083758 62.192833 0
M  V30 31 C 40.995815 35.509209 62.783838 0
M  V30 32 C 38.195738 28.246556 56.125126 0 CFG=1
M  V30 33 C 38.924355 32.127703 61.343535 0
M  V30 34 N 40.499344 29.527137 59.924822 0
M  V30 35 C 39.651322 30.889496 61.767740 0
M  V30 36 C 38.987433 34.609462 61.582322 0
M  V30 37 C 37.955388 37.236772 61.233528 0
M  V30 38 C 39.431046 29.901921 57.655249 0 CFG=2
M  V30 39 N 38.601342 26.875449 56.497357 0
M  V30 40 H 39.043487 26.403830 50.812220 0
M  V30 41 H 41.205707 31.682399 64.735661 0
M  V30 42 H 41.491763 32.737152 63.383354 0
M  V30 43 H 39.859380 32.564705 64.133007 0
M  V30 44 H 37.823773 26.332286 52.986716 0
M  V30 45 H 37.836644 34.436839 59.761645 0
M  V30 46 H 36.889733 34.078354 61.214555 0
M  V30 47 H 40.230237 28.999181 55.825465 0
M  V30 48 H 38.970116 30.187793 55.669244 0
M  V30 49 H 39.352232 28.744726 61.523078 0
M  V30 50 H 38.431777 29.712988 60.447787 0
M  V30 51 H 41.163456 28.796251 58.130426 0
M  V30 52 H 36.267908 36.133562 61.566702 0
M  V30 53 H 36.539929 36.351749 59.838803 0
M  V30 54 H 35.727733 25.477218 56.026363 0
M  V30 55 H 36.724811 27.563011 54.651829 0
M  V30 56 H 36.890732 29.280399 54.766940 0
M  V30 57 H 39.750612 28.821186 64.320864 0
M  V30 58 H 42.269526 29.829411 63.440988 0
M  V30 59 H 41.228348 28.824456 62.501323 0
M  V30 60 H 40.659067 27.060569 56.904594 0
M  V30 61 H 39.900006 25.707115 57.647794 0
M  V30 62 H 37.628250 29.585877 58.304968 0
M  V30 63 H 40.319246 33.205044 62.375979 0
M  V30 64 H 37.817486 25.391457 57.797038 0
M  V30 65 H 36.764673 26.723492 57.602946 0
M  V30 66 H 38.843496 30.465119 53.653786 0
M  V30 67 H 38.371223 24.283121 55.608266 0
M  V30 68 H 40.099407 26.994039 59.506324 0
M  V30 69 H 38.537635 27.605472 59.050103 0
M  V30 70 H 41.471645 36.467154 63.006426 0
M  V30 71 H 40.840246 35.007545 63.737820 0
M  V30 72 H 41.701541 34.937716 62.180829 0
M  V30 73 H 37.438958 28.518862 56.850402 0
M  V30 74 H 41.241507 28.971283 60.335905 0
M  V30 75 H 37.602140 38.249075 61.091187 0
M  V30 76 H 39.966937 30.820692 57.453376 0
M  V30 END ATOM
M  V30 BEGIN BOND
M  V30 1 2 4 1
M  V30 2 1 10 5
M  V30 3 1 13 2
M  V30 4 1 15 14
M  V30 5 1 16 4
M  V30 6 1 16 12
M  V30 7 1 21 1
M  V30 8 2 21 13
M  V30 9 1 21 17
M  V30 10 1 24 11
M  V30 11 1 25 13
M  V30 12 2 25 16
M  V30 13 1 26 3
M  V30 14 1 26 15
M  V30 15 1 27 11
M  V30 16 2 27 19
M  V30 17 1 28 22
M  V30 18 1 29 8
M  V30 19 1 29 18
M  V30 20 1 30 22
M  V30 21 1 31 28
M  V30 22 1 32 6
M  V30 23 1 32 12
M  V30 24 2 33 9
M  V30 25 1 33 23
M  V30 26 1 34 7
M  V30 27 1 34 8
M  V30 28 1 35 7
M  V30 29 2 35 26
M  V30 30 1 35 33
M  V30 31 1 36 5
M  V30 32 1 36 23
M  V30 33 2 36 28
M  V30 34 1 37 10
M  V30 35 2 37 22
M  V30 36 1 38 6
M  V30 37 1 38 8
M  V30 38 1 38 20
M  V30 39 1 39 18
M  V30 40 1 39 24
M  V30 41 1 39 32
M  V30 42 1 40 1
M  V30 43 1 41 3
M  V30 44 1 42 3
M  V30 45 1 43 3
M  V30 46 1 44 4
M  V30 47 1 45 5
M  V30 48 1 46 5
M  V30 49 1 47 6
M  V30 50 1 48 6
M  V30 51 1 49 7
M  V30 52 1 50 7
M  V30 53 1 8 51 CFG=3
M  V30 54 1 52 10
M  V30 55 1 53 10
M  V30 56 1 54 11
M  V30 57 1 55 12
M  V30 58 1 56 12
M  V30 59 1 57 14
M  V30 60 1 58 15
M  V30 61 1 59 15
M  V30 62 1 60 18
M  V30 63 1 61 18
M  V30 64 1 62 20
M  V30 65 1 63 23
M  V30 66 1 64 24
M  V30 67 1 65 24
M  V30 68 1 66 25
M  V30 69 1 67 27
M  V30 70 1 68 29
M  V30 71 1 69 29
M  V30 72 1 70 31
M  V30 73 1 71 31
M  V30 74 1 72 31
M  V30 75 1 32 73 CFG=1
M  V30 76 1 74 34
M  V30 77 1 75 37
M  V30 78 1 38 76 CFG=3
M  V30 END BOND
M  V30 END CTAB
M  END
>  <i_epik_Tot_Q>  (1) 
0

>  <i_epik_Tot_abs_Q>  (1) 
0

>  <i_i_glide_confnum>  (1) 
6133

>  <i_i_glide_lignum>  (1) 
191

>  <i_i_glide_posenum>  (1) 
125

>  <i_i_glide_rotatable_bonds>  (1) 
14

>  <i_lp_mmshare_version>  (1) 
72125

>  <i_m_source_file_index>  (1) 
78

>  <i_f3d_flags>  (1) 
0

>  <num_sample>  (1) 
100

>  <b_lp_Chiralities_Consistent>  (1) 
1

>  <r_epik_Charging_Adjusted_Penalty>  (1) 
0.53836467660946008

>  <r_epik_Ionization_Penalty>  (1) 
0.66160028736033039

>  <r_epik_Ionization_Penalty_Charging>  (1) 
0

>  <r_epik_Ionization_Penalty_Neutral>  (1) 
0.66160028736033039

>  <r_epik_State_Penalty>  (1) 
0.53836467660946008

>  <r_glide_ring_energy>  (1) 
0

>  <r_i_docking_score>  (1) 
-9.4047095531142588

>  <r_i_glide_ecoul>  (1) 
-4.6224554297830496

>  <r_i_glide_eff_state_penalty>  (1) 
0.53836467660946008

>  <r_i_glide_einternal>  (1) 
27.615801633440501

>  <r_i_glide_emodel>  (1) 
-67.832574984093853

>  <r_i_glide_emodel_strain>  (1) 
0.95242135043469034

>  <r_i_glide_energy>  (1) 
-51.580455542226908

>  <r_i_glide_erotb>  (1) 
0.6830181953671759

>  <r_i_glide_esite>  (1) 
0

>  <r_i_glide_evdw>  (1) 
-46.958000112443855

>  <r_i_glide_gscore>  (1) 
-9.9430742297237185

>  <r_i_glide_gscore_strain>  (1) 
0

>  <r_i_glide_hbond>  (1) 
-0.32000000000000001

>  <r_i_glide_ligand_efficiency>  (1) 
-0.2411463987978015

>  <r_i_glide_ligand_efficiency_ln>  (1) 
-2.0166366967442912

>  <r_i_glide_ligand_efficiency_sa>  (1) 
-0.81777842704476222

>  <r_i_glide_lipo>  (1) 
-4.8983609947001998

>  <r_i_glide_metal>  (1) 
-0

>  <r_i_glide_rewards>  (1) 
-2.3664631103010425

>  <r_lp_Energy>  (1) 
35.999558999999998

>  <s_epik_Chemistry_Notes>  (1) 
This compound contains an acetal/aminal-like group ( X-CH(R)-Y where X, Y are N, S, or O) that may be acid/base labile, releasing an aldehyde.

>  <s_epik_cmdline>  (1) 
J2VwaWtfcHl0aG9uJywgJy1waHQnLCAnMS4wJywgJy1waCcsICc3LjQnLCAnLXRuJywgJzgnLCAnLW1hJywgJzUwMCcsICctaW1hZScsICc8aW5maWxlLm1hZT4nLCAnLW9tYWUnLCAnPG91dGZpbGUubWFlPic=

>  <s_epik_input>  (1) 
RmMxYyhGKVtjSF1bY0hdYyhbY0hdMSlbQ0gyXVtDQEhdKFtDSDJdW0NASF0yW09IXSlOKFtDSDJdW05IXVtDSF09TylbQ0gyXVtDSDJdW0NAQEhdMltOSF1bQ0gyXVxDKD1DKFxbQ0gzXSlbQ0gyXVtPSF0pQyg9TylbTkhdQyg9QzNbQ0gzXSlbQ0gyXVtDSDJdW0NIXT1DM0Y=

>  <s_glide_docking_method>  (1) 
confgen

>  <s_i_glide_gridfile>  (1) 
gpcr_5ht2c_6bqh_protein_autoprepared_prepared

>  <s_lp_Force_Field>  (1) 
S-OPLS

>  <s_lp_Variant>  (1) 
DiffSBDD_77_num_sample_100-2

>  <s_m_source_file>  (1) 
generated__ligand_DiffSBDD_2026-05-06_prepared.sdf

>  <GenAI_Model>  (1) 
DiffSBDD

>  <Protein>  (1) 
GPCR_5HT2C

$$$$
DiffSBDD_15_num_sample_100
     RDKit          3D

  0  0  0  0  0  0  0  0  0  0999 V3000
M  V30 BEGIN CTAB
M  V30 COUNTS 74 79 0 0 1
M  V30 BEGIN ATOM
M  V30 1 C 38.011503 30.169032 58.840953 0
M  V30 2 S 38.267642 27.321954 55.779256 0
M  V30 3 N 40.168070 36.131767 62.091028 0
M  V30 4 C 39.944894 29.666884 50.009937 0
M  V30 5 C 36.676431 34.829231 60.344469 0
M  V30 6 C 39.930976 36.420694 64.927735 0
M  V30 7 S 40.528300 32.237431 62.404392 0
M  V30 8 S 37.858703 36.217019 60.500757 0
M  V30 9 O 40.540974 31.492496 63.670996 0
M  V30 10 C 39.488130 29.617247 52.930668 0
M  V30 11 C 39.187849 28.475933 52.286927 0
M  V30 12 C 38.780438 28.460090 57.105823 0 CFG=1
M  V30 13 C 40.884526 35.354055 64.393562 0 CFG=1
M  V30 14 N 39.121331 29.520881 54.260490 0
M  V30 15 C 35.785196 34.975431 59.121781 0
M  V30 16 C 34.641821 33.952998 59.107099 0
M  V30 17 C 40.759043 35.010345 62.903274 0 CFG=1
M  V30 18 C 40.717680 28.128562 60.384385 0
M  V30 19 S 39.467173 28.021436 50.653494 0
M  V30 20 C 40.176228 30.821492 52.359126 0
M  V30 21 N 38.976365 34.259486 61.863768 0
M  V30 22 C 38.741528 29.309133 59.901830 0 CFG=2
M  V30 23 N 42.267298 35.621391 64.740786 0
M  V30 24 O 37.067452 30.021458 56.571622 0
M  V30 25 C 40.829298 30.482359 50.972214 0
M  V30 26 C 39.286305 31.482470 61.251664 0
M  V30 27 C 37.578480 29.270786 57.651443 0 CFG=2
M  V30 28 N 39.868568 33.800425 62.726130 0
M  V30 29 C 39.292705 29.938437 61.209813 0 CFG=2
M  V30 30 C 41.636324 34.474555 65.364275 0
M  V30 31 C 39.157279 35.541351 61.584359 0
M  V30 32 C 40.655157 29.248394 61.423157 0
M  V30 33 O 41.772059 32.421432 61.641914 0
M  V30 34 C 38.681685 28.249583 54.330589 0
M  V30 35 N 39.895089 28.639546 59.281431 0 CFG=2 CHG=1
M  V30 36 O 38.619340 27.582852 53.139128 0
M  V30 37 C 39.496578 27.682544 58.228179 0
M  V30 38 H 38.667458 30.959223 58.470086 0
M  V30 39 H 37.143968 30.664127 59.276022 0
M  V30 40 H 40.433292 29.545597 49.043764 0
M  V30 41 H 39.067410 30.276062 49.853454 0
M  V30 42 H 37.189312 33.879043 60.209680 0
M  V30 43 H 36.080421 34.762074 61.254737 0
M  V30 44 H 38.900602 36.116031 64.768972 0
M  V30 45 H 40.084947 36.588960 65.994047 0
M  V30 46 H 40.059453 37.364032 64.402232 0
M  V30 47 H 39.517465 29.158138 56.708431 0
M  V30 48 H 35.400901 35.990360 59.052825 0
M  V30 49 H 36.417396 34.818492 58.253534 0
M  V30 50 H 33.986778 34.107274 58.253394 0
M  V30 51 H 35.027649 32.934249 59.053536 0
M  V30 52 H 34.024063 34.021311 60.000689 0
M  V30 53 H 41.749476 34.782053 62.509581 0
M  V30 54 H 41.736978 27.910385 60.061714 0
M  V30 55 H 40.267671 27.221647 60.784554 0
M  V30 56 H 39.467267 31.628861 52.217112 0
M  V30 57 H 40.913809 31.221352 53.052752 0
M  V30 58 H 38.201237 33.700919 61.547708 0
M  V30 59 H 38.057724 28.520873 60.210868 0
M  V30 60 H 42.417647 36.480818 65.262370 0
M  V30 61 H 36.389023 30.651172 56.845541 0
M  V30 62 H 41.763354 29.927260 51.053515 0
M  V30 63 H 41.093630 31.408764 50.472571 0
M  V30 64 H 39.481235 31.931180 60.280101 0
M  V30 65 H 38.290608 31.788975 61.565399 0
M  V30 66 H 36.792297 28.590161 57.983106 0
M  V30 67 H 38.667266 29.621355 62.043375 0
M  V30 68 H 41.396974 34.547639 66.423683 0
M  V30 69 H 41.958981 33.489671 65.032686 0
M  V30 70 H 41.467020 29.940415 61.237990 0
M  V30 71 H 40.769764 28.876046 62.441830 0
M  V30 72 H 40.383338 27.185421 57.832326 0
M  V30 73 H 38.846372 26.905869 58.640492 0
M  V30 74 H 40.441782 29.362528 58.835759 0
M  V30 END ATOM
M  V30 BEGIN BOND
M  V30 1 1 8 5
M  V30 2 2 9 7
M  V30 3 2 11 10
M  V30 4 1 12 2
M  V30 5 1 13 6 CFG=1
M  V30 6 1 14 10
M  V30 7 1 15 5
M  V30 8 1 16 15
M  V30 9 1 17 3
M  V30 10 1 17 13
M  V30 11 1 19 4
M  V30 12 1 19 11
M  V30 13 1 20 10
M  V30 14 1 22 1
M  V30 15 1 23 13
M  V30 16 1 25 4
M  V30 17 1 25 20
M  V30 18 1 26 7
M  V30 19 1 27 1
M  V30 20 1 27 12
M  V30 21 1 27 24
M  V30 22 1 28 7
M  V30 23 1 28 17
M  V30 24 1 28 21
M  V30 25 1 29 22
M  V30 26 1 29 26
M  V30 27 1 30 13
M  V30 28 1 30 23
M  V30 29 2 31 3
M  V30 30 1 31 8
M  V30 31 1 31 21
M  V30 32 1 32 18
M  V30 33 1 32 29
M  V30 34 2 33 7
M  V30 35 1 34 2
M  V30 36 2 34 14
M  V30 37 1 35 18
M  V30 38 1 35 22
M  V30 39 1 36 11
M  V30 40 1 36 34
M  V30 41 1 37 12
M  V30 42 1 37 35
M  V30 43 1 38 1
M  V30 44 1 39 1
M  V30 45 1 40 4
M  V30 46 1 41 4
M  V30 47 1 42 5
M  V30 48 1 43 5
M  V30 49 1 44 6
M  V30 50 1 45 6
M  V30 51 1 46 6
M  V30 52 1 12 47 CFG=3
M  V30 53 1 48 15
M  V30 54 1 49 15
M  V30 55 1 50 16
M  V30 56 1 51 16
M  V30 57 1 52 16
M  V30 58 1 17 53 CFG=3
M  V30 59 1 54 18
M  V30 60 1 55 18
M  V30 61 1 56 20
M  V30 62 1 57 20
M  V30 63 1 58 21
M  V30 64 1 22 59 CFG=1
M  V30 65 1 60 23
M  V30 66 1 61 24
M  V30 67 1 62 25
M  V30 68 1 63 25
M  V30 69 1 64 26
M  V30 70 1 65 26
M  V30 71 1 27 66 CFG=1
M  V30 72 1 29 67 CFG=1
M  V30 73 1 68 30
M  V30 74 1 69 30
M  V30 75 1 70 32
M  V30 76 1 71 32
M  V30 77 1 72 37
M  V30 78 1 73 37
M  V30 79 1 35 74 CFG=3
M  V30 END BOND
M  V30 END CTAB
M  END
>  <i_epik_Tot_Q>  (1) 
1

>  <i_epik_Tot_abs_Q>  (1) 
1

>  <i_i_glide_confnum>  (1) 
734

>  <i_i_glide_lignum>  (1) 
37

>  <i_i_glide_posenum>  (1) 
203

>  <i_i_glide_rotatable_bonds>  (1) 
10

>  <i_lp_mmshare_version>  (1) 
72125

>  <i_m_source_file_index>  (1) 
16

>  <i_f3d_flags>  (1) 
0

>  <num_sample>  (1) 
100

>  <b_lp_Chiralities_Consistent>  (1) 
1

>  <r_epik_Charging_Adjusted_Penalty>  (1) 
0.0082019649409003706

>  <r_epik_Ionization_Penalty>  (1) 
0.015626865898487191

>  <r_epik_Ionization_Penalty_Charging>  (1) 
0.0082019649409003706

>  <r_epik_Ionization_Penalty_Neutral>  (1) 
0.0074249009575868222

>  <r_epik_State_Penalty>  (1) 
-0

>  <r_glide_ring_energy>  (1) 
0

>  <r_i_docking_score>  (1) 
-9.3963750065570135

>  <r_i_glide_ecoul>  (1) 
-7.0718604349672649

>  <r_i_glide_eff_state_penalty>  (1) 
-0

>  <r_i_glide_einternal>  (1) 
32.912181256857266

>  <r_i_glide_emodel>  (1) 
-57.990718540978897

>  <r_i_glide_emodel_strain>  (1) 
1.0040957050358372

>  <r_i_glide_energy>  (1) 
-59.521637151251738

>  <r_i_glide_erotb>  (1) 
0.37349522713264072

>  <r_i_glide_esite>  (1) 
0

>  <r_i_glide_evdw>  (1) 
-52.449776716284475

>  <r_i_glide_gscore>  (1) 
-9.3963750065570135

>  <r_i_glide_gscore_strain>  (1) 
0

>  <r_i_glide_hbond>  (1) 
-0.34885730707903484

>  <r_i_glide_ligand_efficiency>  (1) 
-0.25395608125829766

>  <r_i_glide_ligand_efficiency_ln>  (1) 
-2.0378534566381972

>  <r_i_glide_ligand_efficiency_sa>  (1) 
-0.84623800332727495

>  <r_i_glide_lipo>  (1) 
-3.7036101633290426

>  <r_i_glide_metal>  (1) 
-0

>  <r_i_glide_rewards>  (1) 
-2.0341348622222619

>  <r_lp_Energy>  (1) 
9.5312570000000001

>  <r_lp_tautomer_probability>  (1) 
1

>  <s_epik_Chemistry_Notes>  (1) 
This compound has an imine and may undergo hydrolysis. This compound contains an acetal/aminal-like group ( X-CH(R)-Y where X, Y are N, S, or O) that may be acid/base labile, releasing an aldehyde.

>  <s_epik_cmdline>  (1) 
J2VwaWtfcHl0aG9uJywgJy1waHQnLCAnMS4wJywgJy1waCcsICc3LjQnLCAnLXRuJywgJzgnLCAnLW1hJywgJzUwMCcsICctaW1hZScsICc8aW5maWxlLm1hZT4nLCAnLW9tYWUnLCAnPG91dGZpbGUubWFlPic=

>  <s_epik_input>  (1) 
W0NIMl0xW0NIMl1bQ0gyXVNjKGMxMilvYyhuMilTW0NAQEhdKFtDQEBIXShbQ0gyXTMpW09IXSlbQ0gyXU4oW0NASF0zNClbQ0gyXVtDSDJdW0NASF00W0NIMl1TKD1PKSg9TylONVtOSF1DKFNbQ0gyXVtDSDJdW0NIM10pPU5bQ0BASF01W0NAXTYoW0NIM10pW05IXVtDSDJdNg==

>  <s_glide_docking_method>  (1) 
confgen

>  <s_i_glide_gridfile>  (1) 
gpcr_5ht2c_6bqh_protein_autoprepared_prepared

>  <s_lp_Force_Field>  (1) 
S-OPLS

>  <s_lp_Variant>  (1) 
DiffSBDD_15_num_sample_100-4

>  <s_m_source_file>  (1) 
generated__ligand_DiffSBDD_2026-05-06_prepared.sdf

>  <GenAI_Model>  (1) 
DiffSBDD

>  <Protein>  (1) 
GPCR_5HT2C

$$$$
DiffSBDD_33_num_sample_100
     RDKit          3D

  0  0  0  0  0  0  0  0  0  0999 V3000
M  V30 BEGIN CTAB
M  V30 COUNTS 54 57 0 0 1
M  V30 BEGIN ATOM
M  V30 1 O 40.667422 29.483014 60.657345 0
M  V30 2 O 38.468090 27.347248 53.571305 0
M  V30 3 C 39.453915 26.305889 56.242014 0
M  V30 4 C 38.204675 31.956502 61.056227 0
M  V30 5 C 39.468917 29.728465 60.551687 0
M  V30 6 N 38.723284 29.277875 59.532842 0
M  V30 7 C 37.226342 32.068532 60.055883 0
M  V30 8 C 37.870379 27.668842 54.824646 0
M  V30 9 O 38.818441 25.491077 56.910745 0
M  V30 10 C 39.284501 28.474299 58.448213 0
M  V30 11 O 37.868917 29.672745 56.948116 0
M  V30 12 C 36.929193 35.796747 59.853522 0
M  V30 13 C 38.753975 33.070602 61.642204 0
M  V30 14 F 40.680799 31.221409 50.273411 0
M  V30 15 C 39.710185 31.329916 62.620998 0
M  V30 16 C 36.804634 33.356935 59.650642 0
M  V30 17 F 39.038800 26.821437 50.928385 0
M  V30 18 C 38.901088 27.715940 55.983490 0 CFG=1
M  V30 19 C 38.907754 35.571495 61.868814 0
M  V30 20 C 38.299227 28.361385 57.263692 0 CFG=1
M  V30 21 C 39.867407 30.599358 52.431246 0
M  V30 22 C 38.759028 30.582081 61.611536 0 CFG=1
M  V30 23 C 39.867225 29.015761 50.586217 0
M  V30 24 C 39.305179 28.039364 51.420627 0
M  V30 25 C 37.364651 34.519921 60.256499 0
M  V30 26 C 39.016510 28.331736 52.768177 0
M  V30 27 C 40.147626 30.290011 51.085779 0
M  V30 28 C 37.467402 36.950177 60.451396 0
M  V30 29 C 38.359901 34.390505 61.270631 0
M  V30 30 C 39.298206 29.625021 53.275431 0
M  V30 31 O 39.865103 35.499547 62.838897 0
M  V30 32 C 38.449892 36.838850 61.453504 0
M  V30 33 C 39.675583 32.653698 62.593304 0
M  V30 34 H 40.427111 26.093018 55.798107 0
M  V30 35 H 37.742636 29.515021 59.489566 0
M  V30 36 H 36.798428 31.188063 59.601121 0
M  V30 37 H 37.126089 26.898308 55.033598 0
M  V30 38 H 37.294567 28.590157 54.730469 0
M  V30 39 H 40.218439 28.924127 58.105276 0
M  V30 40 H 39.532477 27.486744 58.841041 0
M  V30 41 H 38.617888 30.242733 56.863351 0
M  V30 42 H 36.175496 35.891565 59.084141 0
M  V30 43 H 40.349038 30.766990 63.285603 0
M  V30 44 H 36.051563 33.457168 58.880885 0
M  V30 45 H 39.753708 28.320990 55.677320 0
M  V30 46 H 37.420133 27.796239 57.577810 0
M  V30 47 H 40.082990 31.585785 52.813446 0
M  V30 48 H 38.001536 30.021790 62.155057 0
M  V30 49 H 40.081087 28.785796 49.553530 0
M  V30 50 H 37.125347 37.926683 60.140173 0
M  V30 51 H 39.083501 29.870908 54.302953 0
M  V30 52 H 40.130137 36.340454 63.181439 0
M  V30 53 H 38.856347 37.731762 61.904116 0
M  V30 54 H 40.255055 33.316234 63.206977 0
M  V30 END ATOM
M  V30 BEGIN BOND
M  V30 1 2 5 1
M  V30 2 1 6 5
M  V30 3 1 7 4
M  V30 4 1 8 2
M  V30 5 2 9 3
M  V30 6 1 10 6
M  V30 7 2 13 4
M  V30 8 2 16 7
M  V30 9 1 18 3
M  V30 10 1 18 8
M  V30 11 1 20 10
M  V30 12 1 20 11
M  V30 13 1 20 18
M  V30 14 1 22 4
M  V30 15 1 22 5
M  V30 16 1 22 15
M  V30 17 1 24 17
M  V30 18 1 24 23
M  V30 19 2 25 12
M  V30 20 1 25 16
M  V30 21 1 26 2
M  V30 22 2 26 24
M  V30 23 1 27 14
M  V30 24 1 27 21
M  V30 25 2 27 23
M  V30 26 1 28 12
M  V30 27 1 29 13
M  V30 28 2 29 19
M  V30 29 1 29 25
M  V30 30 2 30 21
M  V30 31 1 30 26
M  V30 32 1 31 19
M  V30 33 1 32 19
M  V30 34 2 32 28
M  V30 35 1 33 13
M  V30 36 2 33 15
M  V30 37 1 34 3
M  V30 38 1 35 6
M  V30 39 1 36 7
M  V30 40 1 37 8
M  V30 41 1 38 8
M  V30 42 1 39 10
M  V30 43 1 40 10
M  V30 44 1 41 11
M  V30 45 1 42 12
M  V30 46 1 43 15
M  V30 47 1 44 16
M  V30 48 1 18 45 CFG=3
M  V30 49 1 20 46 CFG=1
M  V30 50 1 47 21
M  V30 51 1 22 48 CFG=1
M  V30 52 1 49 23
M  V30 53 1 50 28
M  V30 54 1 51 30
M  V30 55 1 52 31
M  V30 56 1 53 32
M  V30 57 1 54 33
M  V30 END BOND
M  V30 END CTAB
M  END
>  <i_epik_Tot_Q>  (1) 
0

>  <i_epik_Tot_abs_Q>  (1) 
0

>  <i_i_glide_confnum>  (1) 
238

>  <i_i_glide_lignum>  (1) 
88

>  <i_i_glide_posenum>  (1) 
167

>  <i_i_glide_rotatable_bonds>  (1) 
11

>  <i_lp_mmshare_version>  (1) 
72125

>  <i_m_source_file_index>  (1) 
34

>  <i_f3d_flags>  (1) 
0

>  <num_sample>  (1) 
100

>  <b_lp_Chiralities_Consistent>  (1) 
1

>  <r_epik_Charging_Adjusted_Penalty>  (1) 
0.017498169133041582

>  <r_epik_Ionization_Penalty>  (1) 
0.017508665323932474

>  <r_epik_Ionization_Penalty_Charging>  (1) 
0

>  <r_epik_Ionization_Penalty_Neutral>  (1) 
0.017508665323932474

>  <r_epik_State_Penalty>  (1) 
0.017498169133041582

>  <r_glide_ring_energy>  (1) 
0

>  <r_i_docking_score>  (1) 
-9.3482744780768829

>  <r_i_glide_ecoul>  (1) 
-1.5014347006220663

>  <r_i_glide_eff_state_penalty>  (1) 
0.017498169133041582

>  <r_i_glide_einternal>  (1) 
7.1423023709964184

>  <r_i_glide_emodel>  (1) 
-77.327788305335176

>  <r_i_glide_emodel_strain>  (1) 
0.20228802773787891

>  <r_i_glide_energy>  (1) 
-52.076297432009873

>  <r_i_glide_erotb>  (1) 
0.68337992358868593

>  <r_i_glide_esite>  (1) 
0

>  <r_i_glide_evdw>  (1) 
-50.57486273138781

>  <r_i_glide_gscore>  (1) 
-9.3657726472099245

>  <r_i_glide_gscore_strain>  (1) 
0

>  <r_i_glide_hbond>  (1) 
-0.20558322118937608

>  <r_i_glide_ligand_efficiency>  (1) 
-0.28328104479020855

>  <r_i_glide_ligand_efficiency_ln>  (1) 
-2.0790078411495121

>  <r_i_glide_ligand_efficiency_sa>  (1) 
-0.90863367620167945

>  <r_i_glide_lipo>  (1) 
-4.451477365087217

>  <r_i_glide_metal>  (1) 
-0

>  <r_i_glide_rewards>  (1) 
-2.6381336428593163

>  <r_lp_Energy>  (1) 
35.553354999999996

>  <r_lp_tautomer_probability>  (1) 
0.99990000499974985

>  <s_epik_cmdline>  (1) 
J2VwaWtfcHl0aG9uJywgJy1waHQnLCAnMS4wJywgJy1waCcsICc3LjQnLCAnLXRuJywgJzgnLCAnLW1hJywgJzUwMCcsICctaW1hZScsICc8aW5maWxlLm1hZT4nLCAnLW9tYWUnLCAnPG91dGZpbGUubWFlPic=

>  <s_epik_input>  (1) 
W09IXWMxW2NIXVtjSF1bY0hdYyhbY0hdW2NIXTIpYzFjKGMyMylbQ0hdPVtDSF1bQ0BASF0zQyg9TylbTkhdW0NIMl1bQ0BASF0oW09IXSlbQ0BASF0oW0NIXT1PKVtDSDJdT2M0W2NIXVtjSF1jKEYpW2NIXWM0Rg==

>  <s_glide_docking_method>  (1) 
confgen

>  <s_i_glide_gridfile>  (1) 
gpcr_5ht2c_6bqh_protein_autoprepared_prepared

>  <s_lp_Force_Field>  (1) 
S-OPLS

>  <s_lp_Variant>  (1) 
DiffSBDD_33_num_sample_100-1

>  <s_m_source_file>  (1) 
generated__ligand_DiffSBDD_2026-05-06_prepared.sdf

>  <GenAI_Model>  (1) 
DiffSBDD

>  <Protein>  (1) 
GPCR_5HT2C

$$$$
DiffSBDD_77_num_sample_100
     RDKit          3D

  0  0  0  0  0  0  0  0  0  0999 V3000
M  V30 BEGIN CTAB
M  V30 COUNTS 76 78 0 0 1
M  V30 BEGIN ATOM
M  V30 1 C 39.159010 27.939411 51.036522 0
M  V30 2 F 40.619152 31.221426 51.783291 0
M  V30 3 C 41.904568 28.858284 63.148292 0
M  V30 4 C 38.393733 27.726301 52.195201 0
M  V30 5 C 37.645332 33.808265 61.453499 0
M  V30 6 C 38.569037 29.817043 56.405429 0
M  V30 7 C 39.554061 28.756364 61.307403 0
M  V30 8 C 39.255393 29.062842 58.820878 0 CFG=2
M  V30 9 O 37.875839 31.180102 61.478797 0
M  V30 10 C 37.037113 35.224197 61.367936 0
M  V30 11 N 38.179655 25.435489 56.000179 0
M  V30 12 C 37.538040 28.462967 54.465193 0
M  V30 13 C 39.896016 30.087185 51.917796 0
M  V30 14 O 42.247252 30.967174 64.872540 0
M  V30 15 C 41.425043 31.312459 63.777345 0
M  V30 16 C 38.377330 28.693600 53.219910 0
M  V30 17 F 40.637196 29.331048 49.773889 0
M  V30 18 C 40.366228 27.649125 56.955815 0
M  V30 19 O 37.467505 24.021427 57.602718 0
M  V30 20 O 36.927304 29.621432 58.158786 0
M  V30 21 C 39.906977 29.121659 50.894800 0
M  V30 22 C 39.293062 36.162330 61.964713 0
M  V30 23 N 39.692846 32.433541 62.060984 0
M  V30 24 C 39.266094 26.168015 55.362307 0
M  V30 25 C 39.133221 29.874205 53.080897 0
M  V30 26 C 41.012370 30.085438 62.937057 0
M  V30 27 C 38.371612 24.639725 57.053431 0
M  V30 28 C 39.878865 34.841664 62.129378 0
M  V30 29 C 39.601894 27.655302 58.294448 0
M  V30 30 F 40.063897 37.241137 62.172505 0
M  V30 31 C 41.332486 34.702111 62.556562 0
M  V30 32 C 38.302546 28.404970 55.813009 0 CFG=1
M  V30 33 C 39.046816 31.250619 61.850763 0
M  V30 34 N 38.667415 28.928282 60.150895 0
M  V30 35 C 39.924130 30.047089 62.071476 0
M  V30 36 C 39.121771 33.741574 61.898772 0
M  V30 37 C 38.013082 36.349332 61.617345 0
M  V30 38 C 38.299893 29.905269 57.922042 0 CFG=2
M  V30 39 N 39.513190 27.560271 55.763428 0
M  V30 40 H 39.168379 27.196650 50.253420 0
M  V30 41 H 42.954353 29.138113 63.053484 0
M  V30 42 H 41.758964 28.469870 64.156551 0
M  V30 43 H 41.744715 28.021547 62.476248 0
M  V30 44 H 37.816181 26.821374 52.297242 0
M  V30 45 H 37.558196 33.364171 60.460363 0
M  V30 46 H 37.011525 33.248531 62.142965 0
M  V30 47 H 39.576036 30.162892 56.171427 0
M  V30 48 H 37.910502 30.544667 55.928760 0
M  V30 49 H 40.447149 28.236891 60.971640 0
M  V30 50 H 39.067484 28.097223 62.026849 0
M  V30 51 H 40.189024 29.621455 58.897683 0
M  V30 52 H 36.252410 35.319445 62.116824 0
M  V30 53 H 36.562633 35.373366 60.397087 0
M  V30 54 H 37.249015 25.541878 55.625729 0
M  V30 55 H 36.986211 27.532092 54.332868 0
M  V30 56 H 36.768519 29.234357 54.505912 0
M  V30 57 H 41.765987 30.385010 65.442193 0
M  V30 58 H 40.570637 31.816941 64.230608 0
M  V30 59 H 42.004671 32.004608 63.167485 0
M  V30 60 H 40.980116 28.546316 56.886722 0
M  V30 61 H 41.085191 26.828818 56.950765 0
M  V30 62 H 36.399074 30.301891 57.748040 0
M  V30 63 H 40.657861 32.403207 62.347001 0
M  V30 64 H 39.034679 26.161221 54.300130 0
M  V30 65 H 40.193456 25.593438 55.417402 0
M  V30 66 H 39.124045 30.619683 53.860497 0
M  V30 67 H 39.430655 24.615593 57.355490 0
M  V30 68 H 40.243439 27.161719 59.023523 0
M  V30 69 H 38.700117 27.048597 58.258066 0
M  V30 70 H 41.853684 35.659798 62.542443 0
M  V30 71 H 41.394309 34.311506 63.572101 0
M  V30 72 H 41.867365 34.033844 61.881857 0
M  V30 73 H 37.604852 27.919852 56.494523 0
M  V30 74 H 37.976285 29.660480 60.320674 0
M  V30 75 H 37.630214 37.353800 61.511503 0
M  V30 76 H 38.427032 30.947883 58.217856 0
M  V30 END ATOM
M  V30 BEGIN BOND
M  V30 1 2 4 1
M  V30 2 1 10 5
M  V30 3 1 13 2
M  V30 4 1 15 14
M  V30 5 1 16 4
M  V30 6 1 16 12
M  V30 7 1 21 1
M  V30 8 2 21 13
M  V30 9 1 21 17
M  V30 10 1 24 11
M  V30 11 1 25 13
M  V30 12 2 25 16
M  V30 13 1 26 3
M  V30 14 1 26 15
M  V30 15 1 27 11
M  V30 16 2 27 19
M  V30 17 1 28 22
M  V30 18 1 29 8
M  V30 19 1 29 18
M  V30 20 1 30 22
M  V30 21 1 31 28
M  V30 22 1 32 6
M  V30 23 1 32 12
M  V30 24 2 33 9
M  V30 25 1 33 23
M  V30 26 1 34 7
M  V30 27 1 34 8
M  V30 28 1 35 7
M  V30 29 2 35 26
M  V30 30 1 35 33
M  V30 31 1 36 5
M  V30 32 1 36 23
M  V30 33 2 36 28
M  V30 34 1 37 10
M  V30 35 2 37 22
M  V30 36 1 38 6
M  V30 37 1 38 8
M  V30 38 1 38 20
M  V30 39 1 39 18
M  V30 40 1 39 24
M  V30 41 1 39 32
M  V30 42 1 40 1
M  V30 43 1 41 3
M  V30 44 1 42 3
M  V30 45 1 43 3
M  V30 46 1 44 4
M  V30 47 1 45 5
M  V30 48 1 46 5
M  V30 49 1 47 6
M  V30 50 1 48 6
M  V30 51 1 49 7
M  V30 52 1 50 7
M  V30 53 1 8 51 CFG=1
M  V30 54 1 52 10
M  V30 55 1 53 10
M  V30 56 1 54 11
M  V30 57 1 55 12
M  V30 58 1 56 12
M  V30 59 1 57 14
M  V30 60 1 58 15
M  V30 61 1 59 15
M  V30 62 1 60 18
M  V30 63 1 61 18
M  V30 64 1 62 20
M  V30 65 1 63 23
M  V30 66 1 64 24
M  V30 67 1 65 24
M  V30 68 1 66 25
M  V30 69 1 67 27
M  V30 70 1 68 29
M  V30 71 1 69 29
M  V30 72 1 70 31
M  V30 73 1 71 31
M  V30 74 1 72 31
M  V30 75 1 32 73 CFG=1
M  V30 76 1 74 34
M  V30 77 1 75 37
M  V30 78 1 38 76 CFG=1
M  V30 END BOND
M  V30 END CTAB
M  END
>  <i_epik_Tot_Q>  (1) 
0

>  <i_epik_Tot_abs_Q>  (1) 
0

>  <i_i_glide_confnum>  (1) 
7556

>  <i_i_glide_lignum>  (1) 
190

>  <i_i_glide_posenum>  (1) 
180

>  <i_i_glide_rotatable_bonds>  (1) 
14

>  <i_lp_mmshare_version>  (1) 
72125

>  <i_m_source_file_index>  (1) 
78

>  <i_f3d_flags>  (1) 
0

>  <num_sample>  (1) 
100

>  <b_lp_Chiralities_Consistent>  (1) 
1

>  <r_epik_Charging_Adjusted_Penalty>  (1) 
0.53836467660946008

>  <r_epik_Ionization_Penalty>  (1) 
0.66160028736033039

>  <r_epik_Ionization_Penalty_Charging>  (1) 
0

>  <r_epik_Ionization_Penalty_Neutral>  (1) 
0.66160028736033039

>  <r_epik_State_Penalty>  (1) 
0.53836467660946008

>  <r_glide_ring_energy>  (1) 
0

>  <r_i_docking_score>  (1) 
-9.3151754089023129

>  <r_i_glide_ecoul>  (1) 
-5.4087366918858777

>  <r_i_glide_eff_state_penalty>  (1) 
0.53836467660946008

>  <r_i_glide_einternal>  (1) 
12.829777405613942

>  <r_i_glide_emodel>  (1) 
-91.667018170367797

>  <r_i_glide_emodel_strain>  (1) 
1.4375807702991779

>  <r_i_glide_energy>  (1) 
-62.114818389110049

>  <r_i_glide_erotb>  (1) 
0.6830181953671759

>  <r_i_glide_esite>  (1) 
0

>  <r_i_glide_evdw>  (1) 
-56.706081697224171

>  <r_i_glide_gscore>  (1) 
-9.8535400855117725

>  <r_i_glide_gscore_strain>  (1) 
0

>  <r_i_glide_hbond>  (1) 
-0.23803116510906733

>  <r_i_glide_ligand_efficiency>  (1) 
-0.2388506515103157

>  <r_i_glide_ligand_efficiency_ln>  (1) 
-1.9974380346474254

>  <r_i_glide_ligand_efficiency_sa>  (1) 
-0.80999306257317172

>  <r_i_glide_lipo>  (1) 
-4.2199617416125559

>  <r_i_glide_metal>  (1) 
-0

>  <r_i_glide_rewards>  (1) 
-2.4319507855132332

>  <r_lp_Energy>  (1) 
37.727160999999995

>  <s_epik_Chemistry_Notes>  (1) 
This compound contains an acetal/aminal-like group ( X-CH(R)-Y where X, Y are N, S, or O) that may be acid/base labile, releasing an aldehyde.

>  <s_epik_cmdline>  (1) 
J2VwaWtfcHl0aG9uJywgJy1waHQnLCAnMS4wJywgJy1waCcsICc3LjQnLCAnLXRuJywgJzgnLCAnLW1hJywgJzUwMCcsICctaW1hZScsICc8aW5maWxlLm1hZT4nLCAnLW9tYWUnLCAnPG91dGZpbGUubWFlPic=

>  <s_epik_input>  (1) 
RmMxYyhGKVtjSF1bY0hdYyhbY0hdMSlbQ0gyXVtDQEhdKFtDSDJdW0NASF0yW09IXSlOKFtDSDJdW05IXVtDSF09TylbQ0gyXVtDSDJdW0NAQEhdMltOSF1bQ0gyXS9DKD1DKFxbQ0gzXSlbQ0gyXVtPSF0pQyg9TylbTkhdQyg9QzNbQ0gzXSlbQ0gyXVtDSDJdW0NIXT1DM0Y=

>  <s_glide_docking_method>  (1) 
confgen

>  <s_i_glide_gridfile>  (1) 
gpcr_5ht2c_6bqh_protein_autoprepared_prepared

>  <s_lp_Force_Field>  (1) 
S-OPLS

>  <s_lp_Variant>  (1) 
DiffSBDD_77_num_sample_100-1

>  <s_m_source_file>  (1) 
generated__ligand_DiffSBDD_2026-05-06_prepared.sdf

>  <GenAI_Model>  (1) 
DiffSBDD

>  <Protein>  (1) 
GPCR_5HT2C

$$$$
DiffSBDD_77_num_sample_100
     RDKit          3D

  0  0  0  0  0  0  0  0  0  0999 V3000
M  V30 BEGIN CTAB
M  V30 COUNTS 76 78 0 0 1
M  V30 BEGIN ATOM
M  V30 1 C 40.123693 30.421404 52.092634 0
M  V30 2 F 39.570381 27.295303 50.253501 0
M  V30 3 C 41.945942 28.882431 63.148655 0
M  V30 4 C 39.270327 30.227292 53.195179 0
M  V30 5 C 37.669449 33.829754 61.453531 0
M  V30 6 C 38.674745 29.974687 56.495165 0
M  V30 7 C 39.558889 28.774829 61.356596 0
M  V30 8 C 39.253715 29.062049 58.876613 0 CFG=2
M  V30 9 O 37.893557 31.203796 61.526070 0
M  V30 10 C 37.062862 35.244339 61.343642 0
M  V30 11 N 37.659900 25.723641 55.977756 0
M  V30 12 C 37.562221 28.841586 54.468414 0
M  V30 13 C 39.467399 28.250299 51.200626 0
M  V30 14 O 42.341071 31.004225 64.840983 0
M  V30 15 C 41.488547 31.343116 63.767201 0
M  V30 16 C 38.503114 29.047973 53.292758 0
M  V30 17 F 41.047354 29.621452 50.039198 0
M  V30 18 C 40.181922 27.574429 56.978569 0
M  V30 19 O 38.720122 24.374511 57.453466 0
M  V30 20 O 37.005229 29.895871 58.248626 0
M  V30 21 C 40.223875 29.433635 51.096287 0
M  V30 22 C 39.296838 36.188382 62.007203 0
M  V30 23 N 39.712085 32.459807 62.093058 0
M  V30 24 C 38.873526 26.281006 55.381632 0
M  V30 25 C 38.603728 28.061118 52.291083 0
M  V30 26 C 41.054032 30.111928 62.945568 0
M  V30 27 C 37.685774 24.817126 56.961820 0
M  V30 28 C 39.885294 34.869329 62.176419 0
M  V30 29 C 39.419826 27.636994 58.313972 0
M  V30 30 F 40.055875 37.269380 62.243907 0
M  V30 31 C 41.330329 34.733789 62.629578 0
M  V30 32 C 38.246051 28.631652 55.842648 0 CFG=1
M  V30 33 C 39.067379 31.275597 61.887923 0
M  V30 34 N 38.667496 28.953315 60.206793 0
M  V30 35 C 39.948039 30.070638 62.102471 0
M  V30 36 C 39.137692 33.767056 61.926961 0
M  V30 37 C 38.025554 36.371805 61.628497 0
M  V30 38 C 38.400592 30.038288 58.012767 0 CFG=2
M  V30 39 N 39.322699 27.621597 55.789772 0
M  V30 40 H 40.701956 31.328448 52.012310 0
M  V30 41 H 42.996254 29.160055 63.053500 0
M  V30 42 H 41.800940 28.489030 64.155054 0
M  V30 43 H 41.786663 28.049839 62.471593 0
M  V30 44 H 39.195231 30.988191 53.957104 0
M  V30 45 H 37.596831 33.372654 60.465323 0
M  V30 46 H 37.022481 33.280190 62.138697 0
M  V30 47 H 39.717398 30.206061 56.277003 0
M  V30 48 H 38.109148 30.792814 56.046890 0
M  V30 49 H 40.437172 28.233407 61.014992 0
M  V30 50 H 39.067434 28.131672 62.086945 0
M  V30 51 H 40.247872 29.503480 58.957384 0
M  V30 52 H 36.251312 35.337094 62.063446 0
M  V30 53 H 36.626223 35.392843 60.355305 0
M  V30 54 H 36.770170 26.040976 55.623872 0
M  V30 55 H 36.924418 27.984415 54.251453 0
M  V30 56 H 36.874800 29.687142 54.516662 0
M  V30 57 H 41.882773 30.410332 65.417308 0
M  V30 58 H 40.645508 31.847715 64.241009 0
M  V30 59 H 42.051575 32.032029 63.138728 0
M  V30 60 H 40.902778 28.390585 56.932643 0
M  V30 61 H 40.791945 26.670341 56.950323 0
M  V30 62 H 36.527575 30.590331 57.796248 0
M  V30 63 H 40.676327 32.432082 62.381132 0
M  V30 64 H 38.670696 26.311027 54.315720 0
M  V30 65 H 39.702435 25.572579 55.444765 0
M  V30 66 H 38.017466 27.156653 52.359841 0
M  V30 67 H 36.667789 24.528029 57.264977 0
M  V30 68 H 39.988693 27.047335 59.033272 0
M  V30 69 H 38.450100 27.147145 58.254017 0
M  V30 70 H 41.854933 35.689612 62.612656 0
M  V30 71 H 41.377234 34.348649 63.648388 0
M  V30 72 H 41.867398 34.058413 61.965388 0
M  V30 73 H 37.467403 28.229818 56.486964 0
M  V30 74 H 37.999555 29.708348 60.371313 0
M  V30 75 H 37.640487 37.375323 61.520819 0
M  V30 76 H 38.641137 31.049053 58.346086 0
M  V30 END ATOM
M  V30 BEGIN BOND
M  V30 1 2 4 1
M  V30 2 1 10 5
M  V30 3 1 13 2
M  V30 4 1 15 14
M  V30 5 1 16 4
M  V30 6 1 16 12
M  V30 7 1 21 1
M  V30 8 2 21 13
M  V30 9 1 21 17
M  V30 10 1 24 11
M  V30 11 1 25 13
M  V30 12 2 25 16
M  V30 13 1 26 3
M  V30 14 1 26 15
M  V30 15 1 27 11
M  V30 16 2 27 19
M  V30 17 1 28 22
M  V30 18 1 29 8
M  V30 19 1 29 18
M  V30 20 1 30 22
M  V30 21 1 31 28
M  V30 22 1 32 6
M  V30 23 1 32 12
M  V30 24 2 33 9
M  V30 25 1 33 23
M  V30 26 1 34 7
M  V30 27 1 34 8
M  V30 28 1 35 7
M  V30 29 2 35 26
M  V30 30 1 35 33
M  V30 31 1 36 5
M  V30 32 1 36 23
M  V30 33 2 36 28
M  V30 34 1 37 10
M  V30 35 2 37 22
M  V30 36 1 38 6
M  V30 37 1 38 8
M  V30 38 1 38 20
M  V30 39 1 39 18
M  V30 40 1 39 24
M  V30 41 1 39 32
M  V30 42 1 40 1
M  V30 43 1 41 3
M  V30 44 1 42 3
M  V30 45 1 43 3
M  V30 46 1 44 4
M  V30 47 1 45 5
M  V30 48 1 46 5
M  V30 49 1 47 6
M  V30 50 1 48 6
M  V30 51 1 49 7
M  V30 52 1 50 7
M  V30 53 1 8 51 CFG=1
M  V30 54 1 52 10
M  V30 55 1 53 10
M  V30 56 1 54 11
M  V30 57 1 55 12
M  V30 58 1 56 12
M  V30 59 1 57 14
M  V30 60 1 58 15
M  V30 61 1 59 15
M  V30 62 1 60 18
M  V30 63 1 61 18
M  V30 64 1 62 20
M  V30 65 1 63 23
M  V30 66 1 64 24
M  V30 67 1 65 24
M  V30 68 1 66 25
M  V30 69 1 67 27
M  V30 70 1 68 29
M  V30 71 1 69 29
M  V30 72 1 70 31
M  V30 73 1 71 31
M  V30 74 1 72 31
M  V30 75 1 32 73 CFG=1
M  V30 76 1 74 34
M  V30 77 1 75 37
M  V30 78 1 38 76 CFG=1
M  V30 END BOND
M  V30 END CTAB
M  END
>  <i_epik_Tot_Q>  (1) 
0

>  <i_epik_Tot_abs_Q>  (1) 
0

>  <i_i_glide_confnum>  (1) 
7556

>  <i_i_glide_lignum>  (1) 
190

>  <i_i_glide_posenum>  (1) 
180

>  <i_i_glide_rotatable_bonds>  (1) 
14

>  <i_lp_mmshare_version>  (1) 
72125

>  <i_m_source_file_index>  (1) 
78

>  <i_f3d_flags>  (1) 
0

>  <num_sample>  (1) 
100

>  <b_lp_Chiralities_Consistent>  (1) 
1

>  <r_epik_Charging_Adjusted_Penalty>  (1) 
0.53836467660946008

>  <r_epik_Ionization_Penalty>  (1) 
0.66160028736033039

>  <r_epik_Ionization_Penalty_Charging>  (1) 
0

>  <r_epik_Ionization_Penalty_Neutral>  (1) 
0.66160028736033039

>  <r_epik_State_Penalty>  (1) 
0.53836467660946008

>  <r_glide_ring_energy>  (1) 
0

>  <r_i_docking_score>  (1) 
-9.2553478703301888

>  <r_i_glide_ecoul>  (1) 
-5.5769676320302999

>  <r_i_glide_eff_state_penalty>  (1) 
0.53836467660946008

>  <r_i_glide_einternal>  (1) 
11.721829160851296

>  <r_i_glide_emodel>  (1) 
-91.618575008241265

>  <r_i_glide_emodel_strain>  (1) 
0.64519925118395349

>  <r_i_glide_energy>  (1) 
-60.947128753681596

>  <r_i_glide_erotb>  (1) 
0.6830181953671759

>  <r_i_glide_esite>  (1) 
0

>  <r_i_glide_evdw>  (1) 
-55.370161121651293

>  <r_i_glide_gscore>  (1) 
-9.7937125469396484

>  <r_i_glide_gscore_strain>  (1) 
0

>  <r_i_glide_hbond>  (1) 
-0.24393800037996868

>  <r_i_glide_ligand_efficiency>  (1) 
-0.23731661205974844

>  <r_i_glide_ligand_efficiency_ln>  (1) 
-1.9846093120718857

>  <r_i_glide_ligand_efficiency_sa>  (1) 
-0.80479081043437273

>  <r_i_glide_lipo>  (1) 
-4.1082937923968323

>  <r_i_glide_metal>  (1) 
-0

>  <r_i_glide_rewards>  (1) 
-2.5194457486429123

>  <r_lp_Energy>  (1) 
37.727160999999995

>  <s_epik_Chemistry_Notes>  (1) 
This compound contains an acetal/aminal-like group ( X-CH(R)-Y where X, Y are N, S, or O) that may be acid/base labile, releasing an aldehyde.

>  <s_epik_cmdline>  (1) 
J2VwaWtfcHl0aG9uJywgJy1waHQnLCAnMS4wJywgJy1waCcsICc3LjQnLCAnLXRuJywgJzgnLCAnLW1hJywgJzUwMCcsICctaW1hZScsICc8aW5maWxlLm1hZT4nLCAnLW9tYWUnLCAnPG91dGZpbGUubWFlPic=

>  <s_epik_input>  (1) 
RmMxYyhGKVtjSF1bY0hdYyhbY0hdMSlbQ0gyXVtDQEhdKFtDSDJdW0NASF0yW09IXSlOKFtDSDJdW05IXVtDSF09TylbQ0gyXVtDSDJdW0NAQEhdMltOSF1bQ0gyXS9DKD1DKFxbQ0gzXSlbQ0gyXVtPSF0pQyg9TylbTkhdQyg9QzNbQ0gzXSlbQ0gyXVtDSDJdW0NIXT1DM0Y=

>  <s_glide_docking_method>  (1) 
confgen

>  <s_i_glide_gridfile>  (1) 
gpcr_5ht2c_6bqh_protein_autoprepared_prepared

>  <s_lp_Force_Field>  (1) 
S-OPLS

>  <s_lp_Variant>  (1) 
DiffSBDD_77_num_sample_100-1

>  <s_m_source_file>  (1) 
generated__ligand_DiffSBDD_2026-05-06_prepared.sdf

>  <GenAI_Model>  (1) 
DiffSBDD

>  <Protein>  (1) 
GPCR_5HT2C

$$$$
DiffSBDD_77_num_sample_100
     RDKit          3D

  0  0  0  0  0  0  0  0  0  0999 V3000
M  V30 BEGIN CTAB
M  V30 COUNTS 77 79 0 0 1
M  V30 BEGIN ATOM
M  V30 1 C 39.160191 27.921926 51.044731 0
M  V30 2 F 40.592706 31.219889 51.787795 0
M  V30 3 C 40.995873 31.248092 64.169821 0
M  V30 4 C 38.370273 27.720455 52.189068 0
M  V30 5 C 37.743334 33.917056 61.261876 0
M  V30 6 C 38.551628 29.762217 56.362160 0
M  V30 7 C 39.582850 28.840965 61.297189 0
M  V30 8 C 39.241190 29.030381 58.777743 0 CFG=2
M  V30 9 O 37.937449 31.288647 61.241797 0
M  V30 10 C 37.207575 35.348326 61.040292 0
M  V30 11 N 37.744675 25.487307 55.488663 0
M  V30 12 C 37.465905 28.484322 54.424449 0
M  V30 13 C 39.873017 30.081997 51.919693 0
M  V30 14 O 42.917385 29.141495 63.456598 0
M  V30 15 C 41.546346 28.832351 63.532565 0
M  V30 16 C 38.332686 28.698336 53.202385 0
M  V30 17 F 40.663782 29.305603 49.801250 0
M  V30 18 C 40.226482 27.498665 56.943245 0
M  V30 19 O 38.129693 24.549337 57.516571 0
M  V30 20 O 36.941341 29.622360 58.164982 0
M  V30 21 C 39.909232 29.105271 50.907262 0
M  V30 22 C 39.256080 36.232050 62.192064 0
M  V30 23 N 39.602048 32.487445 62.245734 0
M  V30 24 C 39.078336 26.065033 55.319869 0
M  V30 25 C 39.088082 29.877888 53.068049 0
M  V30 26 C 40.722834 30.077308 63.219951 0
M  V30 27 C 37.384052 24.779558 56.567918 0
M  V30 28 C 39.783197 34.896150 62.441736 0
M  V30 29 C 39.479513 27.585536 58.288969 0
M  V30 30 F 39.958325 37.294340 62.615131 0
M  V30 31 C 41.108363 34.724242 63.170019 0
M  V30 32 C 38.199615 28.365072 55.784163 0 CFG=1
M  V30 33 C 39.007246 31.323424 61.846499 0
M  V30 34 N 38.669241 28.996084 60.138988 0 CHG=1
M  V30 35 C 39.813553 30.096134 62.172647 0
M  V30 36 C 39.087416 33.813446 62.014227 0
M  V30 37 C 38.098405 36.448111 61.555935 0
M  V30 38 C 38.306051 29.883661 57.878132 0 CFG=2
M  V30 39 N 39.352267 27.441950 55.765914 0
M  V30 40 H 39.186850 27.170780 50.267233 0
M  V30 41 H 41.462476 30.854980 65.074474 0
M  V30 42 H 41.715216 31.952667 63.752868 0
M  V30 43 H 40.092583 31.741326 64.528524 0
M  V30 44 H 37.786151 26.818392 52.287776 0
M  V30 45 H 37.850956 33.470356 60.271573 0
M  V30 46 H 36.965580 33.382116 61.808248 0
M  V30 47 H 39.573287 30.049439 56.109269 0
M  V30 48 H 37.927312 30.518774 55.883076 0
M  V30 49 H 40.535982 28.449328 60.940767 0
M  V30 50 H 39.146826 28.075578 61.939610 0
M  V30 51 H 40.199565 29.549909 58.819590 0
M  V30 52 H 36.266620 35.469094 61.565512 0
M  V30 53 H 37.002492 35.520994 59.983890 0
M  V30 54 H 37.075081 25.627554 54.747750 0
M  V30 55 H 36.852547 27.602006 54.252373 0
M  V30 56 H 36.737121 29.297558 54.461469 0
M  V30 57 H 43.419964 28.339024 63.469512 0
M  V30 58 H 41.342472 27.976960 62.894994 0
M  V30 59 H 41.312061 28.506561 64.545290 0
M  V30 60 H 40.893124 28.354860 56.838242 0
M  V30 61 H 40.896454 26.638267 56.954619 0
M  V30 62 H 36.402608 30.297676 57.754021 0
M  V30 63 H 40.485561 32.428959 62.732390 0
M  V30 64 H 39.253235 26.072236 54.245579 0
M  V30 65 H 39.832507 25.361709 55.678417 0
M  V30 66 H 39.058064 30.632107 53.838531 0
M  V30 67 H 36.340849 24.436782 56.488683 0
M  V30 68 H 40.101296 27.083044 59.028976 0
M  V30 69 H 38.547462 27.022045 58.265301 0
M  V30 70 H 41.564594 35.686836 63.403297 0
M  V30 71 H 40.961068 34.199449 64.114128 0
M  V30 72 H 41.815768 34.166541 62.554703 0
M  V30 73 H 37.467004 27.924861 56.457760 0
M  V30 74 H 37.974940 28.261853 60.149872 0
M  V30 75 H 37.757526 37.462452 61.395824 0
M  V30 76 H 38.460033 30.929576 58.147828 0
M  V30 77 H 38.164706 29.870657 60.271538 0
M  V30 END ATOM
M  V30 BEGIN BOND
M  V30 1 2 4 1
M  V30 2 1 10 5
M  V30 3 1 13 2
M  V30 4 1 15 14
M  V30 5 1 16 4
M  V30 6 1 16 12
M  V30 7 1 21 1
M  V30 8 2 21 13
M  V30 9 1 21 17
M  V30 10 1 24 11
M  V30 11 1 25 13
M  V30 12 2 25 16
M  V30 13 1 26 3
M  V30 14 1 26 15
M  V30 15 1 27 11
M  V30 16 2 27 19
M  V30 17 1 28 22
M  V30 18 1 29 8
M  V30 19 1 29 18
M  V30 20 1 30 22
M  V30 21 1 31 28
M  V30 22 1 32 6
M  V30 23 1 32 12
M  V30 24 2 33 9
M  V30 25 1 33 23
M  V30 26 1 34 7
M  V30 27 1 34 8
M  V30 28 1 35 7
M  V30 29 2 35 26
M  V30 30 1 35 33
M  V30 31 1 36 5
M  V30 32 1 36 23
M  V30 33 2 36 28
M  V30 34 1 37 10
M  V30 35 2 37 22
M  V30 36 1 38 6
M  V30 37 1 38 8
M  V30 38 1 38 20
M  V30 39 1 39 18
M  V30 40 1 39 24
M  V30 41 1 39 32
M  V30 42 1 40 1
M  V30 43 1 41 3
M  V30 44 1 42 3
M  V30 45 1 43 3
M  V30 46 1 44 4
M  V30 47 1 45 5
M  V30 48 1 46 5
M  V30 49 1 47 6
M  V30 50 1 48 6
M  V30 51 1 49 7
M  V30 52 1 50 7
M  V30 53 1 8 51 CFG=1
M  V30 54 1 52 10
M  V30 55 1 53 10
M  V30 56 1 54 11
M  V30 57 1 55 12
M  V30 58 1 56 12
M  V30 59 1 57 14
M  V30 60 1 58 15
M  V30 61 1 59 15
M  V30 62 1 60 18
M  V30 63 1 61 18
M  V30 64 1 62 20
M  V30 65 1 63 23
M  V30 66 1 64 24
M  V30 67 1 65 24
M  V30 68 1 66 25
M  V30 69 1 67 27
M  V30 70 1 68 29
M  V30 71 1 69 29
M  V30 72 1 70 31
M  V30 73 1 71 31
M  V30 74 1 72 31
M  V30 75 1 32 73 CFG=1
M  V30 76 1 74 34
M  V30 77 1 75 37
M  V30 78 1 38 76 CFG=1
M  V30 79 1 77 34
M  V30 END BOND
M  V30 END CTAB
M  END
>  <i_epik_Tot_Q>  (1) 
1

>  <i_epik_Tot_abs_Q>  (1) 
1

>  <i_i_glide_confnum>  (1) 
4512

>  <i_i_glide_lignum>  (1) 
193

>  <i_i_glide_posenum>  (1) 
329

>  <i_i_glide_rotatable_bonds>  (1) 
14

>  <i_lp_mmshare_version>  (1) 
72125

>  <i_m_source_file_index>  (1) 
78

>  <i_f3d_flags>  (1) 
0

>  <num_sample>  (1) 
100

>  <b_lp_Chiralities_Consistent>  (1) 
1

>  <r_epik_Charging_Adjusted_Penalty>  (1) 
1.1871079539409661

>  <r_epik_Ionization_Penalty>  (1) 
0.55718335861310397

>  <r_epik_Ionization_Penalty_Charging>  (1) 
0.49341796909107616

>  <r_epik_Ionization_Penalty_Neutral>  (1) 
0.063765389522027774

>  <r_epik_State_Penalty>  (1) 
0.69368998484988997

>  <r_glide_ring_energy>  (1) 
0

>  <r_i_docking_score>  (1) 
-9.2315653824393102

>  <r_i_glide_ecoul>  (1) 
-6.1602111875598542

>  <r_i_glide_eff_state_penalty>  (1) 
0.69368998484988997

>  <r_i_glide_einternal>  (1) 
29.668039074953938

>  <r_i_glide_emodel>  (1) 
-82.116776632537182

>  <r_i_glide_emodel_strain>  (1) 
1.8074505113506234

>  <r_i_glide_energy>  (1) 
-62.558074615144029

>  <r_i_glide_erotb>  (1) 
0.67934156738045093

>  <r_i_glide_esite>  (1) 
0

>  <r_i_glide_evdw>  (1) 
-56.397863427584177

>  <r_i_glide_gscore>  (1) 
-9.9252553672891999

>  <r_i_glide_gscore_strain>  (1) 
0

>  <r_i_glide_hbond>  (1) 
-0.15712326811506777

>  <r_i_glide_ligand_efficiency>  (1) 
-0.23670680467793104

>  <r_i_glide_ligand_efficiency_ln>  (1) 
-1.979509671562016

>  <r_i_glide_ligand_efficiency_sa>  (1) 
-0.80272282466311906

>  <r_i_glide_lipo>  (1) 
-4.2397406652355851

>  <r_i_glide_metal>  (1) 
-0

>  <r_i_glide_rewards>  (1) 
-2.4638081518058099

>  <r_lp_Energy>  (1) 
42.462567

>  <s_epik_Chemistry_Notes>  (1) 
This compound contains an acetal/aminal-like group ( X-CH(R)-Y where X, Y are N, S, or O) that may be acid/base labile, releasing an aldehyde.

>  <s_epik_cmdline>  (1) 
J2VwaWtfcHl0aG9uJywgJy1waHQnLCAnMS4wJywgJy1waCcsICc3LjQnLCAnLXRuJywgJzgnLCAnLW1hJywgJzUwMCcsICctaW1hZScsICc8aW5maWxlLm1hZT4nLCAnLW9tYWUnLCAnPG91dGZpbGUubWFlPic=

>  <s_epik_input>  (1) 
RmMxYyhGKVtjSF1bY0hdYyhbY0hdMSlbQ0gyXVtDQEhdKFtDSDJdW0NASF0yW09IXSlOKFtDSDJdW05IXVtDSF09TylbQ0gyXVtDSDJdW0NAQEhdMltOSF1bQ0gyXVxDKD1DKFxbQ0gzXSlbQ0gyXVtPSF0pQyg9TylbTkhdQyg9QzNbQ0gzXSlbQ0gyXVtDSDJdW0NIXT1DM0Y=

>  <s_glide_docking_method>  (1) 
confgen

>  <s_i_glide_gridfile>  (1) 
gpcr_5ht2c_6bqh_protein_autoprepared_prepared

>  <s_lp_Force_Field>  (1) 
S-OPLS

>  <s_lp_Variant>  (1) 
DiffSBDD_77_num_sample_100-4

>  <s_m_source_file>  (1) 
generated__ligand_DiffSBDD_2026-05-06_prepared.sdf

>  <GenAI_Model>  (1) 
DiffSBDD

>  <Protein>  (1) 
GPCR_5HT2C

$$$$
DiffSBDD_33_num_sample_100
     RDKit          3D

  0  0  0  0  0  0  0  0  0  0999 V3000
M  V30 BEGIN CTAB
M  V30 COUNTS 54 57 0 0 1
M  V30 BEGIN ATOM
M  V30 1 O 40.374456 29.645711 60.429108 0
M  V30 2 O 38.109914 27.507700 53.368741 0
M  V30 3 C 38.658313 26.552556 56.279083 0
M  V30 4 C 38.051666 32.364355 60.854072 0
M  V30 5 C 39.240496 30.095244 60.253336 0
M  V30 6 N 38.535530 29.872893 59.135945 0
M  V30 7 C 37.057861 32.555164 59.879923 0
M  V30 8 C 37.467404 27.946810 54.556179 0
M  V30 9 O 37.821586 26.009590 57.000177 0
M  V30 10 C 39.059005 29.089469 58.024785 0
M  V30 11 O 37.846135 30.260728 56.352953 0
M  V30 12 C 36.881064 36.296536 59.862780 0
M  V30 13 C 38.645493 33.429981 61.481820 0
M  V30 14 F 40.908884 31.033255 50.135769 0
M  V30 15 C 39.558446 31.616428 62.363262 0
M  V30 16 C 36.671546 33.874913 59.544603 0
M  V30 17 F 38.818002 26.821431 50.801160 0
M  V30 18 C 38.443324 27.982164 55.764540 0 CFG=1
M  V30 19 C 38.882138 35.906948 61.829630 0
M  V30 20 C 38.010796 28.960181 56.899055 0 CFG=1
M  V30 21 C 39.867660 30.573856 52.235708 0
M  V30 22 C 38.568822 30.949082 61.338588 0 CFG=1
M  V30 23 C 39.867402 28.921883 50.452702 0
M  V30 24 C 39.157774 28.033010 51.271221 0
M  V30 25 C 37.280305 34.987871 60.194914 0
M  V30 26 C 38.799793 28.404090 52.579465 0
M  V30 27 C 40.224144 30.187119 50.930587 0
M  V30 28 C 37.467386 37.399892 60.508243 0
M  V30 29 C 38.287461 34.776714 61.183102 0
M  V30 30 C 39.157547 29.686612 53.063149 0
M  V30 31 O 39.850317 35.756234 62.778328 0
M  V30 32 C 38.461394 37.205930 61.485187 0
M  V30 33 C 39.567372 32.939175 62.396559 0
M  V30 34 H 39.585144 26.072613 55.963704 0
M  V30 35 H 37.613429 30.271230 59.042955 0
M  V30 36 H 36.590823 31.711709 59.394381 0
M  V30 37 H 36.667538 27.221433 54.704628 0
M  V30 38 H 36.963502 28.897910 54.385968 0
M  V30 39 H 39.974409 29.547894 57.645110 0
M  V30 40 H 39.335313 28.108506 58.413145 0
M  V30 41 H 37.024898 30.645090 56.653462 0
M  V30 42 H 36.118500 36.454095 59.113326 0
M  V30 43 H 40.188108 31.002821 62.990652 0
M  V30 44 H 35.907862 34.037239 58.796225 0
M  V30 45 H 39.415350 28.323256 55.409695 0
M  V30 46 H 37.067387 28.634595 57.332069 0
M  V30 47 H 40.141975 31.551790 52.602545 0
M  V30 48 H 37.779361 30.418259 61.862696 0
M  V30 49 H 40.139776 28.631470 49.453505 0
M  V30 50 H 37.153674 38.400959 60.253448 0
M  V30 51 H 38.893010 29.991161 54.060915 0
M  V30 52 H 40.155410 36.571398 63.148210 0
M  V30 53 H 38.906686 38.058980 61.971309 0
M  V30 54 H 40.177400 33.552288 63.030413 0
M  V30 END ATOM
M  V30 BEGIN BOND
M  V30 1 2 5 1
M  V30 2 1 6 5
M  V30 3 1 7 4
M  V30 4 1 8 2
M  V30 5 2 9 3
M  V30 6 1 10 6
M  V30 7 2 13 4
M  V30 8 2 16 7
M  V30 9 1 18 3
M  V30 10 1 18 8
M  V30 11 1 20 10
M  V30 12 1 20 11
M  V30 13 1 20 18
M  V30 14 1 22 4
M  V30 15 1 22 5
M  V30 16 1 22 15
M  V30 17 1 24 17
M  V30 18 1 24 23
M  V30 19 2 25 12
M  V30 20 1 25 16
M  V30 21 1 26 2
M  V30 22 2 26 24
M  V30 23 1 27 14
M  V30 24 1 27 21
M  V30 25 2 27 23
M  V30 26 1 28 12
M  V30 27 1 29 13
M  V30 28 2 29 19
M  V30 29 1 29 25
M  V30 30 2 30 21
M  V30 31 1 30 26
M  V30 32 1 31 19
M  V30 33 1 32 19
M  V30 34 2 32 28
M  V30 35 1 33 13
M  V30 36 2 33 15
M  V30 37 1 34 3
M  V30 38 1 35 6
M  V30 39 1 36 7
M  V30 40 1 37 8
M  V30 41 1 38 8
M  V30 42 1 39 10
M  V30 43 1 40 10
M  V30 44 1 41 11
M  V30 45 1 42 12
M  V30 46 1 43 15
M  V30 47 1 44 16
M  V30 48 1 18 45 CFG=3
M  V30 49 1 20 46 CFG=1
M  V30 50 1 47 21
M  V30 51 1 22 48 CFG=1
M  V30 52 1 49 23
M  V30 53 1 50 28
M  V30 54 1 51 30
M  V30 55 1 52 31
M  V30 56 1 53 32
M  V30 57 1 54 33
M  V30 END BOND
M  V30 END CTAB
M  END
>  <i_epik_Tot_Q>  (1) 
0

>  <i_epik_Tot_abs_Q>  (1) 
0

>  <i_i_glide_confnum>  (1) 
238

>  <i_i_glide_lignum>  (1) 
88

>  <i_i_glide_posenum>  (1) 
167

>  <i_i_glide_rotatable_bonds>  (1) 
11

>  <i_lp_mmshare_version>  (1) 
72125

>  <i_m_source_file_index>  (1) 
34

>  <i_f3d_flags>  (1) 
0

>  <num_sample>  (1) 
100

>  <b_lp_Chiralities_Consistent>  (1) 
1

>  <r_epik_Charging_Adjusted_Penalty>  (1) 
0.017498169133041582

>  <r_epik_Ionization_Penalty>  (1) 
0.017508665323932474

>  <r_epik_Ionization_Penalty_Charging>  (1) 
0

>  <r_epik_Ionization_Penalty_Neutral>  (1) 
0.017508665323932474

>  <r_epik_State_Penalty>  (1) 
0.017498169133041582

>  <r_glide_ring_energy>  (1) 
0

>  <r_i_docking_score>  (1) 
-9.216458972938625

>  <r_i_glide_ecoul>  (1) 
-3.6142870041704809

>  <r_i_glide_eff_state_penalty>  (1) 
0.017498169133041582

>  <r_i_glide_einternal>  (1) 
7.3729423922961939

>  <r_i_glide_emodel>  (1) 
-76.764111772415745

>  <r_i_glide_emodel_strain>  (1) 
1.1384323367463054

>  <r_i_glide_energy>  (1) 
-52.97258710802987

>  <r_i_glide_erotb>  (1) 
0.68337992358868593

>  <r_i_glide_esite>  (1) 
0

>  <r_i_glide_evdw>  (1) 
-49.358300103859392

>  <r_i_glide_gscore>  (1) 
-9.2339571420716666

>  <r_i_glide_gscore_strain>  (1) 
0

>  <r_i_glide_hbond>  (1) 
-0.1584734254352915

>  <r_i_glide_ligand_efficiency>  (1) 
-0.27928663554359467

>  <r_i_glide_ligand_efficiency_ln>  (1) 
-2.0496927553109221

>  <r_i_glide_ligand_efficiency_sa>  (1) 
-0.8958214714151127

>  <r_i_glide_lipo>  (1) 
-4.2006213960863308

>  <r_i_glide_metal>  (1) 
-0

>  <r_i_glide_rewards>  (1) 
-2.5481841883201866

>  <r_lp_Energy>  (1) 
35.553354999999996

>  <r_lp_tautomer_probability>  (1) 
0.99990000499974985

>  <s_epik_cmdline>  (1) 
J2VwaWtfcHl0aG9uJywgJy1waHQnLCAnMS4wJywgJy1waCcsICc3LjQnLCAnLXRuJywgJzgnLCAnLW1hJywgJzUwMCcsICctaW1hZScsICc8aW5maWxlLm1hZT4nLCAnLW9tYWUnLCAnPG91dGZpbGUubWFlPic=

>  <s_epik_input>  (1) 
W09IXWMxW2NIXVtjSF1bY0hdYyhbY0hdW2NIXTIpYzFjKGMyMylbQ0hdPVtDSF1bQ0BASF0zQyg9TylbTkhdW0NIMl1bQ0BASF0oW09IXSlbQ0BASF0oW0NIXT1PKVtDSDJdT2M0W2NIXVtjSF1jKEYpW2NIXWM0Rg==

>  <s_glide_docking_method>  (1) 
confgen

>  <s_i_glide_gridfile>  (1) 
gpcr_5ht2c_6bqh_protein_autoprepared_prepared

>  <s_lp_Force_Field>  (1) 
S-OPLS

>  <s_lp_Variant>  (1) 
DiffSBDD_33_num_sample_100-1

>  <s_m_source_file>  (1) 
generated__ligand_DiffSBDD_2026-05-06_prepared.sdf

>  <GenAI_Model>  (1) 
DiffSBDD

>  <Protein>  (1) 
GPCR_5HT2C

$$$$
DiffSBDD_77_num_sample_100
     RDKit          3D

  0  0  0  0  0  0  0  0  0  0999 V3000
M  V30 BEGIN CTAB
M  V30 COUNTS 77 79 0 0 1
M  V30 BEGIN ATOM
M  V30 1 C 39.160047 27.915289 51.054758 0
M  V30 2 F 40.569098 31.210537 51.848706 0
M  V30 3 C 41.742195 28.853781 63.473866 0
M  V30 4 C 38.408440 27.668091 52.218676 0
M  V30 5 C 37.776803 33.852668 61.251463 0
M  V30 6 C 38.566293 29.737617 56.422380 0
M  V30 7 C 39.666892 28.811334 61.348181 0
M  V30 8 C 39.332126 29.059956 58.841980 0 CFG=2
M  V30 9 O 37.988956 31.233191 61.340038 0
M  V30 10 C 37.206237 35.261484 60.998837 0
M  V30 11 N 38.883684 25.139170 56.512279 0
M  V30 12 C 37.549979 28.351662 54.508372 0
M  V30 13 C 39.867416 30.060405 51.968934 0
M  V30 14 O 42.267341 32.002520 63.551575 0
M  V30 15 C 41.201351 31.269625 64.098826 0
M  V30 16 C 38.381904 28.617469 53.259820 0
M  V30 17 F 40.605866 29.354552 49.806208 0
M  V30 18 C 40.417845 27.633022 56.974822 0
M  V30 19 O 36.677911 25.242755 56.001727 0
M  V30 20 O 36.999078 29.621234 58.252865 0
M  V30 21 C 39.887365 29.112808 50.928708 0
M  V30 22 C 39.267825 36.225105 62.059548 0
M  V30 23 N 39.702918 32.483572 62.194428 0
M  V30 24 C 39.329766 26.067119 55.473696 0
M  V30 25 C 39.115288 29.814600 53.133671 0
M  V30 26 C 40.891320 30.088195 63.184214 0
M  V30 27 C 37.596932 24.806242 56.688764 0
M  V30 28 C 39.837206 34.910075 62.320808 0
M  V30 29 C 39.682947 27.646881 58.333291 0
M  V30 30 F 39.957744 37.314876 62.432518 0
M  V30 31 C 41.187693 34.794359 62.999478 0
M  V30 32 C 38.303812 28.307604 55.865497 0 CFG=1
M  V30 33 C 39.094705 31.297216 61.873426 0
M  V30 34 N 38.745762 28.959861 60.194538 0 CHG=1
M  V30 35 C 39.930211 30.082808 62.185051 0
M  V30 36 C 39.151253 33.797718 61.949838 0
M  V30 37 C 38.082752 36.395905 61.461957 0
M  V30 38 C 38.360046 29.879051 57.943267 0 CFG=2
M  V30 39 N 39.528144 27.484312 55.817205 0
M  V30 40 H 39.174777 27.186907 50.256433 0
M  V30 41 H 41.646311 28.583450 64.526198 0
M  V30 42 H 41.486792 27.962504 62.908615 0
M  V30 43 H 42.793371 29.073078 63.285229 0
M  V30 44 H 37.847152 26.753773 52.310237 0
M  V30 45 H 37.846229 33.370223 60.275533 0
M  V30 46 H 37.032094 33.331140 61.853632 0
M  V30 47 H 39.555506 30.096792 56.137044 0
M  V30 48 H 37.873853 30.440361 55.956815 0
M  V30 49 H 40.611226 28.401922 60.989764 0
M  V30 50 H 39.232225 28.064909 62.014200 0
M  V30 51 H 40.264115 29.621766 58.913513 0
M  V30 52 H 36.266665 35.359426 61.533351 0
M  V30 53 H 36.984530 35.399429 59.940049 0
M  V30 54 H 39.584067 24.736074 57.116356 0
M  V30 55 H 37.015143 27.412653 54.368161 0
M  V30 56 H 36.761839 29.103819 54.549031 0
M  V30 57 H 43.071858 31.529513 63.711533 0
M  V30 58 H 41.550014 30.874816 65.053815 0
M  V30 59 H 40.346513 31.876290 64.396409 0
M  V30 60 H 41.007153 28.542391 56.861564 0
M  V30 61 H 41.152881 26.826465 56.963184 0
M  V30 62 H 36.455299 30.269038 57.808167 0
M  V30 63 H 40.620518 32.453648 62.630449 0
M  V30 64 H 38.717183 25.960090 54.578777 0
M  V30 65 H 40.303559 25.692514 55.155610 0
M  V30 66 H 39.097397 30.547965 53.923385 0
M  V30 67 H 37.479653 24.097335 57.522974 0
M  V30 68 H 40.355295 27.182701 59.053040 0
M  V30 69 H 38.794668 27.016820 58.330985 0
M  V30 70 H 41.645250 35.767165 63.179930 0
M  V30 71 H 41.086944 34.300593 63.965080 0
M  V30 72 H 41.867467 34.230993 62.364382 0
M  V30 73 H 37.615494 27.821424 56.556307 0
M  V30 74 H 38.085897 28.196237 60.176611 0
M  V30 75 H 37.708529 37.395153 61.293640 0
M  V30 76 H 38.506192 30.930860 58.196707 0
M  V30 77 H 38.204275 29.806176 60.355499 0
M  V30 END ATOM
M  V30 BEGIN BOND
M  V30 1 2 4 1
M  V30 2 1 10 5
M  V30 3 1 13 2
M  V30 4 1 15 14
M  V30 5 1 16 4
M  V30 6 1 16 12
M  V30 7 1 21 1
M  V30 8 2 21 13
M  V30 9 1 21 17
M  V30 10 1 24 11
M  V30 11 1 25 13
M  V30 12 2 25 16
M  V30 13 1 26 3
M  V30 14 1 26 15
M  V30 15 1 27 11
M  V30 16 2 27 19
M  V30 17 1 28 22
M  V30 18 1 29 8
M  V30 19 1 29 18
M  V30 20 1 30 22
M  V30 21 1 31 28
M  V30 22 1 32 6
M  V30 23 1 32 12
M  V30 24 2 33 9
M  V30 25 1 33 23
M  V30 26 1 34 7
M  V30 27 1 34 8
M  V30 28 1 35 7
M  V30 29 2 35 26
M  V30 30 1 35 33
M  V30 31 1 36 5
M  V30 32 1 36 23
M  V30 33 2 36 28
M  V30 34 1 37 10
M  V30 35 2 37 22
M  V30 36 1 38 6
M  V30 37 1 38 8
M  V30 38 1 38 20
M  V30 39 1 39 18
M  V30 40 1 39 24
M  V30 41 1 39 32
M  V30 42 1 40 1
M  V30 43 1 41 3
M  V30 44 1 42 3
M  V30 45 1 43 3
M  V30 46 1 44 4
M  V30 47 1 45 5
M  V30 48 1 46 5
M  V30 49 1 47 6
M  V30 50 1 48 6
M  V30 51 1 49 7
M  V30 52 1 50 7
M  V30 53 1 8 51 CFG=1
M  V30 54 1 52 10
M  V30 55 1 53 10
M  V30 56 1 54 11
M  V30 57 1 55 12
M  V30 58 1 56 12
M  V30 59 1 57 14
M  V30 60 1 58 15
M  V30 61 1 59 15
M  V30 62 1 60 18
M  V30 63 1 61 18
M  V30 64 1 62 20
M  V30 65 1 63 23
M  V30 66 1 64 24
M  V30 67 1 65 24
M  V30 68 1 66 25
M  V30 69 1 67 27
M  V30 70 1 68 29
M  V30 71 1 69 29
M  V30 72 1 70 31
M  V30 73 1 71 31
M  V30 74 1 72 31
M  V30 75 1 32 73 CFG=1
M  V30 76 1 74 34
M  V30 77 1 75 37
M  V30 78 1 38 76 CFG=1
M  V30 79 1 77 34
M  V30 END BOND
M  V30 END CTAB
M  END
>  <i_epik_Tot_Q>  (1) 
1

>  <i_epik_Tot_abs_Q>  (1) 
1

>  <i_i_glide_confnum>  (1) 
4788

>  <i_i_glide_lignum>  (1) 
192

>  <i_i_glide_posenum>  (1) 
389

>  <i_i_glide_rotatable_bonds>  (1) 
14

>  <i_lp_mmshare_version>  (1) 
72125

>  <i_m_source_file_index>  (1) 
78

>  <i_f3d_flags>  (1) 
0

>  <num_sample>  (1) 
100

>  <b_lp_Chiralities_Consistent>  (1) 
1

>  <r_epik_Charging_Adjusted_Penalty>  (1) 
1.1871079539409661

>  <r_epik_Ionization_Penalty>  (1) 
0.55718335861310397

>  <r_epik_Ionization_Penalty_Charging>  (1) 
0.49341796909107616

>  <r_epik_Ionization_Penalty_Neutral>  (1) 
0.063765389522027774

>  <r_epik_State_Penalty>  (1) 
0.69368998484988997

>  <r_glide_ring_energy>  (1) 
0

>  <r_i_docking_score>  (1) 
-9.1571093152023213

>  <r_i_glide_ecoul>  (1) 
-4.7053572832754762

>  <r_i_glide_eff_state_penalty>  (1) 
0.69368998484988997

>  <r_i_glide_einternal>  (1) 
26.893972039615043

>  <r_i_glide_emodel>  (1) 
-82.653037090482186

>  <r_i_glide_emodel_strain>  (1) 
0.50957824463679913

>  <r_i_glide_energy>  (1) 
-62.146252313073177

>  <r_i_glide_erotb>  (1) 
0.67934156738045093

>  <r_i_glide_esite>  (1) 
0

>  <r_i_glide_evdw>  (1) 
-57.440895029797701

>  <r_i_glide_gscore>  (1) 
-9.8507993000522109

>  <r_i_glide_gscore_strain>  (1) 
0

>  <r_i_glide_hbond>  (1) 
-0.12832221422614726

>  <r_i_glide_ligand_efficiency>  (1) 
-0.23479767474877747

>  <r_i_glide_ligand_efficiency_ln>  (1) 
-1.9635441771852489

>  <r_i_glide_ligand_efficiency_sa>  (1) 
-0.79624856140117273

>  <r_i_glide_lipo>  (1) 
-4.3300237728236191

>  <r_i_glide_metal>  (1) 
-0

>  <r_i_glide_rewards>  (1) 
-2.4939465364016886

>  <r_lp_Energy>  (1) 
45.510686999999997

>  <s_epik_Chemistry_Notes>  (1) 
This compound contains an acetal/aminal-like group ( X-CH(R)-Y where X, Y are N, S, or O) that may be acid/base labile, releasing an aldehyde.

>  <s_epik_cmdline>  (1) 
J2VwaWtfcHl0aG9uJywgJy1waHQnLCAnMS4wJywgJy1waCcsICc3LjQnLCAnLXRuJywgJzgnLCAnLW1hJywgJzUwMCcsICctaW1hZScsICc8aW5maWxlLm1hZT4nLCAnLW9tYWUnLCAnPG91dGZpbGUubWFlPic=

>  <s_epik_input>  (1) 
RmMxYyhGKVtjSF1bY0hdYyhbY0hdMSlbQ0gyXVtDQEhdKFtDSDJdW0NASF0yW09IXSlOKFtDSDJdW05IXVtDSF09TylbQ0gyXVtDSDJdW0NAQEhdMltOSF1bQ0gyXS9DKD1DKFxbQ0gzXSlbQ0gyXVtPSF0pQyg9TylbTkhdQyg9QzNbQ0gzXSlbQ0gyXVtDSDJdW0NIXT1DM0Y=

>  <s_glide_docking_method>  (1) 
confgen

>  <s_i_glide_gridfile>  (1) 
gpcr_5ht2c_6bqh_protein_autoprepared_prepared

>  <s_lp_Force_Field>  (1) 
S-OPLS

>  <s_lp_Variant>  (1) 
DiffSBDD_77_num_sample_100-3

>  <s_m_source_file>  (1) 
generated__ligand_DiffSBDD_2026-05-06_prepared.sdf

>  <GenAI_Model>  (1) 
DiffSBDD

>  <Protein>  (1) 
GPCR_5HT2C

$$$$
DiffSBDD_24_num_sample_100
     RDKit          3D

  0  0  0  0  0  0  0  0  0  0999 V3000
M  V30 BEGIN CTAB
M  V30 COUNTS 62 64 0 0 1
M  V30 BEGIN ATOM
M  V30 1 C 38.764305 31.163534 58.122701 0
M  V30 2 O 40.198136 34.170785 61.053800 0
M  V30 3 C 37.133364 36.738653 61.552500 0
M  V30 4 C 40.226063 31.028911 50.820660 0
M  V30 5 C 39.867412 28.706557 49.910201 0
M  V30 6 N 37.948368 34.428713 61.052044 0
M  V30 7 C 37.691456 33.108887 60.459294 0
M  V30 8 C 38.624693 27.808872 56.240359 0
M  V30 9 C 39.094738 29.645915 54.642090 0
M  V30 10 N 39.635600 29.700359 50.939347 0
M  V30 11 O 41.639007 36.021425 63.242606 0
M  V30 12 N 38.173256 36.825562 62.561005 0
M  V30 13 C 37.626308 26.062982 57.853542 0
M  V30 14 C 40.253728 35.901357 63.467228 0
M  V30 15 C 39.360874 30.110581 53.343418 0
M  V30 16 C 39.416074 36.139421 62.188778 0 CFG=1
M  V30 17 C 39.064059 30.567185 55.696409 0
M  V30 18 N 37.467403 31.822193 58.326534 0 CHG=1
M  V30 19 C 38.854747 28.263572 54.880624 0
M  V30 20 C 39.362957 29.221436 52.248084 0
M  V30 21 C 38.467776 26.343861 56.627051 0
M  V30 22 C 39.208243 34.826441 61.378780 0
M  V30 23 C 38.563951 28.783812 57.274853 0
M  V30 24 C 39.046579 25.328521 55.949967 0
M  V30 25 C 39.067395 27.855895 52.466490 0
M  V30 26 C 38.812860 27.379832 53.764198 0
M  V30 27 C 36.773735 35.262545 61.339431 0
M  V30 28 C 37.558131 33.172237 58.927685 0
M  V30 29 C 38.786341 30.146553 57.000183 0
M  V30 30 H 39.467403 31.941631 57.843586 0
M  V30 31 H 39.108055 30.720739 59.057761 0
M  V30 32 H 37.473229 37.187299 60.616824 0
M  V30 33 H 36.267366 37.313105 61.871935 0
M  V30 34 H 39.476503 31.793536 51.026110 0
M  V30 35 H 41.067375 31.159755 51.501606 0
M  V30 36 H 40.597632 31.205021 49.810644 0
M  V30 37 H 40.554706 27.933857 50.253575 0
M  V30 38 H 38.922038 28.241890 49.639749 0
M  V30 39 H 40.285946 29.170310 49.017545 0
M  V30 40 H 38.475198 32.404999 60.743209 0
M  V30 41 H 36.774597 32.701520 60.888173 0
M  V30 42 H 41.895636 36.900207 63.499741 0
M  V30 43 H 37.827170 36.431386 63.430976 0
M  V30 44 H 38.147024 26.390580 58.752556 0
M  V30 45 H 36.666444 26.571646 57.785709 0
M  V30 46 H 37.434559 24.994758 57.966267 0
M  V30 47 H 40.066845 34.900427 63.853506 0
M  V30 48 H 39.989323 36.600799 64.262439 0
M  V30 49 H 39.554235 31.160809 53.189507 0
M  V30 50 H 39.970569 36.809268 61.529137 0
M  V30 51 H 39.246880 31.614353 55.498280 0
M  V30 52 H 36.880514 31.236276 58.901095 0
M  V30 53 H 38.382077 28.476767 58.292259 0
M  V30 54 H 38.894725 24.306539 56.262702 0
M  V30 55 H 39.681458 25.491813 55.101617 0
M  V30 56 H 39.030417 27.165736 51.637935 0
M  V30 57 H 38.561242 26.351721 53.881270 0
M  V30 58 H 36.061706 35.186293 60.517010 0
M  V30 59 H 36.267027 34.867818 62.221571 0
M  V30 60 H 36.645813 33.709385 58.665674 0
M  V30 61 H 38.376109 33.738413 58.481033 0
M  V30 62 H 36.946576 31.913871 57.451055 0
M  V30 END ATOM
M  V30 BEGIN BOND
M  V30 1 1 7 6
M  V30 2 1 10 4
M  V30 3 1 10 5
M  V30 4 1 12 3
M  V30 5 1 14 11
M  V30 6 1 15 9
M  V30 7 1 16 12
M  V30 8 1 16 14
M  V30 9 2 17 9
M  V30 10 1 18 1
M  V30 11 2 19 8
M  V30 12 1 19 9
M  V30 13 1 20 10
M  V30 14 2 20 15
M  V30 15 1 21 8
M  V30 16 1 21 13
M  V30 17 2 22 2
M  V30 18 1 22 6
M  V30 19 1 22 16
M  V30 20 1 23 8
M  V30 21 2 24 21
M  V30 22 1 25 20
M  V30 23 1 26 19
M  V30 24 2 26 25
M  V30 25 1 27 3
M  V30 26 1 27 6
M  V30 27 1 28 7
M  V30 28 1 28 18
M  V30 29 1 29 1
M  V30 30 1 29 17
M  V30 31 2 29 23
M  V30 32 1 30 1
M  V30 33 1 31 1
M  V30 34 1 32 3
M  V30 35 1 33 3
M  V30 36 1 34 4
M  V30 37 1 35 4
M  V30 38 1 36 4
M  V30 39 1 37 5
M  V30 40 1 38 5
M  V30 41 1 39 5
M  V30 42 1 40 7
M  V30 43 1 41 7
M  V30 44 1 42 11
M  V30 45 1 43 12
M  V30 46 1 44 13
M  V30 47 1 45 13
M  V30 48 1 46 13
M  V30 49 1 47 14
M  V30 50 1 48 14
M  V30 51 1 49 15
M  V30 52 1 16 50 CFG=3
M  V30 53 1 51 17
M  V30 54 1 52 18
M  V30 55 1 53 23
M  V30 56 1 54 24
M  V30 57 1 55 24
M  V30 58 1 56 25
M  V30 59 1 57 26
M  V30 60 1 58 27
M  V30 61 1 59 27
M  V30 62 1 60 28
M  V30 63 1 61 28
M  V30 64 1 62 18
M  V30 END BOND
M  V30 END CTAB
M  END
>  <i_epik_Tot_Q>  (1) 
1

>  <i_epik_Tot_abs_Q>  (1) 
1

>  <i_i_glide_confnum>  (1) 
664

>  <i_i_glide_lignum>  (1) 
62

>  <i_i_glide_posenum>  (1) 
228

>  <i_i_glide_rotatable_bonds>  (1) 
9

>  <i_lp_mmshare_version>  (1) 
72125

>  <i_m_source_file_index>  (1) 
25

>  <i_f3d_flags>  (1) 
0

>  <num_sample>  (1) 
100

>  <b_lp_Chiralities_Consistent>  (1) 
1

>  <r_epik_Charging_Adjusted_Penalty>  (1) 
0.46759718330573113

>  <r_epik_Ionization_Penalty>  (1) 
0.33050907740455537

>  <r_epik_Ionization_Penalty_Charging>  (1) 
0.11171656725362118

>  <r_epik_Ionization_Penalty_Neutral>  (1) 
0.21879251015093421

>  <r_epik_State_Penalty>  (1) 
0.35588061605210997

>  <r_glide_ring_energy>  (1) 
0

>  <r_i_docking_score>  (1) 
-9.15266801737992

>  <r_i_glide_ecoul>  (1) 
-8.5042082714793992

>  <r_i_glide_eff_state_penalty>  (1) 
0.35588061605210997

>  <r_i_glide_einternal>  (1) 
14.765029075167369

>  <r_i_glide_emodel>  (1) 
-75.386626285230548

>  <r_i_glide_emodel_strain>  (1) 
1.8983260512832345

>  <r_i_glide_energy>  (1) 
-50.842608048834848

>  <r_i_glide_erotb>  (1) 
0.8670523998276507

>  <r_i_glide_esite>  (1) 
-0.090160293931480617

>  <r_i_glide_evdw>  (1) 
-42.338399777355448

>  <r_i_glide_gscore>  (1) 
-9.5085486334320297

>  <r_i_glide_gscore_strain>  (1) 
0

>  <r_i_glide_hbond>  (1) 
-0.47605635523911088

>  <r_i_glide_ligand_efficiency>  (1) 
-0.31560924197861795

>  <r_i_glide_ligand_efficiency_ln>  (1) 
-2.0957288843444952

>  <r_i_glide_ligand_efficiency_sa>  (1) 
-0.96965158447286404

>  <r_i_glide_lipo>  (1) 
-3.9899147703080136

>  <r_i_glide_metal>  (1) 
-0

>  <r_i_glide_rewards>  (1) 
-2.4269183841913926

>  <r_lp_Energy>  (1) 
66.45371999999999

>  <s_epik_cmdline>  (1) 
J2VwaWtfcHl0aG9uJywgJy1waHQnLCAnMS4wJywgJy1waCcsICc3LjQnLCAnLXRuJywgJzgnLCAnLW1hJywgJzUwMCcsICctaW1hZScsICc8aW5maWxlLm1hZT4nLCAnLW9tYWUnLCAnPG91dGZpbGUubWFlPic=

>  <s_epik_input>  (1) 
W0NIMl0xW0NIMl1bTkhdW0NAQEhdKFtDSDJdW09IXSlDKD1PKU4xW0NIMl1bQ0gyXVtOSF1bQ0gyXWMoW2NIXTIpW2NIXWMoQyhbQ0gzXSk9W0NIMl0pYyhjMjMpW2NIXVtjSF1jKFtjSF0zKU4oW0NIM10pW0NIM10=

>  <s_glide_docking_method>  (1) 
confgen

>  <s_i_glide_gridfile>  (1) 
gpcr_5ht2c_6bqh_protein_autoprepared_prepared

>  <s_lp_Force_Field>  (1) 
S-OPLS

>  <s_lp_Variant>  (1) 
DiffSBDD_24_num_sample_100-1

>  <s_m_source_file>  (1) 
generated__ligand_DiffSBDD_2026-05-06_prepared.sdf

>  <GenAI_Model>  (1) 
DiffSBDD

>  <Protein>  (1) 
GPCR_5HT2C

$$$$
DiffSBDD_80_num_sample_100
     RDKit          3D

  0  0  0  0  0  0  0  0  0  0999 V3000
M  V30 BEGIN CTAB
M  V30 COUNTS 73 76 0 0 1
M  V30 BEGIN ATOM
M  V30 1 C 39.959489 28.130187 59.556982 0
M  V30 2 C 38.667435 31.800734 59.145224 0
M  V30 3 N 38.113680 32.888007 59.972916 0 CFG=1 CHG=1
M  V30 4 O 39.809347 28.829540 55.858746 0
M  V30 5 O 38.258766 31.045144 56.425092 0
M  V30 6 O 39.821294 28.941595 60.704825 0
M  V30 7 C 37.424572 35.530756 61.004431 0 CFG=2
M  V30 8 C 38.664281 34.747187 61.513004 0 CFG=2
M  V30 9 C 40.014102 30.406506 52.028288 0
M  V30 10 C 39.011435 26.775330 55.293136 0
M  V30 11 O 37.924912 26.831755 52.653527 0
M  V30 12 C 38.625429 27.987598 52.456963 0
M  V30 13 O 41.108862 34.083205 64.968346 0
M  V30 14 C 39.746682 29.977644 53.339009 0
M  V30 15 C 40.987981 34.808389 62.684311 0
M  V30 16 C 38.907940 28.421446 51.147836 0
M  V30 17 O 39.867381 25.615946 57.232949 0
M  V30 18 C 36.364192 34.566544 60.424376 0
M  V30 19 O 39.867417 30.045346 49.667655 0
M  V30 20 C 39.776117 35.587582 62.180495 0
M  V30 21 C 39.603871 29.626230 50.935425 0
M  V30 22 C 39.981026 28.058429 57.035522 0 CFG=1
M  V30 23 C 37.668749 30.707902 58.774155 0 CFG=2
M  V30 24 C 39.601626 28.900878 58.270090 0 CFG=1
M  V30 25 C 39.181894 33.829147 60.392231 0
M  V30 26 C 39.182003 26.771044 56.796842 0 CFG=1
M  V30 27 C 41.234036 35.015537 64.177812 0
M  V30 28 C 38.133025 29.339605 58.282688 0 CFG=2
M  V30 29 C 39.695051 36.927618 62.313494 0
M  V30 30 C 37.019730 37.527270 59.769039 0
M  V30 31 C 37.467399 30.296575 57.325985 0 CFG=2
M  V30 32 C 38.826209 28.271315 54.992753 0 CFG=2
M  V30 33 C 39.067411 28.753299 53.562050 0
M  V30 34 C 36.965365 33.613633 59.377575 0
M  V30 35 O 37.865655 36.418185 59.989973 0
M  V30 36 H 39.318546 27.254903 59.662113 0
M  V30 37 H 40.984988 27.761896 59.516585 0
M  V30 38 H 39.467069 31.335362 59.719408 0
M  V30 39 H 39.116844 32.257067 58.266886 0
M  V30 40 H 37.685112 31.692782 56.035620 0
M  V30 41 H 40.656542 29.340343 60.888846 0
M  V30 42 H 36.988382 36.086928 61.836463 0
M  V30 43 H 38.304953 34.063352 62.269380 0
M  V30 44 H 40.541185 31.334710 51.861065 0
M  V30 45 H 39.175173 29.812725 49.059337 0
M  V30 46 H 38.172443 26.149706 54.991446 0
M  V30 47 H 39.914766 26.407682 54.802642 0
M  V30 48 H 37.344418 26.578290 51.940151 0
M  V30 49 H 40.075883 30.575191 54.176650 0
M  V30 50 H 40.862625 33.738315 62.533175 0
M  V30 51 H 41.867409 35.121748 62.124031 0
M  V30 52 H 38.589765 27.831751 50.304537 0
M  V30 53 H 40.734103 25.614089 56.847321 0
M  V30 54 H 35.534343 35.113108 59.977349 0
M  V30 55 H 35.930071 33.981953 61.236083 0
M  V30 56 H 41.046943 27.826885 57.074919 0
M  V30 57 H 36.797662 30.660882 59.425116 0
M  V30 58 H 40.226926 29.789190 58.216231 0
M  V30 59 H 40.036013 33.245660 60.730041 0
M  V30 60 H 39.535075 34.411515 59.540896 0
M  V30 61 H 38.199707 26.808022 57.267344 0
M  V30 62 H 41.524921 36.021302 64.474197 0
M  V30 63 H 37.481810 28.522616 58.585018 0
M  V30 64 H 40.491095 37.486605 62.783720 0
M  V30 65 H 38.840385 37.478955 61.958616 0
M  V30 66 H 37.501671 38.191735 59.053485 0
M  V30 67 H 36.059466 37.221408 59.353657 0
M  V30 68 H 36.844126 38.092829 60.685209 0
M  V30 69 H 36.488509 30.021340 56.942378 0
M  V30 70 H 37.829809 28.581087 55.303136 0
M  V30 71 H 37.286465 34.166362 58.492230 0
M  V30 72 H 36.192385 32.917355 59.050579 0
M  V30 73 H 37.768768 32.443411 60.810740 0
M  V30 END ATOM
M  V30 BEGIN BOND
M  V30 1 1 3 2
M  V30 2 1 6 1
M  V30 3 1 8 7
M  V30 4 1 12 11
M  V30 5 2 14 9
M  V30 6 1 16 12
M  V30 7 1 18 7
M  V30 8 1 20 8
M  V30 9 1 20 15
M  V30 10 1 21 9
M  V30 11 2 21 16
M  V30 12 1 21 19
M  V30 13 1 22 4
M  V30 14 1 23 2
M  V30 15 1 24 1
M  V30 16 1 24 22
M  V30 17 1 25 3
M  V30 18 1 25 8
M  V30 19 1 26 10
M  V30 20 1 26 17
M  V30 21 1 26 22
M  V30 22 2 27 13
M  V30 23 1 27 15
M  V30 24 1 28 23
M  V30 25 1 28 24
M  V30 26 2 29 20
M  V30 27 1 31 5
M  V30 28 1 31 23
M  V30 29 1 31 28
M  V30 30 1 32 4
M  V30 31 1 32 10
M  V30 32 2 33 12
M  V30 33 1 33 14
M  V30 34 1 33 32
M  V30 35 1 34 3
M  V30 36 1 34 18
M  V30 37 1 35 7
M  V30 38 1 35 30
M  V30 39 1 36 1
M  V30 40 1 37 1
M  V30 41 1 38 2
M  V30 42 1 39 2
M  V30 43 1 40 5
M  V30 44 1 41 6
M  V30 45 1 7 42 CFG=1
M  V30 46 1 8 43 CFG=1
M  V30 47 1 44 9
M  V30 48 1 45 19
M  V30 49 1 46 10
M  V30 50 1 47 10
M  V30 51 1 48 11
M  V30 52 1 49 14
M  V30 53 1 50 15
M  V30 54 1 51 15
M  V30 55 1 52 16
M  V30 56 1 53 17
M  V30 57 1 54 18
M  V30 58 1 55 18
M  V30 59 1 22 56 CFG=1
M  V30 60 1 23 57 CFG=1
M  V30 61 1 24 58 CFG=3
M  V30 62 1 59 25
M  V30 63 1 60 25
M  V30 64 1 26 61 CFG=1
M  V30 65 1 62 27
M  V30 66 1 28 63 CFG=1
M  V30 67 1 64 29
M  V30 68 1 65 29
M  V30 69 1 66 30
M  V30 70 1 67 30
M  V30 71 1 68 30
M  V30 72 1 31 69 CFG=3
M  V30 73 1 32 70 CFG=1
M  V30 74 1 71 34
M  V30 75 1 72 34
M  V30 76 1 3 73 CFG=1
M  V30 END BOND
M  V30 END CTAB
M  END
>  <i_epik_Tot_Q>  (1) 
1

>  <i_epik_Tot_abs_Q>  (1) 
1

>  <i_i_glide_confnum>  (1) 
697

>  <i_i_glide_lignum>  (1) 
206

>  <i_i_glide_posenum>  (1) 
273

>  <i_i_glide_rotatable_bonds>  (1) 
15

>  <i_lp_mmshare_version>  (1) 
72125

>  <i_m_source_file_index>  (1) 
81

>  <i_f3d_flags>  (1) 
0

>  <num_sample>  (1) 
100

>  <b_lp_Chiralities_Consistent>  (1) 
1

>  <r_epik_Charging_Adjusted_Penalty>  (1) 
0.034071705691259377

>  <r_epik_Ionization_Penalty>  (1) 
0.043305258844254187

>  <r_epik_Ionization_Penalty_Charging>  (1) 
0.034071705691259377

>  <r_epik_Ionization_Penalty_Neutral>  (1) 
0.009233553152994808

>  <r_epik_State_Penalty>  (1) 
-0

>  <r_glide_ring_energy>  (1) 
0

>  <r_i_docking_score>  (1) 
-9.1482000917915602

>  <r_i_glide_ecoul>  (1) 
-10.329598366894491

>  <r_i_glide_eff_state_penalty>  (1) 
-0

>  <r_i_glide_einternal>  (1) 
15.061904010076756

>  <r_i_glide_emodel>  (1) 
-68.415878392232713

>  <r_i_glide_emodel_strain>  (1) 
4.9275767339645711

>  <r_i_glide_energy>  (1) 
-51.466996048164546

>  <r_i_glide_erotb>  (1) 
0.67144220787932085

>  <r_i_glide_esite>  (1) 
-0.0055898990178216154

>  <r_i_glide_evdw>  (1) 
-41.137397681270052

>  <r_i_glide_gscore>  (1) 
-9.1482000917915602

>  <r_i_glide_gscore_strain>  (1) 
0.23189418349114277

>  <r_i_glide_hbond>  (1) 
-0.74108721981074466

>  <r_i_glide_ligand_efficiency>  (1) 
-0.26137714547975888

>  <r_i_glide_ligand_efficiency_ln>  (1) 
-2.0082329535101366

>  <r_i_glide_ligand_efficiency_sa>  (1) 
-0.85498197483210114

>  <r_i_glide_lipo>  (1) 
-4.6375927780820243

>  <r_i_glide_metal>  (1) 
-0

>  <r_i_glide_rewards>  (1) 
-1.0609569471537577

>  <r_lp_Energy>  (1) 
33.571677999999999

>  <r_lp_tautomer_probability>  (1) 
1

>  <s_epik_cmdline>  (1) 
J2VwaWtfcHl0aG9uJywgJy1waHQnLCAnMS4wJywgJy1waCcsICc3LjQnLCAnLXRuJywgJzgnLCAnLW1hJywgJzUwMCcsICctaW1hZScsICc8aW5maWxlLm1hZT4nLCAnLW9tYWUnLCAnPG91dGZpbGUubWFlPic=

>  <s_epik_input>  (1) 
Tz1bQ0hdW0NIMl1DKD1bQ0gyXSlbQ0BASF0oW0NASF0oW0NIMl1bQ0gyXTEpT1tDSDNdKVtDSDJdTjFbQ0gyXVtDQEBIXTJbQ0BASF0oW0NAQEhdMltPSF0pW0NAQEhdKFtDSDJdW09IXSlbQ0BASF0zT1tDQEhdKFtDSDJdW0NASF0zW09IXSlDND1bQ0hdW0NIMl1DKD1PKVtDSF09QzRbT0hd

>  <s_glide_docking_method>  (1) 
confgen

>  <s_i_glide_gridfile>  (1) 
gpcr_5ht2c_6bqh_protein_autoprepared_prepared

>  <s_lp_Force_Field>  (1) 
S-OPLS

>  <s_lp_Variant>  (1) 
DiffSBDD_80_num_sample_100-2

>  <s_m_source_file>  (1) 
generated__ligand_DiffSBDD_2026-05-06_prepared.sdf

>  <GenAI_Model>  (1) 
DiffSBDD

>  <Protein>  (1) 
GPCR_5HT2C

$$$$
DiffSBDD_77_num_sample_100
     RDKit          3D

  0  0  0  0  0  0  0  0  0  0999 V3000
M  V30 BEGIN CTAB
M  V30 COUNTS 77 79 0 0 1
M  V30 BEGIN ATOM
M  V30 1 C 39.117659 27.967787 51.059634 0
M  V30 2 F 40.634040 31.221432 51.822088 0
M  V30 3 C 42.320874 29.261326 63.236174 0
M  V30 4 C 38.409490 27.726159 52.251941 0
M  V30 5 C 37.422508 33.531273 61.452799 0
M  V30 6 C 38.713920 29.769814 56.519527 0
M  V30 7 C 40.023915 28.793270 61.386055 0
M  V30 8 C 39.593021 29.012530 58.887959 0 CFG=2
M  V30 9 O 38.045871 30.969157 61.453487 0
M  V30 10 C 36.611556 34.837847 61.353525 0
M  V30 11 N 39.144913 25.216858 56.383692 0
M  V30 12 C 37.671565 28.406483 54.586334 0
M  V30 13 C 39.911175 30.087690 51.961947 0
M  V30 14 O 42.405510 31.468272 64.863421 0
M  V30 15 C 41.524805 31.654394 63.775786 0
M  V30 16 C 38.450199 28.666527 53.303009 0
M  V30 17 F 40.544489 29.384276 49.765588 0
M  V30 18 C 40.674890 27.730016 56.909320 0
M  V30 19 O 37.467416 24.153345 57.453396 0
M  V30 20 O 37.219528 29.480768 58.389808 0
M  V30 21 C 39.867390 29.149035 50.914211 0
M  V30 22 C 38.723390 36.111233 61.861647 0
M  V30 23 N 39.656419 32.478483 62.038489 0
M  V30 24 C 39.589036 26.182015 55.386673 0
M  V30 25 C 39.204059 29.848273 53.155835 0
M  V30 26 C 41.279746 30.355090 62.978924 0
M  V30 27 C 37.853853 24.954406 56.608716 0
M  V30 28 C 39.499970 34.892357 62.038907 0
M  V30 29 C 40.009447 27.651546 58.299374 0
M  V30 30 F 39.334690 37.297664 62.020760 0
M  V30 31 C 40.969859 34.975001 62.428671 0
M  V30 32 C 38.488988 28.356131 55.909227 0 CFG=1
M  V30 33 C 39.185794 31.211634 61.846107 0
M  V30 34 N 39.063084 28.794950 60.253494 0 CHG=1
M  V30 35 C 40.213085 30.145568 62.110703 0
M  V30 36 C 38.903347 33.688433 61.854785 0
M  V30 37 C 37.419673 36.100615 61.549955 0
M  V30 38 C 38.554081 29.824389 58.055244 0 CFG=2
M  V30 39 N 39.742919 27.588540 55.784056 0
M  V30 40 H 39.082718 27.247284 50.255055 0
M  V30 41 H 42.276983 28.947266 64.279203 0
M  V30 42 H 42.222512 28.351066 62.653512 0
M  V30 43 H 43.323383 29.649635 63.053508 0
M  V30 44 H 37.832026 26.821441 52.358609 0
M  V30 45 H 37.367994 33.056933 60.471479 0
M  V30 46 H 36.901735 32.905805 62.178252 0
M  V30 47 H 39.677190 30.182524 56.218435 0
M  V30 48 H 37.982039 30.464803 56.104964 0
M  V30 49 H 40.968696 28.408999 61.005344 0
M  V30 50 H 39.660521 28.078678 62.126002 0
M  V30 51 H 40.494088 29.621405 58.960651 0
M  V30 52 H 35.824659 34.821476 62.108329 0
M  V30 53 H 36.110837 34.892795 60.385778 0
M  V30 54 H 39.847779 24.734578 56.923688 0
M  V30 55 H 37.129159 27.467349 54.473394 0
M  V30 56 H 36.886901 29.160522 54.654077 0
M  V30 57 H 42.002442 30.884699 65.489245 0
M  V30 58 H 40.612622 32.048982 64.225711 0
M  V30 59 H 41.995048 32.399658 63.134929 0
M  V30 60 H 41.212157 28.671168 56.813321 0
M  V30 61 H 41.448034 26.963571 56.830238 0
M  V30 62 H 36.632654 30.107341 57.975563 0
M  V30 63 H 40.615435 32.592299 62.325812 0
M  V30 64 H 38.973084 26.091682 54.492783 0
M  V30 65 H 40.570893 25.840417 55.056648 0
M  V30 66 H 39.237594 30.573385 53.953712 0
M  V30 67 H 37.199180 25.544181 55.948338 0
M  V30 68 H 40.749243 27.221401 58.972573 0
M  V30 69 H 39.168546 26.960623 58.314751 0
M  V30 70 H 41.346753 35.996893 62.378875 0
M  V30 71 H 41.112536 34.623967 63.450777 0
M  V30 72 H 41.582622 34.375751 61.755674 0
M  V30 73 H 37.851427 27.819356 56.610151 0
M  V30 74 H 38.551742 27.924687 60.239057 0
M  V30 75 H 36.891366 37.035877 61.432893 0
M  V30 76 H 38.654808 30.869500 58.353956 0
M  V30 77 H 38.382929 29.529781 60.433349 0
M  V30 END ATOM
M  V30 BEGIN BOND
M  V30 1 2 4 1
M  V30 2 1 10 5
M  V30 3 1 13 2
M  V30 4 1 15 14
M  V30 5 1 16 4
M  V30 6 1 16 12
M  V30 7 1 21 1
M  V30 8 2 21 13
M  V30 9 1 21 17
M  V30 10 1 24 11
M  V30 11 1 25 13
M  V30 12 2 25 16
M  V30 13 1 26 3
M  V30 14 1 26 15
M  V30 15 1 27 11
M  V30 16 2 27 19
M  V30 17 1 28 22
M  V30 18 1 29 8
M  V30 19 1 29 18
M  V30 20 1 30 22
M  V30 21 1 31 28
M  V30 22 1 32 6
M  V30 23 1 32 12
M  V30 24 2 33 9
M  V30 25 1 33 23
M  V30 26 1 34 7
M  V30 27 1 34 8
M  V30 28 1 35 7
M  V30 29 2 35 26
M  V30 30 1 35 33
M  V30 31 1 36 5
M  V30 32 1 36 23
M  V30 33 2 36 28
M  V30 34 1 37 10
M  V30 35 2 37 22
M  V30 36 1 38 6
M  V30 37 1 38 8
M  V30 38 1 38 20
M  V30 39 1 39 18
M  V30 40 1 39 24
M  V30 41 1 39 32
M  V30 42 1 40 1
M  V30 43 1 41 3
M  V30 44 1 42 3
M  V30 45 1 43 3
M  V30 46 1 44 4
M  V30 47 1 45 5
M  V30 48 1 46 5
M  V30 49 1 47 6
M  V30 50 1 48 6
M  V30 51 1 49 7
M  V30 52 1 50 7
M  V30 53 1 8 51 CFG=1
M  V30 54 1 52 10
M  V30 55 1 53 10
M  V30 56 1 54 11
M  V30 57 1 55 12
M  V30 58 1 56 12
M  V30 59 1 57 14
M  V30 60 1 58 15
M  V30 61 1 59 15
M  V30 62 1 60 18
M  V30 63 1 61 18
M  V30 64 1 62 20
M  V30 65 1 63 23
M  V30 66 1 64 24
M  V30 67 1 65 24
M  V30 68 1 66 25
M  V30 69 1 67 27
M  V30 70 1 68 29
M  V30 71 1 69 29
M  V30 72 1 70 31
M  V30 73 1 71 31
M  V30 74 1 72 31
M  V30 75 1 32 73 CFG=1
M  V30 76 1 74 34
M  V30 77 1 75 37
M  V30 78 1 38 76 CFG=1
M  V30 79 1 77 34
M  V30 END BOND
M  V30 END CTAB
M  END
>  <i_epik_Tot_Q>  (1) 
1

>  <i_epik_Tot_abs_Q>  (1) 
1

>  <i_i_glide_confnum>  (1) 
1504

>  <i_i_glide_lignum>  (1) 
192

>  <i_i_glide_posenum>  (1) 
243

>  <i_i_glide_rotatable_bonds>  (1) 
14

>  <i_lp_mmshare_version>  (1) 
72125

>  <i_m_source_file_index>  (1) 
78

>  <i_f3d_flags>  (1) 
0

>  <num_sample>  (1) 
100

>  <b_lp_Chiralities_Consistent>  (1) 
1

>  <r_epik_Charging_Adjusted_Penalty>  (1) 
1.1871079539409661

>  <r_epik_Ionization_Penalty>  (1) 
0.55718335861310397

>  <r_epik_Ionization_Penalty_Charging>  (1) 
0.49341796909107616

>  <r_epik_Ionization_Penalty_Neutral>  (1) 
0.063765389522027774

>  <r_epik_State_Penalty>  (1) 
0.69368998484988997

>  <r_glide_ring_energy>  (1) 
0

>  <r_i_docking_score>  (1) 
-9.1426955231911933

>  <r_i_glide_ecoul>  (1) 
-4.4523839225384405

>  <r_i_glide_eff_state_penalty>  (1) 
0.69368998484988997

>  <r_i_glide_einternal>  (1) 
27.361982033415565

>  <r_i_glide_emodel>  (1) 
-83.269835927517576

>  <r_i_glide_emodel_strain>  (1) 
0

>  <r_i_glide_energy>  (1) 
-62.537905033203273

>  <r_i_glide_erotb>  (1) 
0.67934156738045093

>  <r_i_glide_esite>  (1) 
0

>  <r_i_glide_evdw>  (1) 
-58.085521110664835

>  <r_i_glide_gscore>  (1) 
-9.8363855080410829

>  <r_i_glide_gscore_strain>  (1) 
0

>  <r_i_glide_hbond>  (1) 
-0.017641629682901356

>  <r_i_glide_ligand_efficiency>  (1) 
-0.23442809033823572

>  <r_i_glide_ligand_efficiency_ln>  (1) 
-1.9604534510182452

>  <r_i_glide_ligand_efficiency_sa>  (1) 
-0.79499522251898391

>  <r_i_glide_lipo>  (1) 
-4.3668044440706959

>  <r_i_glide_metal>  (1) 
-0

>  <r_i_glide_rewards>  (1) 
-2.5591473577539285

>  <r_lp_Energy>  (1) 
45.510686999999997

>  <s_epik_Chemistry_Notes>  (1) 
This compound contains an acetal/aminal-like group ( X-CH(R)-Y where X, Y are N, S, or O) that may be acid/base labile, releasing an aldehyde.

>  <s_epik_cmdline>  (1) 
J2VwaWtfcHl0aG9uJywgJy1waHQnLCAnMS4wJywgJy1waCcsICc3LjQnLCAnLXRuJywgJzgnLCAnLW1hJywgJzUwMCcsICctaW1hZScsICc8aW5maWxlLm1hZT4nLCAnLW9tYWUnLCAnPG91dGZpbGUubWFlPic=

>  <s_epik_input>  (1) 
RmMxYyhGKVtjSF1bY0hdYyhbY0hdMSlbQ0gyXVtDQEhdKFtDSDJdW0NASF0yW09IXSlOKFtDSDJdW05IXVtDSF09TylbQ0gyXVtDSDJdW0NAQEhdMltOSF1bQ0gyXS9DKD1DKFxbQ0gzXSlbQ0gyXVtPSF0pQyg9TylbTkhdQyg9QzNbQ0gzXSlbQ0gyXVtDSDJdW0NIXT1DM0Y=

>  <s_glide_docking_method>  (1) 
confgen

>  <s_i_glide_gridfile>  (1) 
gpcr_5ht2c_6bqh_protein_autoprepared_prepared

>  <s_lp_Force_Field>  (1) 
S-OPLS

>  <s_lp_Variant>  (1) 
DiffSBDD_77_num_sample_100-3

>  <s_m_source_file>  (1) 
generated__ligand_DiffSBDD_2026-05-06_prepared.sdf

>  <GenAI_Model>  (1) 
DiffSBDD

>  <Protein>  (1) 
GPCR_5HT2C

$$$$
DiffSBDD_69_num_sample_100
     RDKit          3D

  0  0  0  0  0  0  0  0  0  0999 V3000
M  V30 BEGIN CTAB
M  V30 COUNTS 67 72 0 0 1
M  V30 BEGIN ATOM
M  V30 1 C 40.705803 33.032919 63.358646 0
M  V30 2 C 40.870345 29.646164 50.838114 0 CFG=1
M  V30 3 C 38.861828 28.249805 57.716922 0
M  V30 4 C 40.027222 30.548016 51.710659 0 CFG=1
M  V30 5 C 41.054316 27.483815 58.432748 0
M  V30 6 C 41.392914 26.197737 66.169590 0
M  V30 7 C 37.692287 28.146791 56.778298 0
M  V30 8 C 41.875801 28.845319 63.340687 0
M  V30 9 N 38.027799 27.886870 55.384631 0
M  V30 10 C 38.951936 28.827362 53.335136 0
M  V30 11 C 39.937965 29.287528 59.643384 0
M  V30 12 O 38.912144 30.109180 55.225627 0
M  V30 13 C 42.383110 26.494688 67.296755 0
M  V30 14 C 39.952990 30.331626 60.759174 0 CFG=1
M  V30 15 C 39.969173 27.394498 57.555022 0
M  V30 16 C 41.234646 34.249951 63.840923 0
M  V30 17 O 40.477251 29.623917 49.453461 0
M  V30 18 C 40.607122 31.915275 64.219455 0
M  V30 19 C 39.479804 29.963361 50.427393 0 CFG=1
M  V30 20 C 40.037764 30.590956 63.707870 0 CFG=1
M  V30 21 C 41.037368 28.420105 59.478616 0
M  V30 22 N 41.867634 26.906309 68.456994 0
M  V30 23 C 38.762216 30.668897 62.908127 0
M  V30 24 C 41.570845 33.238421 66.034789 0
M  V30 25 C 39.500607 30.092429 53.046280 0
M  V30 26 O 43.590367 26.352491 67.119179 0
M  V30 27 C 41.665608 34.350816 65.178106 0
M  V30 28 C 38.718883 30.531729 61.586093 0
M  V30 29 O 41.327599 35.330778 63.013172 0
M  V30 30 C 41.064026 29.822712 62.881323 0
M  V30 31 C 41.804221 26.785789 64.804741 0
M  V30 32 C 38.846251 29.200717 58.759461 0
M  V30 33 O 41.130181 30.219074 61.562845 0
M  V30 34 C 41.043742 32.022398 65.557821 0
M  V30 35 C 41.895364 28.323943 64.772281 0
M  V30 36 C 38.618987 28.901030 54.646158 0
M  V30 37 C 39.466999 30.836746 54.193110 0
M  V30 38 H 40.376268 32.957424 62.332667 0
M  V30 39 H 41.066402 28.654996 51.240300 0
M  V30 40 H 40.265089 31.609727 51.712725 0
M  V30 41 H 41.903055 26.826867 58.309411 0
M  V30 42 H 40.405920 26.570233 66.440665 0
M  V30 43 H 41.298618 25.114888 66.085129 0
M  V30 44 H 37.068544 27.328124 57.138890 0
M  V30 45 H 37.093763 29.058295 56.847271 0
M  V30 46 H 42.571652 28.380288 62.659542 0
M  V30 47 H 37.771429 26.992304 54.992189 0
M  V30 48 H 38.814273 27.982088 52.677679 0
M  V30 49 H 40.053499 31.289505 60.253597 0
M  V30 50 H 39.982436 26.667990 56.755684 0
M  V30 51 H 38.734088 29.180630 50.548648 0
M  V30 52 H 39.731906 30.020675 64.577995 0
M  V30 53 H 41.867371 28.476000 60.151975 0
M  V30 54 H 40.860912 27.012907 68.560672 0
M  V30 55 H 42.479833 27.113715 69.231057 0
M  V30 56 H 37.867405 30.819772 63.453392 0
M  V30 57 H 41.902107 33.317612 67.059052 0
M  V30 58 H 42.068953 35.282655 65.547821 0
M  V30 59 H 37.775583 30.586254 61.064596 0
M  V30 60 H 41.607558 36.117957 63.459470 0
M  V30 61 H 41.067059 26.462285 64.072246 0
M  V30 62 H 42.750732 26.354623 64.474233 0
M  V30 63 H 37.999816 29.862264 58.875227 0
M  V30 64 H 40.973955 31.170868 66.218550 0
M  V30 65 H 42.828047 28.644343 65.239088 0
M  V30 66 H 41.098758 28.737195 65.382412 0
M  V30 67 H 39.770274 31.840408 54.446866 0
M  V30 END ATOM
M  V30 BEGIN BOND
M  V30 1 1 4 2
M  V30 2 1 7 3
M  V30 3 1 9 7
M  V30 4 1 13 6
M  V30 5 1 14 11
M  V30 6 1 15 3
M  V30 7 2 15 5
M  V30 8 2 16 1
M  V30 9 1 17 2
M  V30 10 1 18 1
M  V30 11 1 19 2
M  V30 12 1 19 4
M  V30 13 1 19 17
M  V30 14 1 20 18
M  V30 15 1 21 5
M  V30 16 2 21 11
M  V30 17 1 22 13
M  V30 18 1 23 20
M  V30 19 1 25 4
M  V30 20 1 25 10
M  V30 21 2 26 13
M  V30 22 1 27 16
M  V30 23 2 27 24
M  V30 24 1 28 14
M  V30 25 2 28 23
M  V30 26 1 29 16
M  V30 27 2 30 8
M  V30 28 1 30 20
M  V30 29 1 31 6
M  V30 30 2 32 3
M  V30 31 1 32 11
M  V30 32 1 33 14
M  V30 33 1 33 30
M  V30 34 2 34 18
M  V30 35 1 34 24
M  V30 36 1 35 8
M  V30 37 1 35 31
M  V30 38 1 36 9
M  V30 39 2 36 10
M  V30 40 1 36 12
M  V30 41 1 37 12
M  V30 42 2 37 25
M  V30 43 1 38 1
M  V30 44 1 2 39 CFG=1
M  V30 45 1 4 40 CFG=3
M  V30 46 1 41 5
M  V30 47 1 42 6
M  V30 48 1 43 6
M  V30 49 1 44 7
M  V30 50 1 45 7
M  V30 51 1 46 8
M  V30 52 1 47 9
M  V30 53 1 48 10
M  V30 54 1 14 49 CFG=3
M  V30 55 1 50 15
M  V30 56 1 19 51 CFG=1
M  V30 57 1 20 52 CFG=1
M  V30 58 1 53 21
M  V30 59 1 54 22
M  V30 60 1 55 22
M  V30 61 1 56 23
M  V30 62 1 57 24
M  V30 63 1 58 27
M  V30 64 1 59 28
M  V30 65 1 60 29
M  V30 66 1 61 31
M  V30 67 1 62 31
M  V30 68 1 63 32
M  V30 69 1 64 34
M  V30 70 1 65 35
M  V30 71 1 66 35
M  V30 72 1 67 37
M  V30 END BOND
M  V30 END CTAB
M  END
>  <i_epik_Tot_Q>  (1) 
0

>  <i_epik_Tot_abs_Q>  (1) 
0

>  <i_i_glide_confnum>  (1) 
331

>  <i_i_glide_lignum>  (1) 
178

>  <i_i_glide_posenum>  (1) 
134

>  <i_i_glide_rotatable_bonds>  (1) 
11

>  <i_lp_mmshare_version>  (1) 
72125

>  <i_m_source_file_index>  (1) 
70

>  <i_f3d_flags>  (1) 
0

>  <num_sample>  (1) 
100

>  <b_lp_Chiralities_Consistent>  (1) 
1

>  <r_epik_Charging_Adjusted_Penalty>  (1) 
0

>  <r_epik_Ionization_Penalty>  (1) 
0.0027858750297933624

>  <r_epik_Ionization_Penalty_Charging>  (1) 
0

>  <r_epik_Ionization_Penalty_Neutral>  (1) 
0.0027858750297933624

>  <r_epik_State_Penalty>  (1) 
-0

>  <r_glide_ring_energy>  (1) 
1.6699314456563878

>  <r_i_docking_score>  (1) 
-9.1396674706960894

>  <r_i_glide_ecoul>  (1) 
-9.4377756900618959

>  <r_i_glide_eff_state_penalty>  (1) 
-0

>  <r_i_glide_einternal>  (1) 
6.0271661102667968

>  <r_i_glide_emodel>  (1) 
-73.557228744423938

>  <r_i_glide_emodel_strain>  (1) 
0.12716368389249055

>  <r_i_glide_energy>  (1) 
-50.031328423338493

>  <r_i_glide_erotb>  (1) 
0.7388310729384443

>  <r_i_glide_esite>  (1) 
-0.040972658853420454

>  <r_i_glide_evdw>  (1) 
-40.593552733276596

>  <r_i_glide_gscore>  (1) 
-9.1396674706960894

>  <r_i_glide_gscore_strain>  (1) 
0

>  <r_i_glide_hbond>  (1) 
-0.60799999999999998

>  <r_i_glide_ligand_efficiency>  (1) 
-0.24701803974854294

>  <r_i_glide_ligand_efficiency_ln>  (1) 
-1.9821796101884543

>  <r_i_glide_ligand_efficiency_sa>  (1) 
-0.82311890980084357

>  <r_i_glide_lipo>  (1) 
-4.9235177118130906

>  <r_i_glide_metal>  (1) 
-0

>  <r_i_glide_rewards>  (1) 
-0.86066418279490642

>  <r_lp_Energy>  (1) 
41.231663999999995

>  <r_lp_tautomer_probability>  (1) 
1

>  <s_epik_cmdline>  (1) 
J2VwaWtfcHl0aG9uJywgJy1waHQnLCAnMS4wJywgJy1waCcsICc3LjQnLCAnLXRuJywgJzgnLCAnLW1hJywgJzUwMCcsICctaW1hZScsICc8aW5maWxlLm1hZT4nLCAnLW9tYWUnLCAnPG91dGZpbGUubWFlPic=

>  <s_epik_input>  (1) 
W05IMl1DKD1PKVtDSDJdW0NIMl1bQ0gyXS9bQ0hdPUMoTzEpXFtDQEBIXShjKFtjSF1jMltPSF0pW2NIXVtjSF1bY0hdMilbQ0hdPVtDSF1bQ0BASF0xYyhbY0hdMylbY0hdW2NIXVtjSF1jM1tDSDJdW05IXWMob1tjSF00KVtjSF1jNFtDQEBIXTVbQ0hdKE82KVtDSF01Ng==

>  <s_glide_docking_method>  (1) 
confgen

>  <s_i_glide_gridfile>  (1) 
gpcr_5ht2c_6bqh_protein_autoprepared_prepared

>  <s_lp_Force_Field>  (1) 
S-OPLS

>  <s_lp_Variant>  (1) 
DiffSBDD_69_num_sample_100-2

>  <s_m_source_file>  (1) 
generated__ligand_DiffSBDD_2026-05-06_prepared.sdf

>  <GenAI_Model>  (1) 
DiffSBDD

>  <Protein>  (1) 
GPCR_5HT2C

$$$$
DiffSBDD_48_num_sample_100
     RDKit          3D

  0  0  0  0  0  0  0  0  0  0999 V3000
M  V30 BEGIN CTAB
M  V30 COUNTS 71 75 0 0 1
M  V30 BEGIN ATOM
M  V30 1 C 37.691887 24.970365 55.226308 0
M  V30 2 C 38.928183 34.215314 61.367192 0 CFG=1
M  V30 3 C 38.319258 26.299419 57.602142 0
M  V30 4 C 40.172063 30.953794 51.604408 0
M  V30 5 C 38.085902 28.063582 53.415540 0
M  V30 6 C 39.492114 28.266246 58.044784 0 CFG=1
M  V30 7 O 41.164578 35.136073 61.453768 0
M  V30 8 O 42.312231 32.645052 61.973751 0
M  V30 9 C 38.836007 26.783628 53.849717 0
M  V30 10 C 38.926622 29.663722 58.312633 0
M  V30 11 C 38.714058 27.089615 58.795928 0
M  V30 12 N 39.394614 28.018566 56.593642 0
M  V30 13 C 38.691301 31.418589 60.014390 0
M  V30 14 C 41.092451 32.750828 61.884942 0
M  V30 15 C 40.477466 30.629292 63.243861 0
M  V30 16 C 38.656951 28.899983 52.223298 0 CFG=2
M  V30 17 N 39.028008 30.014401 59.732200 0 CHG=1
M  V30 18 C 38.758433 31.672099 61.528125 0 CFG=2
M  V30 19 C 39.396482 28.163624 51.091143 0
M  V30 20 C 37.290107 24.421361 56.467433 0
M  V30 21 C 40.597962 28.129844 55.830025 0
M  V30 22 O 40.805239 30.284272 61.894692 0
M  V30 23 O 39.466378 26.942995 51.053500 0
M  V30 24 O 36.807021 33.044185 61.572131 0
M  V30 25 C 38.170072 33.010899 61.949890 0 CFG=2
M  V30 26 C 40.028697 29.026343 50.002180 0
M  V30 27 C 38.404316 35.562261 61.910300 0
M  V30 28 C 40.454363 34.136610 61.561497 0
M  V30 29 C 40.166229 31.560382 62.090007 0 CFG=1
M  V30 30 C 39.479162 30.126346 52.699714 0
M  V30 31 C 38.414393 26.188445 55.195631 0
M  V30 32 C 38.711408 26.829882 56.436734 0
M  V30 33 C 37.609590 25.091033 57.665408 0
M  V30 34 C 40.936851 30.098639 50.593670 0
M  V30 35 H 37.446545 24.459831 54.306456 0
M  V30 36 H 38.770354 34.222427 60.287273 0
M  V30 37 H 40.871580 31.621435 52.092688 0
M  V30 38 H 39.467496 31.589643 51.073993 0
M  V30 39 H 37.052865 27.795493 53.191877 0
M  V30 40 H 38.008650 28.726358 54.276634 0
M  V30 41 H 40.540118 28.232923 58.344762 0
M  V30 42 H 39.912617 26.869529 53.758737 0
M  V30 43 H 38.586035 26.021429 53.117968 0
M  V30 44 H 37.882593 29.722405 57.999263 0
M  V30 45 H 39.473830 30.399312 57.721297 0
M  V30 46 H 39.367239 26.523198 59.453342 0
M  V30 47 H 37.867453 27.519724 59.298106 0
M  V30 48 H 37.686032 31.609442 59.633679 0
M  V30 49 H 39.363492 32.089237 59.479739 0
M  V30 50 H 41.337409 30.826696 63.880226 0
M  V30 51 H 39.680329 30.030111 63.679014 0
M  V30 52 H 39.968574 29.837166 60.062414 0
M  V30 53 H 38.154518 30.902618 62.012414 0
M  V30 54 H 36.740677 23.492133 56.497304 0
M  V30 55 H 41.013606 27.167755 55.530294 0
M  V30 56 H 40.268283 28.723325 54.995061 0
M  V30 57 H 41.369121 28.686451 56.358916 0
M  V30 58 H 40.586849 28.421454 49.296840 0
M  V30 59 H 36.441132 33.885058 61.810236 0
M  V30 60 H 38.267405 33.025745 63.032396 0
M  V30 61 H 39.223215 29.493792 49.452769 0
M  V30 62 H 37.773110 29.263186 51.711380 0
M  V30 63 H 38.875189 36.406369 61.403535 0
M  V30 64 H 37.329282 35.670812 61.771398 0
M  V30 65 H 38.619736 35.664914 62.975524 0
M  V30 66 H 38.856472 30.784914 53.306251 0
M  V30 67 H 40.267129 29.798454 53.357437 0
M  V30 68 H 37.312664 24.679183 58.616372 0
M  V30 69 H 41.799106 29.621337 51.053585 0
M  V30 70 H 41.333337 30.733059 49.799392 0
M  V30 71 H 38.394133 29.422950 60.250668 0
M  V30 END ATOM
M  V30 BEGIN BOND
M  V30 1 1 9 5
M  V30 2 1 10 6
M  V30 3 1 11 3
M  V30 4 1 11 6
M  V30 5 1 12 6
M  V30 6 2 14 8
M  V30 7 1 16 5
M  V30 8 1 17 10
M  V30 9 1 17 13
M  V30 10 1 18 13
M  V30 11 1 19 16
M  V30 12 2 20 1
M  V30 13 1 21 12
M  V30 14 1 22 15
M  V30 15 2 23 19
M  V30 16 1 25 2
M  V30 17 1 25 18
M  V30 18 1 25 24
M  V30 19 1 26 19
M  V30 20 1 27 2
M  V30 21 1 28 2
M  V30 22 2 28 7
M  V30 23 1 28 14
M  V30 24 1 29 14
M  V30 25 1 29 15
M  V30 26 1 29 18
M  V30 27 1 29 22 CFG=3
M  V30 28 1 30 4
M  V30 29 1 30 16
M  V30 30 1 31 1
M  V30 31 1 31 9
M  V30 32 1 32 3
M  V30 33 1 32 12
M  V30 34 2 32 31
M  V30 35 2 33 3
M  V30 36 1 33 20
M  V30 37 1 34 4
M  V30 38 1 34 26
M  V30 39 1 35 1
M  V30 40 1 2 36 CFG=3
M  V30 41 1 37 4
M  V30 42 1 38 4
M  V30 43 1 39 5
M  V30 44 1 40 5
M  V30 45 1 6 41 CFG=1
M  V30 46 1 42 9
M  V30 47 1 43 9
M  V30 48 1 44 10
M  V30 49 1 45 10
M  V30 50 1 46 11
M  V30 51 1 47 11
M  V30 52 1 48 13
M  V30 53 1 49 13
M  V30 54 1 50 15
M  V30 55 1 51 15
M  V30 56 1 52 17
M  V30 57 1 18 53 CFG=1
M  V30 58 1 54 20
M  V30 59 1 55 21
M  V30 60 1 56 21
M  V30 61 1 57 21
M  V30 62 1 58 26
M  V30 63 1 59 24
M  V30 64 1 25 60 CFG=1
M  V30 65 1 61 26
M  V30 66 1 16 62 CFG=3
M  V30 67 1 63 27
M  V30 68 1 64 27
M  V30 69 1 65 27
M  V30 70 1 66 30
M  V30 71 1 67 30
M  V30 72 1 68 33
M  V30 73 1 69 34
M  V30 74 1 70 34
M  V30 75 1 71 17
M  V30 END BOND
M  V30 END CTAB
M  END
>  <i_epik_Tot_Q>  (1) 
1

>  <i_epik_Tot_abs_Q>  (1) 
1

>  <i_i_glide_confnum>  (1) 
20

>  <i_i_glide_lignum>  (1) 
132

>  <i_i_glide_posenum>  (1) 
283

>  <i_i_glide_rotatable_bonds>  (1) 
8

>  <i_lp_mmshare_version>  (1) 
72125

>  <i_m_source_file_index>  (1) 
49

>  <i_f3d_flags>  (1) 
0

>  <num_sample>  (1) 
100

>  <b_lp_Chiralities_Consistent>  (1) 
1

>  <r_epik_Charging_Adjusted_Penalty>  (1) 
0.027363245261170371

>  <r_epik_Ionization_Penalty>  (1) 
0.0277407901544389

>  <r_epik_Ionization_Penalty_Charging>  (1) 
0.027363245261170371

>  <r_epik_Ionization_Penalty_Neutral>  (1) 
0.00037754489326852995

>  <r_epik_State_Penalty>  (1) 
-0

>  <r_glide_ring_energy>  (1) 
0

>  <r_i_docking_score>  (1) 
-9.13508208509311

>  <r_i_glide_ecoul>  (1) 
-1.6940550469169424

>  <r_i_glide_eff_state_penalty>  (1) 
-0

>  <r_i_glide_einternal>  (1) 
4.4184310550251809

>  <r_i_glide_emodel>  (1) 
-65.160594413488397

>  <r_i_glide_emodel_strain>  (1) 
1.293981298028072

>  <r_i_glide_energy>  (1) 
-39.795247522852769

>  <r_i_glide_erotb>  (1) 
0.64114366914740972

>  <r_i_glide_esite>  (1) 
0

>  <r_i_glide_evdw>  (1) 
-38.101192475935825

>  <r_i_glide_gscore>  (1) 
-9.13508208509311

>  <r_i_glide_gscore_strain>  (1) 
0

>  <r_i_glide_hbond>  (1) 
-0.31322965621209747

>  <r_i_glide_ligand_efficiency>  (1) 
-0.2686788848556797

>  <r_i_glide_ligand_efficiency_ln>  (1) 
-2.0181958629704537

>  <r_i_glide_ligand_efficiency_sa>  (1) 
-0.87041528613253416

>  <r_i_glide_lipo>  (1) 
-5.2471314365393553

>  <r_i_glide_metal>  (1) 
-0

>  <r_i_glide_rewards>  (1) 
-2.0566967806547352

>  <r_lp_Energy>  (1) 
31.271559

>  <r_lp_tautomer_probability>  (1) 
1

>  <s_epik_cmdline>  (1) 
J2VwaWtfcHl0aG9uJywgJy1waHQnLCAnMS4wJywgJy1waCcsICc3LjQnLCAnLXRuJywgJzgnLCAnLW1hJywgJzUwMCcsICctaW1hZScsICc8aW5maWxlLm1hZT4nLCAnLW9tYWUnLCAnPG91dGZpbGUubWFlPic=

>  <s_epik_input>  (1) 
W0NIMl0xW0NIMl1bQ0gyXVtDSDJdQyhbT0hdKT1DMVtDSDJdW0NIMl1jKFtjSF1bY0hdW2NIXTIpYyhjMjMpTihbQ0gzXSlbQ0BIXShbQ0gyXTMpW0NIMl1bTkhdW0NIMl1bQ0BASF00W0NASF0oW09IXSlbQ0BASF0oW0NIM10pQyg9TylDKD1PKVtDQEBdNDVbQ0gyXU81

>  <s_glide_docking_method>  (1) 
confgen

>  <s_i_glide_gridfile>  (1) 
gpcr_5ht2c_6bqh_protein_autoprepared_prepared

>  <s_lp_Force_Field>  (1) 
S-OPLS

>  <s_lp_Variant>  (1) 
DiffSBDD_48_num_sample_100-2

>  <s_m_source_file>  (1) 
generated__ligand_DiffSBDD_2026-05-06_prepared.sdf

>  <GenAI_Model>  (1) 
DiffSBDD

>  <Protein>  (1) 
GPCR_5HT2C

$$$$
DiffSBDD_70_num_sample_100
     RDKit          3D

  0  0  0  0  0  0  0  0  0  0999 V3000
M  V30 BEGIN CTAB
M  V30 COUNTS 77 80 0 0 1
M  V30 BEGIN ATOM
M  V30 1 N 39.334892 30.317046 60.066007 0
M  V30 2 C 37.805119 25.974139 58.252578 0
M  V30 3 F 39.327681 27.252414 50.652024 0
M  V30 4 C 38.114494 24.022061 56.812498 0
M  V30 5 P 39.935944 30.974820 61.622345 0
M  V30 6 C 38.213216 27.763815 55.734853 0
M  V30 7 F 38.560200 29.221289 51.053500 0
M  V30 8 C 38.464607 27.184999 58.944816 0
M  V30 9 C 37.615619 33.468409 59.897558 0
M  V30 10 O 40.712142 28.815940 51.415037 0
M  V30 11 C 40.650669 26.833709 57.672608 0
M  V30 12 C 40.924736 30.152488 50.954246 0
M  V30 13 C 39.917433 25.912575 56.712191 0 CFG=2
M  V30 14 O 40.117175 32.438841 61.505163 0 CHG=-1
M  V30 15 C 37.509939 32.069162 59.898510 0
M  V30 16 O 38.613836 30.646497 62.615779 0
M  V30 17 C 36.430037 31.469788 60.576472 0
M  V30 18 C 39.243881 28.811826 55.307260 0
M  V30 19 C 38.798024 26.364635 55.783867 0 CFG=1
M  V30 20 C 36.645191 34.211143 60.578209 0
M  V30 21 C 38.481930 25.482152 56.979981 0 CFG=2
M  V30 22 O 37.909282 30.535342 58.120895 0
M  V30 23 C 38.857319 25.808866 54.371551 0
M  V30 24 C 39.448346 28.320275 51.473362 0
M  V30 25 N 35.481473 32.173461 61.237766 0
M  V30 26 C 38.985504 27.951683 52.890454 0 CFG=2
M  V30 27 C 35.602308 33.524198 61.234076 0
M  V30 28 C 39.061226 29.183201 53.853829 0 CFG=1
M  V30 29 C 39.678449 26.652620 53.382960 0
M  V30 30 O 37.871310 29.945421 53.852687 0
M  V30 31 C 40.356962 29.525946 59.344101 0
M  V30 32 C 40.625731 30.380531 49.474999 0
M  V30 33 O 41.068077 30.149551 62.093658 0
M  V30 34 C 40.568886 28.090193 59.894888 0
M  V30 35 C 39.932700 27.005875 59.005852 0 CFG=1
M  V30 36 C 38.541964 31.223385 59.182873 0 CFG=2
M  V30 37 C 36.719022 35.724144 60.609852 0
M  V30 38 H 37.867529 25.137964 58.950781 0
M  V30 39 H 36.750500 26.154667 58.044317 0
M  V30 40 H 38.734337 23.440868 57.495225 0
M  V30 41 H 37.068641 23.848355 57.059788 0
M  V30 42 H 38.268732 23.663205 55.802886 0
M  V30 43 H 37.362648 27.747754 55.052706 0
M  V30 44 H 37.749234 28.064463 56.656063 0
M  V30 45 H 38.267245 27.221823 60.008626 0
M  V30 46 H 38.159265 28.152799 58.584380 0
M  V30 47 H 38.430616 33.962467 59.387458 0
M  V30 48 H 40.872208 27.786924 57.217504 0
M  V30 49 H 41.636349 26.421132 57.874960 0
M  V30 50 H 40.380671 30.863770 51.576262 0
M  V30 51 H 41.981369 30.376491 51.053423 0
M  V30 52 H 40.570343 25.150125 56.294643 0
M  V30 53 H 38.805297 29.825835 63.048346 0
M  V30 54 H 36.328522 30.395805 60.596976 0
M  V30 55 H 40.262515 28.454097 55.419352 0
M  V30 56 H 39.173352 29.694825 55.942732 0
M  V30 57 H 37.200649 31.076847 57.787699 0
M  V30 58 H 39.355339 24.844492 54.430066 0
M  V30 59 H 37.849183 25.623071 53.996990 0
M  V30 60 H 37.930853 27.686103 52.780619 0
M  V30 61 H 34.842955 34.070130 61.771124 0
M  V30 62 H 39.880464 29.844946 53.580831 0
M  V30 63 H 40.667200 26.821425 53.789760 0
M  V30 64 H 39.867342 26.021558 52.520835 0
M  V30 65 H 37.920669 30.598423 54.535488 0
M  V30 66 H 40.177247 29.523936 58.272131 0
M  V30 67 H 41.317388 30.021332 59.453596 0
M  V30 68 H 40.813505 31.431718 49.255054 0
M  V30 69 H 41.275988 29.770929 48.849189 0
M  V30 70 H 39.593365 30.175815 49.200308 0
M  V30 71 H 41.638519 27.890471 59.969712 0
M  V30 72 H 40.191226 28.004058 60.913267 0
M  V30 73 H 39.867532 26.020698 59.453502 0
M  V30 74 H 39.212397 31.938048 58.710130 0
M  V30 75 H 36.634932 36.088276 61.633238 0
M  V30 76 H 37.668857 36.077421 60.207889 0
M  V30 77 H 35.920181 36.155204 60.005225 0
M  V30 END ATOM
M  V30 BEGIN BOND
M  V30 1 1 5 1
M  V30 2 1 8 2
M  V30 3 1 12 10
M  V30 4 1 13 11
M  V30 5 1 14 5
M  V30 6 1 15 9
M  V30 7 1 16 5
M  V30 8 2 17 15
M  V30 9 1 18 6
M  V30 10 1 19 6 CFG=3
M  V30 11 1 19 13
M  V30 12 2 20 9
M  V30 13 1 21 2
M  V30 14 1 21 4 CFG=3
M  V30 15 1 21 13
M  V30 16 1 21 19
M  V30 17 1 23 19
M  V30 18 1 24 3
M  V30 19 1 24 7
M  V30 20 1 24 10
M  V30 21 1 25 17
M  V30 22 1 26 24
M  V30 23 1 27 20
M  V30 24 2 27 25
M  V30 25 1 28 18
M  V30 26 1 28 26
M  V30 27 1 29 23
M  V30 28 1 29 26
M  V30 29 1 30 28
M  V30 30 1 31 1
M  V30 31 1 32 12
M  V30 32 2 33 5
M  V30 33 1 34 31
M  V30 34 1 35 8
M  V30 35 1 35 11
M  V30 36 1 35 34
M  V30 37 1 36 1
M  V30 38 1 36 15
M  V30 39 1 36 22
M  V30 40 1 37 20
M  V30 41 1 38 2
M  V30 42 1 39 2
M  V30 43 1 40 4
M  V30 44 1 41 4
M  V30 45 1 42 4
M  V30 46 1 43 6
M  V30 47 1 44 6
M  V30 48 1 45 8
M  V30 49 1 46 8
M  V30 50 1 47 9
M  V30 51 1 48 11
M  V30 52 1 49 11
M  V30 53 1 50 12
M  V30 54 1 51 12
M  V30 55 1 13 52 CFG=3
M  V30 56 1 53 16
M  V30 57 1 54 17
M  V30 58 1 55 18
M  V30 59 1 56 18
M  V30 60 1 57 22
M  V30 61 1 58 23
M  V30 62 1 59 23
M  V30 63 1 26 60 CFG=3
M  V30 64 1 61 27
M  V30 65 1 28 62 CFG=3
M  V30 66 1 63 29
M  V30 67 1 64 29
M  V30 68 1 65 30
M  V30 69 1 66 31
M  V30 70 1 67 31
M  V30 71 1 68 32
M  V30 72 1 69 32
M  V30 73 1 70 32
M  V30 74 1 71 34
M  V30 75 1 72 34
M  V30 76 1 35 73 CFG=1
M  V30 77 1 36 74 CFG=3
M  V30 78 1 75 37
M  V30 79 1 76 37
M  V30 80 1 77 37
M  V30 END BOND
M  V30 END CTAB
M  END
>  <i_epik_Tot_Q>  (1) 
-1

>  <i_epik_Tot_abs_Q>  (1) 
1

>  <i_i_glide_confnum>  (1) 
1631

>  <i_i_glide_lignum>  (1) 
179

>  <i_i_glide_posenum>  (1) 
6

>  <i_i_glide_rotatable_bonds>  (1) 
12

>  <i_lp_mmshare_version>  (1) 
72125

>  <i_m_source_file_index>  (1) 
71

>  <i_f3d_flags>  (1) 
0

>  <num_sample>  (1) 
100

>  <b_lp_Chiralities_Consistent>  (1) 
1

>  <r_epik_Charging_Adjusted_Penalty>  (1) 
2.5863915032327713e-05

>  <r_epik_Ionization_Penalty>  (1) 
0.063291997969961059

>  <r_epik_Ionization_Penalty_Charging>  (1) 
2.5863915032327713e-05

>  <r_epik_Ionization_Penalty_Neutral>  (1) 
0.06326613405492873

>  <r_epik_State_Penalty>  (1) 
-0

>  <r_glide_ring_energy>  (1) 
0

>  <r_i_docking_score>  (1) 
-9.1096301690358068

>  <r_i_glide_ecoul>  (1) 
-9.6265072124331326

>  <r_i_glide_eff_state_penalty>  (1) 
-0

>  <r_i_glide_einternal>  (1) 
17.904720851925934

>  <r_i_glide_emodel>  (1) 
-51.999437972169076

>  <r_i_glide_emodel_strain>  (1) 
2.1794851977098944

>  <r_i_glide_energy>  (1) 
-41.814046275478454

>  <r_i_glide_erotb>  (1) 
0.55646031454045308

>  <r_i_glide_esite>  (1) 
-0.025870133597729991

>  <r_i_glide_evdw>  (1) 
-32.187539063045321

>  <r_i_glide_gscore>  (1) 
-9.1096301690358068

>  <r_i_glide_gscore_strain>  (1) 
0

>  <r_i_glide_hbond>  (1) 
-0.53913581073973504

>  <r_i_glide_ligand_efficiency>  (1) 
-0.24620622078475154

>  <r_i_glide_ligand_efficiency_ln>  (1) 
-1.9756652236325989

>  <r_i_glide_ligand_efficiency_sa>  (1) 
-0.82041374891011731

>  <r_i_glide_lipo>  (1) 
-4.8005698121298961

>  <r_i_glide_metal>  (1) 
-0

>  <r_i_glide_rewards>  (1) 
-1.2471616920916631

>  <r_lp_Energy>  (1) 
42.482589999999995

>  <r_lp_tautomer_probability>  (1) 
1

>  <s_epik_Chemistry_Notes>  (1) 
This compound contains an acetal/aminal-like group ( X-CH(R)-Y where X, Y are N, S, or O) that may be acid/base labile, releasing an aldehyde.

>  <s_epik_cmdline>  (1) 
J2VwaWtfcHl0aG9uJywgJy1waHQnLCAnMS4wJywgJy1waCcsICc3LjQnLCAnLXRuJywgJzgnLCAnLW1hJywgJzUwMCcsICctaW1hZScsICc8aW5maWxlLm1hZT4nLCAnLW9tYWUnLCAnPG91dGZpbGUubWFlPic=

>  <s_epik_input>  (1) 
W2NIXTFuW2NIXWMoW0NIM10pW2NIXWMxW0NASF0oW09IXSlOKFAoPU8pKFtPSF0pW09IXSlbQ0gyXVtDSDJdW0NASF0oW0NIMl0yKVtDSDJdW0NIMl1bQ0BdMyhbQ0gzXSlbQ0BIXTJbQ0BdMzRbQ0gyXVtDSDJdW0NASF0oW09IXSlbQ0BIXShbQ0gyXVtDSDJdNClDKEYpKEYpT1tDSDJdW0NIM10=

>  <s_glide_docking_method>  (1) 
confgen

>  <s_i_glide_gridfile>  (1) 
gpcr_5ht2c_6bqh_protein_autoprepared_prepared

>  <s_lp_Force_Field>  (1) 
S-OPLS

>  <s_lp_Variant>  (1) 
DiffSBDD_70_num_sample_100-1

>  <s_m_source_file>  (1) 
generated__ligand_DiffSBDD_2026-05-06_prepared.sdf

>  <GenAI_Model>  (1) 
DiffSBDD

>  <Protein>  (1) 
GPCR_5HT2C

$$$$
DiffSBDD_77_num_sample_100
     RDKit          3D

  0  0  0  0  0  0  0  0  0  0999 V3000
M  V30 BEGIN CTAB
M  V30 COUNTS 76 78 0 0 1
M  V30 BEGIN ATOM
M  V30 1 C 39.159225 27.896608 51.164574 0
M  V30 2 F 40.547129 31.221327 51.880318 0
M  V30 3 C 40.667427 28.219216 62.850555 0
M  V30 4 C 38.447818 27.650541 52.354625 0
M  V30 5 C 40.538296 35.045860 62.954024 0
M  V30 6 C 38.798823 29.651280 56.576440 0
M  V30 7 C 39.815847 30.384060 60.872034 0
M  V30 8 C 40.094490 29.064097 58.749352 0 CFG=2
M  V30 9 O 41.071375 32.541232 63.670145 0
M  V30 10 C 40.484589 36.586310 62.929469 0
M  V30 11 N 38.597644 25.264520 56.711418 0
M  V30 12 C 37.660653 28.345367 54.668325 0
M  V30 13 C 39.867413 30.061153 52.035641 0
M  V30 14 O 41.067405 28.930804 65.536098 0
M  V30 15 C 41.219934 30.010146 64.637060 0
M  V30 16 C 38.444092 28.610029 53.388415 0
M  V30 17 F 40.546397 29.341390 49.858130 0
M  V30 18 C 40.744856 27.534614 56.791905 0
M  V30 19 O 36.926222 24.424025 55.424652 0
M  V30 20 O 37.642108 29.222936 58.668639 0
M  V30 21 C 39.867409 29.102282 51.004626 0
M  V30 22 C 38.730755 36.438567 61.129942 0
M  V30 23 N 39.752143 32.912353 61.839410 0
M  V30 24 C 39.305832 25.948473 55.628757 0
M  V30 25 C 39.156150 29.816722 53.226972 0
M  V30 26 C 40.719495 29.702785 63.206146 0
M  V30 27 C 37.467393 24.565999 56.519840 0
M  V30 28 C 38.823167 34.990491 61.062931 0
M  V30 29 C 40.319963 27.621740 58.272331 0
M  V30 30 F 37.867302 37.071385 60.317137 0
M  V30 31 C 37.985288 34.215600 60.052108 0
M  V30 32 C 38.480817 28.245037 55.987459 0 CFG=1
M  V30 33 C 40.446808 32.114958 62.702916 0
M  V30 34 N 40.117079 29.105243 60.221912 0
M  V30 35 C 40.342956 30.685043 62.305605 0
M  V30 36 C 39.655766 34.335664 61.906403 0
M  V30 37 C 39.474128 37.172239 61.969706 0
M  V30 38 C 38.844553 29.733415 58.120393 0 CFG=2
M  V30 39 N 39.653299 27.361587 55.827371 0
M  V30 40 H 39.158597 27.160983 50.372465 0
M  V30 41 H 41.447077 28.020278 62.116068 0
M  V30 42 H 40.843409 27.525544 63.668365 0
M  V30 43 H 39.691186 27.963087 62.443161 0
M  V30 44 H 37.900474 26.728356 52.473275 0
M  V30 45 H 40.263307 34.745614 63.963298 0
M  V30 46 H 41.580344 34.763159 62.798480 0
M  V30 47 H 39.719495 30.052549 56.153531 0
M  V30 48 H 38.020518 30.346925 56.260001 0
M  V30 49 H 38.738756 30.555402 60.859282 0
M  V30 50 H 40.261297 31.155612 60.253506 0
M  V30 51 H 40.961884 29.621420 58.402830 0
M  V30 52 H 41.467406 36.970077 62.661093 0
M  V30 53 H 40.267410 36.964686 63.928540 0
M  V30 54 H 38.980853 25.334009 57.641594 0
M  V30 55 H 37.086834 27.426854 54.538672 0
M  V30 56 H 36.906734 29.128475 54.751977 0
M  V30 57 H 40.162184 28.651447 65.504991 0
M  V30 58 H 40.626729 30.787616 65.115444 0
M  V30 59 H 42.266242 30.316979 64.617852 0
M  V30 60 H 41.313720 28.421478 56.516567 0
M  V30 61 H 41.456389 26.718305 56.671724 0
M  V30 62 H 36.922297 29.742756 58.335880 0
M  V30 63 H 39.231637 32.467666 61.099052 0
M  V30 64 H 38.767279 25.863329 54.685356 0
M  V30 65 H 40.223663 25.387220 55.449396 0
M  V30 66 H 39.153322 30.557361 54.011261 0
M  V30 67 H 37.096492 24.142513 57.465848 0
M  V30 68 H 41.148953 27.221424 58.855022 0
M  V30 69 H 39.459357 26.995068 58.501335 0
M  V30 70 H 37.366776 34.872405 59.440337 0
M  V30 71 H 38.627285 33.651562 59.374365 0
M  V30 72 H 37.317806 33.518933 60.560103 0
M  V30 73 H 37.815473 27.764529 56.703078 0
M  V30 74 H 39.479390 28.398601 60.576193 0
M  V30 75 H 39.368704 38.246203 61.975776 0
M  V30 76 H 38.868955 30.794409 58.370157 0
M  V30 END ATOM
M  V30 BEGIN BOND
M  V30 1 2 4 1
M  V30 2 1 10 5
M  V30 3 1 13 2
M  V30 4 1 15 14
M  V30 5 1 16 4
M  V30 6 1 16 12
M  V30 7 1 21 1
M  V30 8 2 21 13
M  V30 9 1 21 17
M  V30 10 1 24 11
M  V30 11 1 25 13
M  V30 12 2 25 16
M  V30 13 1 26 3
M  V30 14 1 26 15
M  V30 15 1 27 11
M  V30 16 2 27 19
M  V30 17 1 28 22
M  V30 18 1 29 8
M  V30 19 1 29 18
M  V30 20 1 30 22
M  V30 21 1 31 28
M  V30 22 1 32 6
M  V30 23 1 32 12
M  V30 24 2 33 9
M  V30 25 1 33 23
M  V30 26 1 34 7
M  V30 27 1 34 8
M  V30 28 1 35 7
M  V30 29 2 35 26
M  V30 30 1 35 33
M  V30 31 1 36 5
M  V30 32 1 36 23
M  V30 33 2 36 28
M  V30 34 1 37 10
M  V30 35 2 37 22
M  V30 36 1 38 6
M  V30 37 1 38 8
M  V30 38 1 38 20
M  V30 39 1 39 18
M  V30 40 1 39 24
M  V30 41 1 39 32
M  V30 42 1 40 1
M  V30 43 1 41 3
M  V30 44 1 42 3
M  V30 45 1 43 3
M  V30 46 1 44 4
M  V30 47 1 45 5
M  V30 48 1 46 5
M  V30 49 1 47 6
M  V30 50 1 48 6
M  V30 51 1 49 7
M  V30 52 1 50 7
M  V30 53 1 8 51 CFG=3
M  V30 54 1 52 10
M  V30 55 1 53 10
M  V30 56 1 54 11
M  V30 57 1 55 12
M  V30 58 1 56 12
M  V30 59 1 57 14
M  V30 60 1 58 15
M  V30 61 1 59 15
M  V30 62 1 60 18
M  V30 63 1 61 18
M  V30 64 1 62 20
M  V30 65 1 63 23
M  V30 66 1 64 24
M  V30 67 1 65 24
M  V30 68 1 66 25
M  V30 69 1 67 27
M  V30 70 1 68 29
M  V30 71 1 69 29
M  V30 72 1 70 31
M  V30 73 1 71 31
M  V30 74 1 72 31
M  V30 75 1 32 73 CFG=1
M  V30 76 1 74 34
M  V30 77 1 75 37
M  V30 78 1 38 76 CFG=3
M  V30 END BOND
M  V30 END CTAB
M  END
>  <i_epik_Tot_Q>  (1) 
0

>  <i_epik_Tot_abs_Q>  (1) 
0

>  <i_i_glide_confnum>  (1) 
140

>  <i_i_glide_lignum>  (1) 
190

>  <i_i_glide_posenum>  (1) 
277

>  <i_i_glide_rotatable_bonds>  (1) 
14

>  <i_lp_mmshare_version>  (1) 
72125

>  <i_m_source_file_index>  (1) 
78

>  <i_f3d_flags>  (1) 
0

>  <num_sample>  (1) 
100

>  <b_lp_Chiralities_Consistent>  (1) 
1

>  <r_epik_Charging_Adjusted_Penalty>  (1) 
0.53836467660946008

>  <r_epik_Ionization_Penalty>  (1) 
0.66160028736033039

>  <r_epik_Ionization_Penalty_Charging>  (1) 
0

>  <r_epik_Ionization_Penalty_Neutral>  (1) 
0.66160028736033039

>  <r_epik_State_Penalty>  (1) 
0.53836467660946008

>  <r_glide_ring_energy>  (1) 
0

>  <r_i_docking_score>  (1) 
-9.066920259746027

>  <r_i_glide_ecoul>  (1) 
-2.6360158448242386

>  <r_i_glide_eff_state_penalty>  (1) 
0.53836467660946008

>  <r_i_glide_einternal>  (1) 
7.9512471461642455

>  <r_i_glide_emodel>  (1) 
-90.743836376680719

>  <r_i_glide_emodel_strain>  (1) 
2.1917696909639943

>  <r_i_glide_energy>  (1) 
-60.448952832559733

>  <r_i_glide_erotb>  (1) 
0.6830181953671759

>  <r_i_glide_esite>  (1) 
0

>  <r_i_glide_evdw>  (1) 
-57.812936987735497

>  <r_i_glide_gscore>  (1) 
-9.6052849363554866

>  <r_i_glide_gscore_strain>  (1) 
0

>  <r_i_glide_hbond>  (1) 
-0.088554833563167276

>  <r_i_glide_ligand_efficiency>  (1) 
-0.23248513486528274

>  <r_i_glide_ligand_efficiency_ln>  (1) 
-1.9442050835268336

>  <r_i_glide_ligand_efficiency_sa>  (1) 
-0.78840624968583872

>  <r_i_glide_lipo>  (1) 
-4.2271489136579881

>  <r_i_glide_metal>  (1) 
-0

>  <r_i_glide_rewards>  (1) 
-2.6865501583910962

>  <r_lp_Energy>  (1) 
37.727160999999995

>  <s_epik_Chemistry_Notes>  (1) 
This compound contains an acetal/aminal-like group ( X-CH(R)-Y where X, Y are N, S, or O) that may be acid/base labile, releasing an aldehyde.

>  <s_epik_cmdline>  (1) 
J2VwaWtfcHl0aG9uJywgJy1waHQnLCAnMS4wJywgJy1waCcsICc3LjQnLCAnLXRuJywgJzgnLCAnLW1hJywgJzUwMCcsICctaW1hZScsICc8aW5maWxlLm1hZT4nLCAnLW9tYWUnLCAnPG91dGZpbGUubWFlPic=

>  <s_epik_input>  (1) 
RmMxYyhGKVtjSF1bY0hdYyhbY0hdMSlbQ0gyXVtDQEhdKFtDSDJdW0NASF0yW09IXSlOKFtDSDJdW05IXVtDSF09TylbQ0gyXVtDSDJdW0NAQEhdMltOSF1bQ0gyXS9DKD1DKFxbQ0gzXSlbQ0gyXVtPSF0pQyg9TylbTkhdQyg9QzNbQ0gzXSlbQ0gyXVtDSDJdW0NIXT1DM0Y=

>  <s_glide_docking_method>  (1) 
confgen

>  <s_i_glide_gridfile>  (1) 
gpcr_5ht2c_6bqh_protein_autoprepared_prepared

>  <s_lp_Force_Field>  (1) 
S-OPLS

>  <s_lp_Variant>  (1) 
DiffSBDD_77_num_sample_100-1

>  <s_m_source_file>  (1) 
generated__ligand_DiffSBDD_2026-05-06_prepared.sdf

>  <GenAI_Model>  (1) 
DiffSBDD

>  <Protein>  (1) 
GPCR_5HT2C

$$$$
DiffSBDD_68_num_sample_100
     RDKit          3D

  0  0  0  0  0  0  0  0  0  0999 V3000
M  V30 BEGIN CTAB
M  V30 COUNTS 94 97 0 0 1
M  V30 BEGIN ATOM
M  V30 1 C 37.972368 30.884322 61.143474 0 CFG=1
M  V30 2 C 40.348770 27.534245 58.454712 0 CFG=1
M  V30 3 C 38.764983 37.102525 62.202012 0
M  V30 4 C 41.315452 26.107143 66.133091 0
M  V30 5 C 40.051064 34.684778 61.568044 0
M  V30 6 N 39.691277 31.731804 62.742639 0
M  V30 7 C 37.511196 24.398786 57.706660 0
M  V30 8 O 37.467504 26.421423 53.554906 0
M  V30 9 C 40.568074 29.882360 66.101887 0
M  V30 10 O 41.943648 32.050594 62.790389 0
M  V30 11 C 37.589863 24.474263 56.164634 0 CFG=2
M  V30 12 C 42.550935 28.907326 64.782356 0
M  V30 13 C 40.465170 35.426781 62.693212 0
M  V30 14 O 37.336156 36.826210 60.295138 0
M  V30 15 C 37.698997 25.976660 55.943626 0 CFG=2
M  V30 16 C 41.810726 27.103341 58.253425 0
M  V30 17 C 43.389795 26.489585 64.682367 0
M  V30 18 C 38.883034 29.380443 59.523379 0
M  V30 19 C 39.712968 30.703340 63.796157 0
M  V30 20 C 40.839495 32.328760 62.323190 0
M  V30 21 O 38.304978 25.472044 58.191129 0
M  V30 22 C 43.477200 27.990259 64.421231 0
M  V30 23 C 40.738905 33.377650 61.216546 0
M  V30 24 C 41.984826 25.883769 64.773024 0
M  V30 25 C 38.356051 36.367113 61.077351 0
M  V30 26 C 41.420885 27.551786 66.639206 0
M  V30 27 C 38.378552 31.999790 62.111726 0
M  V30 28 C 38.351852 30.717293 54.253623 0
M  V30 29 C 36.632811 31.183833 60.447037 0
M  V30 30 C 39.756918 28.098560 56.002942 0
M  V30 31 O 40.667376 28.903386 55.953618 0
M  V30 32 C 38.352905 26.480928 54.646032 0 CFG=2
M  V30 33 C 41.244050 28.605883 65.528700 0 CFG=1
M  V30 34 C 40.268915 28.970072 59.015943 0
M  V30 35 C 39.820924 36.636287 63.009493 0
M  V30 36 N 39.492957 30.735115 53.718418 0
M  V30 37 C 36.430498 23.776868 55.442220 0
M  V30 38 O 39.001511 30.633014 60.192506 0
M  V30 39 C 40.414634 31.074923 65.133171 0
M  V30 40 C 39.485090 27.264879 57.208079 0
M  V30 41 S 37.546676 29.203068 54.802019 0
M  V30 42 C 38.538916 26.307782 57.144972 0
M  V30 43 C 38.860299 27.927575 54.775048 0 CFG=1
M  V30 44 C 38.999513 35.161903 60.757576 0
M  V30 45 H 37.867407 30.021425 61.783046 0
M  V30 46 H 39.961198 26.896886 59.250097 0
M  V30 47 H 38.271589 38.021294 62.442050 0
M  V30 48 H 40.267989 25.821355 66.054065 0
M  V30 49 H 41.750204 25.439567 66.876805 0
M  V30 50 H 37.849292 23.439713 58.097182 0
M  V30 51 H 36.504432 24.587097 58.065856 0
M  V30 52 H 36.789031 27.068421 53.673080 0
M  V30 53 H 41.124260 30.222032 66.976516 0
M  V30 54 H 39.578012 29.609564 66.470510 0
M  V30 55 H 38.527623 24.021517 55.842470 0
M  V30 56 H 42.730556 29.940715 64.534639 0
M  V30 57 H 41.276546 35.068363 63.311721 0
M  V30 58 H 37.130723 36.256980 59.568609 0
M  V30 59 H 36.716400 26.421419 56.081974 0
M  V30 60 H 41.867078 26.021779 58.253518 0
M  V30 61 H 42.255263 27.465698 57.326971 0
M  V30 62 H 42.449482 27.435791 59.068705 0
M  V30 63 H 43.891451 26.014952 63.838449 0
M  V30 64 H 43.981269 26.242910 65.564597 0
M  V30 65 H 38.173142 29.457238 58.698949 0
M  V30 66 H 38.517781 28.609367 60.203185 0
M  V30 67 H 38.688225 30.421406 64.026313 0
M  V30 68 H 40.174495 29.823505 63.348577 0
M  V30 69 H 44.363645 28.324880 63.902557 0
M  V30 70 H 41.775866 33.655581 61.053514 0
M  V30 71 H 40.330707 32.936407 60.305231 0
M  V30 72 H 41.368724 26.279899 63.967003 0
M  V30 73 H 42.046676 24.812072 64.589321 0
M  V30 74 H 42.378561 27.705324 67.138878 0
M  V30 75 H 40.669005 27.690380 67.414766 0
M  V30 76 H 38.292947 32.934406 61.586601 0
M  V30 77 H 37.612295 32.089065 62.875103 0
M  V30 78 H 37.760168 31.621000 54.420718 0
M  V30 79 H 35.855603 31.431123 61.170318 0
M  V30 80 H 36.725381 32.025089 59.759201 0
M  V30 81 H 36.276587 30.329882 59.871930 0
M  V30 82 H 39.203906 25.840085 54.411996 0
M  V30 83 H 40.546978 28.204360 64.795329 0
M  V30 84 H 40.964496 29.050532 59.851674 0
M  V30 85 H 40.623012 29.680354 58.279283 0
M  V30 86 H 40.136590 37.208058 63.870789 0
M  V30 87 H 39.793613 31.666372 53.466219 0
M  V30 88 H 35.467746 24.112182 55.815556 0
M  V30 89 H 36.463789 23.972852 54.371025 0
M  V30 90 H 36.472395 22.696424 55.582773 0
M  V30 91 H 41.397634 31.513421 64.998909 0
M  V30 92 H 39.867337 31.871622 65.627372 0
M  V30 93 H 39.466191 28.127231 53.892778 0
M  V30 94 H 38.686115 34.596047 59.892070 0
M  V30 END ATOM
M  V30 BEGIN BOND
M  V30 1 1 11 7
M  V30 2 2 13 5
M  V30 3 1 15 11
M  V30 4 1 16 2
M  V30 5 1 19 6
M  V30 6 1 20 6
M  V30 7 2 20 10
M  V30 8 1 21 7
M  V30 9 2 22 12
M  V30 10 1 22 17
M  V30 11 1 23 5
M  V30 12 1 23 20
M  V30 13 1 24 4
M  V30 14 1 24 17
M  V30 15 1 25 3
M  V30 16 1 25 14
M  V30 17 1 26 4
M  V30 18 1 27 1
M  V30 19 1 27 6
M  V30 20 1 29 1
M  V30 21 2 31 30
M  V30 22 1 32 8
M  V30 23 1 32 15
M  V30 24 1 33 9
M  V30 25 1 33 12
M  V30 26 1 33 26
M  V30 27 1 34 2
M  V30 28 1 34 18
M  V30 29 2 35 3
M  V30 30 1 35 13
M  V30 31 2 36 28
M  V30 32 1 37 11
M  V30 33 1 38 1
M  V30 34 1 38 18
M  V30 35 1 39 9
M  V30 36 1 39 19
M  V30 37 1 40 2
M  V30 38 1 40 30
M  V30 39 1 41 28
M  V30 40 1 42 15
M  V30 41 1 42 21
M  V30 42 2 42 40
M  V30 43 1 43 30
M  V30 44 1 43 32
M  V30 45 1 43 41
M  V30 46 1 44 5
M  V30 47 2 44 25
M  V30 48 1 1 45 CFG=1
M  V30 49 1 2 46 CFG=1
M  V30 50 1 47 3
M  V30 51 1 48 4
M  V30 52 1 49 4
M  V30 53 1 50 7
M  V30 54 1 51 7
M  V30 55 1 52 8
M  V30 56 1 53 9
M  V30 57 1 54 9
M  V30 58 1 11 55 CFG=3
M  V30 59 1 56 12
M  V30 60 1 57 13
M  V30 61 1 58 14
M  V30 62 1 15 59 CFG=1
M  V30 63 1 60 16
M  V30 64 1 61 16
M  V30 65 1 62 16
M  V30 66 1 63 17
M  V30 67 1 64 17
M  V30 68 1 65 18
M  V30 69 1 66 18
M  V30 70 1 67 19
M  V30 71 1 68 19
M  V30 72 1 69 22
M  V30 73 1 70 23
M  V30 74 1 71 23
M  V30 75 1 72 24
M  V30 76 1 73 24
M  V30 77 1 74 26
M  V30 78 1 75 26
M  V30 79 1 76 27
M  V30 80 1 77 27
M  V30 81 1 78 28
M  V30 82 1 79 29
M  V30 83 1 80 29
M  V30 84 1 81 29
M  V30 85 1 32 82 CFG=3
M  V30 86 1 33 83 CFG=3
M  V30 87 1 84 34
M  V30 88 1 85 34
M  V30 89 1 86 35
M  V30 90 1 87 36
M  V30 91 1 88 37
M  V30 92 1 89 37
M  V30 93 1 90 37
M  V30 94 1 91 39
M  V30 95 1 92 39
M  V30 96 1 43 93 CFG=3
M  V30 97 1 94 44
M  V30 END BOND
M  V30 END CTAB
M  END
>  <i_epik_Tot_Q>  (1) 
0

>  <i_epik_Tot_abs_Q>  (1) 
0

>  <i_i_glide_confnum>  (1) 
4230

>  <i_i_glide_lignum>  (1) 
176

>  <i_i_glide_posenum>  (1) 
329

>  <i_i_glide_rotatable_bonds>  (1) 
18

>  <i_lp_mmshare_version>  (1) 
72125

>  <i_m_source_file_index>  (1) 
69

>  <i_f3d_flags>  (1) 
0

>  <num_sample>  (1) 
100

>  <b_lp_Chiralities_Consistent>  (1) 
1

>  <r_epik_Charging_Adjusted_Penalty>  (1) 
0

>  <r_epik_Ionization_Penalty>  (1) 
0.0034918609457469025

>  <r_epik_Ionization_Penalty_Charging>  (1) 
0

>  <r_epik_Ionization_Penalty_Neutral>  (1) 
0.0034918609457469025

>  <r_epik_State_Penalty>  (1) 
-0

>  <r_glide_ring_energy>  (1) 
1.2573811357100717

>  <r_i_docking_score>  (1) 
-9.0661024366325798

>  <r_i_glide_ecoul>  (1) 
-0.43564035317836014

>  <r_i_glide_eff_state_penalty>  (1) 
-0

>  <r_i_glide_einternal>  (1) 
19.758824795494412

>  <r_i_glide_emodel>  (1) 
-62.337354425228277

>  <r_i_glide_emodel_strain>  (1) 
1.0519539833327016

>  <r_i_glide_energy>  (1) 
-56.625729836422188

>  <r_i_glide_erotb>  (1) 
0.6701242194964161

>  <r_i_glide_esite>  (1) 
0

>  <r_i_glide_evdw>  (1) 
-56.190089483243831

>  <r_i_glide_gscore>  (1) 
-9.0661024366325798

>  <r_i_glide_gscore_strain>  (1) 
0

>  <r_i_glide_hbond>  (1) 
0

>  <r_i_glide_ligand_efficiency>  (1) 
-0.20604778265074045

>  <r_i_glide_ligand_efficiency_ln>  (1) 
-1.8950131851708023

>  <r_i_glide_ligand_efficiency_sa>  (1) 
-0.7274204464786681

>  <r_i_glide_lipo>  (1) 
-5.7435373356667521

>  <r_i_glide_metal>  (1) 
-0

>  <r_i_glide_rewards>  (1) 
-1.1178387933232989

>  <r_lp_Energy>  (1) 
28.073183999999998

>  <r_lp_tautomer_probability>  (1) 
1

>  <s_epik_Chemistry_Notes>  (1) 
This compound has an imine and may undergo hydrolysis.

>  <s_epik_cmdline>  (1) 
J2VwaWtfcHl0aG9uJywgJy1waHQnLCAnMS4wJywgJy1waCcsICc3LjQnLCAnLXRuJywgJzgnLCAnLW1hJywgJzUwMCcsICctaW1hZScsICc8aW5maWxlLm1hZT4nLCAnLW9tYWUnLCAnPG91dGZpbGUubWFlPic=

>  <s_epik_input>  (1) 
W0hdXE49W0NIXVxTW0NASF0oW0NAQEhdMVtPSF0pQyg9TylDKD1DKFtDQEBIXTEyKU9bQ0gyXVtDQEhdMltDSDNdKVtDQEBIXShbQ0gzXSlbQ0gyXVtDSDJdT1tDQEhdKFtDSDNdKVtDSDJdTihDKD1PKVtDSDJdYzNbY0hdW2NIXVtjSF1jKFtPSF0pW2NIXTMpW0NIMl1bQ0gyXVtDSDJdW0NASF00W0NIXT1bQ0hdW0NIMl1bQ0gyXVtDSDJdW0NIMl00

>  <s_glide_docking_method>  (1) 
confgen

>  <s_i_glide_gridfile>  (1) 
gpcr_5ht2c_6bqh_protein_autoprepared_prepared

>  <s_lp_Force_Field>  (1) 
S-OPLS

>  <s_lp_Variant>  (1) 
DiffSBDD_68_num_sample_100-1

>  <s_m_source_file>  (1) 
generated__ligand_DiffSBDD_2026-05-06_prepared.sdf

>  <GenAI_Model>  (1) 
DiffSBDD

>  <Protein>  (1) 
GPCR_5HT2C

$$$$
DiffSBDD_80_num_sample_100
     RDKit          3D

  0  0  0  0  0  0  0  0  0  0999 V3000
M  V30 BEGIN CTAB
M  V30 COUNTS 73 76 0 0 1
M  V30 BEGIN ATOM
M  V30 1 C 40.564238 28.305166 59.464468 0
M  V30 2 C 38.499467 32.195066 59.237480 0
M  V30 3 N 38.783525 32.841027 60.545721 0 CFG=1 CHG=1
M  V30 4 O 39.576583 29.151203 55.911371 0
M  V30 5 O 37.867402 30.976922 56.905278 0
M  V30 6 O 40.666833 29.020233 60.675426 0
M  V30 7 C 40.069827 34.333786 62.760905 0 CFG=2
M  V30 8 C 40.041888 32.788074 62.704433 0 CFG=2
M  V30 9 C 40.208151 30.384042 51.990190 0
M  V30 10 C 38.944602 27.001295 55.354724 0
M  V30 11 O 37.867415 26.983505 52.658334 0
M  V30 12 C 38.637479 28.085857 52.449378 0
M  V30 13 O 41.073939 33.970454 66.372208 0
M  V30 14 C 39.842956 30.034759 53.304663 0
M  V30 15 C 40.925452 32.003682 65.009350 0
M  V30 16 C 39.011942 28.439238 51.136848 0
M  V30 17 O 39.866091 25.906209 57.298183 0
M  V30 18 C 39.010971 34.965299 61.823669 0
M  V30 19 O 40.164014 29.921069 49.642418 0
M  V30 20 C 41.178318 32.156720 63.519648 0
M  V30 21 C 39.801472 29.584158 50.910338 0
M  V30 22 C 39.944374 28.338213 57.018415 0 CFG=1
M  V30 23 C 37.874751 30.791182 59.326630 0 CFG=2
M  V30 24 C 39.817335 29.095186 58.366610 0 CFG=1
M  V30 25 C 39.930711 32.242516 61.261495 0
M  V30 26 C 39.147854 27.043337 56.856000 0 CFG=1
M  V30 27 C 41.679668 33.068697 65.797513 0
M  V30 28 C 38.380616 29.428543 58.793029 0 CFG=2
M  V30 29 C 42.331930 31.758189 62.957814 0
M  V30 30 C 41.652346 36.021393 63.221323 0
M  V30 31 C 37.384987 30.227034 58.002600 0 CFG=2
M  V30 32 C 38.720984 28.477735 54.986226 0 CFG=2
M  V30 33 C 39.067615 28.875310 53.544365 0
M  V30 34 C 38.962751 34.311467 60.433016 0
M  V30 35 O 41.359111 34.848756 62.463098 0
M  V30 36 H 40.055360 27.362053 59.664157 0
M  V30 37 H 41.575117 28.053661 59.140472 0
M  V30 38 H 39.369856 32.220424 58.586015 0
M  V30 39 H 37.755755 32.817832 58.737953 0
M  V30 40 H 37.140588 31.535618 56.638043 0
M  V30 41 H 40.966929 28.421117 61.344746 0
M  V30 42 H 39.867410 34.603274 63.794975 0
M  V30 43 H 39.115382 32.471599 63.183343 0
M  V30 44 H 40.807421 31.264375 51.813168 0
M  V30 45 H 39.535918 29.614421 49.004727 0
M  V30 46 H 38.119628 26.346395 55.076082 0
M  V30 47 H 39.847695 26.633468 54.863186 0
M  V30 48 H 37.339448 26.699935 51.917030 0
M  V30 49 H 40.170482 30.648002 54.133134 0
M  V30 50 H 39.867393 32.047731 65.242679 0
M  V30 51 H 41.281715 31.025853 65.331923 0
M  V30 52 H 38.692520 27.830840 50.301853 0
M  V30 53 H 40.701228 25.875762 56.851205 0
M  V30 54 H 39.173803 36.038535 61.725979 0
M  V30 55 H 38.018995 34.861724 62.253502 0
M  V30 56 H 40.999707 28.121055 56.843764 0
M  V30 57 H 37.152894 30.713725 60.138110 0
M  V30 58 H 40.340703 30.021388 58.212465 0
M  V30 59 H 39.771651 31.171204 61.320272 0
M  V30 60 H 40.835333 32.415854 60.678415 0
M  V30 61 H 38.181149 27.098814 57.357252 0
M  V30 62 H 42.764665 32.965276 65.810800 0
M  V30 63 H 37.932303 28.568977 59.287163 0
M  V30 64 H 43.112872 31.312783 63.555244 0
M  V30 65 H 42.510410 31.873856 61.902539 0
M  V30 66 H 42.667379 36.356515 63.053194 0
M  V30 67 H 40.986250 36.843365 62.962949 0
M  V30 68 H 41.575190 35.844746 64.294427 0
M  V30 69 H 36.355216 29.886987 57.906603 0
M  V30 70 H 37.690024 28.761110 55.202281 0
M  V30 71 H 39.871584 34.534189 59.873894 0
M  V30 72 H 38.135694 34.746803 59.870511 0
M  V30 73 H 37.960991 32.696564 61.113620 0
M  V30 END ATOM
M  V30 BEGIN BOND
M  V30 1 1 3 2
M  V30 2 1 6 1
M  V30 3 1 8 7
M  V30 4 1 12 11
M  V30 5 2 14 9
M  V30 6 1 16 12
M  V30 7 1 18 7
M  V30 8 1 20 8
M  V30 9 1 20 15
M  V30 10 1 21 9
M  V30 11 2 21 16
M  V30 12 1 21 19
M  V30 13 1 22 4
M  V30 14 1 23 2
M  V30 15 1 24 1
M  V30 16 1 24 22
M  V30 17 1 25 3
M  V30 18 1 25 8
M  V30 19 1 26 10
M  V30 20 1 26 17
M  V30 21 1 26 22
M  V30 22 2 27 13
M  V30 23 1 27 15
M  V30 24 1 28 23
M  V30 25 1 28 24
M  V30 26 2 29 20
M  V30 27 1 31 5
M  V30 28 1 31 23
M  V30 29 1 31 28
M  V30 30 1 32 4
M  V30 31 1 32 10
M  V30 32 2 33 12
M  V30 33 1 33 14
M  V30 34 1 33 32
M  V30 35 1 34 3
M  V30 36 1 34 18
M  V30 37 1 35 7
M  V30 38 1 35 30
M  V30 39 1 36 1
M  V30 40 1 37 1
M  V30 41 1 38 2
M  V30 42 1 39 2
M  V30 43 1 40 5
M  V30 44 1 41 6
M  V30 45 1 7 42 CFG=1
M  V30 46 1 8 43 CFG=1
M  V30 47 1 44 9
M  V30 48 1 45 19
M  V30 49 1 46 10
M  V30 50 1 47 10
M  V30 51 1 48 11
M  V30 52 1 49 14
M  V30 53 1 50 15
M  V30 54 1 51 15
M  V30 55 1 52 16
M  V30 56 1 53 17
M  V30 57 1 54 18
M  V30 58 1 55 18
M  V30 59 1 22 56 CFG=3
M  V30 60 1 23 57 CFG=1
M  V30 61 1 24 58 CFG=3
M  V30 62 1 59 25
M  V30 63 1 60 25
M  V30 64 1 26 61 CFG=1
M  V30 65 1 62 27
M  V30 66 1 28 63 CFG=1
M  V30 67 1 64 29
M  V30 68 1 65 29
M  V30 69 1 66 30
M  V30 70 1 67 30
M  V30 71 1 68 30
M  V30 72 1 31 69 CFG=1
M  V30 73 1 32 70 CFG=1
M  V30 74 1 71 34
M  V30 75 1 72 34
M  V30 76 1 3 73 CFG=1
M  V30 END BOND
M  V30 END CTAB
M  END
>  <i_epik_Tot_Q>  (1) 
1

>  <i_epik_Tot_abs_Q>  (1) 
1

>  <i_i_glide_confnum>  (1) 
1294

>  <i_i_glide_lignum>  (1) 
206

>  <i_i_glide_posenum>  (1) 
6

>  <i_i_glide_rotatable_bonds>  (1) 
15

>  <i_lp_mmshare_version>  (1) 
72125

>  <i_m_source_file_index>  (1) 
81

>  <i_f3d_flags>  (1) 
0

>  <num_sample>  (1) 
100

>  <b_lp_Chiralities_Consistent>  (1) 
1

>  <r_epik_Charging_Adjusted_Penalty>  (1) 
0.034071705691259377

>  <r_epik_Ionization_Penalty>  (1) 
0.043305258844254187

>  <r_epik_Ionization_Penalty_Charging>  (1) 
0.034071705691259377

>  <r_epik_Ionization_Penalty_Neutral>  (1) 
0.009233553152994808

>  <r_epik_State_Penalty>  (1) 
-0

>  <r_glide_ring_energy>  (1) 
0

>  <r_i_docking_score>  (1) 
-9.0253520635546156

>  <r_i_glide_ecoul>  (1) 
-12.274022358240941

>  <r_i_glide_eff_state_penalty>  (1) 
-0

>  <r_i_glide_einternal>  (1) 
8.6295434679753988

>  <r_i_glide_emodel>  (1) 
-72.80785353144455

>  <r_i_glide_emodel_strain>  (1) 
4.4169204389565095

>  <r_i_glide_energy>  (1) 
-52.527036616339615

>  <r_i_glide_erotb>  (1) 
0.67144220787932085

>  <r_i_glide_esite>  (1) 
0

>  <r_i_glide_evdw>  (1) 
-40.253014258098673

>  <r_i_glide_gscore>  (1) 
-9.0253520635546156

>  <r_i_glide_gscore_strain>  (1) 
0.10423010973912739

>  <r_i_glide_hbond>  (1) 
-0.70174736449751873

>  <r_i_glide_ligand_efficiency>  (1) 
-0.25786720181584616

>  <r_i_glide_ligand_efficiency_ln>  (1) 
-1.9812650848470388

>  <r_i_glide_ligand_efficiency_sa>  (1) 
-0.84350071636241641

>  <r_i_glide_lipo>  (1) 
-4.384136877276176

>  <r_i_glide_metal>  (1) 
-0

>  <r_i_glide_rewards>  (1) 
-0.86138607275829548

>  <r_lp_Energy>  (1) 
33.571677999999999

>  <r_lp_tautomer_probability>  (1) 
1

>  <s_epik_cmdline>  (1) 
J2VwaWtfcHl0aG9uJywgJy1waHQnLCAnMS4wJywgJy1waCcsICc3LjQnLCAnLXRuJywgJzgnLCAnLW1hJywgJzUwMCcsICctaW1hZScsICc8aW5maWxlLm1hZT4nLCAnLW9tYWUnLCAnPG91dGZpbGUubWFlPic=

>  <s_epik_input>  (1) 
Tz1bQ0hdW0NIMl1DKD1bQ0gyXSlbQ0BASF0oW0NASF0oW0NIMl1bQ0gyXTEpT1tDSDNdKVtDSDJdTjFbQ0gyXVtDQEBIXTJbQ0BASF0oW0NAQEhdMltPSF0pW0NAQEhdKFtDSDJdW09IXSlbQ0BASF0zT1tDQEhdKFtDSDJdW0NASF0zW09IXSlDND1bQ0hdW0NIMl1DKD1PKVtDSF09QzRbT0hd

>  <s_glide_docking_method>  (1) 
confgen

>  <s_i_glide_gridfile>  (1) 
gpcr_5ht2c_6bqh_protein_autoprepared_prepared

>  <s_lp_Force_Field>  (1) 
S-OPLS

>  <s_lp_Variant>  (1) 
DiffSBDD_80_num_sample_100-2

>  <s_m_source_file>  (1) 
generated__ligand_DiffSBDD_2026-05-06_prepared.sdf

>  <GenAI_Model>  (1) 
DiffSBDD

>  <Protein>  (1) 
GPCR_5HT2C

$$$$
DiffSBDD_71_num_sample_100
     RDKit          3D

  0  0  0  0  0  0  0  0  0  0999 V3000
M  V30 BEGIN CTAB
M  V30 COUNTS 57 61 0 0 1
M  V30 BEGIN ATOM
M  V30 1 C 37.650115 31.611407 60.351305 0 CFG=2
M  V30 2 C 40.339986 33.868677 62.296550 0
M  V30 3 C 36.976258 35.804807 60.210796 0
M  V30 4 N 38.100186 30.422690 59.628220 0
M  V30 5 C 37.867425 37.958549 61.058741 0
M  V30 6 C 37.432803 26.393011 55.465582 0
M  V30 7 C 39.033146 28.613498 53.325261 0
M  V30 8 C 39.030968 37.321837 61.853506 0
M  V30 9 C 36.448531 32.257642 59.693976 0
M  V30 10 C 37.405409 25.124921 56.069065 0
M  V30 11 C 39.775376 25.316348 56.555939 0
M  V30 12 N 38.353518 33.997456 60.874800 0
M  V30 13 C 37.194625 34.509141 60.246467 0
M  V30 14 O 37.750006 39.181782 61.053490 0
M  V30 15 C 40.210821 28.854642 58.403330 0
M  V30 16 C 36.852516 37.109820 60.280423 0
M  V30 17 C 39.804162 28.909330 50.757504 0
M  V30 18 C 38.612109 28.531560 54.800108 0 CFG=1
M  V30 19 C 39.004440 29.366487 57.582646 0 CFG=1
M  V30 20 C 39.220317 36.020447 61.849877 0
M  V30 21 C 38.384081 30.630688 58.206110 0
M  V30 22 C 38.621435 27.131460 55.412312 0
M  V30 23 C 39.262310 34.716816 61.668495 0
M  V30 24 C 39.805259 26.583471 55.942836 0
M  V30 25 S 39.911297 32.156801 61.927347 0
M  V30 26 N 39.867457 29.968583 51.603951 0
M  V30 27 S 39.520275 29.719839 55.863267 0
M  V30 28 C 38.951844 27.487466 52.485018 0
M  V30 29 C 39.348518 27.644405 51.155787 0
M  V30 30 C 38.803645 32.634661 60.570877 0 CFG=1
M  V30 31 N 39.467540 29.825458 52.884595 0
M  V30 32 C 38.575576 24.591187 56.623537 0
M  V30 33 C 36.258241 33.580837 59.650044 0
M  V30 34 H 37.308328 31.274040 61.329769 0
M  V30 35 H 40.393610 34.020075 63.375672 0
M  V30 36 H 41.309748 34.112170 61.860359 0
M  V30 37 H 37.407938 29.693080 59.716486 0
M  V30 38 H 36.534946 26.807545 55.053501 0
M  V30 39 H 39.688137 37.983537 62.398104 0
M  V30 40 H 35.722775 31.596945 59.241419 0
M  V30 41 H 36.481817 24.566627 56.113565 0
M  V30 42 H 40.667389 24.903393 56.978182 0
M  V30 43 H 39.910870 28.532659 59.400460 0
M  V30 44 H 40.971722 29.621407 58.524759 0
M  V30 45 H 40.700070 28.001012 57.943982 0
M  V30 46 H 36.029416 37.621348 59.808039 0
M  V30 47 H 40.124478 29.083054 49.740911 0
M  V30 48 H 37.578686 28.880006 54.823868 0
M  V30 49 H 38.238885 28.591032 57.570052 0
M  V30 50 H 37.467894 30.884371 57.670481 0
M  V30 51 H 39.067135 31.466506 58.068090 0
M  V30 52 H 40.729708 27.139799 55.897800 0
M  V30 53 H 38.594781 26.536570 52.850473 0
M  V30 54 H 39.307837 26.821296 50.458530 0
M  V30 55 H 39.412051 32.733070 59.673519 0
M  V30 56 H 38.556524 23.621858 57.098384 0
M  V30 57 H 35.374669 33.965557 59.159647 0
M  V30 END ATOM
M  V30 BEGIN BOND
M  V30 1 1 4 1
M  V30 2 1 8 5
M  V30 3 1 9 1
M  V30 4 1 10 6
M  V30 5 2 13 3
M  V30 6 1 13 12
M  V30 7 2 14 5
M  V30 8 2 16 3
M  V30 9 1 16 5
M  V30 10 1 18 7
M  V30 11 1 19 15
M  V30 12 2 20 8
M  V30 13 1 21 4
M  V30 14 1 21 19
M  V30 15 2 22 6
M  V30 16 1 22 18
M  V30 17 1 23 2
M  V30 18 1 23 12
M  V30 19 2 23 20
M  V30 20 2 24 11
M  V30 21 1 24 22
M  V30 22 1 25 2
M  V30 23 1 26 17
M  V30 24 1 27 18
M  V30 25 1 27 19
M  V30 26 2 28 7
M  V30 27 2 29 17
M  V30 28 1 29 28
M  V30 29 1 30 1
M  V30 30 1 30 12
M  V30 31 1 30 25
M  V30 32 1 31 7
M  V30 33 2 31 26
M  V30 34 2 32 10
M  V30 35 1 32 11
M  V30 36 2 33 9
M  V30 37 1 33 13
M  V30 38 1 1 34 CFG=1
M  V30 39 1 35 2
M  V30 40 1 36 2
M  V30 41 1 37 4
M  V30 42 1 38 6
M  V30 43 1 39 8
M  V30 44 1 40 9
M  V30 45 1 41 10
M  V30 46 1 42 11
M  V30 47 1 43 15
M  V30 48 1 44 15
M  V30 49 1 45 15
M  V30 50 1 46 16
M  V30 51 1 47 17
M  V30 52 1 18 48 CFG=3
M  V30 53 1 19 49 CFG=3
M  V30 54 1 50 21
M  V30 55 1 51 21
M  V30 56 1 52 24
M  V30 57 1 53 28
M  V30 58 1 54 29
M  V30 59 1 30 55 CFG=3
M  V30 60 1 56 32
M  V30 61 1 57 33
M  V30 END BOND
M  V30 END CTAB
M  END
>  <i_epik_Tot_Q>  (1) 
0

>  <i_epik_Tot_abs_Q>  (1) 
0

>  <i_i_glide_confnum>  (1) 
301

>  <i_i_glide_lignum>  (1) 
180

>  <i_i_glide_posenum>  (1) 
316

>  <i_i_glide_rotatable_bonds>  (1) 
7

>  <i_lp_mmshare_version>  (1) 
72125

>  <i_m_source_file_index>  (1) 
72

>  <i_f3d_flags>  (1) 
0

>  <num_sample>  (1) 
100

>  <b_lp_Chiralities_Consistent>  (1) 
1

>  <r_epik_Charging_Adjusted_Penalty>  (1) 
0.0075576566344756546

>  <r_epik_Ionization_Penalty>  (1) 
0.0075696552327297675

>  <r_epik_Ionization_Penalty_Charging>  (1) 
0

>  <r_epik_Ionization_Penalty_Neutral>  (1) 
0.0075696552327297675

>  <r_epik_State_Penalty>  (1) 
0.0075576566344756546

>  <r_glide_ring_energy>  (1) 
0

>  <r_i_docking_score>  (1) 
-9.00698734490134

>  <r_i_glide_ecoul>  (1) 
-1.2271077356864681

>  <r_i_glide_eff_state_penalty>  (1) 
0.0075576566344756546

>  <r_i_glide_einternal>  (1) 
11.219048069446997

>  <r_i_glide_emodel>  (1) 
-82.184094054786485

>  <r_i_glide_emodel_strain>  (1) 
0.15733088951355967

>  <r_i_glide_energy>  (1) 
-55.860204495869354

>  <r_i_glide_erotb>  (1) 
0.54314142718381586

>  <r_i_glide_esite>  (1) 
0

>  <r_i_glide_evdw>  (1) 
-54.633096760182887

>  <r_i_glide_gscore>  (1) 
-9.0145450015358151

>  <r_i_glide_gscore_strain>  (1) 
0

>  <r_i_glide_hbond>  (1) 
0

>  <r_i_glide_ligand_efficiency>  (1) 
-0.27293901045155577

>  <r_i_glide_ligand_efficiency_ln>  (1) 
-2.0031073498214744

>  <r_i_glide_ligand_efficiency_sa>  (1) 
-0.87546124601845488

>  <r_i_glide_lipo>  (1) 
-5.2585681556255706

>  <r_i_glide_metal>  (1) 
-0

>  <r_i_glide_rewards>  (1) 
-1.3833972747319445

>  <r_lp_Energy>  (1) 
30.938364999999997

>  <r_lp_tautomer_probability>  (1) 
1

>  <s_epik_Chemistry_Notes>  (1) 
This compound contains an acetal/aminal-like group ( X-CH(R)-Y where X, Y are N, S, or O) that may be acid/base labile, releasing an aldehyde.

>  <s_epik_cmdline>  (1) 
J2VwaWtfcHl0aG9uJywgJy1waHQnLCAnMS4wJywgJy1waCcsICc3LjQnLCAnLXRuJywgJzgnLCAnLW1hJywgJzUwMCcsICctaW1hZScsICc8aW5maWxlLm1hZT4nLCAnLW9tYWUnLCAnPG91dGZpbGUubWFlPic=

>  <s_epik_input>  (1) 
W2NIXTFbY0hdW2NIXVtjSF1bY0hdYzFbQ0BIXShjMltjSF1bY0hdW2NIXW5uMilTW0NAQEhdKFtDSDNdKVtDSDJdW05IXVtDQEhdKFtDSF09W0NIXTMpW0NAQEhdNFNbQ0gyXUM1PUM9W0NIXUMoPU8pW0NIXT1DPUMzTjQ1

>  <s_glide_docking_method>  (1) 
confgen

>  <s_i_glide_gridfile>  (1) 
gpcr_5ht2c_6bqh_protein_autoprepared_prepared

>  <s_lp_Force_Field>  (1) 
S-OPLS

>  <s_lp_Variant>  (1) 
DiffSBDD_71_num_sample_100-1

>  <s_m_source_file>  (1) 
generated__ligand_DiffSBDD_2026-05-06_prepared.sdf

>  <GenAI_Model>  (1) 
DiffSBDD

>  <Protein>  (1) 
GPCR_5HT2C

$$$$
DiffSBDD_80_num_sample_100
     RDKit          3D

  0  0  0  0  0  0  0  0  0  0999 V3000
M  V30 BEGIN CTAB
M  V30 COUNTS 73 76 0 0 1
M  V30 BEGIN ATOM
M  V30 1 C 40.473141 27.965182 59.754261 0
M  V30 2 C 39.110791 31.190876 60.933335 0
M  V30 3 N 38.990255 32.661851 60.843709 0 CFG=1 CHG=1
M  V30 4 O 39.231916 29.184048 56.363396 0
M  V30 5 O 38.667403 31.555294 58.047588 0
M  V30 6 O 40.667371 28.542565 61.028315 0
M  V30 7 C 39.002338 35.539275 61.425149 0 CFG=2
M  V30 8 C 37.663039 34.746130 61.330781 0 CFG=1
M  V30 9 C 39.948040 30.390827 52.385045 0
M  V30 10 C 38.895699 26.969437 55.666949 0
M  V30 11 O 37.620267 26.977378 53.053501 0
M  V30 12 C 38.390982 28.084748 52.840873 0
M  V30 13 O 35.067404 32.125390 60.340663 0
M  V30 14 C 39.613964 30.021434 53.701800 0
M  V30 15 C 36.349268 33.843992 59.260839 0
M  V30 16 C 38.735416 28.456598 51.525627 0
M  V30 17 O 39.982807 25.869212 57.495456 0
M  V30 18 C 40.160762 34.811514 60.704448 0
M  V30 19 O 39.867403 29.958036 50.026577 0
M  V30 20 C 36.847485 35.044925 60.053588 0
M  V30 21 C 39.522041 29.604200 51.299273 0
M  V30 22 C 39.865466 28.329218 57.317955 0 CFG=1
M  V30 23 C 38.037036 30.454861 60.142566 0 CFG=2
M  V30 24 C 39.816464 28.925144 58.744950 0 CFG=1
M  V30 25 C 37.920429 33.248656 61.678433 0
M  V30 26 C 39.171232 26.973242 57.145165 0 CFG=1
M  V30 27 C 35.068702 33.254491 59.853432 0
M  V30 28 C 38.398262 29.349424 59.149543 0 CFG=2
M  V30 29 C 36.579790 36.302698 59.658945 0
M  V30 30 C 40.144646 36.776701 63.132151 0
M  V30 31 C 37.784018 30.637300 58.657030 0 CFG=2
M  V30 32 C 38.525573 28.431201 55.371381 0 CFG=2
M  V30 33 C 38.848223 28.857747 53.937994 0
M  V30 34 C 40.264047 33.346505 61.146465 0
M  V30 35 O 39.312977 35.671366 62.805886 0
M  V30 36 H 39.867406 27.068296 59.853502 0
M  V30 37 H 41.448800 27.646843 59.383856 0
M  V30 38 H 39.096139 30.859501 61.972778 0
M  V30 39 H 40.083458 30.915118 60.540101 0
M  V30 40 H 38.696690 31.346234 57.122612 0
M  V30 41 H 41.132906 27.919469 61.568883 0
M  V30 42 H 38.881847 36.537801 61.007475 0
M  V30 43 H 37.012233 35.146344 62.110186 0
M  V30 44 H 40.543909 31.274070 52.208754 0
M  V30 45 H 39.243875 29.652288 49.380272 0
M  V30 46 H 38.118052 26.254532 55.398523 0
M  V30 47 H 39.803296 26.702417 55.121729 0
M  V30 48 H 37.209397 26.623392 52.271716 0
M  V30 49 H 39.958885 30.621241 54.530307 0
M  V30 50 H 36.119025 34.163047 58.245132 0
M  V30 51 H 37.116629 33.088013 59.167822 0
M  V30 52 H 38.398977 27.860260 50.690626 0
M  V30 53 H 40.800251 25.919516 57.018153 0
M  V30 54 H 41.108451 35.325122 60.865665 0
M  V30 55 H 39.991233 34.821432 59.631604 0
M  V30 56 H 40.906308 28.234926 57.001363 0
M  V30 57 H 37.122507 30.316031 60.713111 0
M  V30 58 H 40.439496 29.809566 58.706633 0
M  V30 59 H 37.017862 32.650827 61.659309 0
M  V30 60 H 38.267409 33.168597 62.701887 0
M  V30 61 H 38.227423 26.926726 57.687584 0
M  V30 62 H 34.187477 33.894359 59.807561 0
M  V30 63 H 37.721126 28.503980 59.175216 0
M  V30 64 H 36.005957 36.493075 58.762957 0
M  V30 65 H 36.927820 37.153783 60.224551 0
M  V30 66 H 40.267484 36.820538 64.213889 0
M  V30 67 H 41.134821 36.692754 62.684374 0
M  V30 68 H 39.698051 37.720543 62.818124 0
M  V30 69 H 36.766197 30.644753 58.271424 0
M  V30 70 H 37.467407 28.590105 55.552047 0
M  V30 71 H 40.486465 33.286376 62.213226 0
M  V30 72 H 41.080294 32.826102 60.653502 0
M  V30 73 H 38.773087 32.840782 59.869878 0
M  V30 END ATOM
M  V30 BEGIN BOND
M  V30 1 1 3 2
M  V30 2 1 6 1
M  V30 3 1 8 7
M  V30 4 1 12 11
M  V30 5 2 14 9
M  V30 6 1 16 12
M  V30 7 1 18 7
M  V30 8 1 20 8
M  V30 9 1 20 15
M  V30 10 1 21 9
M  V30 11 2 21 16
M  V30 12 1 21 19
M  V30 13 1 22 4
M  V30 14 1 23 2
M  V30 15 1 24 1
M  V30 16 1 24 22
M  V30 17 1 25 3
M  V30 18 1 25 8
M  V30 19 1 26 10
M  V30 20 1 26 17
M  V30 21 1 26 22
M  V30 22 2 27 13
M  V30 23 1 27 15
M  V30 24 1 28 23
M  V30 25 1 28 24
M  V30 26 2 29 20
M  V30 27 1 31 5
M  V30 28 1 31 23
M  V30 29 1 31 28
M  V30 30 1 32 4
M  V30 31 1 32 10
M  V30 32 2 33 12
M  V30 33 1 33 14
M  V30 34 1 33 32
M  V30 35 1 34 3
M  V30 36 1 34 18
M  V30 37 1 35 7
M  V30 38 1 35 30
M  V30 39 1 36 1
M  V30 40 1 37 1
M  V30 41 1 38 2
M  V30 42 1 39 2
M  V30 43 1 40 5
M  V30 44 1 41 6
M  V30 45 1 7 42 CFG=3
M  V30 46 1 8 43 CFG=1
M  V30 47 1 44 9
M  V30 48 1 45 19
M  V30 49 1 46 10
M  V30 50 1 47 10
M  V30 51 1 48 11
M  V30 52 1 49 14
M  V30 53 1 50 15
M  V30 54 1 51 15
M  V30 55 1 52 16
M  V30 56 1 53 17
M  V30 57 1 54 18
M  V30 58 1 55 18
M  V30 59 1 22 56 CFG=3
M  V30 60 1 23 57 CFG=1
M  V30 61 1 24 58 CFG=3
M  V30 62 1 59 25
M  V30 63 1 60 25
M  V30 64 1 26 61 CFG=1
M  V30 65 1 62 27
M  V30 66 1 28 63 CFG=1
M  V30 67 1 64 29
M  V30 68 1 65 29
M  V30 69 1 66 30
M  V30 70 1 67 30
M  V30 71 1 68 30
M  V30 72 1 31 69 CFG=1
M  V30 73 1 32 70 CFG=1
M  V30 74 1 71 34
M  V30 75 1 72 34
M  V30 76 1 3 73 CFG=3
M  V30 END BOND
M  V30 END CTAB
M  END
>  <i_epik_Tot_Q>  (1) 
1

>  <i_epik_Tot_abs_Q>  (1) 
1

>  <i_i_glide_confnum>  (1) 
820

>  <i_i_glide_lignum>  (1) 
208

>  <i_i_glide_posenum>  (1) 
155

>  <i_i_glide_rotatable_bonds>  (1) 
15

>  <i_lp_mmshare_version>  (1) 
72125

>  <i_m_source_file_index>  (1) 
81

>  <i_f3d_flags>  (1) 
0

>  <num_sample>  (1) 
100

>  <b_lp_Chiralities_Consistent>  (1) 
1

>  <r_epik_Charging_Adjusted_Penalty>  (1) 
0.034071705691259377

>  <r_epik_Ionization_Penalty>  (1) 
0.043305258844254187

>  <r_epik_Ionization_Penalty_Charging>  (1) 
0.034071705691259377

>  <r_epik_Ionization_Penalty_Neutral>  (1) 
0.009233553152994808

>  <r_epik_State_Penalty>  (1) 
-0

>  <r_glide_ring_energy>  (1) 
0

>  <r_i_docking_score>  (1) 
-9.003632587049168

>  <r_i_glide_ecoul>  (1) 
-9.9879685957858619

>  <r_i_glide_eff_state_penalty>  (1) 
-0

>  <r_i_glide_einternal>  (1) 
12.949519310158696

>  <r_i_glide_emodel>  (1) 
-74.83124743707647

>  <r_i_glide_emodel_strain>  (1) 
0.78255334661153597

>  <r_i_glide_energy>  (1) 
-55.017023254385904

>  <r_i_glide_erotb>  (1) 
0.67144220787932085

>  <r_i_glide_esite>  (1) 
-0.035954739545076796

>  <r_i_glide_evdw>  (1) 
-45.029054658600046

>  <r_i_glide_gscore>  (1) 
-9.003632587049168

>  <r_i_glide_gscore_strain>  (1) 
0

>  <r_i_glide_hbond>  (1) 
-0.64953829033996457

>  <r_i_glide_ligand_efficiency>  (1) 
-0.25724664534426195

>  <r_i_glide_ligand_efficiency_ln>  (1) 
-1.9764971777162834

>  <r_i_glide_ligand_efficiency_sa>  (1) 
-0.84147083499464781

>  <r_i_glide_lipo>  (1) 
-4.4501263188741804

>  <r_i_glide_metal>  (1) 
-0

>  <r_i_glide_rewards>  (1) 
-0.78980742387138514

>  <r_lp_Energy>  (1) 
34.743352000000002

>  <r_lp_tautomer_probability>  (1) 
1

>  <s_epik_cmdline>  (1) 
J2VwaWtfcHl0aG9uJywgJy1waHQnLCAnMS4wJywgJy1waCcsICc3LjQnLCAnLXRuJywgJzgnLCAnLW1hJywgJzUwMCcsICctaW1hZScsICc8aW5maWxlLm1hZT4nLCAnLW9tYWUnLCAnPG91dGZpbGUubWFlPic=

>  <s_epik_input>  (1) 
Tz1bQ0hdW0NIMl1DKD1bQ0gyXSlbQ0BASF0oW0NASF0oW0NIMl1bQ0gyXTEpT1tDSDNdKVtDSDJdTjFbQ0gyXVtDQEBIXTJbQ0BASF0oW0NAQEhdMltPSF0pW0NAQEhdKFtDSDJdW09IXSlbQ0BASF0zT1tDQEhdKFtDSDJdW0NASF0zW09IXSlDND1bQ0hdW0NIMl1DKD1PKVtDSF09QzRbT0hd

>  <s_glide_docking_method>  (1) 
confgen

>  <s_i_glide_gridfile>  (1) 
gpcr_5ht2c_6bqh_protein_autoprepared_prepared

>  <s_lp_Force_Field>  (1) 
S-OPLS

>  <s_lp_Variant>  (1) 
DiffSBDD_80_num_sample_100-4

>  <s_m_source_file>  (1) 
generated__ligand_DiffSBDD_2026-05-06_prepared.sdf

>  <GenAI_Model>  (1) 
DiffSBDD

>  <Protein>  (1) 
GPCR_5HT2C

$$$$
DiffSBDD_80_num_sample_100
     RDKit          3D

  0  0  0  0  0  0  0  0  0  0999 V3000
M  V30 BEGIN CTAB
M  V30 COUNTS 73 76 0 0 1
M  V30 BEGIN ATOM
M  V30 1 C 37.948920 30.799124 60.892460 0
M  V30 2 C 40.144607 34.565955 62.513451 0
M  V30 3 N 40.706942 34.268967 63.852941 0 CFG=2 CHG=1
M  V30 4 O 39.067485 30.929200 57.646266 0
M  V30 5 O 38.080223 35.326191 60.594958 0
M  V30 6 O 36.608841 31.221496 61.053503 0
M  V30 7 C 42.667282 33.877178 65.984459 0 CFG=2
M  V30 8 C 41.864562 35.209652 65.882042 0 CFG=2
M  V30 9 C 39.468011 29.729690 52.957257 0
M  V30 10 C 38.295672 32.737467 56.334666 0
M  V30 11 O 37.067400 29.621438 56.374831 0
M  V30 12 C 37.856973 29.653835 55.265329 0
M  V30 13 O 40.667558 38.777626 67.853468 0
M  V30 14 C 39.732141 30.604701 54.029177 0
M  V30 15 C 39.958173 36.755505 66.763614 0
M  V30 16 C 37.599575 28.772738 54.192231 0
M  V30 17 O 37.067639 33.796519 58.142776 0
M  V30 18 C 41.913998 32.688078 65.344071 0
M  V30 19 O 38.162031 27.963182 51.998106 0
M  V30 20 C 40.662764 35.401244 66.838383 0
M  V30 21 C 38.407059 28.812220 53.039110 0
M  V30 22 C 38.276200 31.745528 58.513863 0 CFG=1
M  V30 23 C 39.102585 33.555162 62.032184 0 CFG=2
M  V30 24 C 38.788666 31.736591 59.994684 0 CFG=1
M  V30 25 C 41.497717 35.409532 64.389186 0
M  V30 26 C 38.241559 33.095974 57.801483 0 CFG=1
M  V30 27 C 40.266631 37.621244 67.985929 0
M  V30 28 C 39.065570 33.140064 60.566195 0 CFG=1
M  V30 29 C 40.251040 34.445053 67.694205 0
M  V30 30 C 44.211186 32.790450 67.463375 0
M  V30 31 C 37.978107 34.021443 61.119990 0 CFG=2
M  V30 32 C 39.214492 31.523095 56.343146 0 CFG=2
M  V30 33 C 38.928964 30.568668 55.186802 0
M  V30 34 C 41.490804 33.008636 63.902332 0
M  V30 35 O 43.067355 33.621430 67.326398 0
M  V30 36 H 37.938829 29.801929 60.450531 0
M  V30 37 H 38.405525 30.691456 61.876314 0
M  V30 38 H 40.951621 34.646673 61.783338 0
M  V30 39 H 39.668009 35.545936 62.560559 0
M  V30 40 H 37.671346 35.314064 59.737096 0
M  V30 41 H 36.201711 31.275761 60.199572 0
M  V30 42 H 43.569651 34.021358 65.392732 0
M  V30 43 H 42.553230 36.013050 66.150332 0
M  V30 44 H 40.086429 29.760439 52.072145 0
M  V30 45 H 37.424896 27.379175 52.114512 0
M  V30 46 H 38.657912 33.546516 55.699499 0
M  V30 47 H 37.317690 32.447465 55.964451 0
M  V30 48 H 36.760324 30.480465 56.653526 0
M  V30 49 H 40.551497 31.302362 53.962262 0
M  V30 50 H 40.230134 37.314013 65.871849 0
M  V30 51 H 38.880366 36.595566 66.726078 0
M  V30 52 H 36.780665 28.071164 54.253625 0
M  V30 53 H 36.333029 33.320959 57.763999 0
M  V30 54 H 41.031435 32.418068 65.920716 0
M  V30 55 H 42.545378 31.799764 65.334819 0
M  V30 56 H 37.270364 31.325143 58.474779 0
M  V30 57 H 38.795498 32.821854 62.774116 0
M  V30 58 H 39.767058 31.260717 59.978387 0
M  V30 59 H 42.410239 35.519488 63.801640 0
M  V30 60 H 40.954384 36.339685 64.235748 0
M  V30 61 H 39.134761 33.667335 58.020277 0
M  V30 62 H 40.099022 37.149230 68.953564 0
M  V30 63 H 39.854341 33.635308 60.004444 0
M  V30 64 H 39.408126 34.615403 68.347914 0
M  V30 65 H 40.743390 33.490172 67.756041 0
M  V30 66 H 44.465212 32.698756 68.519442 0
M  V30 67 H 44.035029 31.786650 67.077136 0
M  V30 68 H 45.075837 33.216604 66.953644 0
M  V30 69 H 36.961918 33.668314 61.267397 0
M  V30 70 H 40.242167 31.875075 56.253502 0
M  V30 71 H 40.908922 32.174114 63.511003 0
M  V30 72 H 42.368656 33.100678 63.261024 0
M  V30 73 H 39.918453 34.153209 64.473364 0
M  V30 END ATOM
M  V30 BEGIN BOND
M  V30 1 1 3 2
M  V30 2 1 6 1
M  V30 3 1 8 7
M  V30 4 1 12 11
M  V30 5 2 14 9
M  V30 6 1 16 12
M  V30 7 1 18 7
M  V30 8 1 20 8
M  V30 9 1 20 15
M  V30 10 1 21 9
M  V30 11 2 21 16
M  V30 12 1 21 19
M  V30 13 1 22 4
M  V30 14 1 23 2
M  V30 15 1 24 1
M  V30 16 1 24 22
M  V30 17 1 25 3
M  V30 18 1 25 8
M  V30 19 1 26 10
M  V30 20 1 26 17
M  V30 21 1 26 22
M  V30 22 2 27 13
M  V30 23 1 27 15
M  V30 24 1 28 23
M  V30 25 1 28 24
M  V30 26 2 29 20
M  V30 27 1 31 5
M  V30 28 1 31 23
M  V30 29 1 31 28
M  V30 30 1 32 4
M  V30 31 1 32 10
M  V30 32 2 33 12
M  V30 33 1 33 14
M  V30 34 1 33 32
M  V30 35 1 34 3
M  V30 36 1 34 18
M  V30 37 1 35 7
M  V30 38 1 35 30
M  V30 39 1 36 1
M  V30 40 1 37 1
M  V30 41 1 38 2
M  V30 42 1 39 2
M  V30 43 1 40 5
M  V30 44 1 41 6
M  V30 45 1 7 42 CFG=3
M  V30 46 1 8 43 CFG=1
M  V30 47 1 44 9
M  V30 48 1 45 19
M  V30 49 1 46 10
M  V30 50 1 47 10
M  V30 51 1 48 11
M  V30 52 1 49 14
M  V30 53 1 50 15
M  V30 54 1 51 15
M  V30 55 1 52 16
M  V30 56 1 53 17
M  V30 57 1 54 18
M  V30 58 1 55 18
M  V30 59 1 22 56 CFG=1
M  V30 60 1 23 57 CFG=1
M  V30 61 1 24 58 CFG=3
M  V30 62 1 59 25
M  V30 63 1 60 25
M  V30 64 1 26 61 CFG=1
M  V30 65 1 62 27
M  V30 66 1 28 63 CFG=3
M  V30 67 1 64 29
M  V30 68 1 65 29
M  V30 69 1 66 30
M  V30 70 1 67 30
M  V30 71 1 68 30
M  V30 72 1 31 69 CFG=1
M  V30 73 1 32 70 CFG=3
M  V30 74 1 71 34
M  V30 75 1 72 34
M  V30 76 1 3 73 CFG=1
M  V30 END BOND
M  V30 END CTAB
M  END
>  <i_epik_Tot_Q>  (1) 
1

>  <i_epik_Tot_abs_Q>  (1) 
1

>  <i_i_glide_confnum>  (1) 
40

>  <i_i_glide_lignum>  (1) 
209

>  <i_i_glide_posenum>  (1) 
200

>  <i_i_glide_rotatable_bonds>  (1) 
15

>  <i_lp_mmshare_version>  (1) 
72125

>  <i_m_source_file_index>  (1) 
81

>  <i_f3d_flags>  (1) 
0

>  <num_sample>  (1) 
100

>  <b_lp_Chiralities_Consistent>  (1) 
1

>  <r_epik_Charging_Adjusted_Penalty>  (1) 
0.034071705691259377

>  <r_epik_Ionization_Penalty>  (1) 
0.043305258844254187

>  <r_epik_Ionization_Penalty_Charging>  (1) 
0.034071705691259377

>  <r_epik_Ionization_Penalty_Neutral>  (1) 
0.009233553152994808

>  <r_epik_State_Penalty>  (1) 
-0

>  <r_glide_ring_energy>  (1) 
0

>  <r_i_docking_score>  (1) 
-8.9895875472073641

>  <r_i_glide_ecoul>  (1) 
-13.631372694073718

>  <r_i_glide_eff_state_penalty>  (1) 
-0

>  <r_i_glide_einternal>  (1) 
20.494967754808307

>  <r_i_glide_emodel>  (1) 
-67.863563993202007

>  <r_i_glide_emodel_strain>  (1) 
3.9038264927791033

>  <r_i_glide_energy>  (1) 
-57.00992131642834

>  <r_i_glide_erotb>  (1) 
0.67144220787932085

>  <r_i_glide_esite>  (1) 
0

>  <r_i_glide_evdw>  (1) 
-43.378548622354622

>  <r_i_glide_gscore>  (1) 
-8.9895875472073641

>  <r_i_glide_gscore_strain>  (1) 
0

>  <r_i_glide_hbond>  (1) 
-1.109830712543721

>  <r_i_glide_ligand_efficiency>  (1) 
-0.25684535849163898

>  <r_i_glide_ligand_efficiency_ln>  (1) 
-1.9734139797581429

>  <r_i_glide_ligand_efficiency_sa>  (1) 
-0.8401581990903112

>  <r_i_glide_lipo>  (1) 
-3.5051322580638167

>  <r_i_glide_metal>  (1) 
-0

>  <r_i_glide_rewards>  (1) 
-0.83243344925035889

>  <r_lp_Energy>  (1) 
30.626286999999998

>  <r_lp_tautomer_probability>  (1) 
1

>  <s_epik_cmdline>  (1) 
J2VwaWtfcHl0aG9uJywgJy1waHQnLCAnMS4wJywgJy1waCcsICc3LjQnLCAnLXRuJywgJzgnLCAnLW1hJywgJzUwMCcsICctaW1hZScsICc8aW5maWxlLm1hZT4nLCAnLW9tYWUnLCAnPG91dGZpbGUubWFlPic=

>  <s_epik_input>  (1) 
Tz1bQ0hdW0NIMl1DKD1bQ0gyXSlbQ0BASF0oW0NASF0oW0NIMl1bQ0gyXTEpT1tDSDNdKVtDSDJdTjFbQ0gyXVtDQEBIXTJbQ0BASF0oW0NAQEhdMltPSF0pW0NAQEhdKFtDSDJdW09IXSlbQ0BASF0zT1tDQEhdKFtDSDJdW0NASF0zW09IXSlDND1bQ0hdW0NIMl1DKD1PKVtDSF09QzRbT0hd

>  <s_glide_docking_method>  (1) 
confgen

>  <s_i_glide_gridfile>  (1) 
gpcr_5ht2c_6bqh_protein_autoprepared_prepared

>  <s_lp_Force_Field>  (1) 
S-OPLS

>  <s_lp_Variant>  (1) 
DiffSBDD_80_num_sample_100-5

>  <s_m_source_file>  (1) 
generated__ligand_DiffSBDD_2026-05-06_prepared.sdf

>  <GenAI_Model>  (1) 
DiffSBDD

>  <Protein>  (1) 
GPCR_5HT2C

$$$$
DiffSBDD_33_num_sample_100
     RDKit          3D

  0  0  0  0  0  0  0  0  0  0999 V3000
M  V30 BEGIN CTAB
M  V30 COUNTS 54 57 0 0 1
M  V30 BEGIN ATOM
M  V30 1 O 37.977565 30.002327 59.113883 0
M  V30 2 O 37.884270 27.922490 54.530975 0
M  V30 3 C 39.849922 26.151703 56.103445 0
M  V30 4 C 38.274977 31.952350 61.205567 0
M  V30 5 C 38.710718 29.646002 60.034813 0
M  V30 6 N 39.468286 28.539118 59.974044 0
M  V30 7 C 36.992333 32.313705 60.765842 0
M  V30 8 C 38.267299 28.139704 55.889701 0
M  V30 9 O 39.079845 25.400830 56.702764 0
M  V30 10 C 39.456495 27.643957 58.818183 0
M  V30 11 O 41.573890 28.000554 57.736750 0
M  V30 12 C 37.250455 36.041932 61.006480 0
M  V30 13 C 39.198543 32.901171 61.566472 0
M  V30 14 F 40.605251 30.131549 50.212416 0
M  V30 15 C 40.194695 30.938386 61.837565 0
M  V30 16 C 36.653911 33.685442 60.691513 0
M  V30 17 F 39.114748 30.471060 54.737471 0
M  V30 18 C 39.712481 27.680316 56.214051 0 CFG=1
M  V30 19 C 39.828441 35.311340 61.920679 0
M  V30 20 C 40.185606 28.238080 57.585964 0 CFG=1
M  V30 21 C 39.334412 28.341316 51.156990 0
M  V30 22 C 38.781885 30.460600 61.338101 0 CFG=1
M  V30 23 C 39.867407 30.317721 52.479233 0
M  V30 24 C 39.182405 29.771381 53.582614 0
M  V30 25 C 37.601423 34.679981 61.072444 0
M  V30 26 C 38.567765 28.492215 53.472051 0
M  V30 27 C 39.944230 29.603285 51.269287 0
M  V30 28 C 38.170765 37.030259 61.397350 0
M  V30 29 C 38.899405 34.296920 61.525716 0
M  V30 30 C 38.646299 27.788957 52.253455 0
M  V30 31 O 41.070570 34.996874 62.373593 0
M  V30 32 C 39.451769 36.667102 61.853522 0
M  V30 33 C 40.369036 32.247515 61.944577 0
M  V30 34 H 40.661987 25.798231 55.468065 0
M  V30 35 H 40.053016 28.293263 60.758985 0
M  V30 36 H 36.274973 31.557057 60.482494 0
M  V30 37 H 37.564991 27.559078 56.487926 0
M  V30 38 H 38.073014 29.163183 56.204144 0
M  V30 39 H 39.874878 26.677779 59.097608 0
M  V30 40 H 38.412100 27.437990 58.582070 0
M  V30 41 H 42.039871 28.409398 57.023187 0
M  V30 42 H 36.269712 36.329508 60.658177 0
M  V30 43 H 40.960796 30.216254 62.076164 0
M  V30 44 H 35.671252 33.978141 60.350095 0
M  V30 45 H 40.370434 28.103908 55.456526 0
M  V30 46 H 40.054165 29.320478 57.558376 0
M  V30 47 H 39.392373 27.795472 50.227969 0
M  V30 48 H 38.268180 29.958598 62.155065 0
M  V30 49 H 40.334150 31.287418 52.561993 0
M  V30 50 H 37.893253 38.072741 61.347346 0
M  V30 51 H 38.177003 26.821452 52.160954 0
M  V30 52 H 41.111422 34.119309 62.714126 0
M  V30 53 H 40.151461 37.433554 62.153941 0
M  V30 54 H 41.264495 32.739899 62.265707 0
M  V30 END ATOM
M  V30 BEGIN BOND
M  V30 1 2 5 1
M  V30 2 1 6 5
M  V30 3 1 7 4
M  V30 4 1 8 2
M  V30 5 2 9 3
M  V30 6 1 10 6
M  V30 7 2 13 4
M  V30 8 2 16 7
M  V30 9 1 18 3
M  V30 10 1 18 8
M  V30 11 1 20 10
M  V30 12 1 20 11
M  V30 13 1 20 18
M  V30 14 1 22 4
M  V30 15 1 22 5
M  V30 16 1 22 15
M  V30 17 1 24 17
M  V30 18 1 24 23
M  V30 19 2 25 12
M  V30 20 1 25 16
M  V30 21 1 26 2
M  V30 22 2 26 24
M  V30 23 1 27 14
M  V30 24 1 27 21
M  V30 25 2 27 23
M  V30 26 1 28 12
M  V30 27 1 29 13
M  V30 28 2 29 19
M  V30 29 1 29 25
M  V30 30 2 30 21
M  V30 31 1 30 26
M  V30 32 1 31 19
M  V30 33 1 32 19
M  V30 34 2 32 28
M  V30 35 1 33 13
M  V30 36 2 33 15
M  V30 37 1 34 3
M  V30 38 1 35 6
M  V30 39 1 36 7
M  V30 40 1 37 8
M  V30 41 1 38 8
M  V30 42 1 39 10
M  V30 43 1 40 10
M  V30 44 1 41 11
M  V30 45 1 42 12
M  V30 46 1 43 15
M  V30 47 1 44 16
M  V30 48 1 18 45 CFG=3
M  V30 49 1 20 46 CFG=3
M  V30 50 1 47 21
M  V30 51 1 22 48 CFG=1
M  V30 52 1 49 23
M  V30 53 1 50 28
M  V30 54 1 51 30
M  V30 55 1 52 31
M  V30 56 1 53 32
M  V30 57 1 54 33
M  V30 END BOND
M  V30 END CTAB
M  END
>  <i_epik_Tot_Q>  (1) 
0

>  <i_epik_Tot_abs_Q>  (1) 
0

>  <i_i_glide_confnum>  (1) 
205

>  <i_i_glide_lignum>  (1) 
88

>  <i_i_glide_posenum>  (1) 
320

>  <i_i_glide_rotatable_bonds>  (1) 
11

>  <i_lp_mmshare_version>  (1) 
72125

>  <i_m_source_file_index>  (1) 
34

>  <i_f3d_flags>  (1) 
0

>  <num_sample>  (1) 
100

>  <b_lp_Chiralities_Consistent>  (1) 
1

>  <r_epik_Charging_Adjusted_Penalty>  (1) 
0.017498169133041582

>  <r_epik_Ionization_Penalty>  (1) 
0.017508665323932474

>  <r_epik_Ionization_Penalty_Charging>  (1) 
0

>  <r_epik_Ionization_Penalty_Neutral>  (1) 
0.017508665323932474

>  <r_epik_State_Penalty>  (1) 
0.017498169133041582

>  <r_glide_ring_energy>  (1) 
0

>  <r_i_docking_score>  (1) 
-8.9867197990480641

>  <r_i_glide_ecoul>  (1) 
0.931861477180154

>  <r_i_glide_eff_state_penalty>  (1) 
0.017498169133041582

>  <r_i_glide_einternal>  (1) 
19.963590751899588

>  <r_i_glide_emodel>  (1) 
-71.616776756330921

>  <r_i_glide_emodel_strain>  (1) 
0.16050465987711959

>  <r_i_glide_energy>  (1) 
-53.854620122640874

>  <r_i_glide_erotb>  (1) 
0.68337992358868593

>  <r_i_glide_esite>  (1) 
0

>  <r_i_glide_evdw>  (1) 
-54.78648159982103

>  <r_i_glide_gscore>  (1) 
-9.0042179681811056

>  <r_i_glide_gscore_strain>  (1) 
0

>  <r_i_glide_hbond>  (1) 
0

>  <r_i_glide_ligand_efficiency>  (1) 
-0.27232484239539589

>  <r_i_glide_ligand_efficiency_ln>  (1) 
-1.9985999525634419

>  <r_i_glide_ligand_efficiency_sa>  (1) 
-0.87349128089393524

>  <r_i_glide_lipo>  (1) 
-4.7121240983901957

>  <r_i_glide_metal>  (1) 
-0

>  <r_i_glide_rewards>  (1) 
-2.3759289349655668

>  <r_lp_Energy>  (1) 
35.553354999999996

>  <r_lp_tautomer_probability>  (1) 
0.99990000499974985

>  <s_epik_cmdline>  (1) 
J2VwaWtfcHl0aG9uJywgJy1waHQnLCAnMS4wJywgJy1waCcsICc3LjQnLCAnLXRuJywgJzgnLCAnLW1hJywgJzUwMCcsICctaW1hZScsICc8aW5maWxlLm1hZT4nLCAnLW9tYWUnLCAnPG91dGZpbGUubWFlPic=

>  <s_epik_input>  (1) 
W09IXWMxW2NIXVtjSF1bY0hdYyhbY0hdW2NIXTIpYzFjKGMyMylbQ0hdPVtDSF1bQ0BASF0zQyg9TylbTkhdW0NIMl1bQ0BASF0oW09IXSlbQ0BASF0oW0NIXT1PKVtDSDJdT2M0W2NIXVtjSF1jKEYpW2NIXWM0Rg==

>  <s_glide_docking_method>  (1) 
confgen

>  <s_i_glide_gridfile>  (1) 
gpcr_5ht2c_6bqh_protein_autoprepared_prepared

>  <s_lp_Force_Field>  (1) 
S-OPLS

>  <s_lp_Variant>  (1) 
DiffSBDD_33_num_sample_100-1

>  <s_m_source_file>  (1) 
generated__ligand_DiffSBDD_2026-05-06_prepared.sdf

>  <GenAI_Model>  (1) 
DiffSBDD

>  <Protein>  (1) 
GPCR_5HT2C

$$$$
DiffSBDD_10_num_sample_100
     RDKit          3D

  0  0  0  0  0  0  0  0  0  0999 V3000
M  V30 BEGIN CTAB
M  V30 COUNTS 89 92 0 0 1
M  V30 BEGIN ATOM
M  V30 1 C 38.914039 34.844637 60.690751 0
M  V30 2 C 40.894411 28.412956 60.601178 0
M  V30 3 C 40.862620 28.381988 57.311444 0
M  V30 4 C 38.182973 30.245453 54.392936 0 CFG=2
M  V30 5 C 40.035695 31.702524 61.993138 0
M  V30 6 C 38.480850 30.378783 56.730269 0 CFG=1
M  V30 7 C 38.916758 27.657464 52.640608 0
M  V30 8 C 40.687570 29.357983 61.791987 0
M  V30 9 O 41.067374 36.821433 61.453503 0
M  V30 10 O 40.754667 34.324572 64.005499 0
M  V30 11 C 37.939620 37.093614 61.644246 0
M  V30 12 C 38.306190 36.958873 63.126909 0
M  V30 13 O 40.043365 25.872218 56.557516 0
M  V30 14 C 40.728580 34.796351 62.676257 0 CFG=2
M  V30 15 C 39.782083 37.164845 63.488558 0
M  V30 16 N 40.107501 32.877657 61.362114 0
M  V30 17 C 39.160762 26.545900 57.088247 0
M  V30 18 C 38.850888 28.416353 58.858800 0 CFG=2
M  V30 19 C 39.353658 28.057814 57.401542 0 CFG=1
M  V30 20 C 38.902727 28.930051 51.754401 0 CFG=2
M  V30 21 C 39.497270 28.560428 50.385798 0
M  V30 22 C 38.247064 27.749068 54.023523 0
M  V30 23 C 37.759928 30.606781 58.050572 0
M  V30 24 C 38.485628 28.888493 56.389818 0 CFG=2
M  V30 25 C 39.726950 30.121620 52.313828 0
M  V30 26 C 38.586751 29.914299 59.128387 0
M  V30 27 C 39.144172 30.981830 53.455553 0
M  V30 28 C 37.636223 24.716838 57.203368 0
M  V30 29 N 37.866334 31.053259 55.588719 0 CHG=1
M  V30 30 C 39.612003 27.755110 60.030366 0
M  V30 31 C 37.688549 35.742371 60.958973 0
M  V30 32 C 40.850429 36.332337 62.745315 0 CFG=2
M  V30 33 O 37.946931 26.081356 57.436445 0
M  V30 34 C 39.544079 34.112479 61.909543 0 CFG=2
M  V30 35 O 39.467341 31.533974 63.061225 0
M  V30 36 C 38.789802 28.908863 54.880145 0 CFG=2
M  V30 37 N 40.654517 30.731959 61.325170 0
M  V30 38 H 38.539407 34.084922 60.000936 0
M  V30 39 H 39.668376 35.366527 60.110366 0
M  V30 40 H 41.502111 28.881485 59.836301 0
M  V30 41 H 41.528941 27.621441 60.978485 0
M  V30 42 H 41.067378 29.320816 57.810786 0
M  V30 43 H 41.469512 27.635967 57.827775 0
M  V30 44 H 41.244233 28.422293 56.293511 0
M  V30 45 H 37.234920 30.077281 53.882464 0
M  V30 46 H 39.501852 30.757628 56.786511 0
M  V30 47 H 39.939667 27.304644 52.760558 0
M  V30 48 H 38.412197 26.857503 52.095539 0
M  V30 49 H 41.522912 29.266279 62.487598 0
M  V30 50 H 39.792561 29.087082 62.355269 0
M  V30 51 H 41.992796 36.813941 61.249035 0
M  V30 52 H 41.494589 34.706989 64.451353 0
M  V30 53 H 37.012739 37.665514 61.583186 0
M  V30 54 H 38.667504 37.691010 61.097347 0
M  V30 55 H 37.964408 36.021430 63.514214 0
M  V30 56 H 37.702186 37.645151 63.709072 0
M  V30 57 H 41.665785 34.459883 62.229201 0
M  V30 58 H 39.881892 36.975248 64.558282 0
M  V30 59 H 40.020908 38.221007 63.363936 0
M  V30 60 H 40.588258 32.933348 60.479411 0
M  V30 61 H 37.867390 27.981426 58.927166 0
M  V30 62 H 37.867370 29.221404 51.600741 0
M  V30 63 H 40.540834 28.267492 50.492583 0
M  V30 64 H 38.974596 27.724643 49.927053 0
M  V30 65 H 39.467377 29.395739 49.686102 0
M  V30 66 H 38.411352 26.795217 54.518363 0
M  V30 67 H 37.164821 27.828807 53.912624 0
M  V30 68 H 36.747886 30.197899 58.026580 0
M  V30 69 H 37.666690 31.671397 58.268001 0
M  V30 70 H 37.467396 28.529157 56.485157 0
M  V30 71 H 40.667367 29.712377 52.653182 0
M  V30 72 H 39.994026 30.805097 51.505292 0
M  V30 73 H 38.112163 30.046281 60.102337 0
M  V30 74 H 39.538703 30.423096 59.157338 0
M  V30 75 H 39.981111 31.370220 54.037139 0
M  V30 76 H 38.667544 31.873868 53.053564 0
M  V30 77 H 36.667015 24.478852 57.636374 0
M  V30 78 H 37.594543 24.507514 56.133631 0
M  V30 79 H 38.379497 24.058488 57.655148 0
M  V30 80 H 36.861212 31.077264 55.749305 0
M  V30 81 H 39.867386 26.754291 59.704602 0
M  V30 82 H 38.908094 27.621472 60.851676 0
M  V30 83 H 36.936203 35.180502 61.513843 0
M  V30 84 H 37.228693 35.957710 59.994396 0
M  V30 85 H 41.788820 36.541259 63.260550 0
M  V30 86 H 38.733542 33.885159 62.602204 0
M  V30 87 H 39.867338 28.948963 54.766557 0
M  V30 88 H 41.098185 30.943467 60.446832 0
M  V30 89 H 38.183373 32.007641 55.503867 0
M  V30 END ATOM
M  V30 BEGIN BOND
M  V30 1 1 8 2
M  V30 2 1 12 11
M  V30 3 1 14 10
M  V30 4 1 15 12
M  V30 5 1 16 5
M  V30 6 2 17 13
M  V30 7 1 19 3 CFG=1
M  V30 8 1 19 17
M  V30 9 1 19 18
M  V30 10 1 20 7
M  V30 11 1 21 20
M  V30 12 1 22 7
M  V30 13 1 23 6
M  V30 14 1 24 6
M  V30 15 1 24 19
M  V30 16 1 25 20
M  V30 17 1 26 18
M  V30 18 1 26 23
M  V30 19 1 27 4
M  V30 20 1 27 25
M  V30 21 1 29 4
M  V30 22 1 29 6
M  V30 23 1 30 2
M  V30 24 1 30 18
M  V30 25 1 31 1
M  V30 26 1 31 11
M  V30 27 1 32 9
M  V30 28 1 32 14
M  V30 29 1 32 15
M  V30 30 1 33 17
M  V30 31 1 33 28
M  V30 32 1 34 1
M  V30 33 1 34 14
M  V30 34 1 34 16
M  V30 35 2 35 5
M  V30 36 1 36 4
M  V30 37 1 36 22
M  V30 38 1 36 24
M  V30 39 1 37 5
M  V30 40 1 37 8
M  V30 41 1 38 1
M  V30 42 1 39 1
M  V30 43 1 40 2
M  V30 44 1 41 2
M  V30 45 1 42 3
M  V30 46 1 43 3
M  V30 47 1 44 3
M  V30 48 1 4 45 CFG=3
M  V30 49 1 6 46 CFG=1
M  V30 50 1 47 7
M  V30 51 1 48 7
M  V30 52 1 49 8
M  V30 53 1 50 8
M  V30 54 1 51 9
M  V30 55 1 52 10
M  V30 56 1 53 11
M  V30 57 1 54 11
M  V30 58 1 55 12
M  V30 59 1 56 12
M  V30 60 1 14 57 CFG=3
M  V30 61 1 58 15
M  V30 62 1 59 15
M  V30 63 1 60 16
M  V30 64 1 18 61 CFG=3
M  V30 65 1 20 62 CFG=3
M  V30 66 1 63 21
M  V30 67 1 64 21
M  V30 68 1 65 21
M  V30 69 1 66 22
M  V30 70 1 67 22
M  V30 71 1 68 23
M  V30 72 1 69 23
M  V30 73 1 24 70 CFG=3
M  V30 74 1 71 25
M  V30 75 1 72 25
M  V30 76 1 73 26
M  V30 77 1 74 26
M  V30 78 1 75 27
M  V30 79 1 76 27
M  V30 80 1 77 28
M  V30 81 1 78 28
M  V30 82 1 79 28
M  V30 83 1 80 29
M  V30 84 1 81 30
M  V30 85 1 82 30
M  V30 86 1 83 31
M  V30 87 1 84 31
M  V30 88 1 32 85 CFG=1
M  V30 89 1 34 86 CFG=1
M  V30 90 1 36 87 CFG=1
M  V30 91 1 88 37
M  V30 92 1 89 29
M  V30 END BOND
M  V30 END CTAB
M  END
>  <i_epik_Tot_Q>  (1) 
1

>  <i_epik_Tot_abs_Q>  (1) 
1

>  <i_i_glide_confnum>  (1) 
954

>  <i_i_glide_lignum>  (1) 
29

>  <i_i_glide_posenum>  (1) 
232

>  <i_i_glide_rotatable_bonds>  (1) 
11

>  <i_lp_mmshare_version>  (1) 
72125

>  <i_m_source_file_index>  (1) 
11

>  <i_f3d_flags>  (1) 
0

>  <num_sample>  (1) 
100

>  <b_lp_Chiralities_Consistent>  (1) 
1

>  <r_epik_Charging_Adjusted_Penalty>  (1) 
5.0796361182183547e-05

>  <r_epik_Ionization_Penalty>  (1) 
7.4494793670828869e-05

>  <r_epik_Ionization_Penalty_Charging>  (1) 
5.0796361182183547e-05

>  <r_epik_Ionization_Penalty_Neutral>  (1) 
2.3698432488645322e-05

>  <r_epik_State_Penalty>  (1) 
-0

>  <r_glide_ring_energy>  (1) 
0.60387110762599439

>  <r_i_docking_score>  (1) 
-8.9677154959922447

>  <r_i_glide_ecoul>  (1) 
-3.1469657750193258

>  <r_i_glide_eff_state_penalty>  (1) 
-0

>  <r_i_glide_einternal>  (1) 
13.742219121557255

>  <r_i_glide_emodel>  (1) 
-61.395674097532158

>  <r_i_glide_emodel_strain>  (1) 
0.45607884862533865

>  <r_i_glide_energy>  (1) 
-46.128376488669041

>  <r_i_glide_erotb>  (1) 
0.60206145100119157

>  <r_i_glide_esite>  (1) 
-0.11436416665271612

>  <r_i_glide_evdw>  (1) 
-42.981410713649716

>  <r_i_glide_gscore>  (1) 
-8.9677154959922447

>  <r_i_glide_gscore_strain>  (1) 
0

>  <r_i_glide_hbond>  (1) 
-0.50876774996770679

>  <r_i_glide_ligand_efficiency>  (1) 
-0.24237068908087148

>  <r_i_glide_ligand_efficiency_ln>  (1) 
-1.9448872580014176

>  <r_i_glide_ligand_efficiency_sa>  (1) 
-0.80763290635376728

>  <r_i_glide_lipo>  (1) 
-4.895157837673918

>  <r_i_glide_metal>  (1) 
-0

>  <r_i_glide_rewards>  (1) 
-1.4303717907637101

>  <r_lp_Energy>  (1) 
70.195819

>  <r_lp_tautomer_probability>  (1) 
1

>  <s_epik_Chemistry_Notes>  (1) 
This compound has an ester and may undergo hydrolysis at high or low pH.

>  <s_epik_cmdline>  (1) 
J2VwaWtfcHl0aG9uJywgJy1waHQnLCAnMS4wJywgJy1waCcsICc3LjQnLCAnLXRuJywgJzgnLCAnLW1hJywgJzUwMCcsICctaW1hZScsICc8aW5maWxlLm1hZT4nLCAnLW9tYWUnLCAnPG91dGZpbGUubWFlPic=

>  <s_epik_input>  (1) 
W09IXVtDQEBIXTFbQ0BASF0oW09IXSlbQ0gyXVtDSDJdW0NIMl1bQ0gyXVtDSDJdW0NASF0xW05IXUMoPU8pW05IXVtDSDJdW0NIMl1bQ0gyXVtDQEhdKFtDQEBdMihbQ0gzXSlDKD1PKU9bQ0gzXSlbQ0gyXVtDSDJdW0NASF0oW05IXTMpW0NASF0yW0NASF0oW0NAQEhdMzQpW0NIMl1bQ0gyXVtDQEhdKFtDSDNdKVtDSDJdW0NIMl00

>  <s_glide_docking_method>  (1) 
confgen

>  <s_i_glide_gridfile>  (1) 
gpcr_5ht2c_6bqh_protein_autoprepared_prepared

>  <s_lp_Force_Field>  (1) 
S-OPLS

>  <s_lp_Variant>  (1) 
DiffSBDD_10_num_sample_100-1

>  <s_m_source_file>  (1) 
generated__ligand_DiffSBDD_2026-05-06_prepared.sdf

>  <GenAI_Model>  (1) 
DiffSBDD

>  <Protein>  (1) 
GPCR_5HT2C

$$$$
DiffSBDD_24_num_sample_100
     RDKit          3D

  0  0  0  0  0  0  0  0  0  0999 V3000
M  V30 BEGIN CTAB
M  V30 COUNTS 62 64 0 0 1
M  V30 BEGIN ATOM
M  V30 1 C 38.462580 30.587923 58.379998 0
M  V30 2 O 39.667190 34.008374 61.104683 0
M  V30 3 C 36.955447 37.033234 60.501177 0
M  V30 4 C 40.169005 30.934317 51.131463 0
M  V30 5 C 39.867403 28.678560 50.068894 0
M  V30 6 N 37.770929 34.692371 60.082899 0
M  V30 7 C 37.766417 33.587125 59.107833 0
M  V30 8 C 38.275535 27.392050 56.240988 0
M  V30 9 C 38.794705 29.334621 54.787475 0
M  V30 10 N 39.529417 29.621423 51.119644 0
M  V30 11 O 40.988873 35.857896 63.008532 0
M  V30 12 N 37.673892 36.999067 61.767756 0
M  V30 13 C 38.409231 25.366067 57.834846 0
M  V30 14 C 39.628898 36.241493 63.069585 0
M  V30 15 C 39.096431 29.887148 53.527138 0
M  V30 16 C 38.929670 36.242455 61.689794 0 CFG=1
M  V30 17 C 38.734464 30.181102 55.904863 0
M  V30 18 N 37.138584 31.186442 58.653501 0 CHG=1
M  V30 19 C 38.575351 27.935117 54.928811 0
M  V30 20 C 39.206417 29.059556 52.387176 0
M  V30 21 C 37.970892 25.923404 56.491938 0
M  V30 22 C 38.800650 34.870632 60.954869 0
M  V30 23 C 38.265922 28.279203 57.351956 0
M  V30 24 C 37.341892 25.134624 55.594467 0
M  V30 25 C 39.004884 27.665506 52.525223 0
M  V30 26 C 38.704110 27.107611 53.778565 0
M  V30 27 C 36.623657 35.605997 60.048716 0
M  V30 28 C 37.161504 32.276542 59.662567 0
M  V30 29 C 38.484722 29.659068 57.180143 0
M  V30 30 H 39.166848 31.384121 58.166392 0
M  V30 31 H 38.827653 30.067602 59.266275 0
M  V30 32 H 37.560634 37.530915 59.741447 0
M  V30 33 H 36.042457 37.621430 60.599831 0
M  V30 34 H 39.467402 31.722710 51.392051 0
M  V30 35 H 41.001476 30.968261 51.832963 0
M  V30 36 H 40.566942 31.178574 50.145899 0
M  V30 37 H 40.667393 28.012459 50.389655 0
M  V30 38 H 38.993867 28.082140 49.814437 0
M  V30 39 H 40.188898 29.200129 49.166470 0
M  V30 40 H 37.211838 33.885865 58.216583 0
M  V30 41 H 38.787381 33.433792 58.757143 0
M  V30 42 H 41.435452 36.219163 63.762467 0
M  V30 43 H 37.081040 36.584874 62.480798 0
M  V30 44 H 39.477223 25.531069 57.982485 0
M  V30 45 H 37.867399 25.823972 58.653516 0
M  V30 46 H 38.228347 24.291622 57.886966 0
M  V30 47 H 39.097379 35.621430 63.785319 0
M  V30 48 H 39.614134 37.252895 63.478787 0
M  V30 49 H 39.255646 30.951005 53.441771 0
M  V30 50 H 39.599061 36.814341 61.053504 0
M  V30 51 H 38.905438 31.241651 55.783639 0
M  V30 52 H 36.524217 30.454484 58.975953 0
M  V30 53 H 38.063132 27.899794 58.339757 0
M  V30 54 H 37.157492 24.093176 55.813058 0
M  V30 55 H 36.993377 25.508582 54.649976 0
M  V30 56 H 39.096260 27.012513 51.672148 0
M  V30 57 H 38.608175 26.049560 53.845716 0
M  V30 58 H 36.179745 35.644916 59.053487 0
M  V30 59 H 35.867405 35.176857 60.703146 0
M  V30 60 H 37.700090 31.944380 60.551303 0
M  V30 61 H 36.132151 32.462492 59.971841 0
M  V30 62 H 36.713431 31.549724 57.795725 0
M  V30 END ATOM
M  V30 BEGIN BOND
M  V30 1 1 7 6
M  V30 2 1 10 4
M  V30 3 1 10 5
M  V30 4 1 12 3
M  V30 5 1 14 11
M  V30 6 1 15 9
M  V30 7 1 16 12
M  V30 8 1 16 14
M  V30 9 2 17 9
M  V30 10 1 18 1
M  V30 11 2 19 8
M  V30 12 1 19 9
M  V30 13 1 20 10
M  V30 14 2 20 15
M  V30 15 1 21 8
M  V30 16 1 21 13
M  V30 17 2 22 2
M  V30 18 1 22 6
M  V30 19 1 22 16
M  V30 20 1 23 8
M  V30 21 2 24 21
M  V30 22 1 25 20
M  V30 23 1 26 19
M  V30 24 2 26 25
M  V30 25 1 27 3
M  V30 26 1 27 6
M  V30 27 1 28 7
M  V30 28 1 28 18
M  V30 29 1 29 1
M  V30 30 1 29 17
M  V30 31 2 29 23
M  V30 32 1 30 1
M  V30 33 1 31 1
M  V30 34 1 32 3
M  V30 35 1 33 3
M  V30 36 1 34 4
M  V30 37 1 35 4
M  V30 38 1 36 4
M  V30 39 1 37 5
M  V30 40 1 38 5
M  V30 41 1 39 5
M  V30 42 1 40 7
M  V30 43 1 41 7
M  V30 44 1 42 11
M  V30 45 1 43 12
M  V30 46 1 44 13
M  V30 47 1 45 13
M  V30 48 1 46 13
M  V30 49 1 47 14
M  V30 50 1 48 14
M  V30 51 1 49 15
M  V30 52 1 16 50 CFG=3
M  V30 53 1 51 17
M  V30 54 1 52 18
M  V30 55 1 53 23
M  V30 56 1 54 24
M  V30 57 1 55 24
M  V30 58 1 56 25
M  V30 59 1 57 26
M  V30 60 1 58 27
M  V30 61 1 59 27
M  V30 62 1 60 28
M  V30 63 1 61 28
M  V30 64 1 62 18
M  V30 END BOND
M  V30 END CTAB
M  END
>  <i_epik_Tot_Q>  (1) 
1

>  <i_epik_Tot_abs_Q>  (1) 
1

>  <i_i_glide_confnum>  (1) 
179

>  <i_i_glide_lignum>  (1) 
62

>  <i_i_glide_posenum>  (1) 
140

>  <i_i_glide_rotatable_bonds>  (1) 
9

>  <i_lp_mmshare_version>  (1) 
72125

>  <i_m_source_file_index>  (1) 
25

>  <i_f3d_flags>  (1) 
0

>  <num_sample>  (1) 
100

>  <b_lp_Chiralities_Consistent>  (1) 
1

>  <r_epik_Charging_Adjusted_Penalty>  (1) 
0.46759718330573113

>  <r_epik_Ionization_Penalty>  (1) 
0.33050907740455537

>  <r_epik_Ionization_Penalty_Charging>  (1) 
0.11171656725362118

>  <r_epik_Ionization_Penalty_Neutral>  (1) 
0.21879251015093421

>  <r_epik_State_Penalty>  (1) 
0.35588061605210997

>  <r_glide_ring_energy>  (1) 
0

>  <r_i_docking_score>  (1) 
-8.9528862625006074

>  <r_i_glide_ecoul>  (1) 
-6.8604398058226197

>  <r_i_glide_eff_state_penalty>  (1) 
0.35588061605210997

>  <r_i_glide_einternal>  (1) 
7.9624262158003667

>  <r_i_glide_emodel>  (1) 
-80.710643023370636

>  <r_i_glide_emodel_strain>  (1) 
0.094983231969038684

>  <r_i_glide_energy>  (1) 
-51.672666249874027

>  <r_i_glide_erotb>  (1) 
0.8670523998276507

>  <r_i_glide_esite>  (1) 
-0.10000000000000001

>  <r_i_glide_evdw>  (1) 
-44.812226444051404

>  <r_i_glide_gscore>  (1) 
-9.3087668785527171

>  <r_i_glide_gscore_strain>  (1) 
0

>  <r_i_glide_hbond>  (1) 
-0.1927447288704591

>  <r_i_glide_ligand_efficiency>  (1) 
-0.30872021594829679

>  <r_i_glide_ligand_efficiency_ln>  (1) 
-2.0499839285053274

>  <r_i_glide_ligand_efficiency_sa>  (1) 
-0.94848631388732063

>  <r_i_glide_lipo>  (1) 
-4.3203522765303175

>  <r_i_glide_metal>  (1) 
-0

>  <r_i_glide_rewards>  (1) 
-2.2930449799036294

>  <r_lp_Energy>  (1) 
66.45371999999999

>  <s_epik_cmdline>  (1) 
J2VwaWtfcHl0aG9uJywgJy1waHQnLCAnMS4wJywgJy1waCcsICc3LjQnLCAnLXRuJywgJzgnLCAnLW1hJywgJzUwMCcsICctaW1hZScsICc8aW5maWxlLm1hZT4nLCAnLW9tYWUnLCAnPG91dGZpbGUubWFlPic=

>  <s_epik_input>  (1) 
W0NIMl0xW0NIMl1bTkhdW0NAQEhdKFtDSDJdW09IXSlDKD1PKU4xW0NIMl1bQ0gyXVtOSF1bQ0gyXWMoW2NIXTIpW2NIXWMoQyhbQ0gzXSk9W0NIMl0pYyhjMjMpW2NIXVtjSF1jKFtjSF0zKU4oW0NIM10pW0NIM10=

>  <s_glide_docking_method>  (1) 
confgen

>  <s_i_glide_gridfile>  (1) 
gpcr_5ht2c_6bqh_protein_autoprepared_prepared

>  <s_lp_Force_Field>  (1) 
S-OPLS

>  <s_lp_Variant>  (1) 
DiffSBDD_24_num_sample_100-1

>  <s_m_source_file>  (1) 
generated__ligand_DiffSBDD_2026-05-06_prepared.sdf

>  <GenAI_Model>  (1) 
DiffSBDD

>  <Protein>  (1) 
GPCR_5HT2C

$$$$
DiffSBDD_48_num_sample_100
     RDKit          3D

  0  0  0  0  0  0  0  0  0  0999 V3000
M  V30 BEGIN CTAB
M  V30 COUNTS 71 75 0 0 1
M  V30 BEGIN ATOM
M  V30 1 C 38.225639 24.945597 55.371038 0
M  V30 2 C 38.495643 34.729794 60.759491 0 CFG=1
M  V30 3 C 37.705413 26.970816 57.229262 0
M  V30 4 C 40.005279 29.477788 49.740005 0
M  V30 5 C 38.832018 27.464424 52.948773 0
M  V30 6 C 38.500088 29.167869 57.423925 0 CFG=1
M  V30 7 O 39.787282 33.421853 62.348013 0
M  V30 8 O 37.982212 31.284259 62.252250 0
M  V30 9 C 39.612881 26.546611 53.951651 0
M  V30 10 C 38.026391 30.593847 57.087075 0
M  V30 11 C 37.498092 28.138010 58.152655 0
M  V30 12 N 38.954289 28.530114 56.172471 0
M  V30 13 C 37.776993 32.712445 58.456069 0
M  V30 14 C 37.778983 32.297137 61.584821 0
M  V30 15 C 35.175391 32.209282 61.237450 0
M  V30 16 C 39.631416 28.516007 52.111352 0 CFG=2
M  V30 17 N 37.467421 31.279614 58.253424 0 CHG=1
M  V30 18 C 36.775369 33.327527 59.480170 0 CFG=2
M  V30 19 C 39.467421 29.988751 52.578793 0
M  V30 20 C 37.400297 24.678011 56.486875 0
M  V30 21 C 40.321720 28.695020 55.803714 0
M  V30 22 O 35.853745 31.217816 60.458543 0
M  V30 23 O 38.872997 30.274894 53.615480 0
M  V30 24 O 37.067212 35.714409 59.053547 0
M  V30 25 C 37.123315 34.715923 60.045414 0 CFG=2
M  V30 26 C 40.053843 31.083084 51.688945 0
M  V30 27 C 38.712256 36.019793 61.576335 0
M  V30 28 C 38.785691 33.484949 61.635298 0
M  V30 29 C 36.561729 32.444670 60.692374 0 CFG=1
M  V30 30 C 39.322961 28.399551 50.605568 0
M  V30 31 C 38.776471 26.236810 55.196815 0
M  V30 32 C 38.494699 27.232857 56.181413 0
M  V30 33 C 37.129824 25.701090 57.418408 0
M  V30 34 C 39.735897 30.909156 50.198647 0
M  V30 35 H 38.421153 24.170163 54.651252 0
M  V30 36 H 39.262112 34.709927 59.984746 0
M  V30 37 H 39.763675 29.363696 48.685931 0
M  V30 38 H 41.067401 29.346809 49.811794 0
M  V30 39 H 38.266112 26.820747 52.277359 0
M  V30 40 H 38.039226 27.978305 53.493259 0
M  V30 41 H 39.375166 29.254356 58.070153 0
M  V30 42 H 40.621187 26.821456 54.222040 0
M  V30 43 H 39.867390 25.621414 53.453419 0
M  V30 44 H 37.260078 30.555323 56.311622 0
M  V30 45 H 38.853657 31.174149 56.676497 0
M  V30 46 H 37.867468 27.948087 59.156696 0
M  V30 47 H 36.462665 28.477906 58.171307 0
M  V30 48 H 37.689664 33.241618 57.505709 0
M  V30 49 H 38.813956 32.803749 58.774592 0
M  V30 50 H 34.988361 31.878946 62.253477 0
M  V30 51 H 34.358895 32.723453 60.729394 0
M  V30 52 H 37.607045 30.744527 59.097812 0
M  V30 53 H 35.812753 33.406634 58.970538 0
M  V30 54 H 36.969129 23.696544 56.620670 0
M  V30 55 H 40.975934 27.871576 56.096189 0
M  V30 56 H 40.267421 28.839383 54.745114 0
M  V30 57 H 40.667396 29.621346 56.232002 0
M  V30 58 H 39.627383 32.021322 52.027496 0
M  V30 59 H 36.291707 35.613444 58.514723 0
M  V30 60 H 36.353431 34.991842 60.767837 0
M  V30 61 H 41.123595 31.159420 51.847666 0
M  V30 62 H 40.673645 28.265186 52.201617 0
M  V30 63 H 39.735099 36.089693 61.949339 0
M  V30 64 H 38.534537 36.910013 60.973760 0
M  V30 65 H 38.040130 36.066471 62.434411 0
M  V30 66 H 39.635083 27.416450 50.253309 0
M  V30 67 H 38.253400 28.422870 50.459337 0
M  V30 68 H 36.490213 25.508293 58.253478 0
M  V30 69 H 38.718150 31.219179 49.964792 0
M  V30 70 H 40.358241 31.595319 49.623156 0
M  V30 71 H 36.468328 31.285560 58.032161 0
M  V30 END ATOM
M  V30 BEGIN BOND
M  V30 1 1 9 5
M  V30 2 1 10 6
M  V30 3 1 11 3
M  V30 4 1 11 6
M  V30 5 1 12 6
M  V30 6 2 14 8
M  V30 7 1 16 5
M  V30 8 1 17 10
M  V30 9 1 17 13
M  V30 10 1 18 13
M  V30 11 1 19 16
M  V30 12 2 20 1
M  V30 13 1 21 12
M  V30 14 1 22 15
M  V30 15 2 23 19
M  V30 16 1 25 2
M  V30 17 1 25 18
M  V30 18 1 25 24
M  V30 19 1 26 19
M  V30 20 1 27 2
M  V30 21 1 28 2
M  V30 22 2 28 7
M  V30 23 1 28 14
M  V30 24 1 29 14
M  V30 25 1 29 15
M  V30 26 1 29 18
M  V30 27 1 29 22 CFG=3
M  V30 28 1 30 4
M  V30 29 1 30 16
M  V30 30 1 31 1
M  V30 31 1 31 9
M  V30 32 1 32 3
M  V30 33 1 32 12
M  V30 34 2 32 31
M  V30 35 2 33 3
M  V30 36 1 33 20
M  V30 37 1 34 4
M  V30 38 1 34 26
M  V30 39 1 35 1
M  V30 40 1 2 36 CFG=3
M  V30 41 1 37 4
M  V30 42 1 38 4
M  V30 43 1 39 5
M  V30 44 1 40 5
M  V30 45 1 6 41 CFG=1
M  V30 46 1 42 9
M  V30 47 1 43 9
M  V30 48 1 44 10
M  V30 49 1 45 10
M  V30 50 1 46 11
M  V30 51 1 47 11
M  V30 52 1 48 13
M  V30 53 1 49 13
M  V30 54 1 50 15
M  V30 55 1 51 15
M  V30 56 1 52 17
M  V30 57 1 18 53 CFG=3
M  V30 58 1 54 20
M  V30 59 1 55 21
M  V30 60 1 56 21
M  V30 61 1 57 21
M  V30 62 1 58 26
M  V30 63 1 59 24
M  V30 64 1 25 60 CFG=1
M  V30 65 1 61 26
M  V30 66 1 16 62 CFG=3
M  V30 67 1 63 27
M  V30 68 1 64 27
M  V30 69 1 65 27
M  V30 70 1 66 30
M  V30 71 1 67 30
M  V30 72 1 68 33
M  V30 73 1 69 34
M  V30 74 1 70 34
M  V30 75 1 71 17
M  V30 END BOND
M  V30 END CTAB
M  END
>  <i_epik_Tot_Q>  (1) 
1

>  <i_epik_Tot_abs_Q>  (1) 
1

>  <i_i_glide_confnum>  (1) 
73

>  <i_i_glide_lignum>  (1) 
132

>  <i_i_glide_posenum>  (1) 
278

>  <i_i_glide_rotatable_bonds>  (1) 
8

>  <i_lp_mmshare_version>  (1) 
72125

>  <i_m_source_file_index>  (1) 
49

>  <i_f3d_flags>  (1) 
0

>  <num_sample>  (1) 
100

>  <b_lp_Chiralities_Consistent>  (1) 
1

>  <r_epik_Charging_Adjusted_Penalty>  (1) 
0.027363245261170371

>  <r_epik_Ionization_Penalty>  (1) 
0.0277407901544389

>  <r_epik_Ionization_Penalty_Charging>  (1) 
0.027363245261170371

>  <r_epik_Ionization_Penalty_Neutral>  (1) 
0.00037754489326852995

>  <r_epik_State_Penalty>  (1) 
-0

>  <r_glide_ring_energy>  (1) 
0

>  <r_i_docking_score>  (1) 
-8.9284318788248775

>  <r_i_glide_ecoul>  (1) 
-6.9743399430335495

>  <r_i_glide_eff_state_penalty>  (1) 
-0

>  <r_i_glide_einternal>  (1) 
10.33327895128039

>  <r_i_glide_emodel>  (1) 
-62.938168994900039

>  <r_i_glide_emodel_strain>  (1) 
1.1939898830966484

>  <r_i_glide_energy>  (1) 
-41.083307391452401

>  <r_i_glide_erotb>  (1) 
0.64114366914740972

>  <r_i_glide_esite>  (1) 
-0.096320738905005893

>  <r_i_glide_evdw>  (1) 
-34.108967448418852

>  <r_i_glide_gscore>  (1) 
-8.9284318788248775

>  <r_i_glide_gscore_strain>  (1) 
0

>  <r_i_glide_hbond>  (1) 
-0.54365157482061699

>  <r_i_glide_ligand_efficiency>  (1) 
-0.26260093761249642

>  <r_i_glide_ligand_efficiency_ln>  (1) 
-1.9725410360638507

>  <r_i_glide_ligand_efficiency_sa>  (1) 
-0.85072509651597561

>  <r_i_glide_lipo>  (1) 
-4.3390299967311234

>  <r_i_glide_metal>  (1) 
-0

>  <r_i_glide_rewards>  (1) 
-1.8389738736395662

>  <r_lp_Energy>  (1) 
31.271559

>  <r_lp_tautomer_probability>  (1) 
1

>  <s_epik_cmdline>  (1) 
J2VwaWtfcHl0aG9uJywgJy1waHQnLCAnMS4wJywgJy1waCcsICc3LjQnLCAnLXRuJywgJzgnLCAnLW1hJywgJzUwMCcsICctaW1hZScsICc8aW5maWxlLm1hZT4nLCAnLW9tYWUnLCAnPG91dGZpbGUubWFlPic=

>  <s_epik_input>  (1) 
W0NIMl0xW0NIMl1bQ0gyXVtDSDJdQyhbT0hdKT1DMVtDSDJdW0NIMl1jKFtjSF1bY0hdW2NIXTIpYyhjMjMpTihbQ0gzXSlbQ0BIXShbQ0gyXTMpW0NIMl1bTkhdW0NIMl1bQ0BASF00W0NASF0oW09IXSlbQ0BASF0oW0NIM10pQyg9TylDKD1PKVtDQEBdNDVbQ0gyXU81

>  <s_glide_docking_method>  (1) 
confgen

>  <s_i_glide_gridfile>  (1) 
gpcr_5ht2c_6bqh_protein_autoprepared_prepared

>  <s_lp_Force_Field>  (1) 
S-OPLS

>  <s_lp_Variant>  (1) 
DiffSBDD_48_num_sample_100-2

>  <s_m_source_file>  (1) 
generated__ligand_DiffSBDD_2026-05-06_prepared.sdf

>  <GenAI_Model>  (1) 
DiffSBDD

>  <Protein>  (1) 
GPCR_5HT2C

$$$$
DiffSBDD_19_num_sample_100
     RDKit          3D

  0  0  0  0  0  0  0  0  0  0999 V3000
M  V30 BEGIN CTAB
M  V30 COUNTS 71 72 0 0 1
M  V30 BEGIN ATOM
M  V30 1 C 38.032719 30.008390 59.729002 0
M  V30 2 C 39.629070 31.450800 55.484149 0
M  V30 3 C 39.694853 28.076922 60.135851 0
M  V30 4 C 42.181743 27.911259 58.373267 0
M  V30 5 O 38.267556 33.226804 56.386778 0
M  V30 6 C 35.688398 33.852378 60.657018 0
M  V30 7 C 40.771189 27.910401 57.766010 0 CFG=1
M  V30 8 C 38.228977 27.870239 52.835604 0
M  V30 9 C 38.812972 28.813463 53.807939 0
M  V30 10 C 38.667391 26.643115 58.347707 0
M  V30 11 C 38.685120 27.600713 51.612295 0
M  V30 12 C 40.788558 27.144137 56.424177 0
M  V30 13 C 39.558681 26.319403 56.122565 0
M  V30 14 O 39.055007 30.945080 62.071068 0
M  V30 15 O 41.067483 30.019495 61.855396 0 CHG=-1
M  V30 16 O 37.189664 27.223812 53.378729 0
M  V30 17 C 38.601330 26.090094 57.019874 0
M  V30 18 N 38.041326 31.288681 58.973194 0 CFG=2 CHG=1
M  V30 19 C 39.018075 32.083139 56.751608 0 CFG=1
M  V30 20 C 39.818493 28.256934 50.961360 0
M  V30 21 C 38.687568 31.312557 54.271215 0 CFG=1
M  V30 22 C 40.334198 29.489977 51.234404 0
M  V30 23 C 36.841487 32.112675 59.210960 0
M  V30 24 C 39.475325 29.608970 60.135839 0 CFG=2
M  V30 25 C 39.899342 30.240520 61.473987 0
M  V30 26 C 38.207086 31.018752 57.525774 0
M  V30 27 C 39.649737 27.479106 58.730275 0
M  V30 28 C 39.867396 30.460488 52.236611 0
M  V30 29 C 34.393761 33.399442 59.965823 0
M  V30 30 C 39.153442 30.194538 53.349696 0
M  V30 31 C 36.793937 32.783373 60.592146 0
M  V30 32 O 37.337098 31.095145 54.644384 0
M  V30 33 H 37.377551 30.057080 60.597563 0
M  V30 34 H 37.565988 29.231382 59.120706 0
M  V30 35 H 40.044126 30.475079 55.735297 0
M  V30 36 H 40.501334 32.020474 55.180525 0
M  V30 37 H 40.633555 27.793361 60.612631 0
M  V30 38 H 38.911921 27.621430 60.741849 0
M  V30 39 H 42.266121 28.655651 59.159552 0
M  V30 40 H 42.450352 26.938195 58.783253 0
M  V30 41 H 42.924856 28.169530 57.616219 0
M  V30 42 H 37.525279 33.334361 56.963548 0
M  V30 43 H 35.482982 34.088575 61.703077 0
M  V30 44 H 36.036679 34.777027 60.192476 0
M  V30 45 H 40.559714 28.942958 57.506934 0
M  V30 46 H 38.220909 28.832830 54.723965 0
M  V30 47 H 39.743759 28.361714 54.112982 0
M  V30 48 H 37.898781 26.386982 59.053138 0
M  V30 49 H 38.182007 26.823007 51.056759 0
M  V30 50 H 41.584780 26.421467 56.452293 0
M  V30 51 H 41.040641 27.827301 55.626556 0
M  V30 52 H 39.486723 25.890735 55.133427 0
M  V30 53 H 36.856917 26.622168 52.726428 0
M  V30 54 H 37.756128 25.478131 56.743457 0
M  V30 55 H 39.830935 32.445645 57.372353 0
M  V30 56 H 40.266561 27.725788 50.137862 0
M  V30 57 H 38.686859 32.254010 53.721857 0
M  V30 58 H 41.143245 29.816926 50.598419 0
M  V30 59 H 36.799169 32.905404 58.467155 0
M  V30 60 H 35.963475 31.484688 59.053865 0
M  V30 61 H 40.181992 30.020504 59.417504 0
M  V30 62 H 37.238725 30.812326 57.080289 0
M  V30 63 H 38.738663 30.076955 57.423808 0
M  V30 64 H 40.109272 31.497165 52.051709 0
M  V30 65 H 33.541059 34.002919 60.250025 0
M  V30 66 H 34.469032 33.454707 58.880218 0
M  V30 67 H 34.188411 32.366541 60.227857 0
M  V30 68 H 36.617469 32.037062 61.366128 0
M  V30 69 H 37.754095 33.243881 60.828451 0
M  V30 70 H 36.997703 31.874715 55.073466 0
M  V30 71 H 38.834921 31.819382 59.303145 0
M  V30 END ATOM
M  V30 BEGIN BOND
M  V30 1 1 7 4
M  V30 2 1 9 8
M  V30 3 2 11 8
M  V30 4 1 12 7
M  V30 5 1 13 12
M  V30 6 1 16 8
M  V30 7 1 17 10
M  V30 8 2 17 13
M  V30 9 1 18 1
M  V30 10 1 19 2
M  V30 11 1 19 5
M  V30 12 1 20 11
M  V30 13 1 21 2
M  V30 14 2 22 20
M  V30 15 1 23 18
M  V30 16 1 24 1
M  V30 17 1 24 3
M  V30 18 2 25 14
M  V30 19 1 25 15
M  V30 20 1 25 24
M  V30 21 1 26 18
M  V30 22 1 26 19
M  V30 23 1 27 3
M  V30 24 1 27 7
M  V30 25 2 27 10
M  V30 26 1 28 22
M  V30 27 1 29 6
M  V30 28 1 30 9
M  V30 29 1 30 21
M  V30 30 2 30 28
M  V30 31 1 31 6
M  V30 32 1 31 23
M  V30 33 1 32 21
M  V30 34 1 33 1
M  V30 35 1 34 1
M  V30 36 1 35 2
M  V30 37 1 36 2
M  V30 38 1 37 3
M  V30 39 1 38 3
M  V30 40 1 39 4
M  V30 41 1 40 4
M  V30 42 1 41 4
M  V30 43 1 42 5
M  V30 44 1 43 6
M  V30 45 1 44 6
M  V30 46 1 7 45 CFG=3
M  V30 47 1 46 9
M  V30 48 1 47 9
M  V30 49 1 48 10
M  V30 50 1 49 11
M  V30 51 1 50 12
M  V30 52 1 51 12
M  V30 53 1 52 13
M  V30 54 1 53 16
M  V30 55 1 54 17
M  V30 56 1 19 55 CFG=1
M  V30 57 1 56 20
M  V30 58 1 21 57 CFG=3
M  V30 59 1 58 22
M  V30 60 1 59 23
M  V30 61 1 60 23
M  V30 62 1 24 61 CFG=3
M  V30 63 1 62 26
M  V30 64 1 63 26
M  V30 65 1 64 28
M  V30 66 1 65 29
M  V30 67 1 66 29
M  V30 68 1 67 29
M  V30 69 1 68 31
M  V30 70 1 69 31
M  V30 71 1 70 32
M  V30 72 1 18 71 CFG=1
M  V30 END BOND
M  V30 END CTAB
M  END
>  <i_epik_Tot_Q>  (1) 
0

>  <i_epik_Tot_abs_Q>  (1) 
2

>  <i_i_glide_confnum>  (1) 
739

>  <i_i_glide_lignum>  (1) 
49

>  <i_i_glide_posenum>  (1) 
91

>  <i_i_glide_rotatable_bonds>  (1) 
16

>  <i_lp_mmshare_version>  (1) 
72125

>  <i_m_source_file_index>  (1) 
20

>  <i_f3d_flags>  (1) 
0

>  <num_sample>  (1) 
100

>  <b_lp_Chiralities_Consistent>  (1) 
1

>  <r_epik_Charging_Adjusted_Penalty>  (1) 
0.015037487925518506

>  <r_epik_Ionization_Penalty>  (1) 
0.015045499532085388

>  <r_epik_Ionization_Penalty_Charging>  (1) 
0.0012943130925640431

>  <r_epik_Ionization_Penalty_Neutral>  (1) 
0.013751186439521345

>  <r_epik_State_Penalty>  (1) 
0.013743174832954463

>  <r_glide_ring_energy>  (1) 
0

>  <r_i_docking_score>  (1) 
-8.8871434770332343

>  <r_i_glide_ecoul>  (1) 
-8.9463395438184037

>  <r_i_glide_eff_state_penalty>  (1) 
0.013743174832954463

>  <r_i_glide_einternal>  (1) 
20.040257567758978

>  <r_i_glide_emodel>  (1) 
-70.887919591135514

>  <r_i_glide_emodel_strain>  (1) 
1.3134676606705398

>  <r_i_glide_energy>  (1) 
-49.389558545618847

>  <r_i_glide_erotb>  (1) 
1.1084889849388277

>  <r_i_glide_esite>  (1) 
-0.050293890358644247

>  <r_i_glide_evdw>  (1) 
-40.443219001800443

>  <r_i_glide_gscore>  (1) 
-8.9008866518661893

>  <r_i_glide_gscore_strain>  (1) 
0

>  <r_i_glide_hbond>  (1) 
-0.52731181509949732

>  <r_i_glide_ligand_efficiency>  (1) 
-0.27772323365728857

>  <r_i_glide_ligand_efficiency_ln>  (1) 
-1.9900736788894235

>  <r_i_glide_ligand_efficiency_sa>  (1) 
-0.88171630652718003

>  <r_i_glide_lipo>  (1) 
-4.7630004608500878

>  <r_i_glide_metal>  (1) 
-0

>  <r_i_glide_rewards>  (1) 
-1.3046575888340022

>  <r_lp_Energy>  (1) 
25.015605999999998

>  <s_epik_cmdline>  (1) 
J2VwaWtfcHl0aG9uJywgJy1waHQnLCAnMS4wJywgJy1waCcsICc3LjQnLCAnLXRuJywgJzgnLCAnLW1hJywgJzUwMCcsICctaW1hZScsICc8aW5maWxlLm1hZT4nLCAnLW9tYWUnLCAnPG91dGZpbGUubWFlPic=

>  <s_epik_input>  (1) 
W0NIM11bQ0BIXTFbQ0gyXVtDSF09W0NIXVtDSF09QzFbQ0gyXVtDQEhdKEMoPU8pW09IXSlbQ0gyXU4oW0NIMl1bQ0gyXVtDSDJdW0NIM10pW0NIMl1bQ0BIXShbT0hdKVtDSDJdW0NASF0oW09IXSlDKFtDSDJdMik9W0NIXVtDSF09W0NIXVtDSF09QzJbT0hd

>  <s_glide_docking_method>  (1) 
confgen

>  <s_i_glide_gridfile>  (1) 
gpcr_5ht2c_6bqh_protein_autoprepared_prepared

>  <s_lp_Force_Field>  (1) 
S-OPLS

>  <s_lp_Variant>  (1) 
DiffSBDD_19_num_sample_100-1

>  <s_m_source_file>  (1) 
generated__ligand_DiffSBDD_2026-05-06_prepared.sdf

>  <GenAI_Model>  (1) 
DiffSBDD

>  <Protein>  (1) 
GPCR_5HT2C

$$$$
DiffSBDD_24_num_sample_100
     RDKit          3D

  0  0  0  0  0  0  0  0  0  0999 V3000
M  V30 BEGIN CTAB
M  V30 COUNTS 62 64 0 0 1
M  V30 BEGIN ATOM
M  V30 1 C 38.891499 32.243750 55.948014 0
M  V30 2 O 39.570555 33.544290 60.660140 0
M  V30 3 C 37.268585 36.916762 60.870846 0
M  V30 4 C 37.108661 23.868132 56.156386 0
M  V30 5 C 37.432047 25.315442 58.165695 0
M  V30 6 N 37.632539 34.553745 60.095735 0
M  V30 7 C 37.250363 33.493278 59.158656 0
M  V30 8 C 38.961172 29.386816 53.374732 0
M  V30 9 C 38.491745 28.465218 55.632915 0
M  V30 10 N 37.808809 24.973100 56.818942 0
M  V30 11 O 41.300664 34.837165 62.676325 0
M  V30 12 N 38.121370 36.608551 62.010635 0
M  V30 13 C 40.053505 30.313803 51.214426 0
M  V30 14 C 39.991292 35.291363 62.948186 0
M  V30 15 C 38.218855 27.384394 56.493141 0
M  V30 16 C 39.229600 35.706823 61.669113 0 CFG=1
M  V30 17 C 38.564311 29.753023 56.169878 0
M  V30 18 N 37.867403 32.409364 57.006243 0 CHG=1
M  V30 19 C 38.690429 28.248773 54.240759 0
M  V30 20 C 38.123561 26.070871 55.980491 0
M  V30 21 C 39.136052 29.282995 51.861107 0
M  V30 22 C 38.808171 34.505618 60.777023 0
M  V30 23 C 39.049871 30.674410 53.968432 0
M  V30 24 C 38.521387 28.349781 51.104342 0
M  V30 25 C 38.350692 25.850595 54.624463 0
M  V30 26 C 38.652044 26.913402 53.755990 0
M  V30 27 C 36.660333 35.627898 60.302539 0
M  V30 28 C 38.088232 33.573960 57.871768 0
M  V30 29 C 38.837745 30.853573 55.348035 0
M  V30 30 H 38.741088 33.001806 55.177543 0
M  V30 31 H 39.891976 32.387135 56.356434 0
M  V30 32 H 37.857169 37.415164 60.098890 0
M  V30 33 H 36.479678 37.612342 61.161025 0
M  V30 34 H 36.284178 24.237859 55.547644 0
M  V30 35 H 37.765454 23.292808 55.502089 0
M  V30 36 H 36.676366 23.180421 56.883996 0
M  V30 37 H 38.272634 25.730703 58.721292 0
M  V30 38 H 36.594940 26.014105 58.156527 0
M  V30 39 H 37.101286 24.416618 58.660985 0
M  V30 40 H 37.369498 32.521996 59.642032 0
M  V30 41 H 36.188575 33.570124 58.913368 0
M  V30 42 H 41.699607 34.565889 63.489599 0
M  V30 43 H 37.564701 36.188629 62.748519 0
M  V30 44 H 39.687233 31.335475 51.305627 0
M  V30 45 H 41.049454 30.249337 51.644635 0
M  V30 46 H 40.162681 30.121777 50.147219 0
M  V30 47 H 39.467548 34.483852 63.453373 0
M  V30 48 H 40.060153 36.123913 63.650697 0
M  V30 49 H 38.062774 27.573686 57.543394 0
M  V30 50 H 39.932796 36.282858 61.066003 0
M  V30 51 H 38.405445 29.896174 57.227838 0
M  V30 52 H 37.915684 31.600891 57.605823 0
M  V30 53 H 39.247766 31.537248 53.353569 0
M  V30 54 H 38.689233 28.313218 50.037953 0
M  V30 55 H 37.840834 27.632159 51.518359 0
M  V30 56 H 38.302482 24.850938 54.248697 0
M  V30 57 H 38.862834 26.684593 52.739116 0
M  V30 58 H 36.165352 35.862239 59.358757 0
M  V30 59 H 35.892835 35.221894 60.966392 0
M  V30 60 H 37.847311 34.473462 57.308924 0
M  V30 61 H 39.147820 33.614899 58.121630 0
M  V30 62 H 36.910440 32.414361 56.639517 0
M  V30 END ATOM
M  V30 BEGIN BOND
M  V30 1 1 7 6
M  V30 2 1 10 4
M  V30 3 1 10 5
M  V30 4 1 12 3
M  V30 5 1 14 11
M  V30 6 1 15 9
M  V30 7 1 16 12
M  V30 8 1 16 14
M  V30 9 2 17 9
M  V30 10 1 18 1
M  V30 11 2 19 8
M  V30 12 1 19 9
M  V30 13 1 20 10
M  V30 14 2 20 15
M  V30 15 1 21 8
M  V30 16 1 21 13
M  V30 17 2 22 2
M  V30 18 1 22 6
M  V30 19 1 22 16
M  V30 20 1 23 8
M  V30 21 2 24 21
M  V30 22 1 25 20
M  V30 23 1 26 19
M  V30 24 2 26 25
M  V30 25 1 27 3
M  V30 26 1 27 6
M  V30 27 1 28 7
M  V30 28 1 28 18
M  V30 29 1 29 1
M  V30 30 1 29 17
M  V30 31 2 29 23
M  V30 32 1 30 1
M  V30 33 1 31 1
M  V30 34 1 32 3
M  V30 35 1 33 3
M  V30 36 1 34 4
M  V30 37 1 35 4
M  V30 38 1 36 4
M  V30 39 1 37 5
M  V30 40 1 38 5
M  V30 41 1 39 5
M  V30 42 1 40 7
M  V30 43 1 41 7
M  V30 44 1 42 11
M  V30 45 1 43 12
M  V30 46 1 44 13
M  V30 47 1 45 13
M  V30 48 1 46 13
M  V30 49 1 47 14
M  V30 50 1 48 14
M  V30 51 1 49 15
M  V30 52 1 16 50 CFG=3
M  V30 53 1 51 17
M  V30 54 1 52 18
M  V30 55 1 53 23
M  V30 56 1 54 24
M  V30 57 1 55 24
M  V30 58 1 56 25
M  V30 59 1 57 26
M  V30 60 1 58 27
M  V30 61 1 59 27
M  V30 62 1 60 28
M  V30 63 1 61 28
M  V30 64 1 62 18
M  V30 END BOND
M  V30 END CTAB
M  END
>  <i_epik_Tot_Q>  (1) 
1

>  <i_epik_Tot_abs_Q>  (1) 
1

>  <i_i_glide_confnum>  (1) 
725

>  <i_i_glide_lignum>  (1) 
62

>  <i_i_glide_posenum>  (1) 
284

>  <i_i_glide_rotatable_bonds>  (1) 
9

>  <i_lp_mmshare_version>  (1) 
72125

>  <i_m_source_file_index>  (1) 
25

>  <i_f3d_flags>  (1) 
0

>  <num_sample>  (1) 
100

>  <b_lp_Chiralities_Consistent>  (1) 
1

>  <r_epik_Charging_Adjusted_Penalty>  (1) 
0.46759718330573113

>  <r_epik_Ionization_Penalty>  (1) 
0.33050907740455537

>  <r_epik_Ionization_Penalty_Charging>  (1) 
0.11171656725362118

>  <r_epik_Ionization_Penalty_Neutral>  (1) 
0.21879251015093421

>  <r_epik_State_Penalty>  (1) 
0.35588061605210997

>  <r_glide_ring_energy>  (1) 
0

>  <r_i_docking_score>  (1) 
-8.8769415213964074

>  <r_i_glide_ecoul>  (1) 
-6.4502917655775018

>  <r_i_glide_eff_state_penalty>  (1) 
0.35588061605210997

>  <r_i_glide_einternal>  (1) 
7.0734511880910063

>  <r_i_glide_emodel>  (1) 
-77.474427653076233

>  <r_i_glide_emodel_strain>  (1) 
0.1236672175507465

>  <r_i_glide_energy>  (1) 
-48.290806367724642

>  <r_i_glide_erotb>  (1) 
0.8670523998276507

>  <r_i_glide_esite>  (1) 
-0.10000000000000001

>  <r_i_glide_evdw>  (1) 
-41.840514602147138

>  <r_i_glide_gscore>  (1) 
-9.2328221374485171

>  <r_i_glide_gscore_strain>  (1) 
0

>  <r_i_glide_hbond>  (1) 
-0.25321646443892631

>  <r_i_glide_ligand_efficiency>  (1) 
-0.30610143177228993

>  <r_i_glide_ligand_efficiency_ln>  (1) 
-2.0325945085849382

>  <r_i_glide_ligand_efficiency_sa>  (1) 
-0.94044057920053481

>  <r_i_glide_lipo>  (1) 
-4.3693212933854957

>  <r_i_glide_metal>  (1) 
-0

>  <r_i_glide_rewards>  (1) 
-2.3177672845077644

>  <r_lp_Energy>  (1) 
66.45371999999999

>  <s_epik_cmdline>  (1) 
J2VwaWtfcHl0aG9uJywgJy1waHQnLCAnMS4wJywgJy1waCcsICc3LjQnLCAnLXRuJywgJzgnLCAnLW1hJywgJzUwMCcsICctaW1hZScsICc8aW5maWxlLm1hZT4nLCAnLW9tYWUnLCAnPG91dGZpbGUubWFlPic=

>  <s_epik_input>  (1) 
W0NIMl0xW0NIMl1bTkhdW0NAQEhdKFtDSDJdW09IXSlDKD1PKU4xW0NIMl1bQ0gyXVtOSF1bQ0gyXWMoW2NIXTIpW2NIXWMoQyhbQ0gzXSk9W0NIMl0pYyhjMjMpW2NIXVtjSF1jKFtjSF0zKU4oW0NIM10pW0NIM10=

>  <s_glide_docking_method>  (1) 
confgen

>  <s_i_glide_gridfile>  (1) 
gpcr_5ht2c_6bqh_protein_autoprepared_prepared

>  <s_lp_Force_Field>  (1) 
S-OPLS

>  <s_lp_Variant>  (1) 
DiffSBDD_24_num_sample_100-1

>  <s_m_source_file>  (1) 
generated__ligand_DiffSBDD_2026-05-06_prepared.sdf

>  <GenAI_Model>  (1) 
DiffSBDD

>  <Protein>  (1) 
GPCR_5HT2C

$$$$
DiffSBDD_24_num_sample_100
     RDKit          3D

  0  0  0  0  0  0  0  0  0  0999 V3000
M  V30 BEGIN CTAB
M  V30 COUNTS 62 64 0 0 1
M  V30 BEGIN ATOM
M  V30 1 C 38.644923 30.819390 58.256118 0
M  V30 2 O 39.864852 34.024542 60.829761 0
M  V30 3 C 37.076616 37.021104 60.893271 0
M  V30 4 C 40.210328 30.997145 50.974576 0
M  V30 5 C 39.867389 28.715110 49.957258 0
M  V30 6 N 37.812859 34.728876 60.201006 0
M  V30 7 C 37.671225 33.701318 59.156153 0
M  V30 8 C 38.365369 27.576679 56.201950 0
M  V30 9 C 38.919818 29.472224 54.698498 0
M  V30 10 N 39.607748 29.668297 51.020399 0
M  V30 11 O 41.357529 35.615238 62.808976 0
M  V30 12 N 37.958333 36.902056 62.046381 0
M  V30 13 C 38.431147 25.598499 57.860922 0
M  V30 14 C 40.012080 35.972995 63.050912 0
M  V30 15 C 39.220469 29.990474 53.425381 0
M  V30 16 C 39.187508 36.153001 61.754812 0 CFG=1
M  V30 17 C 38.889695 30.344793 55.794571 0
M  V30 18 N 37.296288 31.271505 58.653710 0 CHG=1
M  V30 19 C 38.669084 28.081316 54.873273 0
M  V30 20 C 39.296298 29.138242 52.301858 0
M  V30 21 C 38.023148 26.122614 56.494484 0
M  V30 22 C 38.964523 34.861425 60.911505 0
M  V30 23 C 38.385995 28.491532 57.290607 0
M  V30 24 C 37.386003 25.319233 55.616039 0
M  V30 25 C 39.067291 27.752434 52.469960 0
M  V30 26 C 38.769506 27.225921 53.738624 0
M  V30 27 C 36.667649 35.621746 60.414147 0
M  V30 28 C 37.303555 32.309769 59.711544 0
M  V30 29 C 38.638066 29.860701 57.082610 0
M  V30 30 H 39.227227 31.687323 57.956022 0
M  V30 31 H 39.153967 30.361945 59.105837 0
M  V30 32 H 37.583509 37.557881 60.089380 0
M  V30 33 H 36.198880 37.615934 61.147588 0
M  V30 34 H 39.467487 31.766017 51.181627 0
M  V30 35 H 41.027368 31.096049 51.688862 0
M  V30 36 H 40.621083 31.207238 49.986334 0
M  V30 37 H 40.620414 27.985538 50.253923 0
M  V30 38 H 38.946783 28.188494 49.716089 0
M  V30 39 H 40.210024 29.220658 49.053513 0
M  V30 40 H 36.917638 34.001638 58.426212 0
M  V30 41 H 38.602193 33.663533 58.590636 0
M  V30 42 H 41.801685 36.358144 62.428027 0
M  V30 43 H 37.461633 36.442249 62.804052 0
M  V30 44 H 39.496471 25.758183 58.032338 0
M  V30 45 H 37.867331 26.079393 58.653421 0
M  V30 46 H 38.242353 24.527118 57.937806 0
M  V30 47 H 39.558086 35.221447 63.690365 0
M  V30 48 H 40.025589 36.901646 63.624082 0
M  V30 49 H 39.400871 31.048977 53.315542 0
M  V30 50 H 39.790664 36.782502 61.104224 0
M  V30 51 H 39.084651 31.397665 55.646146 0
M  V30 52 H 36.788186 30.467812 58.990190 0
M  V30 53 H 38.180609 28.142145 58.289499 0
M  V30 54 H 37.176077 24.289771 55.867041 0
M  V30 55 H 37.055309 25.668129 54.657287 0
M  V30 56 H 39.133575 27.081963 51.628004 0
M  V30 57 H 38.652754 26.172145 53.827783 0
M  V30 58 H 36.070016 35.718488 59.506398 0
M  V30 59 H 36.026759 35.145791 61.156926 0
M  V30 60 H 37.980234 32.011246 60.513714 0
M  V30 61 H 36.304200 32.354126 60.146062 0
M  V30 62 H 36.774791 31.621413 57.845004 0
M  V30 END ATOM
M  V30 BEGIN BOND
M  V30 1 1 7 6
M  V30 2 1 10 4
M  V30 3 1 10 5
M  V30 4 1 12 3
M  V30 5 1 14 11
M  V30 6 1 15 9
M  V30 7 1 16 12
M  V30 8 1 16 14
M  V30 9 2 17 9
M  V30 10 1 18 1
M  V30 11 2 19 8
M  V30 12 1 19 9
M  V30 13 1 20 10
M  V30 14 2 20 15
M  V30 15 1 21 8
M  V30 16 1 21 13
M  V30 17 2 22 2
M  V30 18 1 22 6
M  V30 19 1 22 16
M  V30 20 1 23 8
M  V30 21 2 24 21
M  V30 22 1 25 20
M  V30 23 1 26 19
M  V30 24 2 26 25
M  V30 25 1 27 3
M  V30 26 1 27 6
M  V30 27 1 28 7
M  V30 28 1 28 18
M  V30 29 1 29 1
M  V30 30 1 29 17
M  V30 31 2 29 23
M  V30 32 1 30 1
M  V30 33 1 31 1
M  V30 34 1 32 3
M  V30 35 1 33 3
M  V30 36 1 34 4
M  V30 37 1 35 4
M  V30 38 1 36 4
M  V30 39 1 37 5
M  V30 40 1 38 5
M  V30 41 1 39 5
M  V30 42 1 40 7
M  V30 43 1 41 7
M  V30 44 1 42 11
M  V30 45 1 43 12
M  V30 46 1 44 13
M  V30 47 1 45 13
M  V30 48 1 46 13
M  V30 49 1 47 14
M  V30 50 1 48 14
M  V30 51 1 49 15
M  V30 52 1 16 50 CFG=3
M  V30 53 1 51 17
M  V30 54 1 52 18
M  V30 55 1 53 23
M  V30 56 1 54 24
M  V30 57 1 55 24
M  V30 58 1 56 25
M  V30 59 1 57 26
M  V30 60 1 58 27
M  V30 61 1 59 27
M  V30 62 1 60 28
M  V30 63 1 61 28
M  V30 64 1 62 18
M  V30 END BOND
M  V30 END CTAB
M  END
>  <i_epik_Tot_Q>  (1) 
1

>  <i_epik_Tot_abs_Q>  (1) 
1

>  <i_i_glide_confnum>  (1) 
179

>  <i_i_glide_lignum>  (1) 
62

>  <i_i_glide_posenum>  (1) 
140

>  <i_i_glide_rotatable_bonds>  (1) 
9

>  <i_lp_mmshare_version>  (1) 
72125

>  <i_m_source_file_index>  (1) 
25

>  <i_f3d_flags>  (1) 
0

>  <num_sample>  (1) 
100

>  <b_lp_Chiralities_Consistent>  (1) 
1

>  <r_epik_Charging_Adjusted_Penalty>  (1) 
0.46759718330573113

>  <r_epik_Ionization_Penalty>  (1) 
0.33050907740455537

>  <r_epik_Ionization_Penalty_Charging>  (1) 
0.11171656725362118

>  <r_epik_Ionization_Penalty_Neutral>  (1) 
0.21879251015093421

>  <r_epik_State_Penalty>  (1) 
0.35588061605210997

>  <r_glide_ring_energy>  (1) 
0

>  <r_i_docking_score>  (1) 
-8.8270240639888851

>  <r_i_glide_ecoul>  (1) 
-5.5410915300975487

>  <r_i_glide_eff_state_penalty>  (1) 
0.35588061605210997

>  <r_i_glide_einternal>  (1) 
4.402178626593475

>  <r_i_glide_emodel>  (1) 
-79.732791624140987

>  <r_i_glide_emodel_strain>  (1) 
0

>  <r_i_glide_energy>  (1) 
-49.267438730251165

>  <r_i_glide_erotb>  (1) 
0.8670523998276507

>  <r_i_glide_esite>  (1) 
-0.10000000000000001

>  <r_i_glide_evdw>  (1) 
-43.726347200153619

>  <r_i_glide_gscore>  (1) 
-9.1829046800409948

>  <r_i_glide_gscore_strain>  (1) 
0

>  <r_i_glide_hbond>  (1) 
-0.20000000000000001

>  <r_i_glide_ligand_efficiency>  (1) 
-0.30438014013754777

>  <r_i_glide_ligand_efficiency_ln>  (1) 
-2.0211646766361193

>  <r_i_glide_ligand_efficiency_sa>  (1) 
-0.93515222594920422

>  <r_i_glide_lipo>  (1) 
-4.2623678506236127

>  <r_i_glide_metal>  (1) 
-0

>  <r_i_glide_rewards>  (1) 
-2.4701081397227216

>  <r_lp_Energy>  (1) 
66.45371999999999

>  <s_epik_cmdline>  (1) 
J2VwaWtfcHl0aG9uJywgJy1waHQnLCAnMS4wJywgJy1waCcsICc3LjQnLCAnLXRuJywgJzgnLCAnLW1hJywgJzUwMCcsICctaW1hZScsICc8aW5maWxlLm1hZT4nLCAnLW9tYWUnLCAnPG91dGZpbGUubWFlPic=

>  <s_epik_input>  (1) 
W0NIMl0xW0NIMl1bTkhdW0NAQEhdKFtDSDJdW09IXSlDKD1PKU4xW0NIMl1bQ0gyXVtOSF1bQ0gyXWMoW2NIXTIpW2NIXWMoQyhbQ0gzXSk9W0NIMl0pYyhjMjMpW2NIXVtjSF1jKFtjSF0zKU4oW0NIM10pW0NIM10=

>  <s_glide_docking_method>  (1) 
confgen

>  <s_i_glide_gridfile>  (1) 
gpcr_5ht2c_6bqh_protein_autoprepared_prepared

>  <s_lp_Force_Field>  (1) 
S-OPLS

>  <s_lp_Variant>  (1) 
DiffSBDD_24_num_sample_100-1

>  <s_m_source_file>  (1) 
generated__ligand_DiffSBDD_2026-05-06_prepared.sdf

>  <GenAI_Model>  (1) 
DiffSBDD

>  <Protein>  (1) 
GPCR_5HT2C

$$$$
DiffSBDD_48_num_sample_100
     RDKit          3D

  0  0  0  0  0  0  0  0  0  0999 V3000
M  V30 BEGIN CTAB
M  V30 COUNTS 71 75 0 0 1
M  V30 BEGIN ATOM
M  V30 1 C 37.555537 25.302716 54.934199 0
M  V30 2 C 37.594480 33.783596 60.317011 0 CFG=1
M  V30 3 C 38.395507 26.016678 57.507493 0
M  V30 4 C 40.103949 29.243101 49.953104 0
M  V30 5 C 38.009795 27.917262 53.089977 0
M  V30 6 C 39.896810 27.608454 58.305233 0 CFG=1
M  V30 7 O 39.604764 35.109266 60.652915 0
M  V30 8 O 41.064240 32.899010 61.548145 0
M  V30 9 C 39.028196 27.084549 53.876442 0
M  V30 10 C 39.661073 28.944828 59.031285 0
M  V30 11 C 38.947803 26.441001 58.819199 0
M  V30 12 N 39.770659 27.706015 56.822173 0
M  V30 13 C 38.206061 31.002505 59.084237 0
M  V30 14 C 39.867509 32.785426 61.281982 0
M  V30 15 C 39.215547 30.901393 62.860782 0
M  V30 16 C 38.660840 28.883416 52.059758 0 CFG=1
M  V30 17 N 38.364195 29.575321 58.695176 0 CHG=1
M  V30 18 C 37.890015 31.260876 60.598675 0 CFG=2
M  V30 19 C 39.467429 30.024440 52.723995 0
M  V30 20 C 37.050401 24.607701 56.058912 0
M  V30 21 C 41.007134 27.709397 56.077895 0
M  V30 22 O 39.941486 30.339565 61.759601 0
M  V30 23 O 39.462861 30.195164 53.943469 0
M  V30 24 O 35.712952 32.217665 60.252600 0
M  V30 25 C 36.971262 32.473729 60.841363 0 CFG=2
M  V30 26 C 40.253976 30.954327 51.798819 0
M  V30 27 C 36.724826 35.013450 60.644362 0
M  V30 28 C 39.067423 34.004979 60.743612 0
M  V30 29 C 39.121322 31.480915 61.474275 0 CFG=1
M  V30 30 C 39.479134 28.214344 50.930025 0
M  V30 31 C 38.483393 26.356554 55.110498 0
M  V30 32 C 38.880817 26.697757 56.451265 0
M  V30 33 C 37.476782 24.965419 57.355797 0
M  V30 34 C 41.010734 30.221456 50.680061 0
M  V30 35 H 37.234928 25.025927 53.939766 0
M  V30 36 H 37.632302 33.708994 59.229864 0
M  V30 37 H 39.348981 29.830525 49.457194 0
M  V30 38 H 40.656380 28.779594 49.142215 0
M  V30 39 H 37.296561 27.257772 52.602048 0
M  V30 40 H 37.422222 28.509797 53.792845 0
M  V30 41 H 40.912364 27.288971 58.546942 0
M  V30 42 H 39.858576 27.721283 54.061439 0
M  V30 43 H 39.435374 26.324411 53.211052 0
M  V30 44 H 40.476752 29.622506 58.787286 0
M  V30 45 H 39.702434 28.748189 60.097910 0
M  V30 46 H 39.536582 25.623214 59.219228 0
M  V30 47 H 38.267324 26.821734 59.558999 0
M  V30 48 H 37.372925 31.359867 58.477582 0
M  V30 49 H 39.067405 31.576470 58.745452 0
M  V30 50 H 39.839279 31.389640 63.607867 0
M  V30 51 H 38.376397 30.317585 63.222611 0
M  V30 52 H 37.606260 29.034227 59.083970 0
M  V30 53 H 37.348774 30.402002 60.990860 0
M  V30 54 H 36.345654 23.799563 55.923763 0
M  V30 55 H 41.067403 26.801952 55.477582 0
M  V30 56 H 41.063486 28.604815 55.457935 0
M  V30 57 H 41.875590 27.727302 56.736106 0
M  V30 58 H 39.542944 31.651164 51.355424 0
M  V30 59 H 35.215719 33.021998 60.212689 0
M  V30 60 H 36.788159 32.575564 61.913429 0
M  V30 61 H 40.938410 31.546156 52.398639 0
M  V30 62 H 37.826467 29.343793 51.546951 0
M  V30 63 H 37.169186 35.931359 60.258308 0
M  V30 64 H 35.741020 34.929360 60.183645 0
M  V30 65 H 36.583986 35.134500 61.719665 0
M  V30 66 H 40.267362 27.621428 51.378025 0
M  V30 67 H 38.849300 27.515773 50.378832 0
M  V30 68 H 37.107518 24.431719 58.218745 0
M  V30 69 H 41.408575 30.950543 49.974645 0
M  V30 70 H 41.869368 29.674416 51.053500 0
M  V30 71 H 38.291160 29.523153 57.686470 0
M  V30 END ATOM
M  V30 BEGIN BOND
M  V30 1 1 9 5
M  V30 2 1 10 6
M  V30 3 1 11 3
M  V30 4 1 11 6
M  V30 5 1 12 6
M  V30 6 2 14 8
M  V30 7 1 16 5
M  V30 8 1 17 10
M  V30 9 1 17 13
M  V30 10 1 18 13
M  V30 11 1 19 16
M  V30 12 2 20 1
M  V30 13 1 21 12
M  V30 14 1 22 15
M  V30 15 2 23 19
M  V30 16 1 25 2
M  V30 17 1 25 18
M  V30 18 1 25 24
M  V30 19 1 26 19
M  V30 20 1 27 2
M  V30 21 1 28 2
M  V30 22 2 28 7
M  V30 23 1 28 14
M  V30 24 1 29 14
M  V30 25 1 29 15
M  V30 26 1 29 18
M  V30 27 1 29 22 CFG=3
M  V30 28 1 30 4
M  V30 29 1 30 16
M  V30 30 1 31 1
M  V30 31 1 31 9
M  V30 32 1 32 3
M  V30 33 1 32 12
M  V30 34 2 32 31
M  V30 35 2 33 3
M  V30 36 1 33 20
M  V30 37 1 34 4
M  V30 38 1 34 26
M  V30 39 1 35 1
M  V30 40 1 2 36 CFG=3
M  V30 41 1 37 4
M  V30 42 1 38 4
M  V30 43 1 39 5
M  V30 44 1 40 5
M  V30 45 1 6 41 CFG=3
M  V30 46 1 42 9
M  V30 47 1 43 9
M  V30 48 1 44 10
M  V30 49 1 45 10
M  V30 50 1 46 11
M  V30 51 1 47 11
M  V30 52 1 48 13
M  V30 53 1 49 13
M  V30 54 1 50 15
M  V30 55 1 51 15
M  V30 56 1 52 17
M  V30 57 1 18 53 CFG=1
M  V30 58 1 54 20
M  V30 59 1 55 21
M  V30 60 1 56 21
M  V30 61 1 57 21
M  V30 62 1 58 26
M  V30 63 1 59 24
M  V30 64 1 25 60 CFG=1
M  V30 65 1 61 26
M  V30 66 1 16 62 CFG=3
M  V30 67 1 63 27
M  V30 68 1 64 27
M  V30 69 1 65 27
M  V30 70 1 66 30
M  V30 71 1 67 30
M  V30 72 1 68 33
M  V30 73 1 69 34
M  V30 74 1 70 34
M  V30 75 1 71 17
M  V30 END BOND
M  V30 END CTAB
M  END
>  <i_epik_Tot_Q>  (1) 
1

>  <i_epik_Tot_abs_Q>  (1) 
1

>  <i_i_glide_confnum>  (1) 
511

>  <i_i_glide_lignum>  (1) 
131

>  <i_i_glide_posenum>  (1) 
261

>  <i_i_glide_rotatable_bonds>  (1) 
8

>  <i_lp_mmshare_version>  (1) 
72125

>  <i_m_source_file_index>  (1) 
49

>  <i_f3d_flags>  (1) 
0

>  <num_sample>  (1) 
100

>  <b_lp_Chiralities_Consistent>  (1) 
1

>  <r_epik_Charging_Adjusted_Penalty>  (1) 
0.027363245261170371

>  <r_epik_Ionization_Penalty>  (1) 
0.0277407901544389

>  <r_epik_Ionization_Penalty_Charging>  (1) 
0.027363245261170371

>  <r_epik_Ionization_Penalty_Neutral>  (1) 
0.00037754489326852995

>  <r_epik_State_Penalty>  (1) 
-0

>  <r_glide_ring_energy>  (1) 
0

>  <r_i_docking_score>  (1) 
-8.8109419670392697

>  <r_i_glide_ecoul>  (1) 
-0.79435485243496684

>  <r_i_glide_eff_state_penalty>  (1) 
-0

>  <r_i_glide_einternal>  (1) 
19.024137840397437

>  <r_i_glide_emodel>  (1) 
-65.5391108569533

>  <r_i_glide_emodel_strain>  (1) 
0.16707530898368361

>  <r_i_glide_energy>  (1) 
-44.611639004890108

>  <r_i_glide_erotb>  (1) 
0.64114366914740972

>  <r_i_glide_esite>  (1) 
0

>  <r_i_glide_evdw>  (1) 
-43.817284152455144

>  <r_i_glide_gscore>  (1) 
-8.8109419670392697

>  <r_i_glide_gscore_strain>  (1) 
0

>  <r_i_glide_hbond>  (1) 
0

>  <r_i_glide_ligand_efficiency>  (1) 
-0.25914535197174321

>  <r_i_glide_ligand_efficiency_ln>  (1) 
-1.9465842190700096

>  <r_i_glide_ligand_efficiency_sa>  (1) 
-0.83953034049386666

>  <r_i_glide_lipo>  (1) 
-5.2229606451072561

>  <r_i_glide_metal>  (1) 
-0

>  <r_i_glide_rewards>  (1) 
-1.9191075555914217

>  <r_lp_Energy>  (1) 
35.25817

>  <r_lp_tautomer_probability>  (1) 
1

>  <s_epik_cmdline>  (1) 
J2VwaWtfcHl0aG9uJywgJy1waHQnLCAnMS4wJywgJy1waCcsICc3LjQnLCAnLXRuJywgJzgnLCAnLW1hJywgJzUwMCcsICctaW1hZScsICc8aW5maWxlLm1hZT4nLCAnLW9tYWUnLCAnPG91dGZpbGUubWFlPic=

>  <s_epik_input>  (1) 
W0NIMl0xW0NIMl1bQ0gyXVtDSDJdQyhbT0hdKT1DMVtDSDJdW0NIMl1jKFtjSF1bY0hdW2NIXTIpYyhjMjMpTihbQ0gzXSlbQ0BIXShbQ0gyXTMpW0NIMl1bTkhdW0NIMl1bQ0BASF00W0NASF0oW09IXSlbQ0BASF0oW0NIM10pQyg9TylDKD1PKVtDQEBdNDVbQ0gyXU81

>  <s_glide_docking_method>  (1) 
confgen

>  <s_i_glide_gridfile>  (1) 
gpcr_5ht2c_6bqh_protein_autoprepared_prepared

>  <s_lp_Force_Field>  (1) 
S-OPLS

>  <s_lp_Variant>  (1) 
DiffSBDD_48_num_sample_100-1

>  <s_m_source_file>  (1) 
generated__ligand_DiffSBDD_2026-05-06_prepared.sdf

>  <GenAI_Model>  (1) 
DiffSBDD

>  <Protein>  (1) 
GPCR_5HT2C

$$$$
DiffSBDD_15_num_sample_100
     RDKit          3D

  0  0  0  0  0  0  0  0  0  0999 V3000
M  V30 BEGIN CTAB
M  V30 COUNTS 74 79 0 0 1
M  V30 BEGIN ATOM
M  V30 1 C 38.338701 29.585414 58.311763 0
M  V30 2 S 38.146660 26.598586 55.421496 0
M  V30 3 N 39.814394 35.870080 61.683532 0
M  V30 4 C 40.565472 30.545563 50.990849 0
M  V30 5 C 37.127858 37.498730 62.326630 0
M  V30 6 C 42.177531 33.522395 63.781189 0
M  V30 7 S 40.085924 31.814924 61.995866 0
M  V30 8 S 37.067649 36.052121 61.229057 0
M  V30 9 O 39.467220 31.553329 63.295166 0
M  V30 10 C 39.257622 28.147007 52.089753 0
M  V30 11 C 39.360264 29.186081 52.939971 0
M  V30 12 C 38.786142 27.680837 56.740280 0 CFG=1
M  V30 13 C 41.376374 34.702537 63.280503 0 CFG=1
M  V30 14 N 38.813504 27.026242 52.759415 0
M  V30 15 C 36.748919 38.786573 61.587126 0
M  V30 16 C 37.861542 39.284451 60.652069 0
M  V30 17 C 40.718816 34.672746 61.877540 0 CFG=1
M  V30 18 C 40.988213 28.152969 59.068289 0
M  V30 19 S 39.867589 30.816072 52.664507 0
M  V30 20 C 39.562879 28.142740 50.639872 0
M  V30 21 N 38.659459 33.982595 61.394912 0
M  V30 22 C 38.741406 28.707207 59.514944 0 CFG=2
M  V30 23 N 40.667373 35.408698 64.331567 0
M  V30 24 O 37.467367 29.687568 56.150955 0
M  V30 25 C 39.668774 29.611195 50.149340 0
M  V30 26 C 39.127699 30.950857 60.710609 0
M  V30 27 C 37.765753 28.760967 57.173939 0 CFG=2
M  V30 28 N 39.861638 33.463101 61.562844 0
M  V30 29 C 39.532727 29.467046 60.574399 0 CFG=2
M  V30 30 C 41.856886 36.021438 63.758767 0
M  V30 31 C 38.690457 35.304823 61.464261 0
M  V30 32 C 40.992874 29.187525 60.195029 0
M  V30 33 O 41.501002 31.511286 61.801921 0
M  V30 34 C 38.679602 27.491854 54.006174 0
M  V30 35 N 39.628306 27.597335 59.112832 0 CFG=1 CHG=1
M  V30 36 O 39.009528 28.805585 54.184051 0
M  V30 37 C 39.177071 26.804398 57.943663 0
M  V30 38 H 39.200727 30.143756 57.939351 0
M  V30 39 H 37.592149 30.320546 58.616667 0
M  V30 40 H 40.654788 31.509672 50.492538 0
M  V30 41 H 41.568403 30.124485 51.051217 0
M  V30 42 H 36.414906 37.319032 63.132772 0
M  V30 43 H 38.102304 37.599207 62.804345 0
M  V30 44 H 42.808301 33.143291 62.983157 0
M  V30 45 H 42.821278 33.809432 64.613766 0
M  V30 46 H 41.529197 32.733353 64.151680 0
M  V30 47 H 39.698408 28.158615 56.384383 0
M  V30 48 H 35.814839 38.631358 61.053085 0
M  V30 49 H 36.522234 39.571725 62.304851 0
M  V30 50 H 37.639694 40.285456 60.285621 0
M  V30 51 H 38.827379 39.322057 61.156374 0
M  V30 52 H 37.965789 38.631401 59.787229 0
M  V30 53 H 41.525507 34.714464 61.145179 0
M  V30 54 H 41.162310 28.656093 58.116961 0
M  V30 55 H 41.765597 27.396916 59.178107 0
M  V30 56 H 40.496682 27.620877 50.451351 0
M  V30 57 H 38.792021 27.603494 50.094736 0
M  V30 58 H 37.839792 33.419145 61.229927 0
M  V30 59 H 37.867631 28.291844 59.980943 0
M  V30 60 H 40.752373 35.058143 65.275159 0
M  V30 61 H 36.804281 30.302793 56.450752 0
M  V30 62 H 38.683903 30.057183 50.253508 0
M  V30 63 H 39.945484 29.636002 49.094032 0
M  V30 64 H 39.293991 31.508023 59.788837 0
M  V30 65 H 38.073904 31.045711 60.970681 0
M  V30 66 H 36.849267 28.282968 57.512790 0
M  V30 67 H 39.349856 28.981633 61.536307 0
M  V30 68 H 42.748841 36.065508 64.378945 0
M  V30 69 H 41.744026 36.848030 63.056797 0
M  V30 70 H 41.467565 30.095321 59.853136 0
M  V30 71 H 41.523400 28.820176 61.073698 0
M  V30 72 H 39.954283 26.088527 57.668204 0
M  V30 73 H 38.312166 26.217911 58.259110 0
M  V30 74 H 39.642605 26.961467 59.898737 0
M  V30 END ATOM
M  V30 BEGIN BOND
M  V30 1 1 8 5
M  V30 2 2 9 7
M  V30 3 2 11 10
M  V30 4 1 12 2
M  V30 5 1 13 6 CFG=1
M  V30 6 1 14 10
M  V30 7 1 15 5
M  V30 8 1 16 15
M  V30 9 1 17 3
M  V30 10 1 17 13
M  V30 11 1 19 4
M  V30 12 1 19 11
M  V30 13 1 20 10
M  V30 14 1 22 1
M  V30 15 1 23 13
M  V30 16 1 25 4
M  V30 17 1 25 20
M  V30 18 1 26 7
M  V30 19 1 27 1
M  V30 20 1 27 12
M  V30 21 1 27 24
M  V30 22 1 28 7
M  V30 23 1 28 17
M  V30 24 1 28 21
M  V30 25 1 29 22
M  V30 26 1 29 26
M  V30 27 1 30 13
M  V30 28 1 30 23
M  V30 29 2 31 3
M  V30 30 1 31 8
M  V30 31 1 31 21
M  V30 32 1 32 18
M  V30 33 1 32 29
M  V30 34 2 33 7
M  V30 35 1 34 2
M  V30 36 2 34 14
M  V30 37 1 35 18
M  V30 38 1 35 22
M  V30 39 1 36 11
M  V30 40 1 36 34
M  V30 41 1 37 12
M  V30 42 1 37 35
M  V30 43 1 38 1
M  V30 44 1 39 1
M  V30 45 1 40 4
M  V30 46 1 41 4
M  V30 47 1 42 5
M  V30 48 1 43 5
M  V30 49 1 44 6
M  V30 50 1 45 6
M  V30 51 1 46 6
M  V30 52 1 12 47 CFG=3
M  V30 53 1 48 15
M  V30 54 1 49 15
M  V30 55 1 50 16
M  V30 56 1 51 16
M  V30 57 1 52 16
M  V30 58 1 17 53 CFG=3
M  V30 59 1 54 18
M  V30 60 1 55 18
M  V30 61 1 56 20
M  V30 62 1 57 20
M  V30 63 1 58 21
M  V30 64 1 22 59 CFG=1
M  V30 65 1 60 23
M  V30 66 1 61 24
M  V30 67 1 62 25
M  V30 68 1 63 25
M  V30 69 1 64 26
M  V30 70 1 65 26
M  V30 71 1 27 66 CFG=1
M  V30 72 1 29 67 CFG=1
M  V30 73 1 68 30
M  V30 74 1 69 30
M  V30 75 1 70 32
M  V30 76 1 71 32
M  V30 77 1 72 37
M  V30 78 1 73 37
M  V30 79 1 35 74 CFG=1
M  V30 END BOND
M  V30 END CTAB
M  END
>  <i_epik_Tot_Q>  (1) 
1

>  <i_epik_Tot_abs_Q>  (1) 
1

>  <i_i_glide_confnum>  (1) 
609

>  <i_i_glide_lignum>  (1) 
36

>  <i_i_glide_posenum>  (1) 
54

>  <i_i_glide_rotatable_bonds>  (1) 
10

>  <i_lp_mmshare_version>  (1) 
72125

>  <i_m_source_file_index>  (1) 
16

>  <i_f3d_flags>  (1) 
0

>  <num_sample>  (1) 
100

>  <b_lp_Chiralities_Consistent>  (1) 
1

>  <r_epik_Charging_Adjusted_Penalty>  (1) 
0.0082019649409003706

>  <r_epik_Ionization_Penalty>  (1) 
0.015626865898487191

>  <r_epik_Ionization_Penalty_Charging>  (1) 
0.0082019649409003706

>  <r_epik_Ionization_Penalty_Neutral>  (1) 
0.0074249009575868222

>  <r_epik_State_Penalty>  (1) 
-0

>  <r_glide_ring_energy>  (1) 
0

>  <r_i_docking_score>  (1) 
-8.7975757803176275

>  <r_i_glide_ecoul>  (1) 
-2.5446113533910877

>  <r_i_glide_eff_state_penalty>  (1) 
-0

>  <r_i_glide_einternal>  (1) 
11.731533519681747

>  <r_i_glide_emodel>  (1) 
-65.43504868054211

>  <r_i_glide_emodel_strain>  (1) 
5.2014124013371088

>  <r_i_glide_energy>  (1) 
-49.198134698770282

>  <r_i_glide_erotb>  (1) 
0.37349522713264072

>  <r_i_glide_esite>  (1) 
-0.010258570968922343

>  <r_i_glide_evdw>  (1) 
-46.653523345379192

>  <r_i_glide_gscore>  (1) 
-8.7975757803176275

>  <r_i_glide_gscore_strain>  (1) 
0.3003531003342772

>  <r_i_glide_hbond>  (1) 
-0.11346333820218181

>  <r_i_glide_ligand_efficiency>  (1) 
-0.23777231838696292

>  <r_i_glide_ligand_efficiency_ln>  (1) 
-1.9079879423124408

>  <r_i_glide_ligand_efficiency_sa>  (1) 
-0.79231011504555682

>  <r_i_glide_lipo>  (1) 
-4.6144792363144864

>  <r_i_glide_metal>  (1) 
-0

>  <r_i_glide_rewards>  (1) 
-2.0188550920213313

>  <r_lp_Energy>  (1) 
12.858018

>  <r_lp_tautomer_probability>  (1) 
1

>  <s_epik_Chemistry_Notes>  (1) 
This compound has an imine and may undergo hydrolysis. This compound contains an acetal/aminal-like group ( X-CH(R)-Y where X, Y are N, S, or O) that may be acid/base labile, releasing an aldehyde.

>  <s_epik_cmdline>  (1) 
J2VwaWtfcHl0aG9uJywgJy1waHQnLCAnMS4wJywgJy1waCcsICc3LjQnLCAnLXRuJywgJzgnLCAnLW1hJywgJzUwMCcsICctaW1hZScsICc8aW5maWxlLm1hZT4nLCAnLW9tYWUnLCAnPG91dGZpbGUubWFlPic=

>  <s_epik_input>  (1) 
W0NIMl0xW0NIMl1bQ0gyXVNjKGMxMilvYyhuMilTW0NAQEhdKFtDQEBIXShbQ0gyXTMpW09IXSlbQ0gyXU4oW0NASF0zNClbQ0gyXVtDSDJdW0NASF00W0NIMl1TKD1PKSg9TylONVtOSF1DKFNbQ0gyXVtDSDJdW0NIM10pPU5bQ0BASF01W0NAXTYoW0NIM10pW05IXVtDSDJdNg==

>  <s_glide_docking_method>  (1) 
confgen

>  <s_i_glide_gridfile>  (1) 
gpcr_5ht2c_6bqh_protein_autoprepared_prepared

>  <s_lp_Force_Field>  (1) 
S-OPLS

>  <s_lp_Variant>  (1) 
DiffSBDD_15_num_sample_100-3

>  <s_m_source_file>  (1) 
generated__ligand_DiffSBDD_2026-05-06_prepared.sdf

>  <GenAI_Model>  (1) 
DiffSBDD

>  <Protein>  (1) 
GPCR_5HT2C

$$$$
DiffSBDD_26_num_sample_100
     RDKit          3D

  0  0  0  0  0  0  0  0  0  0999 V3000
M  V30 BEGIN CTAB
M  V30 COUNTS 63 66 0 0 1
M  V30 BEGIN ATOM
M  V30 1 C 36.959392 30.662250 60.159044 0
M  V30 2 C 37.565731 34.801962 60.754832 0
M  V30 3 N 38.833965 29.007620 57.250814 0
M  V30 4 C 39.133079 30.019988 56.333023 0
M  V30 5 C 38.530639 36.922243 61.514432 0
M  V30 6 O 41.067404 30.823224 61.001834 0
M  V30 7 C 39.884151 30.420749 53.950665 0
M  V30 8 C 38.946247 30.043003 61.738235 0
M  V30 9 C 37.771755 25.374856 57.206623 0
M  V30 10 C 38.165554 32.507569 61.542860 0
M  V30 11 C 39.059356 29.703995 54.843146 0
M  V30 12 C 39.595522 25.665793 55.621374 0
M  V30 13 C 36.798939 36.908160 59.799062 0
M  V30 14 O 35.872417 34.827218 59.053532 0
M  V30 15 C 37.768033 30.667680 58.866091 0
M  V30 16 C 40.087744 30.133605 60.756603 0
M  V30 17 C 39.979217 29.320705 59.452959 0
M  V30 18 C 39.019261 29.127957 52.082768 0
M  V30 19 O 39.047587 28.813127 50.759382 0
M  V30 20 C 36.738040 35.508032 59.861615 0
M  V30 21 C 38.475432 35.517879 61.587551 0
M  V30 22 N 39.467273 27.452184 50.653502 0
M  V30 23 C 38.646851 24.840737 56.249872 0
M  V30 24 N 37.440415 33.367162 60.787393 0
M  V30 25 O 39.467232 31.150212 56.682579 0
M  V30 26 C 38.627282 29.386109 58.683354 0 CFG=2
M  V30 27 C 37.688343 37.616177 60.626893 0
M  V30 28 C 38.139282 28.452100 52.952632 0
M  V30 29 C 38.771449 27.586671 56.896994 0
M  V30 30 C 37.832800 26.740170 57.534236 0
M  V30 31 C 39.669197 27.033329 55.944764 0
M  V30 32 O 39.405150 37.612577 62.302354 0
M  V30 33 C 37.780806 31.018405 61.425685 0 CFG=1
M  V30 34 O 39.074773 32.844884 62.292530 0
M  V30 35 C 38.146981 28.743445 54.325664 0
M  V30 36 C 39.867406 30.126570 52.577951 0
M  V30 37 H 36.479601 29.689829 60.253539 0
M  V30 38 H 36.114426 31.342374 60.046373 0
M  V30 39 H 40.556819 31.178884 54.327460 0
M  V30 40 H 39.339174 30.260532 62.732247 0
M  V30 41 H 38.667415 28.995178 61.767291 0
M  V30 42 H 37.045146 24.736478 57.688468 0
M  V30 43 H 40.267414 25.248741 54.891095 0
M  V30 44 H 36.159644 37.441662 59.115682 0
M  V30 45 H 35.722533 35.259270 58.219286 0
M  V30 46 H 38.366502 31.576342 58.810227 0
M  V30 47 H 37.054102 30.733125 58.045830 0
M  V30 48 H 40.794148 29.622002 58.796493 0
M  V30 49 H 40.194198 28.279119 59.693998 0
M  V30 50 H 39.119645 35.013602 62.275678 0
M  V30 51 H 39.924754 37.061650 62.869490 0
M  V30 52 H 40.197302 27.454761 49.957214 0
M  V30 53 H 39.902121 27.250549 51.541692 0
M  V30 54 H 38.591991 23.796045 55.998015 0
M  V30 55 H 36.730136 32.972048 60.186148 0
M  V30 56 H 38.053962 28.619015 59.183727 0
M  V30 57 H 37.730709 38.694085 60.574055 0
M  V30 58 H 37.466768 27.700528 52.564498 0
M  V30 59 H 37.144382 27.135106 58.253496 0
M  V30 60 H 40.409841 27.655327 55.466484 0
M  V30 61 H 37.091135 30.920475 62.253485 0
M  V30 62 H 37.468148 28.222153 54.979482 0
M  V30 63 H 40.524442 30.658326 51.904853 0
M  V30 END ATOM
M  V30 BEGIN BOND
M  V30 1 1 4 3
M  V30 2 1 11 4
M  V30 3 2 11 7
M  V30 4 1 15 1
M  V30 5 2 16 6
M  V30 6 1 16 8
M  V30 7 1 17 16
M  V30 8 1 19 18
M  V30 9 1 20 2
M  V30 10 2 20 13
M  V30 11 1 20 14
M  V30 12 2 21 2
M  V30 13 1 21 5
M  V30 14 1 22 19
M  V30 15 2 23 9
M  V30 16 1 23 12
M  V30 17 1 24 2
M  V30 18 1 24 10
M  V30 19 2 25 4
M  V30 20 1 26 3
M  V30 21 1 26 15
M  V30 22 1 26 17
M  V30 23 2 27 5
M  V30 24 1 27 13
M  V30 25 1 28 18
M  V30 26 1 29 3
M  V30 27 1 30 9
M  V30 28 2 30 29
M  V30 29 2 31 12
M  V30 30 1 31 29
M  V30 31 1 32 5
M  V30 32 1 33 1
M  V30 33 1 33 8
M  V30 34 1 33 10
M  V30 35 2 34 10
M  V30 36 1 35 11
M  V30 37 2 35 28
M  V30 38 1 36 7
M  V30 39 2 36 18
M  V30 40 1 37 1
M  V30 41 1 38 1
M  V30 42 1 39 7
M  V30 43 1 40 8
M  V30 44 1 41 8
M  V30 45 1 42 9
M  V30 46 1 43 12
M  V30 47 1 44 13
M  V30 48 1 45 14
M  V30 49 1 46 15
M  V30 50 1 47 15
M  V30 51 1 48 17
M  V30 52 1 49 17
M  V30 53 1 50 21
M  V30 54 1 51 32
M  V30 55 1 52 22
M  V30 56 1 53 22
M  V30 57 1 54 23
M  V30 58 1 55 24
M  V30 59 1 26 56 CFG=1
M  V30 60 1 57 27
M  V30 61 1 58 28
M  V30 62 1 59 30
M  V30 63 1 60 31
M  V30 64 1 33 61 CFG=1
M  V30 65 1 62 35
M  V30 66 1 63 36
M  V30 END BOND
M  V30 END CTAB
M  END
>  <i_epik_Tot_Q>  (1) 
0

>  <i_epik_Tot_abs_Q>  (1) 
0

>  <i_i_glide_confnum>  (1) 
902

>  <i_i_glide_lignum>  (1) 
67

>  <i_i_glide_posenum>  (1) 
3

>  <i_i_glide_rotatable_bonds>  (1) 
10

>  <i_lp_mmshare_version>  (1) 
72125

>  <i_m_source_file_index>  (1) 
27

>  <i_f3d_flags>  (1) 
0

>  <num_sample>  (1) 
100

>  <b_lp_Chiralities_Consistent>  (1) 
1

>  <r_epik_Charging_Adjusted_Penalty>  (1) 
0

>  <r_epik_Ionization_Penalty>  (1) 
0.0023635104904880574

>  <r_epik_Ionization_Penalty_Charging>  (1) 
0

>  <r_epik_Ionization_Penalty_Neutral>  (1) 
0.0023635104904880574

>  <r_epik_State_Penalty>  (1) 
-0

>  <r_glide_ring_energy>  (1) 
2.3965903256684027

>  <r_i_docking_score>  (1) 
-8.7953360512257071

>  <r_i_glide_ecoul>  (1) 
-3.6376793301720927

>  <r_i_glide_eff_state_penalty>  (1) 
-0

>  <r_i_glide_einternal>  (1) 
11.450482784406091

>  <r_i_glide_emodel>  (1) 
-75.296046563752228

>  <r_i_glide_emodel_strain>  (1) 
0.69226425950336079

>  <r_i_glide_energy>  (1) 
-53.374660311740584

>  <r_i_glide_erotb>  (1) 
0.59425720056655684

>  <r_i_glide_esite>  (1) 
0

>  <r_i_glide_evdw>  (1) 
-49.736980981568493

>  <r_i_glide_gscore>  (1) 
-8.7953360512257071

>  <r_i_glide_gscore_strain>  (1) 
0

>  <r_i_glide_hbond>  (1) 
-0.53352178947110052

>  <r_i_glide_ligand_efficiency>  (1) 
-0.24431489031182518

>  <r_i_glide_ligand_efficiency_ln>  (1) 
-1.9189047038580112

>  <r_i_glide_ligand_efficiency_sa>  (1) 
-0.80670999363131757

>  <r_i_glide_lipo>  (1) 
-5.0917141299884996

>  <r_i_glide_metal>  (1) 
-0

>  <r_i_glide_rewards>  (1) 
-0.73185638372842532

>  <r_lp_Energy>  (1) 
69.479281999999998

>  <r_lp_tautomer_probability>  (1) 
1

>  <s_epik_Chemistry_Notes>  (1) 
This compound has a N-S or N-O group and may undergo hydrolysis at high or low pH.

>  <s_epik_cmdline>  (1) 
J2VwaWtfcHl0aG9uJywgJy1waHQnLCAnMS4wJywgJy1waCcsICc3LjQnLCAnLXRuJywgJzgnLCAnLW1hJywgJzUwMCcsICctaW1hZScsICc8aW5maWxlLm1hZT4nLCAnLW9tYWUnLCAnPG91dGZpbGUubWFlPic=

>  <s_epik_input>  (1) 
W0NIMl0xQyg9TylbQ0hdPVtDSF1DKFtPSF0pPUMxW05IXUMoPU8pW0NASF0oW0NIMl1DMj1PKVtDSDJdW0NIMl1bQ0BIXShbQ0gyXTIpTihjM1tjSF1bY0hdW2NIXVtjSF1bY0hdMylDKD1PKWM0W2NIXVtjSF1jKE9bTkgyXSlbY0hdW2NIXTQ=

>  <s_glide_docking_method>  (1) 
confgen

>  <s_i_glide_gridfile>  (1) 
gpcr_5ht2c_6bqh_protein_autoprepared_prepared

>  <s_lp_Force_Field>  (1) 
S-OPLS

>  <s_lp_Variant>  (1) 
DiffSBDD_26_num_sample_100-1

>  <s_m_source_file>  (1) 
generated__ligand_DiffSBDD_2026-05-06_prepared.sdf

>  <GenAI_Model>  (1) 
DiffSBDD

>  <Protein>  (1) 
GPCR_5HT2C

$$$$
DiffSBDD_30_num_sample_100
     RDKit          3D

  0  0  0  0  0  0  0  0  0  0999 V3000
M  V30 BEGIN CTAB
M  V30 COUNTS 69 72 0 0 1
M  V30 BEGIN ATOM
M  V30 1 C 38.538712 31.017449 61.896318 0
M  V30 2 C 38.636560 35.288984 61.031684 0 CFG=1
M  V30 3 O 36.233222 31.252581 61.186872 0
M  V30 4 C 37.861999 25.641020 57.585911 0
M  V30 5 C 37.386199 24.491607 56.932343 0
M  V30 6 N 38.248526 32.643755 59.521316 0
M  V30 7 C 37.467131 25.668990 54.800865 0
M  V30 8 C 37.674817 33.154538 60.765941 0 CFG=1
M  V30 9 O 36.268000 36.821197 59.144445 0
M  V30 10 O 39.505455 37.293250 62.096992 0
M  V30 11 C 38.936285 28.679356 52.294155 0
M  V30 12 C 39.563753 36.068336 61.992456 0
M  V30 13 C 40.564418 35.255618 62.808095 0
M  V30 14 C 40.110536 28.880158 51.356269 0
M  V30 15 C 39.669403 28.578837 54.653617 0 CFG=2
M  V30 16 C 38.502353 33.076297 55.939154 0
M  V30 17 N 37.867399 32.656658 57.201693 0 CHG=1
M  V30 18 C 38.982639 27.957774 50.979932 0
M  V30 19 C 38.473278 30.625551 55.183876 0 CFG=1
M  V30 20 C 37.186142 24.505788 55.541880 0
M  V30 21 C 39.787392 30.096109 54.618424 0
M  V30 22 N 39.131260 27.860047 53.484413 0
M  V30 23 C 38.140896 26.809793 56.850838 0
M  V30 24 C 38.145075 33.510056 58.360447 0
M  V30 25 C 37.946560 26.831410 55.445940 0
M  V30 26 C 38.137738 32.087601 54.828898 0
M  V30 27 C 37.308729 36.984152 60.078695 0
M  V30 28 C 37.344332 31.966081 61.684052 0 CFG=2
M  V30 29 C 38.274476 28.058334 54.641545 0 CFG=1
M  V30 30 O 38.607613 27.920259 57.497276 0
M  V30 31 S 37.170792 29.502105 54.653548 0
M  V30 32 O 38.550155 33.970861 61.486509 0
M  V30 33 O 37.381828 35.911288 60.970375 0
M  V30 34 H 39.416523 31.561206 62.245724 0
M  V30 35 H 38.304353 30.265110 62.650089 0
M  V30 36 H 38.810983 30.484605 60.985579 0
M  V30 37 H 39.097203 35.260494 60.048317 0
M  V30 38 H 36.382624 31.076634 60.268575 0
M  V30 39 H 38.015195 25.626103 58.653597 0
M  V30 40 H 37.173169 23.597472 57.499291 0
M  V30 41 H 39.213706 32.375861 59.688261 0
M  V30 42 H 37.319409 25.671430 53.730359 0
M  V30 43 H 36.745559 33.690795 60.562780 0
M  V30 44 H 36.539055 36.227290 58.458172 0
M  V30 45 H 38.235957 29.505356 52.323920 0
M  V30 46 H 40.037908 34.559226 63.459504 0
M  V30 47 H 41.221067 34.688383 62.149220 0
M  V30 48 H 41.175104 35.913503 63.426915 0
M  V30 49 H 40.177322 29.832319 50.832943 0
M  V30 50 H 41.064284 28.422419 51.602866 0
M  V30 51 H 40.364065 28.062163 55.313091 0
M  V30 52 H 39.584584 33.116052 56.067763 0
M  V30 53 H 38.163422 34.079071 55.674563 0
M  V30 54 H 36.857159 32.546365 57.054770 0
M  V30 55 H 39.176571 26.885946 50.980340 0
M  V30 56 H 38.267721 28.312741 50.253546 0
M  V30 57 H 38.513246 30.463141 56.259159 0
M  V30 58 H 36.820572 23.621549 55.039703 0
M  V30 59 H 39.995704 30.477747 53.620351 0
M  V30 60 H 40.629470 30.407869 55.234322 0
M  V30 61 H 39.092419 34.021077 58.222721 0
M  V30 62 H 37.352553 34.252551 58.458312 0
M  V30 63 H 38.603052 32.374195 53.885857 0
M  V30 64 H 37.067390 32.174259 54.652631 0
M  V30 65 H 37.091150 37.886000 60.652566 0
M  V30 66 H 38.224931 37.157558 59.515110 0
M  V30 67 H 37.067517 32.382903 62.649647 0
M  V30 68 H 38.750537 27.773722 58.420070 0
M  V30 69 H 38.208990 31.734410 57.421465 0
M  V30 END ATOM
M  V30 BEGIN BOND
M  V30 1 1 5 4
M  V30 2 1 8 6
M  V30 3 1 12 2
M  V30 4 2 12 10
M  V30 5 1 13 12
M  V30 6 1 14 11
M  V30 7 1 17 16
M  V30 8 1 18 11
M  V30 9 1 18 14
M  V30 10 2 20 5
M  V30 11 1 20 7
M  V30 12 1 21 15
M  V30 13 1 21 19
M  V30 14 1 22 11
M  V30 15 1 22 15
M  V30 16 2 23 4
M  V30 17 1 24 6
M  V30 18 1 24 17
M  V30 19 2 25 7
M  V30 20 1 25 23
M  V30 21 1 26 16
M  V30 22 1 26 19
M  V30 23 1 27 9
M  V30 24 1 28 1
M  V30 25 1 28 3
M  V30 26 1 28 8
M  V30 27 1 29 15
M  V30 28 1 29 22
M  V30 29 1 29 25 CFG=1
M  V30 30 1 30 23
M  V30 31 1 31 19
M  V30 32 1 31 29
M  V30 33 1 32 2
M  V30 34 1 32 8
M  V30 35 1 33 2
M  V30 36 1 33 27
M  V30 37 1 34 1
M  V30 38 1 35 1
M  V30 39 1 36 1
M  V30 40 1 2 37 CFG=3
M  V30 41 1 38 3
M  V30 42 1 39 4
M  V30 43 1 40 5
M  V30 44 1 41 6
M  V30 45 1 42 7
M  V30 46 1 8 43 CFG=3
M  V30 47 1 44 9
M  V30 48 1 45 11
M  V30 49 1 46 13
M  V30 50 1 47 13
M  V30 51 1 48 13
M  V30 52 1 49 14
M  V30 53 1 50 14
M  V30 54 1 15 51 CFG=1
M  V30 55 1 52 16
M  V30 56 1 53 16
M  V30 57 1 54 17
M  V30 58 1 55 18
M  V30 59 1 56 18
M  V30 60 1 19 57 CFG=1
M  V30 61 1 58 20
M  V30 62 1 59 21
M  V30 63 1 60 21
M  V30 64 1 61 24
M  V30 65 1 62 24
M  V30 66 1 63 26
M  V30 67 1 64 26
M  V30 68 1 65 27
M  V30 69 1 66 27
M  V30 70 1 28 67 CFG=1
M  V30 71 1 68 30
M  V30 72 1 69 17
M  V30 END BOND
M  V30 END CTAB
M  END
>  <i_epik_Tot_Q>  (1) 
1

>  <i_epik_Tot_abs_Q>  (1) 
1

>  <i_i_glide_confnum>  (1) 
2715

>  <i_i_glide_lignum>  (1) 
79

>  <i_i_glide_posenum>  (1) 
176

>  <i_i_glide_rotatable_bonds>  (1) 
17

>  <i_lp_mmshare_version>  (1) 
72125

>  <i_m_source_file_index>  (1) 
31

>  <i_f3d_flags>  (1) 
0

>  <num_sample>  (1) 
100

>  <b_lp_Chiralities_Consistent>  (1) 
1

>  <r_epik_Charging_Adjusted_Penalty>  (1) 
0.074635642036716146

>  <r_epik_Ionization_Penalty>  (1) 
0.2367700207343624

>  <r_epik_Ionization_Penalty_Charging>  (1) 
0.00051329390614008978

>  <r_epik_Ionization_Penalty_Neutral>  (1) 
0.23625672682822232

>  <r_epik_State_Penalty>  (1) 
0.074122348130576055

>  <r_glide_ring_energy>  (1) 
0

>  <r_i_docking_score>  (1) 
-8.7890805170871271

>  <r_i_glide_ecoul>  (1) 
-10.488910699477728

>  <r_i_glide_eff_state_penalty>  (1) 
0.074122348130576055

>  <r_i_glide_einternal>  (1) 
33.309643631150806

>  <r_i_glide_emodel>  (1) 
-67.494783445233864

>  <r_i_glide_emodel_strain>  (1) 
3.8566855453408948

>  <r_i_glide_energy>  (1) 
-53.272788581376233

>  <r_i_glide_erotb>  (1) 
1.1326933877215775

>  <r_i_glide_esite>  (1) 
-0.13900820142804959

>  <r_i_glide_evdw>  (1) 
-42.783877881898505

>  <r_i_glide_gscore>  (1) 
-8.8632028652177031

>  <r_i_glide_gscore_strain>  (1) 
0

>  <r_i_glide_hbond>  (1) 
-0.72668443430854568

>  <r_i_glide_ligand_efficiency>  (1) 
-0.26633577324506447

>  <r_i_glide_ligand_efficiency_ln>  (1) 
-1.9546459995767644

>  <r_i_glide_ligand_efficiency_sa>  (1) 
-0.85428113598952826

>  <r_i_glide_lipo>  (1) 
-3.7063673116593954

>  <r_i_glide_metal>  (1) 
-0

>  <r_i_glide_rewards>  (1) 
-1.7113058065267075

>  <r_lp_Energy>  (1) 
25.467389999999998

>  <r_lp_tautomer_probability>  (1) 
0.99999996999736518

>  <s_epik_Chemistry_Notes>  (1) 
This compound contains an acetal/aminal-like group ( X-CH(R)-Y where X, Y are N, S, or O) that may be acid/base labile, releasing an aldehyde.

>  <s_epik_cmdline>  (1) 
J2VwaWtfcHl0aG9uJywgJy1waHQnLCAnMS4wJywgJy1waCcsICc3LjQnLCAnLXRuJywgJzgnLCAnLW1hJywgJzUwMCcsICctaW1hZScsICc8aW5maWxlLm1hZT4nLCAnLW9tYWUnLCAnPG91dGZpbGUubWFlPic=

>  <s_epik_input>  (1) 
W09IXVtDSDJdT1tDQEBIXShDKD1PKVtDSDNdKU9bQ0BIXShbQ0BIXShbQ0gzXSlbT0hdKVtOSF1bQ0gyXVtOSF1bQ0gyXVtDSDJdW0NAQEhdKFMxKVtDSDJdW0NASF0oTjJbQ0hdM1tDSDJdW0NIMl0zKVtDQEBdMTJjNFtjSF1bY0hdW2NIXVtjSF1jNFtPSF0=

>  <s_glide_docking_method>  (1) 
confgen

>  <s_i_glide_gridfile>  (1) 
gpcr_5ht2c_6bqh_protein_autoprepared_prepared

>  <s_lp_Force_Field>  (1) 
S-OPLS

>  <s_lp_Variant>  (1) 
DiffSBDD_30_num_sample_100-1

>  <s_m_source_file>  (1) 
generated__ligand_DiffSBDD_2026-05-06_prepared.sdf

>  <GenAI_Model>  (1) 
DiffSBDD

>  <Protein>  (1) 
GPCR_5HT2C

$$$$
DiffSBDD_77_num_sample_100
     RDKit          3D

  0  0  0  0  0  0  0  0  0  0999 V3000
M  V30 BEGIN CTAB
M  V30 COUNTS 76 78 0 0 1
M  V30 BEGIN ATOM
M  V30 1 C 39.867400 30.225409 52.246825 0
M  V30 2 F 39.238281 27.098491 50.428305 0
M  V30 3 C 40.478524 30.996045 64.786957 0
M  V30 4 C 39.082536 30.021429 53.397339 0
M  V30 5 C 39.490566 35.748645 62.496074 0
M  V30 6 C 38.635041 29.934474 56.621847 0
M  V30 7 C 40.020692 30.889093 60.811141 0
M  V30 8 C 39.335563 29.425821 59.045315 0 CFG=2
M  V30 9 O 40.313646 33.437397 63.513920 0
M  V30 10 C 39.181922 37.250155 62.338702 0
M  V30 11 N 37.949190 25.562972 55.107955 0
M  V30 12 C 37.467407 28.615429 54.773204 0
M  V30 13 C 39.188960 28.045266 51.392503 0
M  V30 14 O 41.867412 28.821418 62.653504 0
M  V30 15 C 40.572791 29.045286 63.124766 0
M  V30 16 C 38.345876 28.826897 53.547276 0
M  V30 17 F 40.667366 29.442444 50.134959 0
M  V30 18 C 40.001963 27.552603 57.475318 0
M  V30 19 O 36.667404 23.981086 56.099390 0
M  V30 20 O 37.067400 30.131745 58.480376 0
M  V30 21 C 39.918720 29.239659 51.243967 0
M  V30 22 C 37.780796 36.681762 60.326541 0
M  V30 23 N 39.246449 33.438494 61.492888 0
M  V30 24 C 38.506162 26.094368 56.342532 0
M  V30 25 C 38.402972 27.837931 52.541207 0
M  V30 26 C 40.361826 30.537905 63.326319 0
M  V30 27 C 37.067409 24.554781 55.090018 0
M  V30 28 C 38.117874 35.267939 60.404078 0
M  V30 29 C 39.283285 27.910865 58.803200 0
M  V30 30 F 36.966053 37.100480 59.345094 0
M  V30 31 C 37.574591 34.292189 59.366484 0
M  V30 32 C 38.142356 28.527839 56.174170 0 CFG=1
M  V30 33 C 39.917709 32.838172 62.521055 0
M  V30 34 N 39.119848 29.795188 60.450802 0
M  V30 35 C 40.099817 31.384968 62.269506 0
M  V30 36 C 38.910289 34.826970 61.408889 0
M  V30 37 C 38.251030 37.586708 61.195951 0
M  V30 38 C 38.431905 30.260693 58.113012 0 CFG=2
M  V30 39 N 39.129250 27.427522 56.298196 0
M  V30 40 H 40.426195 31.143296 52.130582 0
M  V30 41 H 40.179401 30.188043 65.454422 0
M  V30 42 H 41.519437 31.228737 65.012173 0
M  V30 43 H 39.867389 31.833755 65.095978 0
M  V30 44 H 39.038446 30.786626 54.154543 0
M  V30 45 H 39.067411 35.462456 63.453509 0
M  V30 46 H 40.575355 35.641136 62.545275 0
M  V30 47 H 39.671860 30.097858 56.326320 0
M  V30 48 H 38.062435 30.696936 56.093508 0
M  V30 49 H 39.867404 31.701321 60.108680 0
M  V30 50 H 41.043014 30.567104 60.610664 0
M  V30 51 H 40.362978 29.680561 58.788240 0
M  V30 52 H 40.109862 37.801558 62.188425 0
M  V30 53 H 38.748172 37.621417 63.266803 0
M  V30 54 H 38.239022 25.983691 54.238666 0
M  V30 55 H 36.846287 27.741890 54.596186 0
M  V30 56 H 36.745919 29.434069 54.782959 0
M  V30 57 H 41.995925 27.895917 62.505563 0
M  V30 58 H 39.843679 28.589885 62.462136 0
M  V30 59 H 40.466412 28.511840 64.068559 0
M  V30 60 H 40.766940 28.295375 57.249571 0
M  V30 61 H 40.577359 26.635929 57.612427 0
M  V30 62 H 36.534653 30.706374 57.930811 0
M  V30 63 H 38.921031 32.856506 60.736274 0
M  V30 64 H 39.251548 25.350265 56.630656 0
M  V30 65 H 37.750837 26.075208 57.131290 0
M  V30 66 H 37.836292 26.924760 52.644852 0
M  V30 67 H 36.753573 24.317413 54.062970 0
M  V30 68 H 39.829402 27.424121 59.611237 0
M  V30 69 H 38.267417 27.523972 58.861117 0
M  V30 70 H 36.951721 34.791004 58.624321 0
M  V30 71 H 38.389531 33.803908 58.832093 0
M  V30 72 H 36.963187 33.524191 59.841321 0
M  V30 73 H 37.350712 28.275893 56.874642 0
M  V30 74 H 38.153167 30.103613 60.526485 0
M  V30 75 H 37.968615 38.624232 61.090437 0
M  V30 76 H 38.679935 31.314349 58.242037 0
M  V30 END ATOM
M  V30 BEGIN BOND
M  V30 1 2 4 1
M  V30 2 1 10 5
M  V30 3 1 13 2
M  V30 4 1 15 14
M  V30 5 1 16 4
M  V30 6 1 16 12
M  V30 7 1 21 1
M  V30 8 2 21 13
M  V30 9 1 21 17
M  V30 10 1 24 11
M  V30 11 1 25 13
M  V30 12 2 25 16
M  V30 13 1 26 3
M  V30 14 1 26 15
M  V30 15 1 27 11
M  V30 16 2 27 19
M  V30 17 1 28 22
M  V30 18 1 29 8
M  V30 19 1 29 18
M  V30 20 1 30 22
M  V30 21 1 31 28
M  V30 22 1 32 6
M  V30 23 1 32 12
M  V30 24 2 33 9
M  V30 25 1 33 23
M  V30 26 1 34 7
M  V30 27 1 34 8
M  V30 28 1 35 7
M  V30 29 2 35 26
M  V30 30 1 35 33
M  V30 31 1 36 5
M  V30 32 1 36 23
M  V30 33 2 36 28
M  V30 34 1 37 10
M  V30 35 2 37 22
M  V30 36 1 38 6
M  V30 37 1 38 8
M  V30 38 1 38 20
M  V30 39 1 39 18
M  V30 40 1 39 24
M  V30 41 1 39 32
M  V30 42 1 40 1
M  V30 43 1 41 3
M  V30 44 1 42 3
M  V30 45 1 43 3
M  V30 46 1 44 4
M  V30 47 1 45 5
M  V30 48 1 46 5
M  V30 49 1 47 6
M  V30 50 1 48 6
M  V30 51 1 49 7
M  V30 52 1 50 7
M  V30 53 1 8 51 CFG=3
M  V30 54 1 52 10
M  V30 55 1 53 10
M  V30 56 1 54 11
M  V30 57 1 55 12
M  V30 58 1 56 12
M  V30 59 1 57 14
M  V30 60 1 58 15
M  V30 61 1 59 15
M  V30 62 1 60 18
M  V30 63 1 61 18
M  V30 64 1 62 20
M  V30 65 1 63 23
M  V30 66 1 64 24
M  V30 67 1 65 24
M  V30 68 1 66 25
M  V30 69 1 67 27
M  V30 70 1 68 29
M  V30 71 1 69 29
M  V30 72 1 70 31
M  V30 73 1 71 31
M  V30 74 1 72 31
M  V30 75 1 32 73 CFG=1
M  V30 76 1 74 34
M  V30 77 1 75 37
M  V30 78 1 38 76 CFG=3
M  V30 END BOND
M  V30 END CTAB
M  END
>  <i_epik_Tot_Q>  (1) 
0

>  <i_epik_Tot_abs_Q>  (1) 
0

>  <i_i_glide_confnum>  (1) 
8661

>  <i_i_glide_lignum>  (1) 
191

>  <i_i_glide_posenum>  (1) 
161

>  <i_i_glide_rotatable_bonds>  (1) 
14

>  <i_lp_mmshare_version>  (1) 
72125

>  <i_m_source_file_index>  (1) 
78

>  <i_f3d_flags>  (1) 
0

>  <num_sample>  (1) 
100

>  <b_lp_Chiralities_Consistent>  (1) 
1

>  <r_epik_Charging_Adjusted_Penalty>  (1) 
0.53836467660946008

>  <r_epik_Ionization_Penalty>  (1) 
0.66160028736033039

>  <r_epik_Ionization_Penalty_Charging>  (1) 
0

>  <r_epik_Ionization_Penalty_Neutral>  (1) 
0.66160028736033039

>  <r_epik_State_Penalty>  (1) 
0.53836467660946008

>  <r_glide_ring_energy>  (1) 
0

>  <r_i_docking_score>  (1) 
-8.752447497411163

>  <r_i_glide_ecoul>  (1) 
-6.1043007783900354

>  <r_i_glide_eff_state_penalty>  (1) 
0.53836467660946008

>  <r_i_glide_einternal>  (1) 
30.444282495417756

>  <r_i_glide_emodel>  (1) 
-66.716707164474556

>  <r_i_glide_emodel_strain>  (1) 
5.374040054351056

>  <r_i_glide_energy>  (1) 
-58.334851755728373

>  <r_i_glide_erotb>  (1) 
0.6830181953671759

>  <r_i_glide_esite>  (1) 
0

>  <r_i_glide_evdw>  (1) 
-52.230550977338339

>  <r_i_glide_gscore>  (1) 
-9.2908121740206226

>  <r_i_glide_gscore_strain>  (1) 
0.34351001358776401

>  <r_i_glide_hbond>  (1) 
-0.36281855598596352

>  <r_i_glide_ligand_efficiency>  (1) 
-0.22442173070285035

>  <r_i_glide_ligand_efficiency_ln>  (1) 
-1.876773196442024

>  <r_i_glide_ligand_efficiency_sa>  (1) 
-0.76106154122054992

>  <r_i_glide_lipo>  (1) 
-3.9288245076839217

>  <r_i_glide_metal>  (1) 
-0

>  <r_i_glide_rewards>  (1) 
-2.4985246536802537

>  <r_lp_Energy>  (1) 
35.999558999999998

>  <s_epik_Chemistry_Notes>  (1) 
This compound contains an acetal/aminal-like group ( X-CH(R)-Y where X, Y are N, S, or O) that may be acid/base labile, releasing an aldehyde.

>  <s_epik_cmdline>  (1) 
J2VwaWtfcHl0aG9uJywgJy1waHQnLCAnMS4wJywgJy1waCcsICc3LjQnLCAnLXRuJywgJzgnLCAnLW1hJywgJzUwMCcsICctaW1hZScsICc8aW5maWxlLm1hZT4nLCAnLW9tYWUnLCAnPG91dGZpbGUubWFlPic=

>  <s_epik_input>  (1) 
RmMxYyhGKVtjSF1bY0hdYyhbY0hdMSlbQ0gyXVtDQEhdKFtDSDJdW0NASF0yW09IXSlOKFtDSDJdW05IXVtDSF09TylbQ0gyXVtDSDJdW0NAQEhdMltOSF1bQ0gyXVxDKD1DKFxbQ0gzXSlbQ0gyXVtPSF0pQyg9TylbTkhdQyg9QzNbQ0gzXSlbQ0gyXVtDSDJdW0NIXT1DM0Y=

>  <s_glide_docking_method>  (1) 
confgen

>  <s_i_glide_gridfile>  (1) 
gpcr_5ht2c_6bqh_protein_autoprepared_prepared

>  <s_lp_Force_Field>  (1) 
S-OPLS

>  <s_lp_Variant>  (1) 
DiffSBDD_77_num_sample_100-2

>  <s_m_source_file>  (1) 
generated__ligand_DiffSBDD_2026-05-06_prepared.sdf

>  <GenAI_Model>  (1) 
DiffSBDD

>  <Protein>  (1) 
GPCR_5HT2C

$$$$
DiffSBDD_24_num_sample_100
     RDKit          3D

  0  0  0  0  0  0  0  0  0  0999 V3000
M  V30 BEGIN CTAB
M  V30 COUNTS 63 65 0 0 1
M  V30 BEGIN ATOM
M  V30 1 C 38.352052 30.110548 58.490392 0
M  V30 2 O 35.867410 34.347632 60.888379 0
M  V30 3 C 39.763807 35.540207 61.272302 0
M  V30 4 C 39.867405 28.742584 50.086829 0
M  V30 5 C 40.131437 30.939620 51.274338 0
M  V30 6 N 38.035085 33.719172 60.961089 0
M  V30 7 C 37.744206 32.331048 60.568086 0
M  V30 8 C 38.163032 27.074506 56.141761 0
M  V30 9 C 38.740195 29.103200 54.829561 0
M  V30 10 N 39.511882 29.621428 51.187926 0
M  V30 11 O 37.067390 38.411836 61.053504 0
M  V30 12 N 38.746365 36.260186 62.055037 0 CHG=1
M  V30 13 C 38.192908 24.954284 57.620474 0
M  V30 14 C 37.043332 37.121508 60.471786 0
M  V30 15 C 39.067403 29.735873 53.611067 0
M  V30 16 C 37.365897 36.076092 61.558156 0 CFG=1
M  V30 17 C 38.676222 29.871649 56.001768 0
M  V30 18 N 37.067403 30.828214 58.653501 0 CHG=1
M  V30 19 C 38.494373 27.701440 54.872609 0
M  V30 20 C 39.172900 28.984715 52.417444 0
M  V30 21 C 37.818730 25.597033 56.294165 0
M  V30 22 C 37.043818 34.637319 61.092090 0
M  V30 23 C 38.149771 27.883923 57.307843 0
M  V30 24 C 37.206659 24.872764 55.332145 0
M  V30 25 C 38.947978 27.589724 52.461925 0
M  V30 26 C 38.624040 26.954843 53.672312 0
M  V30 27 C 39.440854 34.038924 61.259802 0
M  V30 28 C 37.207840 32.222819 59.122876 0
M  V30 29 C 38.393401 29.267116 57.233769 0
M  V30 30 H 39.174666 30.821438 58.427211 0
M  V30 31 H 38.540007 29.496893 59.372514 0
M  V30 32 H 40.752047 35.719204 61.697886 0
M  V30 33 H 39.781675 35.925989 60.253522 0
M  V30 34 H 38.996017 28.174437 49.769310 0
M  V30 35 H 40.220951 29.310897 49.226302 0
M  V30 36 H 40.653632 28.050848 50.387030 0
M  V30 37 H 39.467403 31.686898 51.701523 0
M  V30 38 H 41.051349 30.909410 51.854004 0
M  V30 39 H 40.393036 31.291606 50.276267 0
M  V30 40 H 38.647814 31.731659 60.683904 0
M  V30 41 H 37.019133 31.904729 61.263804 0
M  V30 42 H 36.605426 39.013481 60.475756 0
M  V30 43 H 38.937930 37.253319 62.053905 0
M  V30 44 H 37.591740 25.346489 58.434980 0
M  V30 45 H 38.026393 23.876830 57.597239 0
M  V30 46 H 39.247634 25.120772 57.842103 0
M  V30 47 H 36.048317 36.955664 60.055609 0
M  V30 48 H 37.744530 37.076703 59.637584 0
M  V30 49 H 39.245334 30.799498 53.600558 0
M  V30 50 H 36.706384 36.269042 62.406277 0
M  V30 51 H 38.864311 30.935268 55.956765 0
M  V30 52 H 36.451333 30.310996 59.261762 0
M  V30 53 H 37.919944 27.442483 58.263338 0
M  V30 54 H 36.994525 23.824838 55.486736 0
M  V30 55 H 36.897914 25.302968 54.399560 0
M  V30 56 H 39.035489 26.993528 51.567787 0
M  V30 57 H 38.508305 25.902213 53.667804 0
M  V30 58 H 39.676539 33.610231 62.235226 0
M  V30 59 H 40.093855 33.539681 60.543095 0
M  V30 60 H 36.219406 32.676321 59.053381 0
M  V30 61 H 37.846149 32.770741 58.427919 0
M  V30 62 H 36.587757 30.920664 57.754806 0
M  V30 63 H 38.786886 35.926553 63.007763 0
M  V30 END ATOM
M  V30 BEGIN BOND
M  V30 1 1 7 6
M  V30 2 1 10 4
M  V30 3 1 10 5
M  V30 4 1 12 3
M  V30 5 1 14 11
M  V30 6 1 15 9
M  V30 7 1 16 12
M  V30 8 1 16 14
M  V30 9 2 17 9
M  V30 10 1 18 1
M  V30 11 2 19 8
M  V30 12 1 19 9
M  V30 13 1 20 10
M  V30 14 2 20 15
M  V30 15 1 21 8
M  V30 16 1 21 13
M  V30 17 2 22 2
M  V30 18 1 22 6
M  V30 19 1 22 16
M  V30 20 1 23 8
M  V30 21 2 24 21
M  V30 22 1 25 20
M  V30 23 1 26 19
M  V30 24 2 26 25
M  V30 25 1 27 3
M  V30 26 1 27 6
M  V30 27 1 28 7
M  V30 28 1 28 18
M  V30 29 1 29 1
M  V30 30 1 29 17
M  V30 31 2 29 23
M  V30 32 1 30 1
M  V30 33 1 31 1
M  V30 34 1 32 3
M  V30 35 1 33 3
M  V30 36 1 34 4
M  V30 37 1 35 4
M  V30 38 1 36 4
M  V30 39 1 37 5
M  V30 40 1 38 5
M  V30 41 1 39 5
M  V30 42 1 40 7
M  V30 43 1 41 7
M  V30 44 1 42 11
M  V30 45 1 43 12
M  V30 46 1 44 13
M  V30 47 1 45 13
M  V30 48 1 46 13
M  V30 49 1 47 14
M  V30 50 1 48 14
M  V30 51 1 49 15
M  V30 52 1 16 50 CFG=1
M  V30 53 1 51 17
M  V30 54 1 52 18
M  V30 55 1 53 23
M  V30 56 1 54 24
M  V30 57 1 55 24
M  V30 58 1 56 25
M  V30 59 1 57 26
M  V30 60 1 58 27
M  V30 61 1 59 27
M  V30 62 1 60 28
M  V30 63 1 61 28
M  V30 64 1 62 18
M  V30 65 1 63 12
M  V30 END BOND
M  V30 END CTAB
M  END
>  <i_epik_Tot_Q>  (1) 
2

>  <i_epik_Tot_abs_Q>  (1) 
2

>  <i_i_glide_confnum>  (1) 
146

>  <i_i_glide_lignum>  (1) 
63

>  <i_i_glide_posenum>  (1) 
35

>  <i_i_glide_rotatable_bonds>  (1) 
9

>  <i_lp_mmshare_version>  (1) 
72125

>  <i_m_source_file_index>  (1) 
25

>  <i_f3d_flags>  (1) 
0

>  <num_sample>  (1) 
100

>  <b_lp_Chiralities_Consistent>  (1) 
1

>  <r_epik_Charging_Adjusted_Penalty>  (1) 
1.6940302234007771

>  <r_epik_Ionization_Penalty>  (1) 
0.87564545374797542

>  <r_epik_Ionization_Penalty_Charging>  (1) 
0.87490775709823365

>  <r_epik_Ionization_Penalty_Neutral>  (1) 
0.00073769664974180401

>  <r_epik_State_Penalty>  (1) 
0.81912246630254359

>  <r_glide_ring_energy>  (1) 
0

>  <r_i_docking_score>  (1) 
-8.7523954256455756

>  <r_i_glide_ecoul>  (1) 
-6.5103992238300075

>  <r_i_glide_eff_state_penalty>  (1) 
0.81912246630254359

>  <r_i_glide_einternal>  (1) 
10.46891631855004

>  <r_i_glide_emodel>  (1) 
-79.383696724614808

>  <r_i_glide_emodel_strain>  (1) 
0.066890369121509252

>  <r_i_glide_energy>  (1) 
-49.109702984856689

>  <r_i_glide_erotb>  (1) 
0.86311099515177125

>  <r_i_glide_esite>  (1) 
-0.10000000000000001

>  <r_i_glide_evdw>  (1) 
-42.599303761026682

>  <r_i_glide_gscore>  (1) 
-9.571517891948119

>  <r_i_glide_gscore_strain>  (1) 
0

>  <r_i_glide_hbond>  (1) 
-0.49318113808510455

>  <r_i_glide_ligand_efficiency>  (1) 
-0.30180673881536468

>  <r_i_glide_ligand_efficiency_ln>  (1) 
-2.0040766108744874

>  <r_i_glide_ligand_efficiency_sa>  (1) 
-0.92724592176781895

>  <r_i_glide_lipo>  (1) 
-4.5383579808734895

>  <r_i_glide_metal>  (1) 
-0

>  <r_i_glide_rewards>  (1) 
-2.1965646965154617

>  <r_lp_Energy>  (1) 
68.015124999999998

>  <s_epik_cmdline>  (1) 
J2VwaWtfcHl0aG9uJywgJy1waHQnLCAnMS4wJywgJy1waCcsICc3LjQnLCAnLXRuJywgJzgnLCAnLW1hJywgJzUwMCcsICctaW1hZScsICc8aW5maWxlLm1hZT4nLCAnLW9tYWUnLCAnPG91dGZpbGUubWFlPic=

>  <s_epik_input>  (1) 
W0NIMl0xW0NIMl1bTkhdW0NAQEhdKFtDSDJdW09IXSlDKD1PKU4xW0NIMl1bQ0gyXVtOSF1bQ0gyXWMoW2NIXTIpW2NIXWMoQyhbQ0gzXSk9W0NIMl0pYyhjMjMpW2NIXVtjSF1jKFtjSF0zKU4oW0NIM10pW0NIM10=

>  <s_glide_docking_method>  (1) 
confgen

>  <s_i_glide_gridfile>  (1) 
gpcr_5ht2c_6bqh_protein_autoprepared_prepared

>  <s_lp_Force_Field>  (1) 
S-OPLS

>  <s_lp_Variant>  (1) 
DiffSBDD_24_num_sample_100-2

>  <s_m_source_file>  (1) 
generated__ligand_DiffSBDD_2026-05-06_prepared.sdf

>  <GenAI_Model>  (1) 
DiffSBDD

>  <Protein>  (1) 
GPCR_5HT2C

$$$$
DiffSBDD_24_num_sample_100
     RDKit          3D

  0  0  0  0  0  0  0  0  0  0999 V3000
M  V30 BEGIN CTAB
M  V30 COUNTS 63 65 0 0 1
M  V30 BEGIN ATOM
M  V30 1 C 38.768025 31.259092 58.091266 0
M  V30 2 O 40.265652 34.501520 61.085447 0
M  V30 3 C 36.947809 36.872668 61.724184 0
M  V30 4 C 40.267487 31.026678 50.779883 0
M  V30 5 C 39.706513 28.733220 49.853500 0
M  V30 6 N 38.013295 34.698804 60.888653 0
M  V30 7 C 37.827880 33.321074 60.391305 0
M  V30 8 C 38.331355 27.933084 56.201748 0
M  V30 9 C 39.057081 29.700962 54.621221 0
M  V30 10 N 39.867605 29.641664 50.969054 0
M  V30 11 O 40.764237 36.010556 63.823029 0
M  V30 12 N 38.267377 37.459359 61.453580 0 CHG=1
M  V30 13 C 38.308879 26.017050 57.930036 0
M  V30 14 C 39.544039 36.577507 63.395366 0
M  V30 15 C 39.436347 30.124621 53.334924 0
M  V30 16 C 39.387025 36.583713 61.854554 0 CFG=1
M  V30 17 C 39.063059 30.630807 55.669840 0
M  V30 18 N 37.467402 31.902714 58.331973 0 CHG=1
M  V30 19 C 38.692349 28.345544 54.857833 0
M  V30 20 C 39.465338 29.213074 52.257970 0
M  V30 21 C 37.900058 26.520873 56.555778 0
M  V30 22 C 39.242681 35.164032 61.251121 0
M  V30 23 C 38.386939 28.900521 57.242727 0
M  V30 24 C 37.192106 25.735123 55.718273 0
M  V30 25 C 39.109401 27.863672 52.483852 0
M  V30 26 C 38.740991 27.428241 53.768620 0
M  V30 27 C 36.798197 35.531228 60.982655 0
M  V30 28 C 37.539672 33.280394 58.873844 0
M  V30 29 C 38.736289 30.237086 56.971593 0
M  V30 30 H 39.467403 32.038344 57.796596 0
M  V30 31 H 39.131562 30.812132 59.016435 0
M  V30 32 H 36.185950 37.582945 61.400118 0
M  V30 33 H 36.809773 36.735137 62.798007 0
M  V30 34 H 41.130227 31.231167 51.411337 0
M  V30 35 H 40.565304 31.216083 49.748514 0
M  V30 36 H 39.467350 31.720444 51.026650 0
M  V30 37 H 40.318233 27.843058 49.980277 0
M  V30 38 H 38.667507 28.421404 49.779729 0
M  V30 39 H 39.984028 29.221310 48.919210 0
M  V30 40 H 38.690816 32.694646 60.623494 0
M  V30 41 H 36.994387 32.866378 60.929218 0
M  V30 42 H 41.384531 36.708353 64.008392 0
M  V30 43 H 38.349093 38.348073 61.923214 0
M  V30 44 H 37.867407 26.598419 58.729140 0
M  V30 45 H 38.003351 24.980662 58.076268 0
M  V30 46 H 39.393525 26.055688 58.035780 0
M  V30 47 H 38.730975 36.021457 63.858761 0
M  V30 48 H 39.496559 37.591794 63.794493 0
M  V30 49 H 39.713796 31.155810 53.180658 0
M  V30 50 H 40.297227 37.030061 61.453473 0
M  V30 51 H 39.338950 31.657601 55.473714 0
M  V30 52 H 36.912302 31.320818 58.941359 0
M  V30 53 H 38.132534 28.619321 58.251277 0
M  V30 54 H 36.917016 24.730959 56.005756 0
M  V30 55 H 36.868701 26.078310 54.754044 0
M  V30 56 H 39.141065 27.149136 51.675985 0
M  V30 57 H 38.530065 26.393464 53.906046 0
M  V30 58 H 36.481050 35.748368 59.961386 0
M  V30 59 H 35.993197 34.947540 61.431725 0
M  V30 60 H 36.571915 33.744448 58.678327 0
M  V30 61 H 38.267298 33.868428 58.315267 0
M  V30 62 H 36.923104 31.954890 57.464786 0
M  V30 63 H 38.333183 37.615681 60.457555 0
M  V30 END ATOM
M  V30 BEGIN BOND
M  V30 1 1 7 6
M  V30 2 1 10 4
M  V30 3 1 10 5
M  V30 4 1 12 3
M  V30 5 1 14 11
M  V30 6 1 15 9
M  V30 7 1 16 12
M  V30 8 1 16 14
M  V30 9 2 17 9
M  V30 10 1 18 1
M  V30 11 2 19 8
M  V30 12 1 19 9
M  V30 13 1 20 10
M  V30 14 2 20 15
M  V30 15 1 21 8
M  V30 16 1 21 13
M  V30 17 2 22 2
M  V30 18 1 22 6
M  V30 19 1 22 16
M  V30 20 1 23 8
M  V30 21 2 24 21
M  V30 22 1 25 20
M  V30 23 1 26 19
M  V30 24 2 26 25
M  V30 25 1 27 3
M  V30 26 1 27 6
M  V30 27 1 28 7
M  V30 28 1 28 18
M  V30 29 1 29 1
M  V30 30 1 29 17
M  V30 31 2 29 23
M  V30 32 1 30 1
M  V30 33 1 31 1
M  V30 34 1 32 3
M  V30 35 1 33 3
M  V30 36 1 34 4
M  V30 37 1 35 4
M  V30 38 1 36 4
M  V30 39 1 37 5
M  V30 40 1 38 5
M  V30 41 1 39 5
M  V30 42 1 40 7
M  V30 43 1 41 7
M  V30 44 1 42 11
M  V30 45 1 43 12
M  V30 46 1 44 13
M  V30 47 1 45 13
M  V30 48 1 46 13
M  V30 49 1 47 14
M  V30 50 1 48 14
M  V30 51 1 49 15
M  V30 52 1 16 50 CFG=3
M  V30 53 1 51 17
M  V30 54 1 52 18
M  V30 55 1 53 23
M  V30 56 1 54 24
M  V30 57 1 55 24
M  V30 58 1 56 25
M  V30 59 1 57 26
M  V30 60 1 58 27
M  V30 61 1 59 27
M  V30 62 1 60 28
M  V30 63 1 61 28
M  V30 64 1 62 18
M  V30 65 1 63 12
M  V30 END BOND
M  V30 END CTAB
M  END
>  <i_epik_Tot_Q>  (1) 
2

>  <i_epik_Tot_abs_Q>  (1) 
2

>  <i_i_glide_confnum>  (1) 
321

>  <i_i_glide_lignum>  (1) 
63

>  <i_i_glide_posenum>  (1) 
103

>  <i_i_glide_rotatable_bonds>  (1) 
9

>  <i_lp_mmshare_version>  (1) 
72125

>  <i_m_source_file_index>  (1) 
25

>  <i_f3d_flags>  (1) 
0

>  <num_sample>  (1) 
100

>  <b_lp_Chiralities_Consistent>  (1) 
1

>  <r_epik_Charging_Adjusted_Penalty>  (1) 
1.6940302234007771

>  <r_epik_Ionization_Penalty>  (1) 
0.87564545374797542

>  <r_epik_Ionization_Penalty_Charging>  (1) 
0.87490775709823365

>  <r_epik_Ionization_Penalty_Neutral>  (1) 
0.00073769664974180401

>  <r_epik_State_Penalty>  (1) 
0.81912246630254359

>  <r_glide_ring_energy>  (1) 
0

>  <r_i_docking_score>  (1) 
-8.7365793172337973

>  <r_i_glide_ecoul>  (1) 
-7.8948303894394272

>  <r_i_glide_eff_state_penalty>  (1) 
0.81912246630254359

>  <r_i_glide_einternal>  (1) 
6.6328307210022892

>  <r_i_glide_emodel>  (1) 
-79.871203069826635

>  <r_i_glide_emodel_strain>  (1) 
1.8827151424112145

>  <r_i_glide_energy>  (1) 
-49.553776491683294

>  <r_i_glide_erotb>  (1) 
0.86311099515177125

>  <r_i_glide_esite>  (1) 
-0.089461493513377677

>  <r_i_glide_evdw>  (1) 
-41.658946102243867

>  <r_i_glide_gscore>  (1) 
-9.5557017835363407

>  <r_i_glide_gscore_strain>  (1) 
0

>  <r_i_glide_hbond>  (1) 
-0.48460125924683894

>  <r_i_glide_ligand_efficiency>  (1) 
-0.30126135576668267

>  <r_i_glide_ligand_efficiency_ln>  (1) 
-2.0004551231100951

>  <r_i_glide_ligand_efficiency_sa>  (1) 
-0.92557033225090934

>  <r_i_glide_lipo>  (1) 
-4.003798363011053

>  <r_i_glide_metal>  (1) 
-0

>  <r_i_glide_rewards>  (1) 
-2.5737797993887339

>  <r_lp_Energy>  (1) 
68.015124999999998

>  <s_epik_cmdline>  (1) 
J2VwaWtfcHl0aG9uJywgJy1waHQnLCAnMS4wJywgJy1waCcsICc3LjQnLCAnLXRuJywgJzgnLCAnLW1hJywgJzUwMCcsICctaW1hZScsICc8aW5maWxlLm1hZT4nLCAnLW9tYWUnLCAnPG91dGZpbGUubWFlPic=

>  <s_epik_input>  (1) 
W0NIMl0xW0NIMl1bTkhdW0NAQEhdKFtDSDJdW09IXSlDKD1PKU4xW0NIMl1bQ0gyXVtOSF1bQ0gyXWMoW2NIXTIpW2NIXWMoQyhbQ0gzXSk9W0NIMl0pYyhjMjMpW2NIXVtjSF1jKFtjSF0zKU4oW0NIM10pW0NIM10=

>  <s_glide_docking_method>  (1) 
confgen

>  <s_i_glide_gridfile>  (1) 
gpcr_5ht2c_6bqh_protein_autoprepared_prepared

>  <s_lp_Force_Field>  (1) 
S-OPLS

>  <s_lp_Variant>  (1) 
DiffSBDD_24_num_sample_100-2

>  <s_m_source_file>  (1) 
generated__ligand_DiffSBDD_2026-05-06_prepared.sdf

>  <GenAI_Model>  (1) 
DiffSBDD

>  <Protein>  (1) 
GPCR_5HT2C

$$$$
DiffSBDD_14_num_sample_100
     RDKit          3D

  0  0  0  0  0  0  0  0  0  0999 V3000
M  V30 BEGIN CTAB
M  V30 COUNTS 76 78 0 0 1
M  V30 BEGIN ATOM
M  V30 1 C 39.054424 27.185642 52.050881 0
M  V30 2 C 38.641034 27.638147 53.471716 0 CFG=2
M  V30 3 C 38.458746 30.645492 59.610144 0
M  V30 4 C 39.375253 30.021764 52.806545 0
M  V30 5 C 38.312443 29.149366 53.519521 0 CFG=2
M  V30 6 C 40.584762 30.479413 50.601515 0
M  V30 7 O 42.267166 35.621135 63.988405 0
M  V30 8 C 37.312902 25.452439 55.756187 0
M  V30 9 C 38.237919 34.097367 61.634682 0
M  V30 10 C 39.120397 24.861287 57.143970 0
M  V30 11 C 39.609474 29.566348 51.356584 0 CFG=1
M  V30 12 O 39.867420 29.240922 56.299234 0
M  V30 13 O 36.776079 24.821798 56.906647 0
M  V30 14 N 40.986244 35.939348 63.485468 0
M  V30 15 C 38.518639 31.110221 56.993152 0
M  V30 16 O 41.047523 34.038959 62.250744 0
M  V30 17 C 37.906563 29.675627 54.927304 0
M  V30 18 N 36.667403 30.813380 58.653488 0 CHG=1
M  V30 19 O 39.649118 27.363374 54.430129 0
M  V30 20 C 37.809256 24.579296 57.851345 0
M  V30 21 C 39.705062 26.065010 54.992787 0
M  V30 22 C 40.448059 35.042143 62.643112 0
M  V30 23 C 37.272425 31.604454 59.725007 0 CFG=2
M  V30 24 C 37.375379 33.098755 59.363042 0 CFG=2
M  V30 25 C 39.012255 35.317241 62.188823 0
M  V30 26 C 37.966477 30.320977 58.197699 0 CFG=2
M  V30 27 C 38.478333 33.857197 60.133214 0
M  V30 28 C 38.711864 25.924468 56.153178 0 CFG=1
M  V30 29 C 39.030630 30.265622 55.813002 0 CFG=2
M  V30 30 C 36.011770 33.813373 59.449176 0
M  V30 31 C 40.068833 28.105771 51.355990 0
M  V30 32 H 38.158773 27.136553 51.430206 0
M  V30 33 H 39.467391 26.179945 52.072577 0
M  V30 34 H 37.735952 27.098373 53.737620 0
M  V30 35 H 39.444896 31.104240 59.669366 0
M  V30 36 H 38.381889 29.792650 60.288113 0
M  V30 37 H 39.067982 31.068176 52.827587 0
M  V30 38 H 40.320368 29.992414 53.343304 0
M  V30 39 H 37.410969 29.221497 52.914535 0
M  V30 40 H 41.574042 30.483616 51.053313 0
M  V30 41 H 40.702009 30.154620 49.567605 0
M  V30 42 H 40.219564 31.506714 50.582327 0
M  V30 43 H 42.512989 36.396217 64.476430 0
M  V30 44 H 36.667725 26.272887 55.450866 0
M  V30 45 H 37.356878 24.722527 54.946517 0
M  V30 46 H 38.468762 33.194696 62.201854 0
M  V30 47 H 37.180413 34.287321 61.809745 0
M  V30 48 H 39.467452 23.972347 56.629923 0
M  V30 49 H 39.906442 25.190464 57.824000 0
M  V30 50 H 38.667310 29.616450 50.816847 0
M  V30 51 H 39.986420 28.604726 55.600150 0
M  V30 52 H 40.601457 36.770276 63.915683 0
M  V30 53 H 37.775073 31.805540 56.600111 0
M  V30 54 H 39.341121 31.742391 57.328701 0
M  V30 55 H 37.390753 28.893000 55.479572 0
M  V30 56 H 37.165337 30.460509 54.769898 0
M  V30 57 H 36.118034 30.058114 59.032339 0
M  V30 58 H 37.695801 25.298914 58.653476 0
M  V30 59 H 37.757383 23.568774 58.254119 0
M  V30 60 H 39.588304 25.276505 54.253695 0
M  V30 61 H 40.713767 25.962227 55.391860 0
M  V30 62 H 36.743643 31.442772 60.664734 0
M  V30 63 H 37.673974 33.197441 58.322072 0
M  V30 64 H 38.476034 35.706277 63.053402 0
M  V30 65 H 39.019450 36.133086 61.465571 0
M  V30 66 H 37.903768 29.245515 58.028410 0
M  V30 67 H 38.564245 34.822977 59.653055 0
M  V30 68 H 39.449317 33.385422 59.985077 0
M  V30 69 H 38.629721 26.867414 56.695065 0
M  V30 70 H 39.642684 30.942436 55.219093 0
M  V30 71 H 35.518881 33.644070 60.406737 0
M  V30 72 H 36.120094 34.890022 59.313447 0
M  V30 73 H 35.331723 33.468348 58.670709 0
M  V30 74 H 40.225862 27.764481 50.331932 0
M  V30 75 H 41.031958 28.027195 51.853406 0
M  V30 76 H 36.128685 31.341733 57.942564 0
M  V30 END ATOM
M  V30 BEGIN BOND
M  V30 1 1 2 1
M  V30 2 1 5 2
M  V30 3 1 5 4
M  V30 4 1 11 4
M  V30 5 1 11 6
M  V30 6 1 13 8
M  V30 7 1 14 7
M  V30 8 1 17 5
M  V30 9 1 19 2
M  V30 10 1 20 10
M  V30 11 1 20 13
M  V30 12 1 21 19
M  V30 13 1 22 14
M  V30 14 2 22 16
M  V30 15 1 23 3
M  V30 16 1 23 18
M  V30 17 1 24 23
M  V30 18 1 25 9
M  V30 19 1 25 22
M  V30 20 1 26 3
M  V30 21 1 26 15
M  V30 22 1 26 18
M  V30 23 1 27 9
M  V30 24 1 27 24
M  V30 25 1 28 8
M  V30 26 1 28 10
M  V30 27 1 28 21
M  V30 28 1 29 12
M  V30 29 1 29 15
M  V30 30 1 29 17
M  V30 31 1 30 24
M  V30 32 1 31 1
M  V30 33 1 31 11
M  V30 34 1 32 1
M  V30 35 1 33 1
M  V30 36 1 2 34 CFG=1
M  V30 37 1 35 3
M  V30 38 1 36 3
M  V30 39 1 37 4
M  V30 40 1 38 4
M  V30 41 1 5 39 CFG=3
M  V30 42 1 40 6
M  V30 43 1 41 6
M  V30 44 1 42 6
M  V30 45 1 43 7
M  V30 46 1 44 8
M  V30 47 1 45 8
M  V30 48 1 46 9
M  V30 49 1 47 9
M  V30 50 1 48 10
M  V30 51 1 49 10
M  V30 52 1 11 50 CFG=3
M  V30 53 1 51 12
M  V30 54 1 52 14
M  V30 55 1 53 15
M  V30 56 1 54 15
M  V30 57 1 55 17
M  V30 58 1 56 17
M  V30 59 1 57 18
M  V30 60 1 58 20
M  V30 61 1 59 20
M  V30 62 1 60 21
M  V30 63 1 61 21
M  V30 64 1 23 62 CFG=1
M  V30 65 1 24 63 CFG=3
M  V30 66 1 64 25
M  V30 67 1 65 25
M  V30 68 1 26 66 CFG=3
M  V30 69 1 67 27
M  V30 70 1 68 27
M  V30 71 1 28 69 CFG=1
M  V30 72 1 29 70 CFG=3
M  V30 73 1 71 30
M  V30 74 1 72 30
M  V30 75 1 73 30
M  V30 76 1 74 31
M  V30 77 1 75 31
M  V30 78 1 76 18
M  V30 END BOND
M  V30 END CTAB
M  END
>  <i_epik_Tot_Q>  (1) 
1

>  <i_epik_Tot_abs_Q>  (1) 
1

>  <i_i_glide_confnum>  (1) 
7746

>  <i_i_glide_lignum>  (1) 
33

>  <i_i_glide_posenum>  (1) 
56

>  <i_i_glide_rotatable_bonds>  (1) 
15

>  <i_lp_mmshare_version>  (1) 
72125

>  <i_m_source_file_index>  (1) 
15

>  <i_f3d_flags>  (1) 
0

>  <num_sample>  (1) 
100

>  <b_lp_Chiralities_Consistent>  (1) 
1

>  <r_epik_Charging_Adjusted_Penalty>  (1) 
0.00011085431656654283

>  <r_epik_Ionization_Penalty>  (1) 
0.0093428253379992804

>  <r_epik_Ionization_Penalty_Charging>  (1) 
0.00011085431656654283

>  <r_epik_Ionization_Penalty_Neutral>  (1) 
0.0092319710214327378

>  <r_epik_State_Penalty>  (1) 
-0

>  <r_glide_ring_energy>  (1) 
0

>  <r_i_docking_score>  (1) 
-8.7360598457860892

>  <r_i_glide_ecoul>  (1) 
-13.459035159330456

>  <r_i_glide_eff_state_penalty>  (1) 
-0

>  <r_i_glide_einternal>  (1) 
21.275600229474172

>  <r_i_glide_emodel>  (1) 
-70.41354582833479

>  <r_i_glide_emodel_strain>  (1) 
3.2390670536659343

>  <r_i_glide_energy>  (1) 
-53.126846035685325

>  <r_i_glide_erotb>  (1) 
1.3314850251941783

>  <r_i_glide_esite>  (1) 
-0.10000000000000001

>  <r_i_glide_evdw>  (1) 
-39.667810876354871

>  <r_i_glide_gscore>  (1) 
-8.7360598457860892

>  <r_i_glide_gscore_strain>  (1) 
0

>  <r_i_glide_hbond>  (1) 
-0.4205383223571762

>  <r_i_glide_ligand_efficiency>  (1) 
-0.28180838212213188

>  <r_i_glide_ligand_efficiency_ln>  (1) 
-1.97024922330611

>  <r_i_glide_ligand_efficiency_sa>  (1) 
-0.88526739928018583

>  <r_i_glide_lipo>  (1) 
-4.2652800719376334

>  <r_i_glide_metal>  (1) 
-0

>  <r_i_glide_rewards>  (1) 
-1.2794806589681467

>  <r_lp_Energy>  (1) 
17.773495

>  <r_lp_tautomer_probability>  (1) 
1

>  <s_epik_Chemistry_Notes>  (1) 
This compound has a N-S or N-O group and may undergo hydrolysis at high or low pH.

>  <s_epik_cmdline>  (1) 
J2VwaWtfcHl0aG9uJywgJy1waHQnLCAnMS4wJywgJy1waCcsICc3LjQnLCAnLXRuJywgJzgnLCAnLW1hJywgJzUwMCcsICctaW1hZScsICc8aW5maWxlLm1hZT4nLCAnLW9tYWUnLCAnPG91dGZpbGUubWFlPic=

>  <s_epik_input>  (1) 
W0NIMl0xW0NIMl1PW0NIMl1bQ0BASF0xW0NIMl1PW0NASF0yW0NIMl1bQ0gyXVtDQEhdKFtDSDNdKVtDSDJdW0NAQEhdMltDSDJdW0NASF0oW09IXSlbQ0gyXVtDQEhdKFtOSF0zKVtDSDJdW0NASF0zW0NAQEhdKFtDSDNdKVtDSDJdW0NIMl1bQ0gyXUMoPU8pW05IXVtPSF0=

>  <s_glide_docking_method>  (1) 
confgen

>  <s_i_glide_gridfile>  (1) 
gpcr_5ht2c_6bqh_protein_autoprepared_prepared

>  <s_lp_Force_Field>  (1) 
S-OPLS

>  <s_lp_Variant>  (1) 
DiffSBDD_14_num_sample_100-2

>  <s_m_source_file>  (1) 
generated__ligand_DiffSBDD_2026-05-06_prepared.sdf

>  <GenAI_Model>  (1) 
DiffSBDD

>  <Protein>  (1) 
GPCR_5HT2C

$$$$
DiffSBDD_33_num_sample_100
     RDKit          3D

  0  0  0  0  0  0  0  0  0  0999 V3000
M  V30 BEGIN CTAB
M  V30 COUNTS 54 57 0 0 1
M  V30 BEGIN ATOM
M  V30 1 O 41.234250 28.421440 59.929266 0
M  V30 2 O 37.881580 27.342237 53.222731 0
M  V30 3 C 38.993064 25.782830 55.541780 0
M  V30 4 C 39.432925 30.829641 61.259789 0
M  V30 5 C 40.038905 28.578229 60.150562 0
M  V30 6 N 39.085824 28.170113 59.303441 0
M  V30 7 C 38.574368 31.442932 60.336049 0
M  V30 8 C 37.491135 27.553624 54.569857 0
M  V30 9 O 38.296468 24.962967 56.138916 0
M  V30 10 C 39.398043 27.517930 58.033811 0
M  V30 11 O 38.120048 29.193972 56.924076 0
M  V30 12 C 39.315529 35.045398 61.053405 0
M  V30 13 C 40.230659 31.573034 62.095704 0
M  V30 14 F 41.044361 30.928184 50.420222 0
M  V30 15 C 40.647785 29.449415 62.574024 0
M  V30 16 C 38.537865 32.856029 60.267334 0
M  V30 17 F 38.681931 26.821425 50.653519 0
M  V30 18 C 38.643553 27.277885 55.563937 0 CFG=1
M  V30 19 C 41.037077 33.807995 62.931546 0
M  V30 20 C 38.300234 27.789316 56.987155 0 CFG=1
M  V30 21 C 39.867442 30.381466 52.425956 0
M  V30 22 C 39.572805 29.266210 61.437533 0 CFG=1
M  V30 23 C 39.867227 28.871132 50.519860 0
M  V30 24 C 39.067368 27.968535 51.231948 0
M  V30 25 C 39.360203 33.639318 61.130462 0
M  V30 26 C 38.664602 28.257293 52.546591 0
M  V30 27 C 40.268456 30.071867 51.111527 0
M  V30 28 C 40.121741 35.827647 61.899951 0
M  V30 29 C 40.225207 33.001446 62.069592 0
M  V30 30 C 39.067341 29.476843 53.148520 0
M  V30 31 O 41.867374 33.248540 63.853524 0
M  V30 32 C 40.976132 35.213482 62.834017 0
M  V30 33 C 40.966675 30.696242 62.887518 0
M  V30 34 H 39.882932 25.516333 54.971736 0
M  V30 35 H 38.115472 28.330906 59.529198 0
M  V30 36 H 37.951281 30.847532 59.684100 0
M  V30 37 H 36.668659 26.865823 54.767587 0
M  V30 38 H 37.067335 28.550975 54.676421 0
M  V30 39 H 40.357381 27.864412 57.643196 0
M  V30 40 H 39.506800 26.449179 58.220593 0
M  V30 41 H 38.963366 29.612946 56.844549 0
M  V30 42 H 38.659828 35.526272 60.341763 0
M  V30 43 H 41.086435 28.586101 63.052925 0
M  V30 44 H 37.882748 33.341744 59.557743 0
M  V30 45 H 39.536919 27.805306 55.231543 0
M  V30 46 H 37.362545 27.343132 57.322474 0
M  V30 47 H 40.178360 31.310091 52.880443 0
M  V30 48 H 38.667481 28.822336 61.839499 0
M  V30 49 H 40.173168 28.641122 49.511704 0
M  V30 50 H 40.082778 36.904960 61.834984 0
M  V30 51 H 38.767480 29.719713 54.154816 0
M  V30 52 H 41.614238 32.369674 64.080570 0
M  V30 53 H 41.588005 35.824414 63.483221 0
M  V30 54 H 41.678308 30.996889 63.629597 0
M  V30 END ATOM
M  V30 BEGIN BOND
M  V30 1 2 5 1
M  V30 2 1 6 5
M  V30 3 1 7 4
M  V30 4 1 8 2
M  V30 5 2 9 3
M  V30 6 1 10 6
M  V30 7 2 13 4
M  V30 8 2 16 7
M  V30 9 1 18 3
M  V30 10 1 18 8
M  V30 11 1 20 10
M  V30 12 1 20 11
M  V30 13 1 20 18
M  V30 14 1 22 4
M  V30 15 1 22 5
M  V30 16 1 22 15
M  V30 17 1 24 17
M  V30 18 1 24 23
M  V30 19 2 25 12
M  V30 20 1 25 16
M  V30 21 1 26 2
M  V30 22 2 26 24
M  V30 23 1 27 14
M  V30 24 1 27 21
M  V30 25 2 27 23
M  V30 26 1 28 12
M  V30 27 1 29 13
M  V30 28 2 29 19
M  V30 29 1 29 25
M  V30 30 2 30 21
M  V30 31 1 30 26
M  V30 32 1 31 19
M  V30 33 1 32 19
M  V30 34 2 32 28
M  V30 35 1 33 13
M  V30 36 2 33 15
M  V30 37 1 34 3
M  V30 38 1 35 6
M  V30 39 1 36 7
M  V30 40 1 37 8
M  V30 41 1 38 8
M  V30 42 1 39 10
M  V30 43 1 40 10
M  V30 44 1 41 11
M  V30 45 1 42 12
M  V30 46 1 43 15
M  V30 47 1 44 16
M  V30 48 1 18 45 CFG=3
M  V30 49 1 20 46 CFG=1
M  V30 50 1 47 21
M  V30 51 1 22 48 CFG=1
M  V30 52 1 49 23
M  V30 53 1 50 28
M  V30 54 1 51 30
M  V30 55 1 52 31
M  V30 56 1 53 32
M  V30 57 1 54 33
M  V30 END BOND
M  V30 END CTAB
M  END
>  <i_epik_Tot_Q>  (1) 
0

>  <i_epik_Tot_abs_Q>  (1) 
0

>  <i_i_glide_confnum>  (1) 
238

>  <i_i_glide_lignum>  (1) 
88

>  <i_i_glide_posenum>  (1) 
189

>  <i_i_glide_rotatable_bonds>  (1) 
11

>  <i_lp_mmshare_version>  (1) 
72125

>  <i_m_source_file_index>  (1) 
34

>  <i_f3d_flags>  (1) 
0

>  <num_sample>  (1) 
100

>  <b_lp_Chiralities_Consistent>  (1) 
1

>  <r_epik_Charging_Adjusted_Penalty>  (1) 
0.017498169133041582

>  <r_epik_Ionization_Penalty>  (1) 
0.017508665323932474

>  <r_epik_Ionization_Penalty_Charging>  (1) 
0

>  <r_epik_Ionization_Penalty_Neutral>  (1) 
0.017508665323932474

>  <r_epik_State_Penalty>  (1) 
0.017498169133041582

>  <r_glide_ring_energy>  (1) 
0

>  <r_i_docking_score>  (1) 
-8.7306285655100382

>  <r_i_glide_ecoul>  (1) 
0.86132781457816843

>  <r_i_glide_eff_state_penalty>  (1) 
0.017498169133041582

>  <r_i_glide_einternal>  (1) 
6.0524251508083484

>  <r_i_glide_emodel>  (1) 
-74.307748331025522

>  <r_i_glide_emodel_strain>  (1) 
0.14055082069954494

>  <r_i_glide_energy>  (1) 
-50.363692745522293

>  <r_i_glide_erotb>  (1) 
0.68337992358868593

>  <r_i_glide_esite>  (1) 
0

>  <r_i_glide_evdw>  (1) 
-51.225020560100461

>  <r_i_glide_gscore>  (1) 
-8.7481267346430798

>  <r_i_glide_gscore_strain>  (1) 
0

>  <r_i_glide_hbond>  (1) 
-0.0045172991518505016

>  <r_i_glide_ligand_efficiency>  (1) 
-0.26456450198515269

>  <r_i_glide_ligand_efficiency_ln>  (1) 
-1.9416465881940277

>  <r_i_glide_ligand_efficiency_sa>  (1) 
-0.84859972261562622

>  <r_i_glide_lipo>  (1) 
-4.4657129054067459

>  <r_i_glide_metal>  (1) 
-0

>  <r_i_glide_rewards>  (1) 
-2.5292245978548715

>  <r_lp_Energy>  (1) 
35.553354999999996

>  <r_lp_tautomer_probability>  (1) 
0.99990000499974985

>  <s_epik_cmdline>  (1) 
J2VwaWtfcHl0aG9uJywgJy1waHQnLCAnMS4wJywgJy1waCcsICc3LjQnLCAnLXRuJywgJzgnLCAnLW1hJywgJzUwMCcsICctaW1hZScsICc8aW5maWxlLm1hZT4nLCAnLW9tYWUnLCAnPG91dGZpbGUubWFlPic=

>  <s_epik_input>  (1) 
W09IXWMxW2NIXVtjSF1bY0hdYyhbY0hdW2NIXTIpYzFjKGMyMylbQ0hdPVtDSF1bQ0BASF0zQyg9TylbTkhdW0NIMl1bQ0BASF0oW09IXSlbQ0BASF0oW0NIXT1PKVtDSDJdT2M0W2NIXVtjSF1jKEYpW2NIXWM0Rg==

>  <s_glide_docking_method>  (1) 
confgen

>  <s_i_glide_gridfile>  (1) 
gpcr_5ht2c_6bqh_protein_autoprepared_prepared

>  <s_lp_Force_Field>  (1) 
S-OPLS

>  <s_lp_Variant>  (1) 
DiffSBDD_33_num_sample_100-1

>  <s_m_source_file>  (1) 
generated__ligand_DiffSBDD_2026-05-06_prepared.sdf

>  <GenAI_Model>  (1) 
DiffSBDD

>  <Protein>  (1) 
GPCR_5HT2C

$$$$
DiffSBDD_77_num_sample_100
     RDKit          3D

  0  0  0  0  0  0  0  0  0  0999 V3000
M  V30 BEGIN CTAB
M  V30 COUNTS 77 79 0 0 1
M  V30 BEGIN ATOM
M  V30 1 C 39.867504 30.146353 51.949668 0
M  V30 2 F 39.141936 26.907602 50.383132 0
M  V30 3 C 41.555946 28.478658 63.083423 0
M  V30 4 C 39.138759 30.025282 53.146007 0
M  V30 5 C 37.480307 33.470118 61.123970 0
M  V30 6 C 39.547727 29.113633 56.275838 0
M  V30 7 C 39.492026 28.498426 60.925436 0
M  V30 8 C 40.317346 28.055369 58.528447 0 CFG=2
M  V30 9 O 37.762668 30.851406 61.054115 0
M  V30 10 C 36.860872 34.875145 60.983368 0
M  V30 11 N 37.504720 24.869440 54.891644 0
M  V30 12 C 37.584192 28.737675 54.685924 0
M  V30 13 C 39.141885 27.918316 51.280954 0
M  V30 14 O 42.038641 31.619530 63.304281 0
M  V30 15 C 40.957096 30.858933 63.790544 0
M  V30 16 C 38.403587 28.851802 53.410817 0
M  V30 17 F 40.560197 29.221621 49.860150 0
M  V30 18 C 39.682329 26.294339 56.801087 0
M  V30 19 O 36.667244 23.275490 56.244710 0
M  V30 20 O 38.678800 29.886953 58.363000 0
M  V30 21 C 39.867342 29.096482 51.015814 0
M  V30 22 C 39.042224 35.843223 61.780762 0
M  V30 23 N 39.491311 32.105222 61.872941 0
M  V30 24 C 37.516427 25.910783 55.895319 0
M  V30 25 C 38.409971 27.795678 52.477157 0
M  V30 26 C 40.683091 29.704338 62.828931 0
M  V30 27 C 37.067140 23.637823 55.146368 0
M  V30 28 C 39.638056 34.529369 61.980594 0
M  V30 29 C 39.499414 26.776620 58.266346 0
M  V30 30 F 39.773574 36.934729 62.062778 0
M  V30 31 C 41.055034 34.414996 62.518333 0
M  V30 32 C 38.322078 28.220515 55.955854 0 CFG=1
M  V30 33 C 38.881047 30.919667 61.554052 0
M  V30 34 N 40.613827 28.344243 59.959719 0 CHG=1
M  V30 35 C 39.732755 29.719944 61.819670 0
M  V30 36 C 38.918913 33.417008 61.680761 0
M  V30 37 C 37.791915 36.012434 61.328975 0
M  V30 38 C 39.819319 29.303522 57.773290 0 CFG=2
M  V30 39 N 38.679161 26.794720 55.848272 0
M  V30 40 H 40.421770 31.050514 51.744723 0
M  V30 41 H 41.401215 28.131483 64.105027 0
M  V30 42 H 41.364399 27.624595 62.443880 0
M  V30 43 H 42.609398 28.742333 62.981438 0
M  V30 44 H 39.131384 30.841432 53.852416 0
M  V30 45 H 37.463415 33.029612 60.125843 0
M  V30 46 H 36.810298 32.904920 61.772269 0
M  V30 47 H 40.438868 28.768650 55.750519 0
M  V30 48 H 39.364431 30.116537 55.893747 0
M  V30 49 H 39.405134 27.621462 61.556733 0
M  V30 50 H 38.534639 28.553260 60.412152 0
M  V30 51 H 41.310773 27.856218 58.123110 0
M  V30 52 H 35.988752 34.945533 61.633671 0
M  V30 53 H 36.501470 35.026314 59.964380 0
M  V30 54 H 37.829399 25.099384 53.964423 0
M  V30 55 H 36.704948 28.144606 54.443622 0
M  V30 56 H 37.185710 29.730415 54.904523 0
M  V30 57 H 42.476342 32.027670 64.038560 0
M  V30 58 H 41.284876 30.418091 64.732970 0
M  V30 59 H 40.091973 31.450327 64.090663 0
M  V30 60 H 40.674115 26.562210 56.435641 0
M  V30 61 H 39.677766 25.202212 56.777644 0
M  V30 62 H 38.394388 30.633569 57.852694 0
M  V30 63 H 40.429389 32.074926 62.258431 0
M  V30 64 H 37.383703 25.522899 56.908066 0
M  V30 65 H 36.585992 26.421394 55.701998 0
M  V30 66 H 37.845752 26.896626 52.672925 0
M  V30 67 H 37.117808 23.000706 54.253648 0
M  V30 68 H 39.867576 25.988687 58.921300 0
M  V30 69 H 38.450377 26.907417 58.532872 0
M  V30 70 H 41.544099 35.387481 62.582054 0
M  V30 71 H 41.036744 33.998092 63.524944 0
M  V30 72 H 41.669239 33.791355 61.867452 0
M  V30 73 H 37.609965 28.310893 56.777463 0
M  V30 74 H 41.120429 29.215473 59.959764 0
M  V30 75 H 37.401900 37.011856 61.200673 0
M  V30 76 H 40.620608 30.021413 57.853523 0
M  V30 77 H 41.237088 27.630227 60.312130 0
M  V30 END ATOM
M  V30 BEGIN BOND
M  V30 1 2 4 1
M  V30 2 1 10 5
M  V30 3 1 13 2
M  V30 4 1 15 14
M  V30 5 1 16 4
M  V30 6 1 16 12
M  V30 7 1 21 1
M  V30 8 2 21 13
M  V30 9 1 21 17
M  V30 10 1 24 11
M  V30 11 1 25 13
M  V30 12 2 25 16
M  V30 13 1 26 3
M  V30 14 1 26 15
M  V30 15 1 27 11
M  V30 16 2 27 19
M  V30 17 1 28 22
M  V30 18 1 29 8
M  V30 19 1 29 18
M  V30 20 1 30 22
M  V30 21 1 31 28
M  V30 22 1 32 6
M  V30 23 1 32 12
M  V30 24 2 33 9
M  V30 25 1 33 23
M  V30 26 1 34 7
M  V30 27 1 34 8
M  V30 28 1 35 7
M  V30 29 2 35 26
M  V30 30 1 35 33
M  V30 31 1 36 5
M  V30 32 1 36 23
M  V30 33 2 36 28
M  V30 34 1 37 10
M  V30 35 2 37 22
M  V30 36 1 38 6
M  V30 37 1 38 8
M  V30 38 1 38 20
M  V30 39 1 39 18
M  V30 40 1 39 24
M  V30 41 1 39 32
M  V30 42 1 40 1
M  V30 43 1 41 3
M  V30 44 1 42 3
M  V30 45 1 43 3
M  V30 46 1 44 4
M  V30 47 1 45 5
M  V30 48 1 46 5
M  V30 49 1 47 6
M  V30 50 1 48 6
M  V30 51 1 49 7
M  V30 52 1 50 7
M  V30 53 1 8 51 CFG=3
M  V30 54 1 52 10
M  V30 55 1 53 10
M  V30 56 1 54 11
M  V30 57 1 55 12
M  V30 58 1 56 12
M  V30 59 1 57 14
M  V30 60 1 58 15
M  V30 61 1 59 15
M  V30 62 1 60 18
M  V30 63 1 61 18
M  V30 64 1 62 20
M  V30 65 1 63 23
M  V30 66 1 64 24
M  V30 67 1 65 24
M  V30 68 1 66 25
M  V30 69 1 67 27
M  V30 70 1 68 29
M  V30 71 1 69 29
M  V30 72 1 70 31
M  V30 73 1 71 31
M  V30 74 1 72 31
M  V30 75 1 32 73 CFG=1
M  V30 76 1 74 34
M  V30 77 1 75 37
M  V30 78 1 38 76 CFG=3
M  V30 79 1 77 34
M  V30 END BOND
M  V30 END CTAB
M  END
>  <i_epik_Tot_Q>  (1) 
1

>  <i_epik_Tot_abs_Q>  (1) 
1

>  <i_i_glide_confnum>  (1) 
1972

>  <i_i_glide_lignum>  (1) 
192

>  <i_i_glide_posenum>  (1) 
225

>  <i_i_glide_rotatable_bonds>  (1) 
14

>  <i_lp_mmshare_version>  (1) 
72125

>  <i_m_source_file_index>  (1) 
78

>  <i_f3d_flags>  (1) 
0

>  <num_sample>  (1) 
100

>  <b_lp_Chiralities_Consistent>  (1) 
1

>  <r_epik_Charging_Adjusted_Penalty>  (1) 
1.1871079539409661

>  <r_epik_Ionization_Penalty>  (1) 
0.55718335861310397

>  <r_epik_Ionization_Penalty_Charging>  (1) 
0.49341796909107616

>  <r_epik_Ionization_Penalty_Neutral>  (1) 
0.063765389522027774

>  <r_epik_State_Penalty>  (1) 
0.69368998484988997

>  <r_glide_ring_energy>  (1) 
0

>  <r_i_docking_score>  (1) 
-8.7211263901679121

>  <r_i_glide_ecoul>  (1) 
-3.2373853463028048

>  <r_i_glide_eff_state_penalty>  (1) 
0.69368998484988997

>  <r_i_glide_einternal>  (1) 
23.518487263278971

>  <r_i_glide_emodel>  (1) 
-71.651651619290732

>  <r_i_glide_emodel_strain>  (1) 
0.77635811836034918

>  <r_i_glide_energy>  (1) 
-51.249205093809508

>  <r_i_glide_erotb>  (1) 
0.67934156738045093

>  <r_i_glide_esite>  (1) 
0

>  <r_i_glide_evdw>  (1) 
-48.011819747506699

>  <r_i_glide_gscore>  (1) 
-9.4148163750178018

>  <r_i_glide_gscore_strain>  (1) 
0

>  <r_i_glide_hbond>  (1) 
0

>  <r_i_glide_ligand_efficiency>  (1) 
-0.22361862538892083

>  <r_i_glide_ligand_efficiency_ln>  (1) 
-1.8700570619465693

>  <r_i_glide_ligand_efficiency_sa>  (1) 
-0.7583380412900067

>  <r_i_glide_lipo>  (1) 
-4.7230000905550087

>  <r_i_glide_metal>  (1) 
-0

>  <r_i_glide_rewards>  (1) 
-2.484959062522488

>  <r_lp_Energy>  (1) 
45.510686999999997

>  <s_epik_Chemistry_Notes>  (1) 
This compound contains an acetal/aminal-like group ( X-CH(R)-Y where X, Y are N, S, or O) that may be acid/base labile, releasing an aldehyde.

>  <s_epik_cmdline>  (1) 
J2VwaWtfcHl0aG9uJywgJy1waHQnLCAnMS4wJywgJy1waCcsICc3LjQnLCAnLXRuJywgJzgnLCAnLW1hJywgJzUwMCcsICctaW1hZScsICc8aW5maWxlLm1hZT4nLCAnLW9tYWUnLCAnPG91dGZpbGUubWFlPic=

>  <s_epik_input>  (1) 
RmMxYyhGKVtjSF1bY0hdYyhbY0hdMSlbQ0gyXVtDQEhdKFtDSDJdW0NASF0yW09IXSlOKFtDSDJdW05IXVtDSF09TylbQ0gyXVtDSDJdW0NAQEhdMltOSF1bQ0gyXS9DKD1DKFxbQ0gzXSlbQ0gyXVtPSF0pQyg9TylbTkhdQyg9QzNbQ0gzXSlbQ0gyXVtDSDJdW0NIXT1DM0Y=

>  <s_glide_docking_method>  (1) 
confgen

>  <s_i_glide_gridfile>  (1) 
gpcr_5ht2c_6bqh_protein_autoprepared_prepared

>  <s_lp_Force_Field>  (1) 
S-OPLS

>  <s_lp_Variant>  (1) 
DiffSBDD_77_num_sample_100-3

>  <s_m_source_file>  (1) 
generated__ligand_DiffSBDD_2026-05-06_prepared.sdf

>  <GenAI_Model>  (1) 
DiffSBDD

>  <Protein>  (1) 
GPCR_5HT2C

$$$$
DiffSBDD_77_num_sample_100
     RDKit          3D

  0  0  0  0  0  0  0  0  0  0999 V3000
M  V30 BEGIN CTAB
M  V30 COUNTS 77 79 0 0 1
M  V30 BEGIN ATOM
M  V30 1 C 39.187587 27.838287 51.053505 0
M  V30 2 F 40.558476 31.174879 51.744244 0
M  V30 3 C 41.621073 28.528282 63.163063 0
M  V30 4 C 38.426428 27.623566 52.217145 0
M  V30 5 C 37.365410 33.444140 61.453496 0
M  V30 6 C 38.883895 29.501908 56.319206 0
M  V30 7 C 39.704579 28.654609 60.882924 0
M  V30 8 C 40.231291 28.783583 58.368233 0 CFG=2
M  V30 9 O 37.805222 30.858543 61.148508 0
M  V30 10 C 36.670964 34.822896 61.446133 0
M  V30 11 N 38.766679 24.821422 56.475603 0
M  V30 12 C 37.542992 28.375628 54.474181 0
M  V30 13 C 39.867406 30.021381 51.898292 0
M  V30 14 O 41.855679 31.634301 63.800545 0
M  V30 15 C 40.788200 30.760924 64.089625 0
M  V30 16 C 38.380576 28.607599 53.223264 0
M  V30 17 F 40.630740 29.247530 49.768696 0
M  V30 18 C 40.538296 27.108279 56.486531 0
M  V30 19 O 36.667414 25.434252 57.053571 0
M  V30 20 O 37.800783 29.264351 58.448734 0
M  V30 21 C 39.905485 29.038210 50.892393 0
M  V30 22 C 38.832216 35.841076 62.235499 0
M  V30 23 N 39.420898 32.123437 62.159088 0
M  V30 24 C 38.889835 25.741553 55.346188 0
M  V30 25 C 39.104289 29.808127 53.063088 0
M  V30 26 C 40.674874 29.709119 62.986151 0
M  V30 27 C 37.665695 24.744449 57.232019 0
M  V30 28 C 39.475595 34.541723 62.379680 0
M  V30 29 C 40.224289 27.300122 57.988038 0
M  V30 30 F 39.531106 36.947472 62.542506 0
M  V30 31 C 40.893350 34.454919 62.919616 0
M  V30 32 C 38.345812 28.140986 55.784706 0 CFG=1
M  V30 33 C 38.889140 30.940629 61.717054 0
M  V30 34 N 40.610726 29.041823 59.777303 0 CHG=1
M  V30 35 C 39.796981 29.774602 61.919376 0
M  V30 36 C 38.800558 33.418623 62.022946 0
M  V30 37 C 37.569277 35.981597 61.810547 0
M  V30 38 C 39.031629 29.608291 57.847547 0 CFG=2
M  V30 39 N 39.381312 27.105804 55.589003 0
M  V30 40 H 39.217076 27.083390 50.280871 0
M  V30 41 H 41.193020 27.803718 63.856332 0
M  V30 42 H 41.867487 28.021434 62.233830 0
M  V30 43 H 42.569444 28.868745 63.581083 0
M  V30 44 H 37.872041 26.706940 52.335498 0
M  V30 45 H 37.396370 33.110197 60.414866 0
M  V30 46 H 36.715086 32.776642 62.019067 0
M  V30 47 H 39.824526 29.761450 55.832983 0
M  V30 48 H 38.190371 30.293871 56.032553 0
M  V30 49 H 39.986587 27.679730 61.276631 0
M  V30 50 H 38.672801 28.526687 60.568762 0
M  V30 51 H 41.092059 29.209098 57.857180 0
M  V30 52 H 35.846184 34.819185 62.159210 0
M  V30 53 H 36.230221 35.013100 60.466905 0
M  V30 54 H 39.550883 24.221285 56.683707 0
M  V30 55 H 36.868530 27.540656 54.287081 0
M  V30 56 H 36.874111 29.228013 54.595631 0
M  V30 57 H 42.225529 31.939124 64.617474 0
M  V30 58 H 41.047923 30.229550 65.006255 0
M  V30 59 H 39.867467 31.275065 64.361568 0
M  V30 60 H 41.238532 27.871342 56.148411 0
M  V30 61 H 41.067397 26.167266 56.349317 0
M  V30 62 H 37.138458 29.884304 58.168539 0
M  V30 63 H 40.344152 32.107959 62.581389 0
M  V30 64 H 37.969946 25.734120 54.762563 0
M  V30 65 H 39.619961 25.278700 54.680919 0
M  V30 66 H 39.069560 30.568598 53.827294 0
M  V30 67 H 37.778296 23.988752 58.024901 0
M  V30 68 H 41.020502 26.808330 58.544651 0
M  V30 69 H 39.296228 26.820410 58.295009 0
M  V30 70 H 41.374098 35.432838 62.950340 0
M  V30 71 H 40.879274 34.067525 63.937548 0
M  V30 72 H 41.517128 33.816736 62.293693 0
M  V30 73 H 37.638542 27.758160 56.518348 0
M  V30 74 H 40.724536 30.041336 59.845857 0
M  V30 75 H 37.142386 36.970373 61.724387 0
M  V30 76 H 39.208777 30.656515 58.090547 0
M  V30 77 H 41.509996 28.609698 59.943855 0
M  V30 END ATOM
M  V30 BEGIN BOND
M  V30 1 2 4 1
M  V30 2 1 10 5
M  V30 3 1 13 2
M  V30 4 1 15 14
M  V30 5 1 16 4
M  V30 6 1 16 12
M  V30 7 1 21 1
M  V30 8 2 21 13
M  V30 9 1 21 17
M  V30 10 1 24 11
M  V30 11 1 25 13
M  V30 12 2 25 16
M  V30 13 1 26 3
M  V30 14 1 26 15
M  V30 15 1 27 11
M  V30 16 2 27 19
M  V30 17 1 28 22
M  V30 18 1 29 8
M  V30 19 1 29 18
M  V30 20 1 30 22
M  V30 21 1 31 28
M  V30 22 1 32 6
M  V30 23 1 32 12
M  V30 24 2 33 9
M  V30 25 1 33 23
M  V30 26 1 34 7
M  V30 27 1 34 8
M  V30 28 1 35 7
M  V30 29 2 35 26
M  V30 30 1 35 33
M  V30 31 1 36 5
M  V30 32 1 36 23
M  V30 33 2 36 28
M  V30 34 1 37 10
M  V30 35 2 37 22
M  V30 36 1 38 6
M  V30 37 1 38 8
M  V30 38 1 38 20
M  V30 39 1 39 18
M  V30 40 1 39 24
M  V30 41 1 39 32
M  V30 42 1 40 1
M  V30 43 1 41 3
M  V30 44 1 42 3
M  V30 45 1 43 3
M  V30 46 1 44 4
M  V30 47 1 45 5
M  V30 48 1 46 5
M  V30 49 1 47 6
M  V30 50 1 48 6
M  V30 51 1 49 7
M  V30 52 1 50 7
M  V30 53 1 8 51 CFG=3
M  V30 54 1 52 10
M  V30 55 1 53 10
M  V30 56 1 54 11
M  V30 57 1 55 12
M  V30 58 1 56 12
M  V30 59 1 57 14
M  V30 60 1 58 15
M  V30 61 1 59 15
M  V30 62 1 60 18
M  V30 63 1 61 18
M  V30 64 1 62 20
M  V30 65 1 63 23
M  V30 66 1 64 24
M  V30 67 1 65 24
M  V30 68 1 66 25
M  V30 69 1 67 27
M  V30 70 1 68 29
M  V30 71 1 69 29
M  V30 72 1 70 31
M  V30 73 1 71 31
M  V30 74 1 72 31
M  V30 75 1 32 73 CFG=1
M  V30 76 1 74 34
M  V30 77 1 75 37
M  V30 78 1 38 76 CFG=3
M  V30 79 1 77 34
M  V30 END BOND
M  V30 END CTAB
M  END
>  <i_epik_Tot_Q>  (1) 
1

>  <i_epik_Tot_abs_Q>  (1) 
1

>  <i_i_glide_confnum>  (1) 
2994

>  <i_i_glide_lignum>  (1) 
192

>  <i_i_glide_posenum>  (1) 
132

>  <i_i_glide_rotatable_bonds>  (1) 
14

>  <i_lp_mmshare_version>  (1) 
72125

>  <i_m_source_file_index>  (1) 
78

>  <i_f3d_flags>  (1) 
0

>  <num_sample>  (1) 
100

>  <b_lp_Chiralities_Consistent>  (1) 
1

>  <r_epik_Charging_Adjusted_Penalty>  (1) 
1.1871079539409661

>  <r_epik_Ionization_Penalty>  (1) 
0.55718335861310397

>  <r_epik_Ionization_Penalty_Charging>  (1) 
0.49341796909107616

>  <r_epik_Ionization_Penalty_Neutral>  (1) 
0.063765389522027774

>  <r_epik_State_Penalty>  (1) 
0.69368998484988997

>  <r_glide_ring_energy>  (1) 
0

>  <r_i_docking_score>  (1) 
-8.7163342555316987

>  <r_i_glide_ecoul>  (1) 
-3.9528917115686739

>  <r_i_glide_eff_state_penalty>  (1) 
0.69368998484988997

>  <r_i_glide_einternal>  (1) 
40.591921564992568

>  <r_i_glide_emodel>  (1) 
-72.383228141583999

>  <r_i_glide_emodel_strain>  (1) 
1.4266032366559784

>  <r_i_glide_energy>  (1) 
-61.18450932769219

>  <r_i_glide_erotb>  (1) 
0.67934156738045093

>  <r_i_glide_esite>  (1) 
0

>  <r_i_glide_evdw>  (1) 
-57.231617616123515

>  <r_i_glide_gscore>  (1) 
-9.4100242403815884

>  <r_i_glide_gscore_strain>  (1) 
0

>  <r_i_glide_hbond>  (1) 
0

>  <r_i_glide_ligand_efficiency>  (1) 
-0.22349575014183842

>  <r_i_glide_ligand_efficiency_ln>  (1) 
-1.869029492247734

>  <r_i_glide_ligand_efficiency_sa>  (1) 
-0.75792134534603761

>  <r_i_glide_lipo>  (1) 
-4.2464795432517173

>  <r_i_glide_metal>  (1) 
-0

>  <r_i_glide_rewards>  (1) 
-2.3883716269688442

>  <r_lp_Energy>  (1) 
45.510686999999997

>  <s_epik_Chemistry_Notes>  (1) 
This compound contains an acetal/aminal-like group ( X-CH(R)-Y where X, Y are N, S, or O) that may be acid/base labile, releasing an aldehyde.

>  <s_epik_cmdline>  (1) 
J2VwaWtfcHl0aG9uJywgJy1waHQnLCAnMS4wJywgJy1waCcsICc3LjQnLCAnLXRuJywgJzgnLCAnLW1hJywgJzUwMCcsICctaW1hZScsICc8aW5maWxlLm1hZT4nLCAnLW9tYWUnLCAnPG91dGZpbGUubWFlPic=

>  <s_epik_input>  (1) 
RmMxYyhGKVtjSF1bY0hdYyhbY0hdMSlbQ0gyXVtDQEhdKFtDSDJdW0NASF0yW09IXSlOKFtDSDJdW05IXVtDSF09TylbQ0gyXVtDSDJdW0NAQEhdMltOSF1bQ0gyXS9DKD1DKFxbQ0gzXSlbQ0gyXVtPSF0pQyg9TylbTkhdQyg9QzNbQ0gzXSlbQ0gyXVtDSDJdW0NIXT1DM0Y=

>  <s_glide_docking_method>  (1) 
confgen

>  <s_i_glide_gridfile>  (1) 
gpcr_5ht2c_6bqh_protein_autoprepared_prepared

>  <s_lp_Force_Field>  (1) 
S-OPLS

>  <s_lp_Variant>  (1) 
DiffSBDD_77_num_sample_100-3

>  <s_m_source_file>  (1) 
generated__ligand_DiffSBDD_2026-05-06_prepared.sdf

>  <GenAI_Model>  (1) 
DiffSBDD

>  <Protein>  (1) 
GPCR_5HT2C

$$$$
DiffSBDD_80_num_sample_100
     RDKit          3D

  0  0  0  0  0  0  0  0  0  0999 V3000
M  V30 BEGIN CTAB
M  V30 COUNTS 73 76 0 0 1
M  V30 BEGIN ATOM
M  V30 1 C 39.778671 27.945474 59.534454 0
M  V30 2 C 37.772892 30.792881 60.161702 0
M  V30 3 N 37.640497 32.264886 59.994259 0 CFG=2 CHG=1
M  V30 4 O 39.428729 28.784876 55.831884 0
M  V30 5 O 37.867409 31.148387 57.254193 0
M  V30 6 O 41.065838 28.421424 59.874593 0
M  V30 7 C 37.091605 35.133360 60.535856 0 CFG=2
M  V30 8 C 38.510646 34.526500 60.777781 0 CFG=1
M  V30 9 C 39.452589 27.955572 51.044564 0
M  V30 10 C 38.970609 26.641753 55.116805 0
M  V30 11 O 39.474198 30.821438 54.095052 0
M  V30 12 C 39.467400 29.877548 53.109165 0
M  V30 13 O 41.816275 32.821302 62.130910 0
M  V30 14 C 39.052608 27.589005 52.342170 0
M  V30 15 C 40.870017 34.995206 61.750472 0
M  V30 16 C 39.868041 30.232838 51.805566 0
M  V30 17 O 39.867402 25.502142 57.039884 0
M  V30 18 C 36.274221 34.260309 59.561197 0
M  V30 19 O 40.267395 29.621429 49.522374 0
M  V30 20 C 39.368207 35.184105 61.880844 0
M  V30 21 C 39.867405 29.273084 50.778261 0
M  V30 22 C 39.710993 27.956970 56.957570 0 CFG=1
M  V30 23 C 37.007765 29.935211 59.148112 0 CFG=2
M  V30 24 C 39.260332 28.657455 58.268358 0 CFG=1
M  V30 25 C 38.445433 32.995149 61.009662 0
M  V30 26 C 39.074412 26.595836 56.624971 0 CFG=1
M  V30 27 C 41.357242 33.845821 62.632905 0
M  V30 28 C 37.749043 28.873818 58.332820 0 CFG=2
M  V30 29 C 38.835690 35.885135 62.900379 0
M  V30 30 C 37.340690 37.545869 60.643492 0
M  V30 31 C 37.104746 30.028658 57.634073 0 CFG=2
M  V30 32 C 38.675501 28.118609 54.815413 0 CFG=2
M  V30 33 C 39.067403 28.541059 53.388196 0
M  V30 34 C 36.252535 32.778235 59.956337 0
M  V30 35 O 37.156822 36.384047 59.853475 0
M  V30 36 H 39.127882 28.152233 60.384616 0
M  V30 37 H 39.795385 26.862306 59.416260 0
M  V30 38 H 37.442776 30.510131 61.161726 0
M  V30 39 H 38.832713 30.549344 60.117628 0
M  V30 40 H 37.249322 31.716495 56.801068 0
M  V30 41 H 41.708611 28.020479 59.307406 0
M  V30 42 H 36.517591 35.207847 61.459371 0
M  V30 43 H 39.061997 34.679588 59.853502 0
M  V30 44 H 39.446938 27.219787 50.253538 0
M  V30 45 H 40.005363 28.993325 48.867084 0
M  V30 46 H 38.215926 25.960751 54.721747 0
M  V30 47 H 39.935081 26.365517 54.686125 0
M  V30 48 H 39.757892 31.672992 53.799243 0
M  V30 49 H 38.745262 26.573679 52.537395 0
M  V30 50 H 41.138936 34.836631 60.708604 0
M  V30 51 H 41.374496 35.906251 62.073836 0
M  V30 52 H 40.180432 31.245450 51.594018 0
M  V30 53 H 40.732887 25.585165 56.659612 0
M  V30 54 H 36.687060 34.348076 58.554311 0
M  V30 55 H 35.253483 34.639300 59.495823 0
M  V30 56 H 40.797231 27.852732 56.968503 0
M  V30 57 H 36.010884 29.670713 59.496829 0
M  V30 58 H 39.716239 29.647886 58.249167 0
M  V30 59 H 38.044939 32.788283 62.003917 0
M  V30 60 H 39.453685 32.584122 60.987062 0
M  V30 61 H 38.075004 26.482050 57.036137 0
M  V30 62 H 41.269828 34.005137 63.707570 0
M  V30 63 H 37.193173 27.947533 58.253490 0
M  V30 64 H 39.467919 36.332331 63.654653 0
M  V30 65 H 37.770936 36.021430 62.995546 0
M  V30 66 H 37.216803 38.421420 60.012893 0
M  V30 67 H 36.612465 37.606755 61.452695 0
M  V30 68 H 38.346863 37.610960 61.050039 0
M  V30 69 H 36.267402 29.814031 56.982087 0
M  V30 70 H 37.618070 28.330338 54.979184 0
M  V30 71 H 35.661830 32.228864 59.223199 0
M  V30 72 H 35.769058 32.640598 60.924626 0
M  V30 73 H 38.034243 32.454847 59.080251 0
M  V30 END ATOM
M  V30 BEGIN BOND
M  V30 1 1 3 2
M  V30 2 1 6 1
M  V30 3 1 8 7
M  V30 4 1 12 11
M  V30 5 2 14 9
M  V30 6 1 16 12
M  V30 7 1 18 7
M  V30 8 1 20 8
M  V30 9 1 20 15
M  V30 10 1 21 9
M  V30 11 2 21 16
M  V30 12 1 21 19
M  V30 13 1 22 4
M  V30 14 1 23 2
M  V30 15 1 24 1
M  V30 16 1 24 22
M  V30 17 1 25 3
M  V30 18 1 25 8
M  V30 19 1 26 10
M  V30 20 1 26 17
M  V30 21 1 26 22
M  V30 22 2 27 13
M  V30 23 1 27 15
M  V30 24 1 28 23
M  V30 25 1 28 24
M  V30 26 2 29 20
M  V30 27 1 31 5
M  V30 28 1 31 23
M  V30 29 1 31 28
M  V30 30 1 32 4
M  V30 31 1 32 10
M  V30 32 2 33 12
M  V30 33 1 33 14
M  V30 34 1 33 32
M  V30 35 1 34 3
M  V30 36 1 34 18
M  V30 37 1 35 7
M  V30 38 1 35 30
M  V30 39 1 36 1
M  V30 40 1 37 1
M  V30 41 1 38 2
M  V30 42 1 39 2
M  V30 43 1 40 5
M  V30 44 1 41 6
M  V30 45 1 7 42 CFG=1
M  V30 46 1 8 43 CFG=3
M  V30 47 1 44 9
M  V30 48 1 45 19
M  V30 49 1 46 10
M  V30 50 1 47 10
M  V30 51 1 48 11
M  V30 52 1 49 14
M  V30 53 1 50 15
M  V30 54 1 51 15
M  V30 55 1 52 16
M  V30 56 1 53 17
M  V30 57 1 54 18
M  V30 58 1 55 18
M  V30 59 1 22 56 CFG=1
M  V30 60 1 23 57 CFG=3
M  V30 61 1 24 58 CFG=3
M  V30 62 1 59 25
M  V30 63 1 60 25
M  V30 64 1 26 61 CFG=1
M  V30 65 1 62 27
M  V30 66 1 28 63 CFG=3
M  V30 67 1 64 29
M  V30 68 1 65 29
M  V30 69 1 66 30
M  V30 70 1 67 30
M  V30 71 1 68 30
M  V30 72 1 31 69 CFG=3
M  V30 73 1 32 70 CFG=1
M  V30 74 1 71 34
M  V30 75 1 72 34
M  V30 76 1 3 73 CFG=3
M  V30 END BOND
M  V30 END CTAB
M  END
>  <i_epik_Tot_Q>  (1) 
1

>  <i_epik_Tot_abs_Q>  (1) 
1

>  <i_i_glide_confnum>  (1) 
1269

>  <i_i_glide_lignum>  (1) 
207

>  <i_i_glide_posenum>  (1) 
327

>  <i_i_glide_rotatable_bonds>  (1) 
15

>  <i_lp_mmshare_version>  (1) 
72125

>  <i_m_source_file_index>  (1) 
81

>  <i_f3d_flags>  (1) 
0

>  <num_sample>  (1) 
100

>  <b_lp_Chiralities_Consistent>  (1) 
1

>  <r_epik_Charging_Adjusted_Penalty>  (1) 
0.034071705691259377

>  <r_epik_Ionization_Penalty>  (1) 
0.043305258844254187

>  <r_epik_Ionization_Penalty_Charging>  (1) 
0.034071705691259377

>  <r_epik_Ionization_Penalty_Neutral>  (1) 
0.009233553152994808

>  <r_epik_State_Penalty>  (1) 
-0

>  <r_glide_ring_energy>  (1) 
0

>  <r_i_docking_score>  (1) 
-8.7160207369408589

>  <r_i_glide_ecoul>  (1) 
-7.5613141425544681

>  <r_i_glide_eff_state_penalty>  (1) 
-0

>  <r_i_glide_einternal>  (1) 
20.293974550889455

>  <r_i_glide_emodel>  (1) 
-78.324759474192149

>  <r_i_glide_emodel_strain>  (1) 
3.7866811149804676

>  <r_i_glide_energy>  (1) 
-56.79510333766509

>  <r_i_glide_erotb>  (1) 
0.67144220787932085

>  <r_i_glide_esite>  (1) 
-0.026546243075953352

>  <r_i_glide_evdw>  (1) 
-49.233789195110624

>  <r_i_glide_gscore>  (1) 
-8.7160207369408589

>  <r_i_glide_gscore_strain>  (1) 
0

>  <r_i_glide_hbond>  (1) 
-0.26836991287020268

>  <r_i_glide_ligand_efficiency>  (1) 
-0.24902916391259597

>  <r_i_glide_ligand_efficiency_ln>  (1) 
-1.9133599934164143

>  <r_i_glide_ligand_efficiency_sa>  (1) 
-0.81459090832892489

>  <r_i_glide_lipo>  (1) 
-4.5046470127170908

>  <r_i_glide_metal>  (1) 
-0

>  <r_i_glide_rewards>  (1) 
-0.99201319501823226

>  <r_lp_Energy>  (1) 
41.479424999999999

>  <r_lp_tautomer_probability>  (1) 
1

>  <s_epik_cmdline>  (1) 
J2VwaWtfcHl0aG9uJywgJy1waHQnLCAnMS4wJywgJy1waCcsICc3LjQnLCAnLXRuJywgJzgnLCAnLW1hJywgJzUwMCcsICctaW1hZScsICc8aW5maWxlLm1hZT4nLCAnLW9tYWUnLCAnPG91dGZpbGUubWFlPic=

>  <s_epik_input>  (1) 
Tz1bQ0hdW0NIMl1DKD1bQ0gyXSlbQ0BASF0oW0NASF0oW0NIMl1bQ0gyXTEpT1tDSDNdKVtDSDJdTjFbQ0gyXVtDQEBIXTJbQ0BASF0oW0NAQEhdMltPSF0pW0NAQEhdKFtDSDJdW09IXSlbQ0BASF0zT1tDQEhdKFtDSDJdW0NASF0zW09IXSlDND1bQ0hdW0NIMl1DKD1PKVtDSF09QzRbT0hd

>  <s_glide_docking_method>  (1) 
confgen

>  <s_i_glide_gridfile>  (1) 
gpcr_5ht2c_6bqh_protein_autoprepared_prepared

>  <s_lp_Force_Field>  (1) 
S-OPLS

>  <s_lp_Variant>  (1) 
DiffSBDD_80_num_sample_100-3

>  <s_m_source_file>  (1) 
generated__ligand_DiffSBDD_2026-05-06_prepared.sdf

>  <GenAI_Model>  (1) 
DiffSBDD

>  <Protein>  (1) 
GPCR_5HT2C

$$$$
DiffSBDD_19_num_sample_100
     RDKit          3D

  0  0  0  0  0  0  0  0  0  0999 V3000
M  V30 BEGIN CTAB
M  V30 COUNTS 71 72 0 0 1
M  V30 BEGIN ATOM
M  V30 1 C 38.221584 29.731229 59.092898 0
M  V30 2 C 39.438633 30.961913 55.626359 0
M  V30 3 C 40.014978 28.029142 59.774365 0
M  V30 4 C 42.243863 27.734250 57.761066 0
M  V30 5 O 38.970095 33.221379 56.241759 0
M  V30 6 C 35.098696 33.352759 60.572046 0
M  V30 7 C 40.771713 27.590917 57.325024 0 CFG=1
M  V30 8 C 38.148705 27.876084 52.580165 0
M  V30 9 C 38.632075 28.814834 53.600295 0
M  V30 10 C 38.893189 26.276066 58.374962 0
M  V30 11 C 38.667445 27.651630 51.372794 0
M  V30 12 C 40.627045 26.669504 56.074235 0
M  V30 13 C 39.465215 25.706629 56.094016 0
M  V30 14 O 41.067325 30.156305 61.453477 0
M  V30 15 O 38.948576 30.833581 61.506964 0 CHG=-1
M  V30 16 O 37.109281 27.185657 53.053553 0
M  V30 17 C 38.688060 25.528986 57.161015 0
M  V30 18 N 37.847701 31.164344 58.919816 0 CFG=2 CHG=1
M  V30 19 C 39.058724 31.918534 56.761139 0 CFG=1
M  V30 20 C 39.790019 28.362498 50.769081 0
M  V30 21 C 38.753470 31.236463 54.281942 0 CFG=1
M  V30 22 C 40.302798 29.574392 51.118969 0
M  V30 23 C 36.589341 31.487703 59.649465 0
M  V30 24 C 39.659334 29.526822 59.632471 0 CFG=2
M  V30 25 C 39.911991 30.231563 60.983908 0
M  V30 26 C 37.750691 31.578370 57.493855 0
M  V30 27 C 39.835964 27.228348 58.487554 0
M  V30 28 C 39.867419 30.478363 52.191909 0
M  V30 29 C 34.000745 33.342928 59.496405 0
M  V30 30 C 39.113385 30.176954 53.265918 0
M  V30 31 C 36.482950 32.978150 60.027758 0
M  V30 32 O 37.361936 31.296375 54.461448 0
M  V30 33 H 37.530915 29.221809 59.766872 0
M  V30 34 H 38.102225 29.209268 58.143534 0
M  V30 35 H 39.233760 29.947162 55.955280 0
M  V30 36 H 40.513733 31.020408 55.453450 0
M  V30 37 H 41.028475 27.894807 60.151797 0
M  V30 38 H 39.369246 27.621503 60.549967 0
M  V30 39 H 42.376419 28.527590 58.496801 0
M  V30 40 H 42.627125 26.812077 58.196220 0
M  V30 41 H 42.882419 28.000305 56.922240 0
M  V30 42 H 38.196907 33.261069 55.690958 0
M  V30 43 H 34.827741 32.688144 61.391620 0
M  V30 44 H 35.159903 34.352660 60.999490 0
M  V30 45 H 40.459674 28.581811 57.013198 0
M  V30 46 H 37.882121 28.872565 54.390377 0
M  V30 47 H 39.467372 28.336553 54.067865 0
M  V30 48 H 38.267394 26.071871 59.218897 0
M  V30 49 H 38.216441 26.867713 50.782490 0
M  V30 50 H 41.467400 26.021422 55.974397 0
M  V30 51 H 40.667384 27.228436 55.157285 0
M  V30 52 H 39.288890 25.132741 55.195555 0
M  V30 53 H 36.793460 26.621701 52.353619 0
M  V30 54 H 37.882204 24.811524 57.112644 0
M  V30 55 H 39.867395 31.931067 57.453503 0
M  V30 56 H 40.238738 27.892365 49.908196 0
M  V30 57 H 39.066770 32.205593 53.899966 0
M  V30 58 H 41.108591 29.939531 50.498058 0
M  V30 59 H 35.739936 31.157571 59.053486 0
M  V30 60 H 36.528304 30.925972 60.582420 0
M  V30 61 H 40.342316 29.969926 58.914567 0
M  V30 62 H 37.155313 32.489537 57.466575 0
M  V30 63 H 37.180222 30.821390 56.952650 0
M  V30 64 H 40.197541 31.504127 52.109060 0
M  V30 65 H 33.036749 33.621467 59.915258 0
M  V30 66 H 34.226495 34.045060 58.693246 0
M  V30 67 H 33.873832 32.357344 59.053392 0
M  V30 68 H 37.237089 33.196769 60.784026 0
M  V30 69 H 36.711083 33.637138 59.191123 0
M  V30 70 H 37.052572 30.483962 54.830134 0
M  V30 71 H 38.563935 31.707276 59.381611 0
M  V30 END ATOM
M  V30 BEGIN BOND
M  V30 1 1 7 4
M  V30 2 1 9 8
M  V30 3 2 11 8
M  V30 4 1 12 7
M  V30 5 1 13 12
M  V30 6 1 16 8
M  V30 7 1 17 10
M  V30 8 2 17 13
M  V30 9 1 18 1
M  V30 10 1 19 2
M  V30 11 1 19 5
M  V30 12 1 20 11
M  V30 13 1 21 2
M  V30 14 2 22 20
M  V30 15 1 23 18
M  V30 16 1 24 1
M  V30 17 1 24 3
M  V30 18 2 25 14
M  V30 19 1 25 15
M  V30 20 1 25 24
M  V30 21 1 26 18
M  V30 22 1 26 19
M  V30 23 1 27 3
M  V30 24 1 27 7
M  V30 25 2 27 10
M  V30 26 1 28 22
M  V30 27 1 29 6
M  V30 28 1 30 9
M  V30 29 1 30 21
M  V30 30 2 30 28
M  V30 31 1 31 6
M  V30 32 1 31 23
M  V30 33 1 32 21
M  V30 34 1 33 1
M  V30 35 1 34 1
M  V30 36 1 35 2
M  V30 37 1 36 2
M  V30 38 1 37 3
M  V30 39 1 38 3
M  V30 40 1 39 4
M  V30 41 1 40 4
M  V30 42 1 41 4
M  V30 43 1 42 5
M  V30 44 1 43 6
M  V30 45 1 44 6
M  V30 46 1 7 45 CFG=3
M  V30 47 1 46 9
M  V30 48 1 47 9
M  V30 49 1 48 10
M  V30 50 1 49 11
M  V30 51 1 50 12
M  V30 52 1 51 12
M  V30 53 1 52 13
M  V30 54 1 53 16
M  V30 55 1 54 17
M  V30 56 1 19 55 CFG=1
M  V30 57 1 56 20
M  V30 58 1 21 57 CFG=3
M  V30 59 1 58 22
M  V30 60 1 59 23
M  V30 61 1 60 23
M  V30 62 1 24 61 CFG=3
M  V30 63 1 62 26
M  V30 64 1 63 26
M  V30 65 1 64 28
M  V30 66 1 65 29
M  V30 67 1 66 29
M  V30 68 1 67 29
M  V30 69 1 68 31
M  V30 70 1 69 31
M  V30 71 1 70 32
M  V30 72 1 18 71 CFG=1
M  V30 END BOND
M  V30 END CTAB
M  END
>  <i_epik_Tot_Q>  (1) 
0

>  <i_epik_Tot_abs_Q>  (1) 
2

>  <i_i_glide_confnum>  (1) 
4672

>  <i_i_glide_lignum>  (1) 
49

>  <i_i_glide_posenum>  (1) 
148

>  <i_i_glide_rotatable_bonds>  (1) 
16

>  <i_lp_mmshare_version>  (1) 
72125

>  <i_m_source_file_index>  (1) 
20

>  <i_f3d_flags>  (1) 
0

>  <num_sample>  (1) 
100

>  <b_lp_Chiralities_Consistent>  (1) 
1

>  <r_epik_Charging_Adjusted_Penalty>  (1) 
0.015037487925518506

>  <r_epik_Ionization_Penalty>  (1) 
0.015045499532085388

>  <r_epik_Ionization_Penalty_Charging>  (1) 
0.0012943130925640431

>  <r_epik_Ionization_Penalty_Neutral>  (1) 
0.013751186439521345

>  <r_epik_State_Penalty>  (1) 
0.013743174832954463

>  <r_glide_ring_energy>  (1) 
0

>  <r_i_docking_score>  (1) 
-8.7150824738199013

>  <r_i_glide_ecoul>  (1) 
-10.69089269655046

>  <r_i_glide_eff_state_penalty>  (1) 
0.013743174832954463

>  <r_i_glide_einternal>  (1) 
7.750602939600709

>  <r_i_glide_emodel>  (1) 
-72.232776153023948

>  <r_i_glide_emodel_strain>  (1) 
0.82136426022090347

>  <r_i_glide_energy>  (1) 
-44.732151450783817

>  <r_i_glide_erotb>  (1) 
1.1084889849388277

>  <r_i_glide_esite>  (1) 
-0.058180406220690706

>  <r_i_glide_evdw>  (1) 
-34.041258754233361

>  <r_i_glide_gscore>  (1) 
-8.7288256486528564

>  <r_i_glide_gscore_strain>  (1) 
0

>  <r_i_glide_hbond>  (1) 
-0.47999999999999998

>  <r_i_glide_ligand_efficiency>  (1) 
-0.27234632730687192

>  <r_i_glide_ligand_efficiency_ln>  (1) 
-1.9515445300641512

>  <r_i_glide_ligand_efficiency_sa>  (1) 
-0.86464569293320825

>  <r_i_glide_lipo>  (1) 
-4.6829928788919739

>  <r_i_glide_metal>  (1) 
-0

>  <r_i_glide_rewards>  (1) 
-1.3104445062847798

>  <r_lp_Energy>  (1) 
25.015605999999998

>  <s_epik_cmdline>  (1) 
J2VwaWtfcHl0aG9uJywgJy1waHQnLCAnMS4wJywgJy1waCcsICc3LjQnLCAnLXRuJywgJzgnLCAnLW1hJywgJzUwMCcsICctaW1hZScsICc8aW5maWxlLm1hZT4nLCAnLW9tYWUnLCAnPG91dGZpbGUubWFlPic=

>  <s_epik_input>  (1) 
W0NIM11bQ0BIXTFbQ0gyXVtDSF09W0NIXVtDSF09QzFbQ0gyXVtDQEhdKEMoPU8pW09IXSlbQ0gyXU4oW0NIMl1bQ0gyXVtDSDJdW0NIM10pW0NIMl1bQ0BIXShbT0hdKVtDSDJdW0NASF0oW09IXSlDKFtDSDJdMik9W0NIXVtDSF09W0NIXVtDSF09QzJbT0hd

>  <s_glide_docking_method>  (1) 
confgen

>  <s_i_glide_gridfile>  (1) 
gpcr_5ht2c_6bqh_protein_autoprepared_prepared

>  <s_lp_Force_Field>  (1) 
S-OPLS

>  <s_lp_Variant>  (1) 
DiffSBDD_19_num_sample_100-1

>  <s_m_source_file>  (1) 
generated__ligand_DiffSBDD_2026-05-06_prepared.sdf

>  <GenAI_Model>  (1) 
DiffSBDD

>  <Protein>  (1) 
GPCR_5HT2C

$$$$
DiffSBDD_19_num_sample_100
     RDKit          3D

  0  0  0  0  0  0  0  0  0  0999 V3000
M  V30 BEGIN CTAB
M  V30 COUNTS 71 72 0 0 1
M  V30 BEGIN ATOM
M  V30 1 C 38.991416 30.515383 57.180715 0
M  V30 2 C 38.070062 30.634721 60.448612 0
M  V30 3 C 39.821552 30.068948 54.811311 0
M  V30 4 C 39.405941 27.099240 53.809806 0
M  V30 5 O 36.667397 32.015638 59.053503 0
M  V30 6 C 38.244177 25.576013 57.094518 0
M  V30 7 C 38.735154 28.337019 53.176871 0 CFG=2
M  V30 8 C 39.183731 35.052344 61.401009 0
M  V30 9 C 38.979528 33.651747 60.940056 0
M  V30 10 C 40.039927 30.332659 52.325414 0
M  V30 11 C 40.131959 35.498152 62.226093 0
M  V30 12 C 38.433907 27.971663 51.690631 0
M  V30 13 C 39.152764 28.817292 50.660315 0
M  V30 14 O 39.067353 33.003103 56.018709 0
M  V30 15 O 37.867404 32.399073 54.253504 0 CHG=-1
M  V30 16 O 38.307565 35.875154 60.805296 0
M  V30 17 C 39.867424 29.901572 50.966260 0
M  V30 18 N 38.294185 29.383081 57.847245 0 CFG=2 CHG=1
M  V30 19 C 36.847667 30.685682 59.483511 0 CFG=1
M  V30 20 C 41.124872 34.677808 62.915798 0
M  V30 21 C 37.944362 31.456262 61.755525 0 CFG=1
M  V30 22 C 41.060924 33.342644 63.193400 0
M  V30 23 C 38.454063 28.102442 57.111308 0
M  V30 24 C 38.682231 30.678125 55.661466 0 CFG=2
M  V30 25 C 38.520727 32.154685 55.280958 0
M  V30 26 C 36.909669 29.711553 58.281867 0
M  V30 27 C 39.540493 29.642629 53.368080 0
M  V30 28 C 39.974050 32.397345 62.882156 0
M  V30 29 C 37.465088 24.412850 57.691162 0
M  V30 30 C 39.026893 32.524960 61.931440 0
M  V30 31 C 37.906806 26.871982 57.831259 0
M  V30 32 O 36.667414 32.040801 61.853493 0
M  V30 33 H 38.781983 31.419170 57.747066 0
M  V30 34 H 40.058191 30.357747 57.318739 0
M  V30 35 H 38.975282 30.953573 59.933858 0
M  V30 36 H 38.267390 29.597276 60.718227 0
M  V30 37 H 40.636348 30.796111 54.776887 0
M  V30 38 H 40.278452 29.231613 55.325803 0
M  V30 39 H 39.728572 27.235754 54.835315 0
M  V30 40 H 38.716453 26.255076 53.809436 0
M  V30 41 H 40.277289 26.792759 53.234660 0
M  V30 42 H 36.173657 32.021363 58.214650 0
M  V30 43 H 37.965143 25.673101 56.045079 0
M  V30 44 H 39.315646 25.373939 57.119410 0
M  V30 45 H 37.780519 28.493346 53.679828 0
M  V30 46 H 38.035314 33.609935 60.403938 0
M  V30 47 H 39.733034 33.442718 60.180670 0
M  V30 48 H 40.619713 31.222469 52.518053 0
M  V30 49 H 40.175281 36.564058 62.395358 0
M  V30 50 H 37.366418 28.072055 51.509383 0
M  V30 51 H 38.663046 26.927340 51.474193 0
M  V30 52 H 39.052501 28.517716 49.629178 0
M  V30 53 H 37.793503 35.360123 60.201255 0
M  V30 54 H 40.338285 30.462872 50.172141 0
M  V30 55 H 35.939817 30.427602 60.031614 0
M  V30 56 H 41.991112 35.200437 63.294405 0
M  V30 57 H 38.018609 30.762365 62.593887 0
M  V30 58 H 41.883167 32.941856 63.767192 0
M  V30 59 H 37.974713 28.160389 56.135191 0
M  V30 60 H 39.521080 27.946353 56.955434 0
M  V30 61 H 37.727405 30.211539 55.420778 0
M  V30 62 H 36.415702 28.821437 58.650474 0
M  V30 63 H 36.301235 30.021423 57.434877 0
M  V30 64 H 39.932180 31.503531 63.488187 0
M  V30 65 H 37.467398 23.555854 57.025452 0
M  V30 66 H 37.867397 24.107274 58.653503 0
M  V30 67 H 36.430118 24.713565 57.839066 0
M  V30 68 H 38.267411 26.828169 58.859496 0
M  V30 69 H 36.820355 26.936731 57.853499 0
M  V30 70 H 36.467341 32.415418 61.000883 0
M  V30 71 H 38.795369 29.247118 58.712919 0
M  V30 END ATOM
M  V30 BEGIN BOND
M  V30 1 1 7 4
M  V30 2 1 9 8
M  V30 3 2 11 8
M  V30 4 1 12 7
M  V30 5 1 13 12
M  V30 6 1 16 8
M  V30 7 1 17 10
M  V30 8 2 17 13
M  V30 9 1 18 1
M  V30 10 1 19 2
M  V30 11 1 19 5
M  V30 12 1 20 11
M  V30 13 1 21 2
M  V30 14 2 22 20
M  V30 15 1 23 18
M  V30 16 1 24 1
M  V30 17 1 24 3
M  V30 18 2 25 14
M  V30 19 1 25 15
M  V30 20 1 25 24
M  V30 21 1 26 18
M  V30 22 1 26 19
M  V30 23 1 27 3
M  V30 24 1 27 7
M  V30 25 2 27 10
M  V30 26 1 28 22
M  V30 27 1 29 6
M  V30 28 1 30 9
M  V30 29 1 30 21
M  V30 30 2 30 28
M  V30 31 1 31 6
M  V30 32 1 31 23
M  V30 33 1 32 21
M  V30 34 1 33 1
M  V30 35 1 34 1
M  V30 36 1 35 2
M  V30 37 1 36 2
M  V30 38 1 37 3
M  V30 39 1 38 3
M  V30 40 1 39 4
M  V30 41 1 40 4
M  V30 42 1 41 4
M  V30 43 1 42 5
M  V30 44 1 43 6
M  V30 45 1 44 6
M  V30 46 1 7 45 CFG=1
M  V30 47 1 46 9
M  V30 48 1 47 9
M  V30 49 1 48 10
M  V30 50 1 49 11
M  V30 51 1 50 12
M  V30 52 1 51 12
M  V30 53 1 52 13
M  V30 54 1 53 16
M  V30 55 1 54 17
M  V30 56 1 19 55 CFG=1
M  V30 57 1 56 20
M  V30 58 1 21 57 CFG=1
M  V30 59 1 58 22
M  V30 60 1 59 23
M  V30 61 1 60 23
M  V30 62 1 24 61 CFG=1
M  V30 63 1 62 26
M  V30 64 1 63 26
M  V30 65 1 64 28
M  V30 66 1 65 29
M  V30 67 1 66 29
M  V30 68 1 67 29
M  V30 69 1 68 31
M  V30 70 1 69 31
M  V30 71 1 70 32
M  V30 72 1 18 71 CFG=1
M  V30 END BOND
M  V30 END CTAB
M  END
>  <i_epik_Tot_Q>  (1) 
0

>  <i_epik_Tot_abs_Q>  (1) 
2

>  <i_i_glide_confnum>  (1) 
2582

>  <i_i_glide_lignum>  (1) 
51

>  <i_i_glide_posenum>  (1) 
396

>  <i_i_glide_rotatable_bonds>  (1) 
16

>  <i_lp_mmshare_version>  (1) 
72125

>  <i_m_source_file_index>  (1) 
20

>  <i_f3d_flags>  (1) 
0

>  <num_sample>  (1) 
100

>  <b_lp_Chiralities_Consistent>  (1) 
1

>  <r_epik_Charging_Adjusted_Penalty>  (1) 
0.015037487925518506

>  <r_epik_Ionization_Penalty>  (1) 
0.015045499532085388

>  <r_epik_Ionization_Penalty_Charging>  (1) 
0.0012943130925640431

>  <r_epik_Ionization_Penalty_Neutral>  (1) 
0.013751186439521345

>  <r_epik_State_Penalty>  (1) 
0.013743174832954463

>  <r_glide_ring_energy>  (1) 
0

>  <r_i_docking_score>  (1) 
-8.7123518328476717

>  <r_i_glide_ecoul>  (1) 
-9.8866468038040534

>  <r_i_glide_eff_state_penalty>  (1) 
0.013743174832954463

>  <r_i_glide_einternal>  (1) 
25.068381487134495

>  <r_i_glide_emodel>  (1) 
-66.805776787095496

>  <r_i_glide_emodel_strain>  (1) 
4.1753873998757314

>  <r_i_glide_energy>  (1) 
-48.157589699634237

>  <r_i_glide_erotb>  (1) 
1.1084889849388277

>  <r_i_glide_esite>  (1) 
-0.039944792802570656

>  <r_i_glide_evdw>  (1) 
-38.270942895830181

>  <r_i_glide_gscore>  (1) 
-8.7260950076806267

>  <r_i_glide_gscore_strain>  (1) 
0.043846849968932844

>  <r_i_glide_hbond>  (1) 
-0.45599999999999996

>  <r_i_glide_ligand_efficiency>  (1) 
-0.27226099477648974

>  <r_i_glide_ligand_efficiency_ln>  (1) 
-1.9509330651160073

>  <r_i_glide_ligand_efficiency_sa>  (1) 
-0.86437477903621673

>  <r_i_glide_lipo>  (1) 
-4.8963819377272912

>  <r_i_glide_metal>  (1) 
-0

>  <r_i_glide_rewards>  (1) 
-1.089559946696407

>  <r_lp_Energy>  (1) 
24.107240999999998

>  <s_epik_cmdline>  (1) 
J2VwaWtfcHl0aG9uJywgJy1waHQnLCAnMS4wJywgJy1waCcsICc3LjQnLCAnLXRuJywgJzgnLCAnLW1hJywgJzUwMCcsICctaW1hZScsICc8aW5maWxlLm1hZT4nLCAnLW9tYWUnLCAnPG91dGZpbGUubWFlPic=

>  <s_epik_input>  (1) 
W0NIM11bQ0BIXTFbQ0gyXVtDSF09W0NIXVtDSF09QzFbQ0gyXVtDQEhdKEMoPU8pW09IXSlbQ0gyXU4oW0NIMl1bQ0gyXVtDSDJdW0NIM10pW0NIMl1bQ0BIXShbT0hdKVtDSDJdW0NASF0oW09IXSlDKFtDSDJdMik9W0NIXVtDSF09W0NIXVtDSF09QzJbT0hd

>  <s_glide_docking_method>  (1) 
confgen

>  <s_i_glide_gridfile>  (1) 
gpcr_5ht2c_6bqh_protein_autoprepared_prepared

>  <s_lp_Force_Field>  (1) 
S-OPLS

>  <s_lp_Variant>  (1) 
DiffSBDD_19_num_sample_100-3

>  <s_m_source_file>  (1) 
generated__ligand_DiffSBDD_2026-05-06_prepared.sdf

>  <GenAI_Model>  (1) 
DiffSBDD

>  <Protein>  (1) 
GPCR_5HT2C

$$$$
DiffSBDD_71_num_sample_100
     RDKit          3D

  0  0  0  0  0  0  0  0  0  0999 V3000
M  V30 BEGIN CTAB
M  V30 COUNTS 57 61 0 0 1
M  V30 BEGIN ATOM
M  V30 1 C 37.800824 31.310757 60.086642 0 CFG=2
M  V30 2 C 40.346975 33.548461 62.268245 0
M  V30 3 C 36.967835 35.490811 60.218154 0
M  V30 4 N 38.382137 30.287894 59.196514 0
M  V30 5 C 37.867406 37.645403 61.059503 0
M  V30 6 C 39.217628 28.038784 52.283037 0
M  V30 7 C 39.054953 27.866994 55.268326 0
M  V30 8 C 39.030758 37.007379 61.853507 0
M  V30 9 C 36.515277 31.950342 59.588810 0
M  V30 10 C 39.432027 28.046976 50.892892 0
M  V30 11 C 40.082533 30.393631 51.000637 0
M  V30 12 N 38.399015 33.698507 60.797516 0
M  V30 13 C 37.212600 34.198568 60.218565 0
M  V30 14 O 37.750776 38.868681 61.053502 0
M  V30 15 C 38.499930 32.451981 56.811746 0
M  V30 16 C 36.849680 36.797474 60.282071 0
M  V30 17 C 38.572218 25.488511 56.441523 0
M  V30 18 C 39.256638 29.214000 54.566434 0 CFG=1
M  V30 19 C 38.601485 30.922182 56.724148 0 CFG=1
M  V30 20 C 39.236933 35.708048 61.824305 0
M  V30 21 C 37.858582 30.131429 57.829054 0
M  V30 22 C 39.440961 29.214872 53.041853 0
M  V30 23 C 39.285611 34.406668 61.624853 0
M  V30 24 C 39.867404 30.392214 52.392082 0
M  V30 25 S 39.912150 31.842872 61.870649 0
M  V30 26 N 37.630803 26.042284 55.634063 0
M  V30 27 S 37.992092 30.416225 55.077039 0
M  V30 28 C 40.058493 27.332521 56.094212 0
M  V30 29 C 39.806425 26.101947 56.702031 0
M  V30 30 C 38.888180 32.357379 60.463495 0 CFG=1
M  V30 31 N 37.867410 27.237303 55.052471 0
M  V30 32 C 39.867404 29.222098 50.253497 0
M  V30 33 C 36.271300 33.264789 59.644412 0
M  V30 34 H 37.512030 30.791612 61.000714 0
M  V30 35 H 40.375877 33.688080 63.349720 0
M  V30 36 H 41.327293 33.790464 61.855791 0
M  V30 37 H 38.278650 29.397657 59.662735 0
M  V30 38 H 38.893947 27.130530 52.764588 0
M  V30 39 H 39.675403 37.666351 62.416315 0
M  V30 40 H 35.772345 31.292110 59.164825 0
M  V30 41 H 39.264954 27.148424 50.315596 0
M  V30 42 H 40.414599 31.294625 50.506688 0
M  V30 43 H 38.977440 32.852837 57.697622 0
M  V30 44 H 37.467404 32.788409 56.812403 0
M  V30 45 H 38.990590 32.918540 55.957260 0
M  V30 46 H 36.022026 37.310104 59.816599 0
M  V30 47 H 38.328117 24.534416 56.885137 0
M  V30 48 H 40.203579 29.614522 54.928547 0
M  V30 49 H 39.660117 30.673504 56.787242 0
M  V30 50 H 38.011365 29.076553 57.601484 0
M  V30 51 H 36.781879 30.252034 57.746990 0
M  V30 52 H 40.041126 31.291897 52.964080 0
M  V30 53 H 40.991570 27.853296 56.253304 0
M  V30 54 H 40.535963 25.637435 57.348137 0
M  V30 55 H 39.564743 32.502883 59.629873 0
M  V30 56 H 40.031692 29.225633 49.186244 0
M  V30 57 H 35.334015 33.636950 59.253465 0
M  V30 END ATOM
M  V30 BEGIN BOND
M  V30 1 1 4 1
M  V30 2 1 8 5
M  V30 3 1 9 1
M  V30 4 1 10 6
M  V30 5 2 13 3
M  V30 6 1 13 12
M  V30 7 2 14 5
M  V30 8 2 16 3
M  V30 9 1 16 5
M  V30 10 1 18 7
M  V30 11 1 19 15
M  V30 12 2 20 8
M  V30 13 1 21 4
M  V30 14 1 21 19
M  V30 15 2 22 6
M  V30 16 1 22 18
M  V30 17 1 23 2
M  V30 18 1 23 12
M  V30 19 2 23 20
M  V30 20 2 24 11
M  V30 21 1 24 22
M  V30 22 1 25 2
M  V30 23 1 26 17
M  V30 24 1 27 18
M  V30 25 1 27 19
M  V30 26 2 28 7
M  V30 27 2 29 17
M  V30 28 1 29 28
M  V30 29 1 30 1
M  V30 30 1 30 12
M  V30 31 1 30 25
M  V30 32 1 31 7
M  V30 33 2 31 26
M  V30 34 2 32 10
M  V30 35 1 32 11
M  V30 36 2 33 9
M  V30 37 1 33 13
M  V30 38 1 1 34 CFG=1
M  V30 39 1 35 2
M  V30 40 1 36 2
M  V30 41 1 37 4
M  V30 42 1 38 6
M  V30 43 1 39 8
M  V30 44 1 40 9
M  V30 45 1 41 10
M  V30 46 1 42 11
M  V30 47 1 43 15
M  V30 48 1 44 15
M  V30 49 1 45 15
M  V30 50 1 46 16
M  V30 51 1 47 17
M  V30 52 1 18 48 CFG=1
M  V30 53 1 19 49 CFG=3
M  V30 54 1 50 21
M  V30 55 1 51 21
M  V30 56 1 52 24
M  V30 57 1 53 28
M  V30 58 1 54 29
M  V30 59 1 30 55 CFG=3
M  V30 60 1 56 32
M  V30 61 1 57 33
M  V30 END BOND
M  V30 END CTAB
M  END
>  <i_epik_Tot_Q>  (1) 
0

>  <i_epik_Tot_abs_Q>  (1) 
0

>  <i_i_glide_confnum>  (1) 
333

>  <i_i_glide_lignum>  (1) 
180

>  <i_i_glide_posenum>  (1) 
47

>  <i_i_glide_rotatable_bonds>  (1) 
7

>  <i_lp_mmshare_version>  (1) 
72125

>  <i_m_source_file_index>  (1) 
72

>  <i_f3d_flags>  (1) 
0

>  <num_sample>  (1) 
100

>  <b_lp_Chiralities_Consistent>  (1) 
1

>  <r_epik_Charging_Adjusted_Penalty>  (1) 
0.0075576566344756546

>  <r_epik_Ionization_Penalty>  (1) 
0.0075696552327297675

>  <r_epik_Ionization_Penalty_Charging>  (1) 
0

>  <r_epik_Ionization_Penalty_Neutral>  (1) 
0.0075696552327297675

>  <r_epik_State_Penalty>  (1) 
0.0075576566344756546

>  <r_glide_ring_energy>  (1) 
0

>  <r_i_docking_score>  (1) 
-8.7077443919197908

>  <r_i_glide_ecoul>  (1) 
-1.7062754031245757

>  <r_i_glide_eff_state_penalty>  (1) 
0.0075576566344756546

>  <r_i_glide_einternal>  (1) 
12.283069085684096

>  <r_i_glide_emodel>  (1) 
-84.664369615294461

>  <r_i_glide_emodel_strain>  (1) 
0.32695127975277671

>  <r_i_glide_energy>  (1) 
-60.107381485957632

>  <r_i_glide_erotb>  (1) 
0.54314142718381586

>  <r_i_glide_esite>  (1) 
0

>  <r_i_glide_evdw>  (1) 
-58.401106082833053

>  <r_i_glide_gscore>  (1) 
-8.7153020485542658

>  <r_i_glide_gscore_strain>  (1) 
0

>  <r_i_glide_hbond>  (1) 
0

>  <r_i_glide_ligand_efficiency>  (1) 
-0.26387104217938762

>  <r_i_glide_ligand_efficiency_ln>  (1) 
-1.9365572664754662

>  <r_i_glide_ligand_efficiency_sa>  (1) 
-0.84637542648216257

>  <r_i_glide_lipo>  (1) 
-4.647536699210546

>  <r_i_glide_metal>  (1) 
-0

>  <r_i_glide_rewards>  (1) 
-1.4349101619171958

>  <r_lp_Energy>  (1) 
30.938364999999997

>  <r_lp_tautomer_probability>  (1) 
1

>  <s_epik_Chemistry_Notes>  (1) 
This compound contains an acetal/aminal-like group ( X-CH(R)-Y where X, Y are N, S, or O) that may be acid/base labile, releasing an aldehyde.

>  <s_epik_cmdline>  (1) 
J2VwaWtfcHl0aG9uJywgJy1waHQnLCAnMS4wJywgJy1waCcsICc3LjQnLCAnLXRuJywgJzgnLCAnLW1hJywgJzUwMCcsICctaW1hZScsICc8aW5maWxlLm1hZT4nLCAnLW9tYWUnLCAnPG91dGZpbGUubWFlPic=

>  <s_epik_input>  (1) 
W2NIXTFbY0hdW2NIXVtjSF1bY0hdYzFbQ0BIXShjMltjSF1bY0hdW2NIXW5uMilTW0NAQEhdKFtDSDNdKVtDSDJdW05IXVtDQEhdKFtDSF09W0NIXTMpW0NAQEhdNFNbQ0gyXUM1PUM9W0NIXUMoPU8pW0NIXT1DPUMzTjQ1

>  <s_glide_docking_method>  (1) 
confgen

>  <s_i_glide_gridfile>  (1) 
gpcr_5ht2c_6bqh_protein_autoprepared_prepared

>  <s_lp_Force_Field>  (1) 
S-OPLS

>  <s_lp_Variant>  (1) 
DiffSBDD_71_num_sample_100-1

>  <s_m_source_file>  (1) 
generated__ligand_DiffSBDD_2026-05-06_prepared.sdf

>  <GenAI_Model>  (1) 
DiffSBDD

>  <Protein>  (1) 
GPCR_5HT2C

$$$$
DiffSBDD_0_num_sample_100
     RDKit          3D

  0  0  0  0  0  0  0  0  0  0999 V3000
M  V30 BEGIN CTAB
M  V30 COUNTS 60 62 0 0 1
M  V30 BEGIN ATOM
M  V30 1 C 38.958815 28.737112 51.587791 0
M  V30 2 C 38.734935 28.887875 55.890574 0 CFG=1
M  V30 3 C 37.504309 35.571997 61.113972 0
M  V30 4 C 37.129711 33.695947 58.718612 0
M  V30 5 C 39.932636 29.712121 51.169737 0
M  V30 6 C 39.650752 30.841968 53.487212 0
M  V30 7 C 39.631763 34.387457 61.307150 0
M  V30 8 C 38.034159 36.642640 61.857273 0
M  V30 9 C 38.301682 34.440152 60.839058 0
M  V30 10 C 39.630894 26.581275 55.348749 0 CFG=2
M  V30 11 N 38.253292 30.960426 57.222731 0
M  V30 12 C 38.729584 32.333053 57.310537 0
M  V30 13 C 37.566964 33.276362 57.520475 0
M  V30 14 C 39.360276 36.586629 62.327472 0
M  V30 15 F 41.437243 35.410723 62.500783 0
M  V30 16 C 40.160302 35.461190 62.050487 0
M  V30 17 C 37.728123 33.277669 60.047540 0 CFG=1
M  V30 18 C 40.267335 30.714416 52.039715 0
M  V30 19 N 35.902378 32.017085 61.453444 0
M  V30 20 C 39.292103 30.064781 56.731557 0
M  V30 21 C 38.313315 28.936075 52.715027 0
M  V30 22 C 37.846881 29.360304 54.713347 0 CFG=1
M  V30 23 N 39.866498 28.041064 55.453415 0 CHG=1
M  V30 24 O 39.867397 37.621402 63.053294 0
M  V30 25 C 40.069964 25.876327 56.637758 0
M  V30 26 C 40.357914 26.021385 54.107224 0
M  V30 27 C 39.134956 26.101628 57.829448 0
M  V30 28 N 38.445106 30.005492 53.518741 0
M  V30 29 S 37.171000 28.021361 53.590868 0
M  V30 30 C 36.706128 32.572604 60.834506 0
M  V30 31 Cl 40.659022 29.621448 49.610475 0
M  V30 32 H 38.778997 27.850422 50.998598 0
M  V30 33 H 38.106087 28.301367 56.559495 0
M  V30 34 H 36.485917 35.616461 60.757807 0
M  V30 35 H 36.290429 34.374084 58.763178 0
M  V30 36 H 40.414484 30.520027 54.189710 0
M  V30 37 H 39.380498 31.876460 53.699023 0
M  V30 38 H 40.244763 33.523170 61.098479 0
M  V30 39 H 37.422214 37.506516 62.070529 0
M  V30 40 H 38.571366 26.370129 55.212467 0
M  V30 41 H 37.410862 30.960928 56.652871 0
M  V30 42 H 39.214988 32.634991 56.380763 0
M  V30 43 H 39.467319 32.440288 58.099156 0
M  V30 44 H 37.067405 33.621626 56.630291 0
M  V30 45 H 38.513741 32.541175 59.900063 0
M  V30 46 H 40.994096 31.455928 51.751617 0
M  V30 47 H 40.009973 30.633043 56.148143 0
M  V30 48 H 39.842917 29.687140 57.594671 0
M  V30 49 H 37.007841 29.971038 55.051541 0
M  V30 50 H 40.125184 28.381159 54.539206 0
M  V30 51 H 40.727183 37.452701 63.420210 0
M  V30 52 H 40.137197 24.803960 56.457188 0
M  V30 53 H 41.067387 26.205337 56.911546 0
M  V30 54 H 40.267324 24.944266 54.048335 0
M  V30 55 H 39.949689 26.433129 53.184037 0
M  V30 56 H 41.431859 26.178593 54.092250 0
M  V30 57 H 39.451102 25.479492 58.657874 0
M  V30 58 H 39.164228 27.130877 58.184327 0
M  V30 59 H 38.102351 25.840659 57.593405 0
M  V30 60 H 40.644701 28.178865 56.081741 0
M  V30 END ATOM
M  V30 BEGIN BOND
M  V30 1 1 5 1
M  V30 2 2 8 3
M  V30 3 1 9 3
M  V30 4 2 9 7
M  V30 5 1 12 11
M  V30 6 2 13 4
M  V30 7 1 13 12
M  V30 8 1 14 8
M  V30 9 1 16 7
M  V30 10 2 16 14
M  V30 11 1 16 15
M  V30 12 1 17 4
M  V30 13 1 17 9
M  V30 14 2 18 5
M  V30 15 1 18 6
M  V30 16 1 20 2
M  V30 17 1 20 11
M  V30 18 2 21 1
M  V30 19 1 22 2
M  V30 20 1 23 2
M  V30 21 1 23 10
M  V30 22 1 24 14
M  V30 23 1 25 10
M  V30 24 1 26 10
M  V30 25 1 27 25
M  V30 26 1 28 6
M  V30 27 1 28 21
M  V30 28 1 28 22
M  V30 29 1 29 21
M  V30 30 1 29 22
M  V30 31 1 30 17
M  V30 32 3 30 19
M  V30 33 1 31 5
M  V30 34 1 32 1
M  V30 35 1 2 33 CFG=1
M  V30 36 1 34 3
M  V30 37 1 35 4
M  V30 38 1 36 6
M  V30 39 1 37 6
M  V30 40 1 38 7
M  V30 41 1 39 8
M  V30 42 1 10 40 CFG=3
M  V30 43 1 41 11
M  V30 44 1 42 12
M  V30 45 1 43 12
M  V30 46 1 44 13
M  V30 47 1 17 45 CFG=3
M  V30 48 1 46 18
M  V30 49 1 47 20
M  V30 50 1 48 20
M  V30 51 1 22 49 CFG=1
M  V30 52 1 50 23
M  V30 53 1 51 24
M  V30 54 1 52 25
M  V30 55 1 53 25
M  V30 56 1 54 26
M  V30 57 1 55 26
M  V30 58 1 56 26
M  V30 59 1 57 27
M  V30 60 1 58 27
M  V30 61 1 59 27
M  V30 62 1 60 23
M  V30 END BOND
M  V30 END CTAB
M  END
>  <i_epik_Tot_Q>  (1) 
1

>  <i_epik_Tot_abs_Q>  (1) 
1

>  <i_i_glide_confnum>  (1) 
30

>  <i_i_glide_lignum>  (1) 
4

>  <i_i_glide_posenum>  (1) 
143

>  <i_i_glide_rotatable_bonds>  (1) 
11

>  <i_lp_mmshare_version>  (1) 
72125

>  <i_m_source_file_index>  (1) 
1

>  <i_f3d_flags>  (1) 
0

>  <num_sample>  (1) 
100

>  <b_lp_Chiralities_Consistent>  (1) 
1

>  <r_epik_Charging_Adjusted_Penalty>  (1) 
1.026714880071514

>  <r_epik_Ionization_Penalty>  (1) 
0.57488375576365369

>  <r_epik_Ionization_Penalty_Charging>  (1) 
0.45778339447339428

>  <r_epik_Ionization_Penalty_Neutral>  (1) 
0.11710036129025943

>  <r_epik_State_Penalty>  (1) 
0.56893148559811979

>  <r_glide_ring_energy>  (1) 
0

>  <r_i_docking_score>  (1) 
-8.6988956229039189

>  <r_i_glide_ecoul>  (1) 
-7.3517700434732234

>  <r_i_glide_eff_state_penalty>  (1) 
0.56893148559811979

>  <r_i_glide_einternal>  (1) 
19.26161403160695

>  <r_i_glide_emodel>  (1) 
-66.608328693287504

>  <r_i_glide_emodel_strain>  (1) 
1.4887615082055419

>  <r_i_glide_energy>  (1) 
-47.841424694465132

>  <r_i_glide_erotb>  (1) 
0.74887478347211667

>  <r_i_glide_esite>  (1) 
-0.0026713969943762115

>  <r_i_glide_evdw>  (1) 
-40.489654650991909

>  <r_i_glide_gscore>  (1) 
-9.2678271085020381

>  <r_i_glide_gscore_strain>  (1) 
0

>  <r_i_glide_hbond>  (1) 
-0.53298633404215157

>  <r_i_glide_ligand_efficiency>  (1) 
-0.28060953622270707

>  <r_i_glide_ligand_efficiency_ln>  (1) 
-1.9618675520995315

>  <r_i_glide_ligand_efficiency_sa>  (1) 
-0.88150136796653389

>  <r_i_glide_lipo>  (1) 
-4.8122905314695359

>  <r_i_glide_metal>  (1) 
-0

>  <r_i_glide_rewards>  (1) 
-1.5415053903975111

>  <r_lp_Energy>  (1) 
38.461821999999998

>  <r_lp_tautomer_probability>  (1) 
0.99999999999736477

>  <s_epik_Chemistry_Notes>  (1) 
This compound contains an acetal/aminal-like group ( X-CH(R)-Y where X, Y are N, S, or O) that may be acid/base labile, releasing an aldehyde.

>  <s_epik_cmdline>  (1) 
J2VwaWtfcHl0aG9uJywgJy1waHQnLCAnMS4wJywgJy1waCcsICc3LjQnLCAnLXRuJywgJzgnLCAnLW1hJywgJzUwMCcsICctaW1hZScsICc8aW5maWxlLm1hZT4nLCAnLW9tYWUnLCAnPG91dGZpbGUubWFlPic=

>  <s_epik_input>  (1) 
W0NIXT0xQyhDbCk9W0NIXVtDSDJdTihDMTIpW0NAQEhdKFMyKVtDQEBIXShbTkhdW0NAQEhdKFtDSDNdKVtDSDJdW0NIM10pW0NIMl1bTkhdW0NIMl0vW0NIXT1bQ0hdXFtDQEhdKEMjTiljM1tjSF1bY0hdYyhbT0hdKWMoRilbY0hdMw==

>  <s_glide_docking_method>  (1) 
confgen

>  <s_i_glide_gridfile>  (1) 
gpcr_5ht2c_6bqh_protein_autoprepared_prepared

>  <s_lp_Force_Field>  (1) 
S-OPLS

>  <s_lp_Variant>  (1) 
DiffSBDD_0_num_sample_100-4

>  <s_m_source_file>  (1) 
generated__ligand_DiffSBDD_2026-05-06_prepared.sdf

>  <GenAI_Model>  (1) 
DiffSBDD

>  <Protein>  (1) 
GPCR_5HT2C

$$$$
DiffSBDD_15_num_sample_100
     RDKit          3D

  0  0  0  0  0  0  0  0  0  0999 V3000
M  V30 BEGIN CTAB
M  V30 COUNTS 74 79 0 0 1
M  V30 BEGIN ATOM
M  V30 1 C 38.349631 29.514461 58.378404 0
M  V30 2 S 37.967011 26.636627 55.372423 0
M  V30 3 N 39.621279 35.233164 61.761496 0
M  V30 4 C 40.556373 30.573495 51.018257 0
M  V30 5 C 37.112003 36.982722 60.964984 0
M  V30 6 C 41.066192 36.021710 64.120948 0
M  V30 7 S 40.164212 31.353918 62.305832 0
M  V30 8 S 37.067138 35.199247 60.611385 0
M  V30 9 O 39.849235 30.554597 63.495956 0
M  V30 10 C 39.151361 28.200469 52.070559 0
M  V30 11 C 39.291932 29.216358 52.940199 0
M  V30 12 C 38.687612 27.658364 56.703349 0 CFG=1
M  V30 13 C 40.882162 34.544200 63.870395 0 CFG=1
M  V30 14 N 38.658391 27.086987 52.716579 0
M  V30 15 C 37.138183 37.342152 62.468796 0
M  V30 16 C 36.013633 36.776628 63.344619 0
M  V30 17 C 40.404416 34.153618 62.457641 0 CFG=1
M  V30 18 C 40.986996 28.007218 58.944970 0
M  V30 19 S 39.867432 30.821408 52.698923 0
M  V30 20 C 39.464713 28.212076 50.620636 0
M  V30 21 N 38.465076 33.322867 61.808545 0
M  V30 22 C 38.759561 28.564180 59.522992 0 CFG=2
M  V30 23 N 42.152175 33.892215 64.150290 0
M  V30 24 O 37.466809 29.754776 56.224623 0
M  V30 25 C 39.636556 29.683011 50.157419 0
M  V30 26 C 39.203113 30.682310 60.906474 0
M  V30 27 C 37.728267 28.769274 57.201621 0 CFG=2
M  V30 28 N 39.513898 32.932855 62.532041 0
M  V30 29 C 39.627399 29.243608 60.577747 0 CFG=2
M  V30 30 C 41.037935 33.554334 65.005690 0
M  V30 31 C 38.555713 34.599483 61.457029 0
M  V30 32 C 41.062626 29.058750 60.060761 0
M  V30 33 O 41.551843 31.503354 61.858607 0
M  V30 34 C 38.535632 27.535085 53.971165 0
M  V30 35 N 39.616009 27.463842 59.038304 0 CFG=1 CHG=1
M  V30 36 O 38.912663 28.831522 54.172906 0
M  V30 37 C 39.090304 26.729515 57.862214 0
M  V30 38 H 39.216980 30.074972 58.025045 0
M  V30 39 H 37.636610 30.252641 58.749685 0
M  V30 40 H 40.664979 31.549877 50.548420 0
M  V30 41 H 41.549521 30.128032 51.053559 0
M  V30 42 H 37.987792 37.403412 60.471272 0
M  V30 43 H 36.247884 37.444140 60.490825 0
M  V30 44 H 40.120118 36.553241 64.023312 0
M  V30 45 H 41.429039 36.193626 65.135394 0
M  V30 46 H 41.785898 36.437996 63.416305 0
M  V30 47 H 39.604481 28.116846 56.335073 0
M  V30 48 H 38.095749 37.071258 62.909539 0
M  V30 49 H 37.067104 38.420999 62.536203 0
M  V30 50 H 36.239257 36.899427 64.404692 0
M  V30 51 H 35.076710 37.296206 63.145602 0
M  V30 52 H 35.867099 35.712556 63.166279 0
M  V30 53 H 41.274321 33.939623 61.833809 0
M  V30 54 H 41.149049 28.490294 57.980600 0
M  V30 55 H 41.743411 27.227484 59.047193 0
M  V30 56 H 40.365272 27.638537 50.421043 0
M  V30 57 H 38.668420 27.732374 50.062013 0
M  V30 58 H 37.662492 32.732564 61.657407 0
M  V30 59 H 37.867412 28.169388 59.995264 0
M  V30 60 H 42.878867 34.466498 64.553230 0
M  V30 61 H 36.791327 30.352118 56.537043 0
M  V30 62 H 38.667676 30.162099 50.253504 0
M  V30 63 H 39.926571 29.714739 49.106643 0
M  V30 64 H 39.351205 31.361520 60.067120 0
M  V30 65 H 38.151866 30.698747 61.188616 0
M  V30 66 H 36.785415 28.326194 57.511548 0
M  V30 67 H 39.536263 28.656988 61.494959 0
M  V30 68 H 41.059387 33.937640 66.023492 0
M  V30 69 H 40.607485 32.562628 64.904720 0
M  V30 70 H 41.466978 29.994948 59.676968 0
M  V30 71 H 41.696671 28.707378 60.874613 0
M  V30 72 H 39.827446 25.999053 57.526414 0
M  V30 73 H 38.218114 26.159722 58.187632 0
M  V30 74 H 39.659352 26.793363 59.793662 0
M  V30 END ATOM
M  V30 BEGIN BOND
M  V30 1 1 8 5
M  V30 2 2 9 7
M  V30 3 2 11 10
M  V30 4 1 12 2
M  V30 5 1 13 6 CFG=1
M  V30 6 1 14 10
M  V30 7 1 15 5
M  V30 8 1 16 15
M  V30 9 1 17 3
M  V30 10 1 17 13
M  V30 11 1 19 4
M  V30 12 1 19 11
M  V30 13 1 20 10
M  V30 14 1 22 1
M  V30 15 1 23 13
M  V30 16 1 25 4
M  V30 17 1 25 20
M  V30 18 1 26 7
M  V30 19 1 27 1
M  V30 20 1 27 12
M  V30 21 1 27 24
M  V30 22 1 28 7
M  V30 23 1 28 17
M  V30 24 1 28 21
M  V30 25 1 29 22
M  V30 26 1 29 26
M  V30 27 1 30 13
M  V30 28 1 30 23
M  V30 29 2 31 3
M  V30 30 1 31 8
M  V30 31 1 31 21
M  V30 32 1 32 18
M  V30 33 1 32 29
M  V30 34 2 33 7
M  V30 35 1 34 2
M  V30 36 2 34 14
M  V30 37 1 35 18
M  V30 38 1 35 22
M  V30 39 1 36 11
M  V30 40 1 36 34
M  V30 41 1 37 12
M  V30 42 1 37 35
M  V30 43 1 38 1
M  V30 44 1 39 1
M  V30 45 1 40 4
M  V30 46 1 41 4
M  V30 47 1 42 5
M  V30 48 1 43 5
M  V30 49 1 44 6
M  V30 50 1 45 6
M  V30 51 1 46 6
M  V30 52 1 12 47 CFG=3
M  V30 53 1 48 15
M  V30 54 1 49 15
M  V30 55 1 50 16
M  V30 56 1 51 16
M  V30 57 1 52 16
M  V30 58 1 17 53 CFG=3
M  V30 59 1 54 18
M  V30 60 1 55 18
M  V30 61 1 56 20
M  V30 62 1 57 20
M  V30 63 1 58 21
M  V30 64 1 22 59 CFG=1
M  V30 65 1 60 23
M  V30 66 1 61 24
M  V30 67 1 62 25
M  V30 68 1 63 25
M  V30 69 1 64 26
M  V30 70 1 65 26
M  V30 71 1 27 66 CFG=1
M  V30 72 1 29 67 CFG=1
M  V30 73 1 68 30
M  V30 74 1 69 30
M  V30 75 1 70 32
M  V30 76 1 71 32
M  V30 77 1 72 37
M  V30 78 1 73 37
M  V30 79 1 35 74 CFG=1
M  V30 END BOND
M  V30 END CTAB
M  END
>  <i_epik_Tot_Q>  (1) 
1

>  <i_epik_Tot_abs_Q>  (1) 
1

>  <i_i_glide_confnum>  (1) 
177

>  <i_i_glide_lignum>  (1) 
36

>  <i_i_glide_posenum>  (1) 
257

>  <i_i_glide_rotatable_bonds>  (1) 
10

>  <i_lp_mmshare_version>  (1) 
72125

>  <i_m_source_file_index>  (1) 
16

>  <i_f3d_flags>  (1) 
0

>  <num_sample>  (1) 
100

>  <b_lp_Chiralities_Consistent>  (1) 
1

>  <r_epik_Charging_Adjusted_Penalty>  (1) 
0.0082019649409003706

>  <r_epik_Ionization_Penalty>  (1) 
0.015626865898487191

>  <r_epik_Ionization_Penalty_Charging>  (1) 
0.0082019649409003706

>  <r_epik_Ionization_Penalty_Neutral>  (1) 
0.0074249009575868222

>  <r_epik_State_Penalty>  (1) 
-0

>  <r_glide_ring_energy>  (1) 
0

>  <r_i_docking_score>  (1) 
-8.6756859409998608

>  <r_i_glide_ecoul>  (1) 
-2.0611052083584434

>  <r_i_glide_eff_state_penalty>  (1) 
-0

>  <r_i_glide_einternal>  (1) 
5.831743516436684

>  <r_i_glide_emodel>  (1) 
-67.463001300859645

>  <r_i_glide_emodel_strain>  (1) 
5.3845101136873978

>  <r_i_glide_energy>  (1) 
-48.837586461584579

>  <r_i_glide_erotb>  (1) 
0.37349522713264072

>  <r_i_glide_esite>  (1) 
-0.023410559290609419

>  <r_i_glide_evdw>  (1) 
-46.776481253226137

>  <r_i_glide_gscore>  (1) 
-8.6756859409998608

>  <r_i_glide_gscore_strain>  (1) 
0.34612752842184946

>  <r_i_glide_hbond>  (1) 
-0.13691086862411361

>  <r_i_glide_ligand_efficiency>  (1) 
-0.23447799840540165

>  <r_i_glide_ligand_efficiency_ln>  (1) 
-1.8815528936676762

>  <r_i_glide_ligand_efficiency_sa>  (1) 
-0.78133271001668447

>  <r_i_glide_lipo>  (1) 
-4.8801150070519368

>  <r_i_glide_metal>  (1) 
-0

>  <r_i_glide_rewards>  (1) 
-1.7068824176726172

>  <r_lp_Energy>  (1) 
12.858018

>  <r_lp_tautomer_probability>  (1) 
1

>  <s_epik_Chemistry_Notes>  (1) 
This compound has an imine and may undergo hydrolysis. This compound contains an acetal/aminal-like group ( X-CH(R)-Y where X, Y are N, S, or O) that may be acid/base labile, releasing an aldehyde.

>  <s_epik_cmdline>  (1) 
J2VwaWtfcHl0aG9uJywgJy1waHQnLCAnMS4wJywgJy1waCcsICc3LjQnLCAnLXRuJywgJzgnLCAnLW1hJywgJzUwMCcsICctaW1hZScsICc8aW5maWxlLm1hZT4nLCAnLW9tYWUnLCAnPG91dGZpbGUubWFlPic=

>  <s_epik_input>  (1) 
W0NIMl0xW0NIMl1bQ0gyXVNjKGMxMilvYyhuMilTW0NAQEhdKFtDQEBIXShbQ0gyXTMpW09IXSlbQ0gyXU4oW0NASF0zNClbQ0gyXVtDSDJdW0NASF00W0NIMl1TKD1PKSg9TylONVtOSF1DKFNbQ0gyXVtDSDJdW0NIM10pPU5bQ0BASF01W0NAXTYoW0NIM10pW05IXVtDSDJdNg==

>  <s_glide_docking_method>  (1) 
confgen

>  <s_i_glide_gridfile>  (1) 
gpcr_5ht2c_6bqh_protein_autoprepared_prepared

>  <s_lp_Force_Field>  (1) 
S-OPLS

>  <s_lp_Variant>  (1) 
DiffSBDD_15_num_sample_100-3

>  <s_m_source_file>  (1) 
generated__ligand_DiffSBDD_2026-05-06_prepared.sdf

>  <GenAI_Model>  (1) 
DiffSBDD

>  <Protein>  (1) 
GPCR_5HT2C

$$$$
DiffSBDD_80_num_sample_100
     RDKit          3D

  0  0  0  0  0  0  0  0  0  0999 V3000
M  V30 BEGIN CTAB
M  V30 COUNTS 73 76 0 0 1
M  V30 BEGIN ATOM
M  V30 1 C 40.253006 27.911307 59.284223 0
M  V30 2 C 38.673996 31.434495 59.378996 0
M  V30 3 N 38.138927 32.521375 60.227049 0 CFG=1 CHG=1
M  V30 4 O 39.601015 28.725244 55.686604 0
M  V30 5 O 37.867401 30.807117 56.694911 0
M  V30 6 O 40.258430 28.660596 60.482459 0
M  V30 7 C 37.395421 35.178108 61.198340 0 CFG=2
M  V30 8 C 38.711109 34.491614 61.662322 0 CFG=2
M  V30 9 C 39.455770 27.970580 50.989187 0
M  V30 10 C 38.750563 26.680054 55.054543 0
M  V30 11 O 39.474803 30.863848 54.007264 0
M  V30 12 C 39.467397 29.912455 53.029267 0
M  V30 13 O 41.017296 32.766951 63.622301 0
M  V30 14 C 39.054744 27.617499 52.287894 0
M  V30 15 C 41.166279 34.854742 62.453832 0
M  V30 16 C 39.867541 30.255516 51.725499 0
M  V30 17 O 39.486631 25.451447 57.006505 0
M  V30 18 C 36.352346 34.138253 60.740560 0
M  V30 19 O 40.267415 29.621435 49.453499 0
M  V30 20 C 39.799496 35.463636 62.180162 0
M  V30 21 C 39.867390 29.285811 50.709440 0
M  V30 22 C 39.799347 27.877617 56.803776 0 CFG=1
M  V30 23 C 37.693658 30.300165 59.087581 0 CFG=2
M  V30 24 C 39.606948 28.680654 58.110955 0 CFG=1
M  V30 25 C 39.194639 33.514130 60.566629 0
M  V30 26 C 38.895962 26.657467 56.561071 0 CFG=1
M  V30 27 C 41.132007 33.987987 63.708177 0
M  V30 28 C 38.140947 29.009913 58.401510 0 CFG=2
M  V30 29 C 39.564588 36.774940 62.388954 0
M  V30 30 C 36.787669 37.044850 59.813244 0
M  V30 31 C 37.263814 29.984279 57.665210 0 CFG=2
M  V30 32 C 38.680381 28.183332 54.744792 0 CFG=2
M  V30 33 C 39.067405 28.580661 53.320028 0
M  V30 34 C 36.927648 33.183474 59.685253 0
M  V30 35 O 37.736824 36.039117 60.120033 0
M  V30 36 H 39.729426 26.970158 59.453495 0
M  V30 37 H 41.287005 27.656795 59.046811 0
M  V30 38 H 39.519016 31.004668 59.909170 0
M  V30 39 H 39.067401 31.871924 58.463656 0
M  V30 40 H 37.196473 31.425905 56.421621 0
M  V30 41 H 40.631687 28.124924 61.168313 0
M  V30 42 H 36.970430 35.752602 62.023217 0
M  V30 43 H 38.488894 33.850774 62.512062 0
M  V30 44 H 39.453316 27.227418 50.208424 0
M  V30 45 H 40.494345 30.535831 49.379112 0
M  V30 46 H 37.884246 26.123205 54.695509 0
M  V30 47 H 39.647151 26.245695 54.607673 0
M  V30 48 H 39.745406 31.718659 53.709073 0
M  V30 49 H 38.749236 26.603944 52.493585 0
M  V30 50 H 41.548033 34.301915 61.597482 0
M  V30 51 H 41.872020 35.665420 62.634794 0
M  V30 52 H 40.180158 31.266206 51.505837 0
M  V30 53 H 40.360848 25.389870 56.647647 0
M  V30 54 H 35.465575 34.627349 60.342751 0
M  V30 55 H 36.011656 33.565962 61.604371 0
M  V30 56 H 40.844124 27.569981 56.724171 0
M  V30 57 H 36.961293 30.139256 59.876241 0
M  V30 58 H 40.151755 29.616543 57.985820 0
M  V30 59 H 40.063676 32.959351 60.918996 0
M  V30 60 H 39.503106 34.054571 59.669853 0
M  V30 61 H 37.907199 26.767646 57.000167 0
M  V30 62 H 41.211771 34.522824 64.654772 0
M  V30 63 H 37.587218 28.114447 58.653574 0
M  V30 64 H 40.345950 37.425569 62.754577 0
M  V30 65 H 38.597589 37.213025 62.200658 0
M  V30 66 H 37.214660 37.696121 59.053501 0
M  V30 67 H 35.867431 36.626989 59.409515 0
M  V30 68 H 36.552162 37.658896 60.683038 0
M  V30 69 H 36.238163 29.701642 57.451227 0
M  V30 70 H 37.683433 28.563828 54.969656 0
M  V30 71 H 37.172074 33.721840 58.767604 0
M  V30 72 H 36.166553 32.448246 59.421147 0
M  V30 73 H 37.866158 32.084071 61.094967 0
M  V30 END ATOM
M  V30 BEGIN BOND
M  V30 1 1 3 2
M  V30 2 1 6 1
M  V30 3 1 8 7
M  V30 4 1 12 11
M  V30 5 2 14 9
M  V30 6 1 16 12
M  V30 7 1 18 7
M  V30 8 1 20 8
M  V30 9 1 20 15
M  V30 10 1 21 9
M  V30 11 2 21 16
M  V30 12 1 21 19
M  V30 13 1 22 4
M  V30 14 1 23 2
M  V30 15 1 24 1
M  V30 16 1 24 22
M  V30 17 1 25 3
M  V30 18 1 25 8
M  V30 19 1 26 10
M  V30 20 1 26 17
M  V30 21 1 26 22
M  V30 22 2 27 13
M  V30 23 1 27 15
M  V30 24 1 28 23
M  V30 25 1 28 24
M  V30 26 2 29 20
M  V30 27 1 31 5
M  V30 28 1 31 23
M  V30 29 1 31 28
M  V30 30 1 32 4
M  V30 31 1 32 10
M  V30 32 2 33 12
M  V30 33 1 33 14
M  V30 34 1 33 32
M  V30 35 1 34 3
M  V30 36 1 34 18
M  V30 37 1 35 7
M  V30 38 1 35 30
M  V30 39 1 36 1
M  V30 40 1 37 1
M  V30 41 1 38 2
M  V30 42 1 39 2
M  V30 43 1 40 5
M  V30 44 1 41 6
M  V30 45 1 7 42 CFG=1
M  V30 46 1 8 43 CFG=1
M  V30 47 1 44 9
M  V30 48 1 45 19
M  V30 49 1 46 10
M  V30 50 1 47 10
M  V30 51 1 48 11
M  V30 52 1 49 14
M  V30 53 1 50 15
M  V30 54 1 51 15
M  V30 55 1 52 16
M  V30 56 1 53 17
M  V30 57 1 54 18
M  V30 58 1 55 18
M  V30 59 1 22 56 CFG=1
M  V30 60 1 23 57 CFG=1
M  V30 61 1 24 58 CFG=3
M  V30 62 1 59 25
M  V30 63 1 60 25
M  V30 64 1 26 61 CFG=1
M  V30 65 1 62 27
M  V30 66 1 28 63 CFG=1
M  V30 67 1 64 29
M  V30 68 1 65 29
M  V30 69 1 66 30
M  V30 70 1 67 30
M  V30 71 1 68 30
M  V30 72 1 31 69 CFG=1
M  V30 73 1 32 70 CFG=1
M  V30 74 1 71 34
M  V30 75 1 72 34
M  V30 76 1 3 73 CFG=1
M  V30 END BOND
M  V30 END CTAB
M  END
>  <i_epik_Tot_Q>  (1) 
1

>  <i_epik_Tot_abs_Q>  (1) 
1

>  <i_i_glide_confnum>  (1) 
791

>  <i_i_glide_lignum>  (1) 
206

>  <i_i_glide_posenum>  (1) 
242

>  <i_i_glide_rotatable_bonds>  (1) 
15

>  <i_lp_mmshare_version>  (1) 
72125

>  <i_m_source_file_index>  (1) 
81

>  <i_f3d_flags>  (1) 
0

>  <num_sample>  (1) 
100

>  <b_lp_Chiralities_Consistent>  (1) 
1

>  <r_epik_Charging_Adjusted_Penalty>  (1) 
0.034071705691259377

>  <r_epik_Ionization_Penalty>  (1) 
0.043305258844254187

>  <r_epik_Ionization_Penalty_Charging>  (1) 
0.034071705691259377

>  <r_epik_Ionization_Penalty_Neutral>  (1) 
0.009233553152994808

>  <r_epik_State_Penalty>  (1) 
-0

>  <r_glide_ring_energy>  (1) 
0

>  <r_i_docking_score>  (1) 
-8.6691867586041287

>  <r_i_glide_ecoul>  (1) 
-5.6849520425230189

>  <r_i_glide_eff_state_penalty>  (1) 
-0

>  <r_i_glide_einternal>  (1) 
9.517274812855117

>  <r_i_glide_emodel>  (1) 
-78.527249969671729

>  <r_i_glide_emodel_strain>  (1) 
0.38183069723383767

>  <r_i_glide_energy>  (1) 
-55.800122676623573

>  <r_i_glide_erotb>  (1) 
0.67144220787932085

>  <r_i_glide_esite>  (1) 
0

>  <r_i_glide_evdw>  (1) 
-50.115170634100558

>  <r_i_glide_gscore>  (1) 
-8.6691867586041287

>  <r_i_glide_gscore_strain>  (1) 
0

>  <r_i_glide_hbond>  (1) 
-0.12098834892455998

>  <r_i_glide_ligand_efficiency>  (1) 
-0.24769105024583224

>  <r_i_glide_ligand_efficiency_ln>  (1) 
-1.9030788957473554

>  <r_i_glide_ligand_efficiency_sa>  (1) 
-0.81021384979437117

>  <r_i_glide_lipo>  (1) 
-4.7787671740541713

>  <r_i_glide_metal>  (1) 
-0

>  <r_i_glide_rewards>  (1) 
-1.0823721054212392

>  <r_lp_Energy>  (1) 
33.571677999999999

>  <r_lp_tautomer_probability>  (1) 
1

>  <s_epik_cmdline>  (1) 
J2VwaWtfcHl0aG9uJywgJy1waHQnLCAnMS4wJywgJy1waCcsICc3LjQnLCAnLXRuJywgJzgnLCAnLW1hJywgJzUwMCcsICctaW1hZScsICc8aW5maWxlLm1hZT4nLCAnLW9tYWUnLCAnPG91dGZpbGUubWFlPic=

>  <s_epik_input>  (1) 
Tz1bQ0hdW0NIMl1DKD1bQ0gyXSlbQ0BASF0oW0NASF0oW0NIMl1bQ0gyXTEpT1tDSDNdKVtDSDJdTjFbQ0gyXVtDQEBIXTJbQ0BASF0oW0NAQEhdMltPSF0pW0NAQEhdKFtDSDJdW09IXSlbQ0BASF0zT1tDQEhdKFtDSDJdW0NASF0zW09IXSlDND1bQ0hdW0NIMl1DKD1PKVtDSF09QzRbT0hd

>  <s_glide_docking_method>  (1) 
confgen

>  <s_i_glide_gridfile>  (1) 
gpcr_5ht2c_6bqh_protein_autoprepared_prepared

>  <s_lp_Force_Field>  (1) 
S-OPLS

>  <s_lp_Variant>  (1) 
DiffSBDD_80_num_sample_100-2

>  <s_m_source_file>  (1) 
generated__ligand_DiffSBDD_2026-05-06_prepared.sdf

>  <GenAI_Model>  (1) 
DiffSBDD

>  <Protein>  (1) 
GPCR_5HT2C

$$$$
DiffSBDD_24_num_sample_100
     RDKit          3D

  0  0  0  0  0  0  0  0  0  0999 V3000
M  V30 BEGIN CTAB
M  V30 COUNTS 62 64 0 0 1
M  V30 BEGIN ATOM
M  V30 1 C 38.494053 30.748334 58.295292 0
M  V30 2 O 39.844615 33.892360 60.770613 0
M  V30 3 C 37.122733 36.946034 61.015389 0
M  V30 4 C 39.867448 28.672649 50.015994 0
M  V30 5 C 40.184466 30.942155 51.048725 0
M  V30 6 N 37.784441 34.659860 60.234818 0
M  V30 7 C 37.571718 33.661718 59.174805 0
M  V30 8 C 38.286866 27.508337 56.223828 0
M  V30 9 C 38.818187 29.417576 54.731839 0
M  V30 10 N 39.548439 29.627414 51.060066 0
M  V30 11 O 41.459663 35.324319 62.591687 0
M  V30 12 N 38.078135 36.801224 62.107617 0
M  V30 13 C 38.404737 25.512937 57.856317 0
M  V30 14 C 40.184141 35.806683 62.958926 0
M  V30 15 C 39.122301 29.942730 53.461442 0
M  V30 16 C 39.269503 36.028748 61.731675 0 CFG=1
M  V30 17 C 38.763302 30.286888 55.830992 0
M  V30 18 N 37.147581 31.240786 58.653552 0 CHG=1
M  V30 19 C 38.590566 28.022881 54.901222 0
M  V30 20 C 39.226319 29.092439 52.337934 0
M  V30 21 C 37.972188 26.046637 56.503216 0
M  V30 22 C 38.970571 34.753898 60.889639 0
M  V30 23 C 38.281979 28.418766 57.316866 0
M  V30 24 C 37.338833 25.244689 55.620748 0
M  V30 25 C 39.017920 27.703351 52.502990 0
M  V30 26 C 38.714576 27.171816 53.767200 0
M  V30 27 C 36.667304 35.561131 60.534426 0
M  V30 28 C 37.168955 32.272808 59.718264 0
M  V30 29 C 38.510459 29.793677 57.116161 0
M  V30 30 H 39.106111 31.604261 58.026171 0
M  V30 31 H 38.965409 30.277669 59.159334 0
M  V30 32 H 37.578437 37.492571 60.187708 0
M  V30 33 H 36.268314 37.541029 61.337962 0
M  V30 34 H 40.658607 27.997698 50.337792 0
M  V30 35 H 38.983376 28.086862 49.773327 0
M  V30 36 H 40.189635 29.184667 49.108194 0
M  V30 37 H 39.467473 31.732240 51.259779 0
M  V30 38 H 40.993060 31.002369 51.776430 0
M  V30 39 H 40.614499 31.158554 50.070640 0
M  V30 40 H 36.806570 34.006519 58.477161 0
M  V30 41 H 38.480794 33.611574 58.575001 0
M  V30 42 H 41.331961 34.540204 62.074310 0
M  V30 43 H 37.623718 36.354902 62.898525 0
M  V30 44 H 39.474882 25.663475 58.003230 0
M  V30 45 H 37.867208 26.002377 58.657506 0
M  V30 46 H 38.205464 24.443644 57.939205 0
M  V30 47 H 39.737738 35.100849 63.653601 0
M  V30 48 H 40.326032 36.742873 63.501920 0
M  V30 49 H 39.286519 31.003893 53.355371 0
M  V30 50 H 39.845523 36.654014 61.053503 0
M  V30 51 H 38.940589 31.343214 55.687779 0
M  V30 52 H 36.598914 30.453369 58.963326 0
M  V30 53 H 38.076132 28.061824 58.312138 0
M  V30 54 H 37.147086 24.209029 55.859695 0
M  V30 55 H 36.993874 25.602279 54.668799 0
M  V30 56 H 39.105196 27.033804 51.662388 0
M  V30 57 H 38.612310 26.115905 53.854678 0
M  V30 58 H 36.016868 35.680935 59.666975 0
M  V30 59 H 36.067833 35.077080 61.306235 0
M  V30 60 H 37.830594 31.953217 60.524970 0
M  V30 61 H 36.168303 32.336804 60.147582 0
M  V30 62 H 36.667416 31.620389 57.830959 0
M  V30 END ATOM
M  V30 BEGIN BOND
M  V30 1 1 7 6
M  V30 2 1 10 4
M  V30 3 1 10 5
M  V30 4 1 12 3
M  V30 5 1 14 11
M  V30 6 1 15 9
M  V30 7 1 16 12
M  V30 8 1 16 14
M  V30 9 2 17 9
M  V30 10 1 18 1
M  V30 11 2 19 8
M  V30 12 1 19 9
M  V30 13 1 20 10
M  V30 14 2 20 15
M  V30 15 1 21 8
M  V30 16 1 21 13
M  V30 17 2 22 2
M  V30 18 1 22 6
M  V30 19 1 22 16
M  V30 20 1 23 8
M  V30 21 2 24 21
M  V30 22 1 25 20
M  V30 23 1 26 19
M  V30 24 2 26 25
M  V30 25 1 27 3
M  V30 26 1 27 6
M  V30 27 1 28 7
M  V30 28 1 28 18
M  V30 29 1 29 1
M  V30 30 1 29 17
M  V30 31 2 29 23
M  V30 32 1 30 1
M  V30 33 1 31 1
M  V30 34 1 32 3
M  V30 35 1 33 3
M  V30 36 1 34 4
M  V30 37 1 35 4
M  V30 38 1 36 4
M  V30 39 1 37 5
M  V30 40 1 38 5
M  V30 41 1 39 5
M  V30 42 1 40 7
M  V30 43 1 41 7
M  V30 44 1 42 11
M  V30 45 1 43 12
M  V30 46 1 44 13
M  V30 47 1 45 13
M  V30 48 1 46 13
M  V30 49 1 47 14
M  V30 50 1 48 14
M  V30 51 1 49 15
M  V30 52 1 16 50 CFG=3
M  V30 53 1 51 17
M  V30 54 1 52 18
M  V30 55 1 53 23
M  V30 56 1 54 24
M  V30 57 1 55 24
M  V30 58 1 56 25
M  V30 59 1 57 26
M  V30 60 1 58 27
M  V30 61 1 59 27
M  V30 62 1 60 28
M  V30 63 1 61 28
M  V30 64 1 62 18
M  V30 END BOND
M  V30 END CTAB
M  END
>  <i_epik_Tot_Q>  (1) 
1

>  <i_epik_Tot_abs_Q>  (1) 
1

>  <i_i_glide_confnum>  (1) 
179

>  <i_i_glide_lignum>  (1) 
62

>  <i_i_glide_posenum>  (1) 
195

>  <i_i_glide_rotatable_bonds>  (1) 
9

>  <i_lp_mmshare_version>  (1) 
72125

>  <i_m_source_file_index>  (1) 
25

>  <i_f3d_flags>  (1) 
0

>  <num_sample>  (1) 
100

>  <b_lp_Chiralities_Consistent>  (1) 
1

>  <r_epik_Charging_Adjusted_Penalty>  (1) 
0.46759718330573113

>  <r_epik_Ionization_Penalty>  (1) 
0.33050907740455537

>  <r_epik_Ionization_Penalty_Charging>  (1) 
0.11171656725362118

>  <r_epik_Ionization_Penalty_Neutral>  (1) 
0.21879251015093421

>  <r_epik_State_Penalty>  (1) 
0.35588061605210997

>  <r_glide_ring_energy>  (1) 
0

>  <r_i_docking_score>  (1) 
-8.6675649982003566

>  <r_i_glide_ecoul>  (1) 
-5.0140676212105664

>  <r_i_glide_eff_state_penalty>  (1) 
0.35588061605210997

>  <r_i_glide_einternal>  (1) 
5.8083909937990228

>  <r_i_glide_emodel>  (1) 
-77.907933694051877

>  <r_i_glide_emodel_strain>  (1) 
0

>  <r_i_glide_energy>  (1) 
-48.71293237490066

>  <r_i_glide_erotb>  (1) 
0.8670523998276507

>  <r_i_glide_esite>  (1) 
-0.10000000000000001

>  <r_i_glide_evdw>  (1) 
-43.698864753690096

>  <r_i_glide_gscore>  (1) 
-9.0234456142524664

>  <r_i_glide_gscore_strain>  (1) 
0

>  <r_i_glide_hbond>  (1) 
-0.20000000000000001

>  <r_i_glide_ligand_efficiency>  (1) 
-0.29888155166208125

>  <r_i_glide_ligand_efficiency_ln>  (1) 
-1.9846525941035691

>  <r_i_glide_ligand_efficiency_sa>  (1) 
-0.91825882005850623

>  <r_i_glide_lipo>  (1) 
-4.2648675631681456

>  <r_i_glide_metal>  (1) 
-0

>  <r_i_glide_rewards>  (1) 
-2.388577070045883

>  <r_lp_Energy>  (1) 
66.45371999999999

>  <s_epik_cmdline>  (1) 
J2VwaWtfcHl0aG9uJywgJy1waHQnLCAnMS4wJywgJy1waCcsICc3LjQnLCAnLXRuJywgJzgnLCAnLW1hJywgJzUwMCcsICctaW1hZScsICc8aW5maWxlLm1hZT4nLCAnLW9tYWUnLCAnPG91dGZpbGUubWFlPic=

>  <s_epik_input>  (1) 
W0NIMl0xW0NIMl1bTkhdW0NAQEhdKFtDSDJdW09IXSlDKD1PKU4xW0NIMl1bQ0gyXVtOSF1bQ0gyXWMoW2NIXTIpW2NIXWMoQyhbQ0gzXSk9W0NIMl0pYyhjMjMpW2NIXVtjSF1jKFtjSF0zKU4oW0NIM10pW0NIM10=

>  <s_glide_docking_method>  (1) 
confgen

>  <s_i_glide_gridfile>  (1) 
gpcr_5ht2c_6bqh_protein_autoprepared_prepared

>  <s_lp_Force_Field>  (1) 
S-OPLS

>  <s_lp_Variant>  (1) 
DiffSBDD_24_num_sample_100-1

>  <s_m_source_file>  (1) 
generated__ligand_DiffSBDD_2026-05-06_prepared.sdf

>  <GenAI_Model>  (1) 
DiffSBDD

>  <Protein>  (1) 
GPCR_5HT2C

$$$$
DiffSBDD_26_num_sample_100
     RDKit          3D

  0  0  0  0  0  0  0  0  0  0999 V3000
M  V30 BEGIN CTAB
M  V30 COUNTS 63 66 0 0 1
M  V30 BEGIN ATOM
M  V30 1 C 37.860533 30.708302 59.236837 0
M  V30 2 C 38.359176 34.824039 61.124078 0
M  V30 3 N 38.798627 27.904506 57.243548 0
M  V30 4 C 39.169377 28.878510 56.301399 0
M  V30 5 C 39.008009 37.023701 61.959702 0
M  V30 6 O 40.397118 28.479320 61.629621 0
M  V30 7 C 39.072994 29.612171 53.881146 0
M  V30 8 C 39.746688 30.719533 60.995504 0
M  V30 9 C 37.971411 24.221554 57.541516 0
M  V30 10 C 37.743270 32.424284 60.981464 0
M  V30 11 C 39.212792 28.548365 54.801445 0
M  V30 12 C 36.888464 25.082343 55.551212 0
M  V30 13 C 36.981547 36.798327 60.627436 0
M  V30 14 O 36.337520 34.675187 59.757455 0
M  V30 15 C 37.623074 29.221606 58.970248 0
M  V30 16 C 40.142872 29.256942 60.714141 0
M  V30 17 C 40.213308 28.807511 59.243691 0
M  V30 18 C 39.333604 28.076386 52.009156 0
M  V30 19 O 39.376414 27.836000 50.653088 0
M  V30 20 C 37.205864 35.416172 60.501676 0
M  V30 21 C 39.257464 35.643531 61.835235 0
M  V30 22 N 39.867417 28.959383 49.891462 0
M  V30 23 C 37.159632 24.021165 56.416119 0
M  V30 24 N 38.662753 33.415694 61.004405 0
M  V30 25 O 39.448494 30.025922 56.643115 0
M  V30 26 C 38.850236 28.306178 58.688806 0 CFG=2
M  V30 27 C 37.872476 37.597276 61.358348 0
M  V30 28 C 39.489897 27.010184 52.909851 0
M  V30 29 C 38.254127 26.575086 56.931123 0
M  V30 30 C 38.523286 25.489588 57.802008 0
M  V30 31 C 37.410396 26.362227 55.811319 0
M  V30 32 O 39.867384 37.809019 62.659866 0
M  V30 33 C 38.256305 31.008591 60.697012 0 CFG=1
M  V30 34 O 36.543226 32.605114 61.184508 0
M  V30 35 C 39.467476 27.239754 54.302358 0
M  V30 36 C 39.146354 29.380113 52.502405 0
M  V30 37 H 36.918323 31.204043 58.984997 0
M  V30 38 H 38.588513 31.153308 58.563829 0
M  V30 39 H 38.919736 30.619238 54.242055 0
M  V30 40 H 40.388739 31.375074 60.411996 0
M  V30 41 H 39.956403 30.932184 62.045138 0
M  V30 42 H 38.176090 23.396275 58.209117 0
M  V30 43 H 36.267522 24.918133 54.688264 0
M  V30 44 H 36.120265 37.248169 60.154798 0
M  V30 45 H 36.309670 33.774087 60.070289 0
M  V30 46 H 36.893010 29.130515 58.162829 0
M  V30 47 H 37.099527 28.841893 59.840358 0
M  V30 48 H 40.621432 29.624254 58.659759 0
M  V30 49 H 40.945043 28.003007 59.170145 0
M  V30 50 H 40.133925 35.211035 62.295126 0
M  V30 51 H 40.526491 37.346299 63.158177 0
M  V30 52 H 39.039175 29.330064 49.433225 0
M  V30 53 H 40.141887 29.641853 50.582068 0
M  V30 54 H 36.739067 23.046731 56.217925 0
M  V30 55 H 39.637093 33.158809 60.976952 0
M  V30 56 H 38.636149 27.450892 59.320238 0
M  V30 57 H 37.689185 38.657484 61.451379 0
M  V30 58 H 39.665151 26.021301 52.533238 0
M  V30 59 H 39.157273 25.622921 58.664374 0
M  V30 60 H 37.157883 27.177283 55.152013 0
M  V30 61 H 37.668587 30.385013 61.368026 0
M  V30 62 H 39.646771 26.417553 54.972836 0
M  V30 63 H 39.067397 30.208187 51.822924 0
M  V30 END ATOM
M  V30 BEGIN BOND
M  V30 1 1 4 3
M  V30 2 1 11 4
M  V30 3 2 11 7
M  V30 4 1 15 1
M  V30 5 2 16 6
M  V30 6 1 16 8
M  V30 7 1 17 16
M  V30 8 1 19 18
M  V30 9 1 20 2
M  V30 10 2 20 13
M  V30 11 1 20 14
M  V30 12 2 21 2
M  V30 13 1 21 5
M  V30 14 1 22 19
M  V30 15 2 23 9
M  V30 16 1 23 12
M  V30 17 1 24 2
M  V30 18 1 24 10
M  V30 19 2 25 4
M  V30 20 1 26 3
M  V30 21 1 26 15
M  V30 22 1 26 17
M  V30 23 2 27 5
M  V30 24 1 27 13
M  V30 25 1 28 18
M  V30 26 1 29 3
M  V30 27 1 30 9
M  V30 28 2 30 29
M  V30 29 2 31 12
M  V30 30 1 31 29
M  V30 31 1 32 5
M  V30 32 1 33 1
M  V30 33 1 33 8
M  V30 34 1 33 10
M  V30 35 2 34 10
M  V30 36 1 35 11
M  V30 37 2 35 28
M  V30 38 1 36 7
M  V30 39 2 36 18
M  V30 40 1 37 1
M  V30 41 1 38 1
M  V30 42 1 39 7
M  V30 43 1 40 8
M  V30 44 1 41 8
M  V30 45 1 42 9
M  V30 46 1 43 12
M  V30 47 1 44 13
M  V30 48 1 45 14
M  V30 49 1 46 15
M  V30 50 1 47 15
M  V30 51 1 48 17
M  V30 52 1 49 17
M  V30 53 1 50 21
M  V30 54 1 51 32
M  V30 55 1 52 22
M  V30 56 1 53 22
M  V30 57 1 54 23
M  V30 58 1 55 24
M  V30 59 1 26 56 CFG=1
M  V30 60 1 57 27
M  V30 61 1 58 28
M  V30 62 1 59 30
M  V30 63 1 60 31
M  V30 64 1 33 61 CFG=1
M  V30 65 1 62 35
M  V30 66 1 63 36
M  V30 END BOND
M  V30 END CTAB
M  END
>  <i_epik_Tot_Q>  (1) 
0

>  <i_epik_Tot_abs_Q>  (1) 
0

>  <i_i_glide_confnum>  (1) 
675

>  <i_i_glide_lignum>  (1) 
67

>  <i_i_glide_posenum>  (1) 
171

>  <i_i_glide_rotatable_bonds>  (1) 
10

>  <i_lp_mmshare_version>  (1) 
72125

>  <i_m_source_file_index>  (1) 
27

>  <i_f3d_flags>  (1) 
0

>  <num_sample>  (1) 
100

>  <b_lp_Chiralities_Consistent>  (1) 
1

>  <r_epik_Charging_Adjusted_Penalty>  (1) 
0

>  <r_epik_Ionization_Penalty>  (1) 
0.0023635104904880574

>  <r_epik_Ionization_Penalty_Charging>  (1) 
0

>  <r_epik_Ionization_Penalty_Neutral>  (1) 
0.0023635104904880574

>  <r_epik_State_Penalty>  (1) 
-0

>  <r_glide_ring_energy>  (1) 
1.5907419423697626

>  <r_i_docking_score>  (1) 
-8.6604999391647883

>  <r_i_glide_ecoul>  (1) 
-2.7034064723214186

>  <r_i_glide_eff_state_penalty>  (1) 
-0

>  <r_i_glide_einternal>  (1) 
42.204868059130902

>  <r_i_glide_emodel>  (1) 
-56.05010110630257

>  <r_i_glide_emodel_strain>  (1) 
3.234298011060929

>  <r_i_glide_energy>  (1) 
-52.482388088920615

>  <r_i_glide_erotb>  (1) 
0.59425720056655684

>  <r_i_glide_esite>  (1) 
0

>  <r_i_glide_evdw>  (1) 
-49.778981616599197

>  <r_i_glide_gscore>  (1) 
-8.6604999391647883

>  <r_i_glide_gscore_strain>  (1) 
0

>  <r_i_glide_hbond>  (1) 
-0.33287243085020607

>  <r_i_glide_ligand_efficiency>  (1) 
-0.24056944275457745

>  <r_i_glide_ligand_efficiency_ln>  (1) 
-1.8894871070570833

>  <r_i_glide_ligand_efficiency_sa>  (1) 
-0.79434279828273546

>  <r_i_glide_lipo>  (1) 
-5.1473832753082176

>  <r_i_glide_metal>  (1) 
-0

>  <r_i_glide_rewards>  (1) 
-0.88004138189475012

>  <r_lp_Energy>  (1) 
69.479281999999998

>  <r_lp_tautomer_probability>  (1) 
1

>  <s_epik_Chemistry_Notes>  (1) 
This compound has a N-S or N-O group and may undergo hydrolysis at high or low pH.

>  <s_epik_cmdline>  (1) 
J2VwaWtfcHl0aG9uJywgJy1waHQnLCAnMS4wJywgJy1waCcsICc3LjQnLCAnLXRuJywgJzgnLCAnLW1hJywgJzUwMCcsICctaW1hZScsICc8aW5maWxlLm1hZT4nLCAnLW9tYWUnLCAnPG91dGZpbGUubWFlPic=

>  <s_epik_input>  (1) 
W0NIMl0xQyg9TylbQ0hdPVtDSF1DKFtPSF0pPUMxW05IXUMoPU8pW0NASF0oW0NIMl1DMj1PKVtDSDJdW0NIMl1bQ0BIXShbQ0gyXTIpTihjM1tjSF1bY0hdW2NIXVtjSF1bY0hdMylDKD1PKWM0W2NIXVtjSF1jKE9bTkgyXSlbY0hdW2NIXTQ=

>  <s_glide_docking_method>  (1) 
confgen

>  <s_i_glide_gridfile>  (1) 
gpcr_5ht2c_6bqh_protein_autoprepared_prepared

>  <s_lp_Force_Field>  (1) 
S-OPLS

>  <s_lp_Variant>  (1) 
DiffSBDD_26_num_sample_100-1

>  <s_m_source_file>  (1) 
generated__ligand_DiffSBDD_2026-05-06_prepared.sdf

>  <GenAI_Model>  (1) 
DiffSBDD

>  <Protein>  (1) 
GPCR_5HT2C

$$$$
DiffSBDD_80_num_sample_100
     RDKit          3D

  0  0  0  0  0  0  0  0  0  0999 V3000
M  V30 BEGIN CTAB
M  V30 COUNTS 73 76 0 0 1
M  V30 BEGIN ATOM
M  V30 1 C 40.526598 29.225939 59.332163 0
M  V30 2 C 37.916160 32.222273 58.689874 0
M  V30 3 N 37.891314 32.925653 59.985014 0 CFG=1 CHG=1
M  V30 4 O 39.624197 29.224427 55.735429 0
M  V30 5 O 37.467405 30.722625 56.425855 0
M  V30 6 O 40.257060 27.986764 59.942331 0
M  V30 7 C 38.027949 35.258766 61.755768 0 CFG=2
M  V30 8 C 39.150063 34.200099 61.719429 0 CFG=2
M  V30 9 C 40.245371 30.253702 51.788455 0
M  V30 10 C 39.051428 27.049930 55.323580 0
M  V30 11 O 37.890490 26.898274 52.653498 0
M  V30 12 C 38.672377 27.982210 52.375110 0
M  V30 13 O 41.867385 32.311726 62.107924 0
M  V30 14 C 39.863148 29.986596 53.115101 0
M  V30 15 C 41.062860 34.142840 63.455783 0
M  V30 16 C 39.067376 28.249211 51.048017 0
M  V30 17 O 39.867261 26.133493 57.424443 0
M  V30 18 C 36.702048 34.536736 61.453502 0
M  V30 19 O 40.267317 29.621444 49.478633 0
M  V30 20 C 40.507051 34.732332 62.166835 0
M  V30 21 C 39.865253 29.377659 50.758130 0
M  V30 22 C 39.917647 28.523748 56.934891 0 CFG=1
M  V30 23 C 37.374249 30.807511 58.835388 0 CFG=2
M  V30 24 C 39.608464 29.461590 58.118944 0 CFG=1
M  V30 25 C 39.198907 33.537570 60.329319 0
M  V30 26 C 39.158521 27.199540 56.828201 0 CFG=1
M  V30 27 C 41.800184 32.817712 63.229120 0
M  V30 28 C 38.137112 29.523899 58.513392 0 CFG=2
M  V30 29 C 41.175992 35.660653 61.468361 0
M  V30 30 C 37.586472 37.482415 60.979264 0
M  V30 31 C 37.067405 30.021308 57.582034 0 CFG=2
M  V30 32 C 38.763252 28.493510 54.866587 0 CFG=2
M  V30 33 C 39.094889 28.830275 53.416173 0
M  V30 34 C 36.752278 33.874497 60.074583 0
M  V30 35 O 38.267398 36.255488 60.767081 0
M  V30 36 H 41.574846 29.251450 59.032158 0
M  V30 37 H 40.388206 30.016157 60.070671 0
M  V30 38 H 38.916644 32.216520 58.264747 0
M  V30 39 H 37.305439 32.768104 57.968477 0
M  V30 40 H 36.745729 31.331054 56.259361 0
M  V30 41 H 40.881826 27.849286 60.640846 0
M  V30 42 H 38.006716 35.727101 62.738470 0
M  V30 43 H 38.884756 33.419449 62.434385 0
M  V30 44 H 40.845504 31.124426 51.565481 0
M  V30 45 H 40.748350 30.432007 49.404369 0
M  V30 46 H 38.282461 26.330779 55.043896 0
M  V30 47 H 40.004203 26.710163 54.913525 0
M  V30 48 H 37.335691 26.600324 51.936782 0
M  V30 49 H 40.179559 30.649143 53.907152 0
M  V30 50 H 41.771560 34.848919 63.890536 0
M  V30 51 H 40.267589 34.003365 64.186711 0
M  V30 52 H 38.763487 27.586295 50.253466 0
M  V30 53 H 40.052101 26.378709 58.321517 0
M  V30 54 H 35.867405 35.221430 61.509958 0
M  V30 55 H 36.497567 33.774598 62.206515 0
M  V30 56 H 40.991573 28.333500 56.887114 0
M  V30 57 H 36.599921 30.721810 59.595958 0
M  V30 58 H 39.867403 30.435726 57.731071 0
M  V30 59 H 39.962931 32.760565 60.320319 0
M  V30 60 H 39.478046 34.260078 59.562781 0
M  V30 61 H 38.156063 27.257467 57.250136 0
M  V30 62 H 42.246914 32.371784 64.117855 0
M  V30 63 H 37.840981 28.664028 59.108804 0
M  V30 64 H 42.133971 36.021434 61.802756 0
M  V30 65 H 40.772817 36.068127 60.557679 0
M  V30 66 H 37.847231 38.181571 60.184854 0
M  V30 67 H 36.504459 37.357006 60.967234 0
M  V30 68 H 37.879037 37.933096 61.927517 0
M  V30 69 H 36.090518 29.558871 57.517861 0
M  V30 70 H 37.713414 28.715042 55.050056 0
M  V30 71 H 36.840711 34.636488 59.297336 0
M  V30 72 H 35.817491 33.342470 59.888277 0
M  V30 73 H 37.729780 32.214733 60.683275 0
M  V30 END ATOM
M  V30 BEGIN BOND
M  V30 1 1 3 2
M  V30 2 1 6 1
M  V30 3 1 8 7
M  V30 4 1 12 11
M  V30 5 2 14 9
M  V30 6 1 16 12
M  V30 7 1 18 7
M  V30 8 1 20 8
M  V30 9 1 20 15
M  V30 10 1 21 9
M  V30 11 2 21 16
M  V30 12 1 21 19
M  V30 13 1 22 4
M  V30 14 1 23 2
M  V30 15 1 24 1
M  V30 16 1 24 22
M  V30 17 1 25 3
M  V30 18 1 25 8
M  V30 19 1 26 10
M  V30 20 1 26 17
M  V30 21 1 26 22
M  V30 22 2 27 13
M  V30 23 1 27 15
M  V30 24 1 28 23
M  V30 25 1 28 24
M  V30 26 2 29 20
M  V30 27 1 31 5
M  V30 28 1 31 23
M  V30 29 1 31 28
M  V30 30 1 32 4
M  V30 31 1 32 10
M  V30 32 2 33 12
M  V30 33 1 33 14
M  V30 34 1 33 32
M  V30 35 1 34 3
M  V30 36 1 34 18
M  V30 37 1 35 7
M  V30 38 1 35 30
M  V30 39 1 36 1
M  V30 40 1 37 1
M  V30 41 1 38 2
M  V30 42 1 39 2
M  V30 43 1 40 5
M  V30 44 1 41 6
M  V30 45 1 7 42 CFG=1
M  V30 46 1 8 43 CFG=1
M  V30 47 1 44 9
M  V30 48 1 45 19
M  V30 49 1 46 10
M  V30 50 1 47 10
M  V30 51 1 48 11
M  V30 52 1 49 14
M  V30 53 1 50 15
M  V30 54 1 51 15
M  V30 55 1 52 16
M  V30 56 1 53 17
M  V30 57 1 54 18
M  V30 58 1 55 18
M  V30 59 1 22 56 CFG=3
M  V30 60 1 23 57 CFG=1
M  V30 61 1 24 58 CFG=3
M  V30 62 1 59 25
M  V30 63 1 60 25
M  V30 64 1 26 61 CFG=1
M  V30 65 1 62 27
M  V30 66 1 28 63 CFG=1
M  V30 67 1 64 29
M  V30 68 1 65 29
M  V30 69 1 66 30
M  V30 70 1 67 30
M  V30 71 1 68 30
M  V30 72 1 31 69 CFG=3
M  V30 73 1 32 70 CFG=1
M  V30 74 1 71 34
M  V30 75 1 72 34
M  V30 76 1 3 73 CFG=1
M  V30 END BOND
M  V30 END CTAB
M  END
>  <i_epik_Tot_Q>  (1) 
1

>  <i_epik_Tot_abs_Q>  (1) 
1

>  <i_i_glide_confnum>  (1) 
905

>  <i_i_glide_lignum>  (1) 
206

>  <i_i_glide_posenum>  (1) 
88

>  <i_i_glide_rotatable_bonds>  (1) 
15

>  <i_lp_mmshare_version>  (1) 
72125

>  <i_m_source_file_index>  (1) 
81

>  <i_f3d_flags>  (1) 
0

>  <num_sample>  (1) 
100

>  <b_lp_Chiralities_Consistent>  (1) 
1

>  <r_epik_Charging_Adjusted_Penalty>  (1) 
0.034071705691259377

>  <r_epik_Ionization_Penalty>  (1) 
0.043305258844254187

>  <r_epik_Ionization_Penalty_Charging>  (1) 
0.034071705691259377

>  <r_epik_Ionization_Penalty_Neutral>  (1) 
0.009233553152994808

>  <r_epik_State_Penalty>  (1) 
-0

>  <r_glide_ring_energy>  (1) 
0

>  <r_i_docking_score>  (1) 
-8.652725861397812

>  <r_i_glide_ecoul>  (1) 
-10.309599244361095

>  <r_i_glide_eff_state_penalty>  (1) 
-0

>  <r_i_glide_einternal>  (1) 
12.870781252881084

>  <r_i_glide_emodel>  (1) 
-67.419555356611525

>  <r_i_glide_emodel_strain>  (1) 
3.5282363532374461

>  <r_i_glide_energy>  (1) 
-49.56850143271361

>  <r_i_glide_erotb>  (1) 
0.67144220787932085

>  <r_i_glide_esite>  (1) 
-0.014379127664734679

>  <r_i_glide_evdw>  (1) 
-39.258902188352515

>  <r_i_glide_gscore>  (1) 
-8.652725861397812

>  <r_i_glide_gscore_strain>  (1) 
0

>  <r_i_glide_hbond>  (1) 
-0.43617475134427552

>  <r_i_glide_ligand_efficiency>  (1) 
-0.24722073889708035

>  <r_i_glide_ligand_efficiency_ln>  (1) 
-1.8994653634806389

>  <r_i_glide_ligand_efficiency_sa>  (1) 
-0.8086754301861695

>  <r_i_glide_lipo>  (1) 
-4.3050734140981817

>  <r_i_glide_metal>  (1) 
-0

>  <r_i_glide_rewards>  (1) 
-1.0591557800981501

>  <r_lp_Energy>  (1) 
33.571677999999999

>  <r_lp_tautomer_probability>  (1) 
1

>  <s_epik_cmdline>  (1) 
J2VwaWtfcHl0aG9uJywgJy1waHQnLCAnMS4wJywgJy1waCcsICc3LjQnLCAnLXRuJywgJzgnLCAnLW1hJywgJzUwMCcsICctaW1hZScsICc8aW5maWxlLm1hZT4nLCAnLW9tYWUnLCAnPG91dGZpbGUubWFlPic=

>  <s_epik_input>  (1) 
Tz1bQ0hdW0NIMl1DKD1bQ0gyXSlbQ0BASF0oW0NASF0oW0NIMl1bQ0gyXTEpT1tDSDNdKVtDSDJdTjFbQ0gyXVtDQEBIXTJbQ0BASF0oW0NAQEhdMltPSF0pW0NAQEhdKFtDSDJdW09IXSlbQ0BASF0zT1tDQEhdKFtDSDJdW0NASF0zW09IXSlDND1bQ0hdW0NIMl1DKD1PKVtDSF09QzRbT0hd

>  <s_glide_docking_method>  (1) 
confgen

>  <s_i_glide_gridfile>  (1) 
gpcr_5ht2c_6bqh_protein_autoprepared_prepared

>  <s_lp_Force_Field>  (1) 
S-OPLS

>  <s_lp_Variant>  (1) 
DiffSBDD_80_num_sample_100-2

>  <s_m_source_file>  (1) 
generated__ligand_DiffSBDD_2026-05-06_prepared.sdf

>  <GenAI_Model>  (1) 
DiffSBDD

>  <Protein>  (1) 
GPCR_5HT2C

$$$$
DiffSBDD_48_num_sample_100
     RDKit          3D

  0  0  0  0  0  0  0  0  0  0999 V3000
M  V30 BEGIN CTAB
M  V30 COUNTS 71 75 0 0 1
M  V30 BEGIN ATOM
M  V30 1 C 39.119469 27.434816 51.665298 0
M  V30 2 C 38.870599 34.387139 60.514330 0 CFG=1
M  V30 3 C 39.467417 30.055212 52.537583 0
M  V30 4 C 39.662305 25.693167 57.907880 0
M  V30 5 C 39.040562 26.313505 54.907774 0
M  V30 6 C 38.709814 31.214906 54.409958 0 CFG=1
M  V30 7 O 40.407509 33.084258 61.868766 0
M  V30 8 O 39.276572 30.660149 61.058611 0
M  V30 9 C 38.039237 26.778749 53.856847 0
M  V30 10 C 39.248733 31.953741 55.647103 0
M  V30 11 C 39.566371 31.419098 53.072883 0
M  V30 12 N 38.519698 29.748378 54.581182 0
M  V30 13 C 38.436224 33.102715 57.707424 0
M  V30 14 C 38.809543 31.725035 60.654107 0
M  V30 15 C 36.397358 30.958452 60.104132 0
M  V30 16 C 38.654007 25.023779 55.647716 0 CFG=2
M  V30 17 N 38.267398 31.978787 56.757192 0 CHG=1
M  V30 18 C 37.439885 33.033395 58.895601 0 CFG=2
M  V30 19 C 37.275176 25.079797 56.295769 0
M  V30 20 C 39.744972 28.376708 50.823963 0
M  V30 21 C 37.273837 29.296595 55.134293 0
M  V30 22 O 37.310510 30.526607 59.083476 0
M  V30 23 O 36.331795 24.427552 55.853468 0
M  V30 24 O 37.067405 35.409828 59.199227 0
M  V30 25 C 37.477616 34.230089 59.862784 0 CFG=2
M  V30 26 C 37.123403 25.978045 57.519808 0
M  V30 27 C 38.915855 35.521452 61.556481 0
M  V30 28 C 39.451684 33.074897 61.092911 0
M  V30 29 C 37.602424 31.777554 59.730209 0 CFG=1
M  V30 30 C 39.695137 24.721416 56.725307 0
M  V30 31 C 38.676633 27.819661 52.952292 0
M  V30 32 C 38.879949 29.177306 53.361206 0
M  V30 33 C 39.917266 29.698524 51.261245 0
M  V30 34 C 38.267390 25.753731 58.531674 0
M  V30 35 H 38.990205 26.421446 51.327475 0
M  V30 36 H 39.580100 34.669176 59.739107 0
M  V30 37 H 39.984951 26.690156 57.607847 0
M  V30 38 H 40.378645 25.360949 58.653485 0
M  V30 39 H 39.992662 26.124913 54.409108 0
M  V30 40 H 39.232529 27.132079 55.598343 0
M  V30 41 H 37.719984 31.622555 54.195622 0
M  V30 42 H 37.066904 27.021049 54.263934 0
M  V30 43 H 37.786818 25.937298 53.225832 0
M  V30 44 H 39.467140 32.982683 55.360374 0
M  V30 45 H 40.188622 31.513925 55.978445 0
M  V30 46 H 39.084795 32.105698 52.382709 0
M  V30 47 H 40.617940 31.621423 53.245733 0
M  V30 48 H 38.267341 34.026599 57.155089 0
M  V30 49 H 39.467429 33.121601 58.057219 0
M  V30 50 H 36.429178 30.421430 61.046366 0
M  V30 51 H 35.416462 31.250543 59.734301 0
M  V30 52 H 38.317229 31.099956 57.256242 0
M  V30 53 H 36.434354 33.019678 58.480420 0
M  V30 54 H 40.087698 28.082586 49.853485 0
M  V30 55 H 36.658064 28.977093 54.309471 0
M  V30 56 H 37.467397 28.498973 55.844621 0
M  V30 57 H 36.738563 30.088552 55.658057 0
M  V30 58 H 37.108737 27.016143 57.201696 0
M  V30 59 H 36.241998 35.262491 58.757699 0
M  V30 60 H 36.741086 34.064796 60.652130 0
M  V30 61 H 36.158725 25.776123 57.982493 0
M  V30 62 H 38.641299 24.207271 54.925818 0
M  V30 63 H 39.921011 35.663801 61.956929 0
M  V30 64 H 38.612959 36.472126 61.118190 0
M  V30 65 H 38.253824 35.317620 62.394654 0
M  V30 66 H 39.554022 23.705292 57.093854 0
M  V30 67 H 40.667404 24.774505 56.255087 0
M  V30 68 H 40.385861 30.431497 50.620274 0
M  V30 69 H 38.267400 26.546756 59.278445 0
M  V30 70 H 38.056031 24.821487 59.051328 0
M  V30 71 H 37.322615 32.042078 56.384526 0
M  V30 END ATOM
M  V30 BEGIN BOND
M  V30 1 1 9 5
M  V30 2 1 10 6
M  V30 3 1 11 3
M  V30 4 1 11 6
M  V30 5 1 12 6
M  V30 6 2 14 8
M  V30 7 1 16 5
M  V30 8 1 17 10
M  V30 9 1 17 13
M  V30 10 1 18 13
M  V30 11 1 19 16
M  V30 12 2 20 1
M  V30 13 1 21 12
M  V30 14 1 22 15
M  V30 15 2 23 19
M  V30 16 1 25 2
M  V30 17 1 25 18
M  V30 18 1 25 24
M  V30 19 1 26 19
M  V30 20 1 27 2
M  V30 21 1 28 2
M  V30 22 2 28 7
M  V30 23 1 28 14
M  V30 24 1 29 14
M  V30 25 1 29 15
M  V30 26 1 29 18
M  V30 27 1 29 22 CFG=3
M  V30 28 1 30 4
M  V30 29 1 30 16
M  V30 30 1 31 1
M  V30 31 1 31 9
M  V30 32 1 32 3
M  V30 33 1 32 12
M  V30 34 2 32 31
M  V30 35 2 33 3
M  V30 36 1 33 20
M  V30 37 1 34 4
M  V30 38 1 34 26
M  V30 39 1 35 1
M  V30 40 1 2 36 CFG=3
M  V30 41 1 37 4
M  V30 42 1 38 4
M  V30 43 1 39 5
M  V30 44 1 40 5
M  V30 45 1 6 41 CFG=3
M  V30 46 1 42 9
M  V30 47 1 43 9
M  V30 48 1 44 10
M  V30 49 1 45 10
M  V30 50 1 46 11
M  V30 51 1 47 11
M  V30 52 1 48 13
M  V30 53 1 49 13
M  V30 54 1 50 15
M  V30 55 1 51 15
M  V30 56 1 52 17
M  V30 57 1 18 53 CFG=3
M  V30 58 1 54 20
M  V30 59 1 55 21
M  V30 60 1 56 21
M  V30 61 1 57 21
M  V30 62 1 58 26
M  V30 63 1 59 24
M  V30 64 1 25 60 CFG=1
M  V30 65 1 61 26
M  V30 66 1 16 62 CFG=3
M  V30 67 1 63 27
M  V30 68 1 64 27
M  V30 69 1 65 27
M  V30 70 1 66 30
M  V30 71 1 67 30
M  V30 72 1 68 33
M  V30 73 1 69 34
M  V30 74 1 70 34
M  V30 75 1 71 17
M  V30 END BOND
M  V30 END CTAB
M  END
>  <i_epik_Tot_Q>  (1) 
1

>  <i_epik_Tot_abs_Q>  (1) 
1

>  <i_i_glide_confnum>  (1) 
1025

>  <i_i_glide_lignum>  (1) 
132

>  <i_i_glide_posenum>  (1) 
20

>  <i_i_glide_rotatable_bonds>  (1) 
8

>  <i_lp_mmshare_version>  (1) 
72125

>  <i_m_source_file_index>  (1) 
49

>  <i_f3d_flags>  (1) 
0

>  <num_sample>  (1) 
100

>  <b_lp_Chiralities_Consistent>  (1) 
1

>  <r_epik_Charging_Adjusted_Penalty>  (1) 
0.027363245261170371

>  <r_epik_Ionization_Penalty>  (1) 
0.0277407901544389

>  <r_epik_Ionization_Penalty_Charging>  (1) 
0.027363245261170371

>  <r_epik_Ionization_Penalty_Neutral>  (1) 
0.00037754489326852995

>  <r_epik_State_Penalty>  (1) 
-0

>  <r_glide_ring_energy>  (1) 
0.34311052289791549

>  <r_i_docking_score>  (1) 
-8.6508817308484893

>  <r_i_glide_ecoul>  (1) 
-4.0507016886218734

>  <r_i_glide_eff_state_penalty>  (1) 
-0

>  <r_i_glide_einternal>  (1) 
8.4444172809772269

>  <r_i_glide_emodel>  (1) 
-70.082276270858443

>  <r_i_glide_emodel_strain>  (1) 
0.11836851888152466

>  <r_i_glide_energy>  (1) 
-47.084472110371514

>  <r_i_glide_erotb>  (1) 
0.64114366914740972

>  <r_i_glide_esite>  (1) 
-0.10000000000000001

>  <r_i_glide_evdw>  (1) 
-43.033770421749644

>  <r_i_glide_gscore>  (1) 
-8.6508817308484893

>  <r_i_glide_gscore_strain>  (1) 
0

>  <r_i_glide_hbond>  (1) 
-0.18698915691719911

>  <r_i_glide_ligand_efficiency>  (1) 
-0.25443769796613203

>  <r_i_glide_ligand_efficiency_ln>  (1) 
-1.9112224233579118

>  <r_i_glide_ligand_efficiency_sa>  (1) 
-0.82427936902095733

>  <r_i_glide_lipo>  (1) 
-4.4497240133767084

>  <r_i_glide_metal>  (1) 
-0

>  <r_i_glide_rewards>  (1) 
-1.7960184553212302

>  <r_lp_Energy>  (1) 
31.271559

>  <r_lp_tautomer_probability>  (1) 
1

>  <s_epik_cmdline>  (1) 
J2VwaWtfcHl0aG9uJywgJy1waHQnLCAnMS4wJywgJy1waCcsICc3LjQnLCAnLXRuJywgJzgnLCAnLW1hJywgJzUwMCcsICctaW1hZScsICc8aW5maWxlLm1hZT4nLCAnLW9tYWUnLCAnPG91dGZpbGUubWFlPic=

>  <s_epik_input>  (1) 
W0NIMl0xW0NIMl1bQ0gyXVtDSDJdQyhbT0hdKT1DMVtDSDJdW0NIMl1jKFtjSF1bY0hdW2NIXTIpYyhjMjMpTihbQ0gzXSlbQ0BIXShbQ0gyXTMpW0NIMl1bTkhdW0NIMl1bQ0BASF00W0NASF0oW09IXSlbQ0BASF0oW0NIM10pQyg9TylDKD1PKVtDQEBdNDVbQ0gyXU81

>  <s_glide_docking_method>  (1) 
confgen

>  <s_i_glide_gridfile>  (1) 
gpcr_5ht2c_6bqh_protein_autoprepared_prepared

>  <s_lp_Force_Field>  (1) 
S-OPLS

>  <s_lp_Variant>  (1) 
DiffSBDD_48_num_sample_100-2

>  <s_m_source_file>  (1) 
generated__ligand_DiffSBDD_2026-05-06_prepared.sdf

>  <GenAI_Model>  (1) 
DiffSBDD

>  <Protein>  (1) 
GPCR_5HT2C

$$$$
DiffSBDD_71_num_sample_100
     RDKit          3D

  0  0  0  0  0  0  0  0  0  0999 V3000
M  V30 BEGIN CTAB
M  V30 COUNTS 57 61 0 0 1
M  V30 BEGIN ATOM
M  V30 1 C 37.943481 30.883914 59.392010 0 CFG=2
M  V30 2 C 40.143278 28.426381 61.689649 0
M  V30 3 C 40.089293 32.749104 62.563380 0
M  V30 4 N 37.866668 30.627170 57.955267 0
M  V30 5 C 41.612792 32.230781 64.464023 0
M  V30 6 C 39.724066 29.934483 52.495298 0
M  V30 7 C 38.646987 27.444455 55.287974 0
M  V30 8 C 41.640807 30.711498 64.208673 0
M  V30 9 C 37.884865 32.369395 59.699647 0
M  V30 10 C 40.002251 29.942244 51.117551 0
M  V30 11 C 39.072021 27.697889 50.915014 0
M  V30 12 N 39.558521 30.778970 61.355535 0
M  V30 13 C 39.433178 32.170911 61.577657 0
M  V30 14 O 42.266062 32.689969 65.398697 0
M  V30 15 C 37.987378 32.745058 55.521368 0
M  V30 16 C 40.788477 33.192792 63.586351 0
M  V30 17 C 38.177863 25.054245 56.443424 0
M  V30 18 C 38.846928 28.798700 54.598142 0 CFG=1
M  V30 19 C 38.605083 31.356599 55.705418 0 CFG=1
M  V30 20 C 40.960470 30.181300 63.216862 0
M  V30 21 C 39.004462 31.104260 57.170225 0
M  V30 22 C 39.116667 28.804952 53.091513 0
M  V30 23 C 40.246646 29.856684 62.159876 0
M  V30 24 C 38.788705 27.684896 52.292023 0
M  V30 25 S 39.067405 28.427744 60.242191 0
M  V30 26 N 37.238439 25.605757 55.632471 0
M  V30 27 S 37.559933 30.019631 55.016876 0
M  V30 28 C 39.650723 26.910745 56.117236 0
M  V30 29 C 39.405722 25.674097 56.714532 0
M  V30 30 C 39.191648 30.226785 60.049567 0 CFG=1
M  V30 31 N 37.468148 26.804238 55.054069 0
M  V30 32 C 39.680495 28.825323 50.329466 0
M  V30 33 C 38.572103 32.941095 60.699061 0
M  V30 34 H 37.046810 30.447869 59.832980 0
M  V30 35 H 39.721744 27.794016 62.469266 0
M  V30 36 H 41.128251 28.041247 61.422880 0
M  V30 37 H 36.991980 31.004123 57.576034 0
M  V30 38 H 39.980189 30.792033 53.096682 0
M  V30 39 H 42.233255 30.101830 64.873919 0
M  V30 40 H 37.247686 32.974754 59.069192 0
M  V30 41 H 40.467397 30.806604 50.665185 0
M  V30 42 H 38.825206 26.840157 50.305506 0
M  V30 43 H 38.753643 33.518643 55.560280 0
M  V30 44 H 37.284532 32.970980 56.318499 0
M  V30 45 H 37.470609 32.835065 54.565714 0
M  V30 46 H 40.798205 34.240444 63.847898 0
M  V30 47 H 37.937403 24.096096 56.879985 0
M  V30 48 H 39.769065 29.181177 55.034765 0
M  V30 49 H 39.522726 31.386171 55.122073 0
M  V30 50 H 39.425529 32.022128 57.582500 0
M  V30 51 H 39.794455 30.353323 57.213191 0
M  V30 52 H 38.328266 26.815614 52.730555 0
M  V30 53 H 40.578026 27.437968 56.287487 0
M  V30 54 H 40.134912 25.211340 57.362275 0
M  V30 55 H 40.073426 30.411684 59.453206 0
M  V30 56 H 39.897090 28.835367 49.273033 0
M  V30 57 H 38.475725 34.006135 60.857437 0
M  V30 END ATOM
M  V30 BEGIN BOND
M  V30 1 1 4 1
M  V30 2 1 8 5
M  V30 3 1 9 1
M  V30 4 1 10 6
M  V30 5 2 13 3
M  V30 6 1 13 12
M  V30 7 2 14 5
M  V30 8 2 16 3
M  V30 9 1 16 5
M  V30 10 1 18 7
M  V30 11 1 19 15
M  V30 12 2 20 8
M  V30 13 1 21 4
M  V30 14 1 21 19
M  V30 15 2 22 6
M  V30 16 1 22 18
M  V30 17 1 23 2
M  V30 18 1 23 12
M  V30 19 2 23 20
M  V30 20 2 24 11
M  V30 21 1 24 22
M  V30 22 1 25 2
M  V30 23 1 26 17
M  V30 24 1 27 18
M  V30 25 1 27 19
M  V30 26 2 28 7
M  V30 27 2 29 17
M  V30 28 1 29 28
M  V30 29 1 30 1
M  V30 30 1 30 12
M  V30 31 1 30 25
M  V30 32 1 31 7
M  V30 33 2 31 26
M  V30 34 2 32 10
M  V30 35 1 32 11
M  V30 36 2 33 9
M  V30 37 1 33 13
M  V30 38 1 1 34 CFG=1
M  V30 39 1 35 2
M  V30 40 1 36 2
M  V30 41 1 37 4
M  V30 42 1 38 6
M  V30 43 1 39 8
M  V30 44 1 40 9
M  V30 45 1 41 10
M  V30 46 1 42 11
M  V30 47 1 43 15
M  V30 48 1 44 15
M  V30 49 1 45 15
M  V30 50 1 46 16
M  V30 51 1 47 17
M  V30 52 1 18 48 CFG=1
M  V30 53 1 19 49 CFG=3
M  V30 54 1 50 21
M  V30 55 1 51 21
M  V30 56 1 52 24
M  V30 57 1 53 28
M  V30 58 1 54 29
M  V30 59 1 30 55 CFG=3
M  V30 60 1 56 32
M  V30 61 1 57 33
M  V30 END BOND
M  V30 END CTAB
M  END
>  <i_epik_Tot_Q>  (1) 
0

>  <i_epik_Tot_abs_Q>  (1) 
0

>  <i_i_glide_confnum>  (1) 
153

>  <i_i_glide_lignum>  (1) 
180

>  <i_i_glide_posenum>  (1) 
285

>  <i_i_glide_rotatable_bonds>  (1) 
7

>  <i_lp_mmshare_version>  (1) 
72125

>  <i_m_source_file_index>  (1) 
72

>  <i_f3d_flags>  (1) 
0

>  <num_sample>  (1) 
100

>  <b_lp_Chiralities_Consistent>  (1) 
1

>  <r_epik_Charging_Adjusted_Penalty>  (1) 
0.0075576566344756546

>  <r_epik_Ionization_Penalty>  (1) 
0.0075696552327297675

>  <r_epik_Ionization_Penalty_Charging>  (1) 
0

>  <r_epik_Ionization_Penalty_Neutral>  (1) 
0.0075696552327297675

>  <r_epik_State_Penalty>  (1) 
0.0075576566344756546

>  <r_glide_ring_energy>  (1) 
0

>  <r_i_docking_score>  (1) 
-8.6074178656778209

>  <r_i_glide_ecoul>  (1) 
-3.7908766284945115

>  <r_i_glide_eff_state_penalty>  (1) 
0.0075576566344756546

>  <r_i_glide_einternal>  (1) 
18.198095288987439

>  <r_i_glide_emodel>  (1) 
-80.099564535084923

>  <r_i_glide_emodel_strain>  (1) 
0.45492359634950219

>  <r_i_glide_energy>  (1) 
-58.985212730444339

>  <r_i_glide_erotb>  (1) 
0.54314142718381586

>  <r_i_glide_esite>  (1) 
0

>  <r_i_glide_evdw>  (1) 
-55.19433610194983

>  <r_i_glide_gscore>  (1) 
-8.6149755223122959

>  <r_i_glide_gscore_strain>  (1) 
0

>  <r_i_glide_hbond>  (1) 
-0.16

>  <r_i_glide_ligand_efficiency>  (1) 
-0.2608308444144794

>  <r_i_glide_ligand_efficiency_ln>  (1) 
-1.914245166502204

>  <r_i_glide_ligand_efficiency_sa>  (1) 
-0.83662388778124297

>  <r_i_glide_lipo>  (1) 
-4.3563477377607143

>  <r_i_glide_metal>  (1) 
-0

>  <r_i_glide_rewards>  (1) 
-1.3134209123637288

>  <r_lp_Energy>  (1) 
30.938364999999997

>  <r_lp_tautomer_probability>  (1) 
1

>  <s_epik_Chemistry_Notes>  (1) 
This compound contains an acetal/aminal-like group ( X-CH(R)-Y where X, Y are N, S, or O) that may be acid/base labile, releasing an aldehyde.

>  <s_epik_cmdline>  (1) 
J2VwaWtfcHl0aG9uJywgJy1waHQnLCAnMS4wJywgJy1waCcsICc3LjQnLCAnLXRuJywgJzgnLCAnLW1hJywgJzUwMCcsICctaW1hZScsICc8aW5maWxlLm1hZT4nLCAnLW9tYWUnLCAnPG91dGZpbGUubWFlPic=

>  <s_epik_input>  (1) 
W2NIXTFbY0hdW2NIXVtjSF1bY0hdYzFbQ0BIXShjMltjSF1bY0hdW2NIXW5uMilTW0NAQEhdKFtDSDNdKVtDSDJdW05IXVtDQEhdKFtDSF09W0NIXTMpW0NAQEhdNFNbQ0gyXUM1PUM9W0NIXUMoPU8pW0NIXT1DPUMzTjQ1

>  <s_glide_docking_method>  (1) 
confgen

>  <s_i_glide_gridfile>  (1) 
gpcr_5ht2c_6bqh_protein_autoprepared_prepared

>  <s_lp_Force_Field>  (1) 
S-OPLS

>  <s_lp_Variant>  (1) 
DiffSBDD_71_num_sample_100-1

>  <s_m_source_file>  (1) 
generated__ligand_DiffSBDD_2026-05-06_prepared.sdf

>  <GenAI_Model>  (1) 
DiffSBDD

>  <Protein>  (1) 
GPCR_5HT2C

$$$$
DiffSBDD_71_num_sample_100
     RDKit          3D

  0  0  0  0  0  0  0  0  0  0999 V3000
M  V30 BEGIN CTAB
M  V30 COUNTS 57 61 0 0 1
M  V30 BEGIN ATOM
M  V30 1 C 37.367461 31.563483 60.541882 0 CFG=2
M  V30 2 C 40.168968 33.757458 62.403089 0
M  V30 3 C 36.896036 35.777729 60.253492 0
M  V30 4 N 37.783870 30.344161 59.853519 0
M  V30 5 C 37.867403 37.913317 61.065133 0
M  V30 6 C 37.358476 26.092708 55.890526 0
M  V30 7 C 38.817472 28.382514 53.699733 0
M  V30 8 C 39.017785 37.250095 61.853502 0
M  V30 9 C 36.202428 32.242559 59.853501 0
M  V30 10 C 37.412404 24.849421 56.536675 0
M  V30 11 C 39.755872 25.221430 57.055156 0
M  V30 12 N 38.182597 33.930965 60.987317 0
M  V30 13 C 37.052863 34.474800 60.333591 0
M  V30 14 O 37.785030 39.139453 61.053501 0
M  V30 15 C 40.029066 28.834250 58.786843 0
M  V30 16 C 36.822247 37.088292 60.299054 0
M  V30 17 C 39.467163 28.372966 51.081698 0
M  V30 18 C 38.428602 28.304503 55.182967 0 CFG=1
M  V30 19 C 38.822153 29.243995 57.911862 0 CFG=1
M  V30 20 C 39.157080 35.943465 61.874806 0
M  V30 21 C 38.124940 30.509804 58.440532 0
M  V30 22 C 38.505698 26.914717 55.832340 0
M  V30 23 C 39.133986 34.634320 61.743199 0
M  V30 24 C 39.713282 26.461358 56.400128 0
M  V30 25 S 39.607266 32.062149 62.161070 0
M  V30 26 N 39.075024 27.221430 51.683501 0
M  V30 27 S 39.373000 29.520146 56.191258 0
M  V30 28 C 39.204520 29.605910 53.115014 0
M  V30 29 C 39.546688 29.595096 51.761952 0
M  V30 30 C 38.564233 32.535664 60.754536 0 CFG=1
M  V30 31 N 38.757137 27.221430 52.994631 0
M  V30 32 C 38.607270 24.421429 57.128135 0
M  V30 33 C 36.075997 33.571298 59.762554 0
M  V30 34 H 36.998719 31.261635 61.521350 0
M  V30 35 H 40.266944 33.974750 63.467254 0
M  V30 36 H 41.138989 33.902081 61.925469 0
M  V30 37 H 37.066569 29.638704 59.936930 0
M  V30 38 H 36.434602 26.421428 55.453498 0
M  V30 39 H 39.703485 37.897072 62.380845 0
M  V30 40 H 35.449179 31.601706 59.418214 0
M  V30 41 H 36.531328 24.228179 56.587856 0
M  V30 42 H 40.667403 24.885270 57.509275 0
M  V30 43 H 39.729102 28.602002 59.808595 0
M  V30 44 H 40.777299 29.621429 58.835585 0
M  V30 45 H 40.532086 27.947325 58.412065 0
M  V30 46 H 36.018726 37.621425 59.817852 0
M  V30 47 H 39.717969 28.310256 50.033154 0
M  V30 48 H 37.394166 28.636490 55.229138 0
M  V30 49 H 38.094334 28.433012 57.929477 0
M  V30 50 H 37.222818 30.708924 57.859759 0
M  V30 51 H 38.786129 31.360566 58.289306 0
M  V30 52 H 40.601075 27.073905 56.352568 0
M  V30 53 H 39.240141 30.519496 53.689090 0
M  V30 54 H 39.858188 30.497083 51.256082 0
M  V30 55 H 39.206445 32.566052 59.876895 0
M  V30 56 H 38.645971 23.471966 57.639156 0
M  V30 57 H 35.214728 33.980293 59.251919 0
M  V30 END ATOM
M  V30 BEGIN BOND
M  V30 1 1 4 1
M  V30 2 1 8 5
M  V30 3 1 9 1
M  V30 4 1 10 6
M  V30 5 2 13 3
M  V30 6 1 13 12
M  V30 7 2 14 5
M  V30 8 2 16 3
M  V30 9 1 16 5
M  V30 10 1 18 7
M  V30 11 1 19 15
M  V30 12 2 20 8
M  V30 13 1 21 4
M  V30 14 1 21 19
M  V30 15 2 22 6
M  V30 16 1 22 18
M  V30 17 1 23 2
M  V30 18 1 23 12
M  V30 19 2 23 20
M  V30 20 2 24 11
M  V30 21 1 24 22
M  V30 22 1 25 2
M  V30 23 1 26 17
M  V30 24 1 27 18
M  V30 25 1 27 19
M  V30 26 2 28 7
M  V30 27 2 29 17
M  V30 28 1 29 28
M  V30 29 1 30 1
M  V30 30 1 30 12
M  V30 31 1 30 25
M  V30 32 1 31 7
M  V30 33 2 31 26
M  V30 34 2 32 10
M  V30 35 1 32 11
M  V30 36 2 33 9
M  V30 37 1 33 13
M  V30 38 1 1 34 CFG=1
M  V30 39 1 35 2
M  V30 40 1 36 2
M  V30 41 1 37 4
M  V30 42 1 38 6
M  V30 43 1 39 8
M  V30 44 1 40 9
M  V30 45 1 41 10
M  V30 46 1 42 11
M  V30 47 1 43 15
M  V30 48 1 44 15
M  V30 49 1 45 15
M  V30 50 1 46 16
M  V30 51 1 47 17
M  V30 52 1 18 48 CFG=3
M  V30 53 1 19 49 CFG=3
M  V30 54 1 50 21
M  V30 55 1 51 21
M  V30 56 1 52 24
M  V30 57 1 53 28
M  V30 58 1 54 29
M  V30 59 1 30 55 CFG=3
M  V30 60 1 56 32
M  V30 61 1 57 33
M  V30 END BOND
M  V30 END CTAB
M  END
>  <i_epik_Tot_Q>  (1) 
0

>  <i_epik_Tot_abs_Q>  (1) 
0

>  <i_i_glide_confnum>  (1) 
320

>  <i_i_glide_lignum>  (1) 
180

>  <i_i_glide_posenum>  (1) 
329

>  <i_i_glide_rotatable_bonds>  (1) 
7

>  <i_lp_mmshare_version>  (1) 
72125

>  <i_m_source_file_index>  (1) 
72

>  <i_f3d_flags>  (1) 
0

>  <num_sample>  (1) 
100

>  <b_lp_Chiralities_Consistent>  (1) 
1

>  <r_epik_Charging_Adjusted_Penalty>  (1) 
0.0075576566344756546

>  <r_epik_Ionization_Penalty>  (1) 
0.0075696552327297675

>  <r_epik_Ionization_Penalty_Charging>  (1) 
0

>  <r_epik_Ionization_Penalty_Neutral>  (1) 
0.0075696552327297675

>  <r_epik_State_Penalty>  (1) 
0.0075576566344756546

>  <r_glide_ring_energy>  (1) 
0

>  <r_i_docking_score>  (1) 
-8.6043848169221171

>  <r_i_glide_ecoul>  (1) 
-0.010674270344745107

>  <r_i_glide_eff_state_penalty>  (1) 
0.0075576566344756546

>  <r_i_glide_einternal>  (1) 
14.300632713410698

>  <r_i_glide_emodel>  (1) 
-78.934334471151047

>  <r_i_glide_emodel_strain>  (1) 
0.57336750487553445

>  <r_i_glide_energy>  (1) 
-56.000492592337586

>  <r_i_glide_erotb>  (1) 
0.54314142718381586

>  <r_i_glide_esite>  (1) 
0

>  <r_i_glide_evdw>  (1) 
-55.989818321992843

>  <r_i_glide_gscore>  (1) 
-8.6119424735565921

>  <r_i_glide_gscore_strain>  (1) 
0

>  <r_i_glide_hbond>  (1) 
0

>  <r_i_glide_ligand_efficiency>  (1) 
-0.26073893384612479

>  <r_i_glide_ligand_efficiency_ln>  (1) 
-1.9135706321632215

>  <r_i_glide_ligand_efficiency_sa>  (1) 
-0.83632908147795593

>  <r_i_glide_lipo>  (1) 
-5.0832830021046522

>  <r_i_glide_metal>  (1) 
-0

>  <r_i_glide_rewards>  (1) 
-1.2707088419844006

>  <r_lp_Energy>  (1) 
30.938364999999997

>  <r_lp_tautomer_probability>  (1) 
1

>  <s_epik_Chemistry_Notes>  (1) 
This compound contains an acetal/aminal-like group ( X-CH(R)-Y where X, Y are N, S, or O) that may be acid/base labile, releasing an aldehyde.

>  <s_epik_cmdline>  (1) 
J2VwaWtfcHl0aG9uJywgJy1waHQnLCAnMS4wJywgJy1waCcsICc3LjQnLCAnLXRuJywgJzgnLCAnLW1hJywgJzUwMCcsICctaW1hZScsICc8aW5maWxlLm1hZT4nLCAnLW9tYWUnLCAnPG91dGZpbGUubWFlPic=

>  <s_epik_input>  (1) 
W2NIXTFbY0hdW2NIXVtjSF1bY0hdYzFbQ0BIXShjMltjSF1bY0hdW2NIXW5uMilTW0NAQEhdKFtDSDNdKVtDSDJdW05IXVtDQEhdKFtDSF09W0NIXTMpW0NAQEhdNFNbQ0gyXUM1PUM9W0NIXUMoPU8pW0NIXT1DPUMzTjQ1

>  <s_glide_docking_method>  (1) 
confgen

>  <s_i_glide_gridfile>  (1) 
gpcr_5ht2c_6bqh_protein_autoprepared_prepared

>  <s_lp_Force_Field>  (1) 
S-OPLS

>  <s_lp_Variant>  (1) 
DiffSBDD_71_num_sample_100-1

>  <s_m_source_file>  (1) 
generated__ligand_DiffSBDD_2026-05-06_prepared.sdf

>  <GenAI_Model>  (1) 
DiffSBDD

>  <Protein>  (1) 
GPCR_5HT2C

$$$$
DiffSBDD_24_num_sample_100
     RDKit          3D

  0  0  0  0  0  0  0  0  0  0999 V3000
M  V30 BEGIN CTAB
M  V30 COUNTS 63 65 0 0 1
M  V30 BEGIN ATOM
M  V30 1 C 38.770370 31.063748 58.115950 0
M  V30 2 O 36.267396 34.821437 61.234678 0
M  V30 3 C 40.186863 35.893130 61.922285 0
M  V30 4 C 39.867481 28.753308 49.853923 0
M  V30 5 C 40.223139 31.054979 50.817582 0
M  V30 6 N 38.432397 34.211801 61.136799 0
M  V30 7 C 38.130803 32.910743 60.512392 0
M  V30 8 C 38.571973 27.746192 56.175992 0
M  V30 9 C 39.077559 29.603449 54.609952 0
M  V30 10 N 39.641102 29.722252 50.909701 0
M  V30 11 O 36.272661 38.021427 61.053499 0
M  V30 12 N 39.118590 36.440921 62.770502 0 CHG=1
M  V30 13 C 37.549315 25.992212 57.772132 0
M  V30 14 C 37.626640 37.630956 61.144294 0
M  V30 15 C 39.357013 30.087843 53.320986 0
M  V30 16 C 37.785526 36.440927 62.126012 0 CFG=1
M  V30 17 C 39.059063 30.506151 55.680073 0
M  V30 18 N 37.467402 31.692318 58.402014 0 CHG=1
M  V30 19 C 38.813988 28.220878 54.822856 0
M  V30 20 C 39.351312 29.220675 52.208509 0
M  V30 21 C 38.389562 26.277141 56.541329 0
M  V30 22 C 37.445760 35.090810 61.447479 0
M  V30 23 C 38.526101 28.704678 57.226179 0
M  V30 24 C 38.944828 25.261294 55.844867 0
M  V30 25 C 39.031259 27.855926 52.399563 0
M  V30 26 C 38.762160 27.358769 53.688877 0
M  V30 27 C 39.841719 34.458228 61.491081 0
M  V30 28 C 37.576408 33.014183 59.067347 0
M  V30 29 C 38.772195 30.067767 56.975404 0
M  V30 30 H 39.467380 31.854596 57.838954 0
M  V30 31 H 39.156153 30.585681 59.016891 0
M  V30 32 H 41.133241 35.911923 62.464907 0
M  V30 33 H 40.321497 36.532320 61.053502 0
M  V30 34 H 38.911742 28.421421 49.457354 0
M  V30 35 H 40.423343 29.207097 49.033840 0
M  V30 36 H 40.433482 27.890015 50.203459 0
M  V30 37 H 39.468856 31.811046 51.038119 0
M  V30 38 H 41.067407 31.173659 51.496399 0
M  V30 39 H 40.591565 31.245926 49.810059 0
M  V30 40 H 39.039363 32.308487 60.524822 0
M  V30 41 H 37.419211 32.371639 61.140330 0
M  V30 42 H 36.173028 38.718977 60.412054 0
M  V30 43 H 39.357993 37.378044 63.064261 0
M  V30 44 H 36.590331 26.502687 57.715108 0
M  V30 45 H 37.351513 24.924768 57.874293 0
M  V30 46 H 38.073258 26.305256 58.672001 0
M  V30 47 H 37.974947 37.362171 60.146430 0
M  V30 48 H 38.209463 38.497724 61.453598 0
M  V30 49 H 39.568446 31.137130 53.188146 0
M  V30 50 H 37.078827 36.581754 62.945816 0
M  V30 51 H 39.261558 31.552893 55.500790 0
M  V30 52 H 36.914186 31.069509 58.970902 0
M  V30 53 H 38.338166 28.384108 58.237253 0
M  V30 54 H 38.775114 24.237562 56.143068 0
M  V30 55 H 39.577646 25.424661 54.995656 0
M  V30 56 H 38.985938 27.183002 51.557519 0
M  V30 57 H 38.492826 26.333023 53.785569 0
M  V30 58 H 40.090872 33.777658 62.307274 0
M  V30 59 H 40.478373 34.177613 60.653523 0
M  V30 60 H 36.579168 33.455190 59.072453 0
M  V30 61 H 38.196849 33.675053 58.460520 0
M  V30 62 H 36.920908 31.818547 57.543897 0
M  V30 63 H 39.059094 35.861709 63.596669 0
M  V30 END ATOM
M  V30 BEGIN BOND
M  V30 1 1 7 6
M  V30 2 1 10 4
M  V30 3 1 10 5
M  V30 4 1 12 3
M  V30 5 1 14 11
M  V30 6 1 15 9
M  V30 7 1 16 12
M  V30 8 1 16 14
M  V30 9 2 17 9
M  V30 10 1 18 1
M  V30 11 2 19 8
M  V30 12 1 19 9
M  V30 13 1 20 10
M  V30 14 2 20 15
M  V30 15 1 21 8
M  V30 16 1 21 13
M  V30 17 2 22 2
M  V30 18 1 22 6
M  V30 19 1 22 16
M  V30 20 1 23 8
M  V30 21 2 24 21
M  V30 22 1 25 20
M  V30 23 1 26 19
M  V30 24 2 26 25
M  V30 25 1 27 3
M  V30 26 1 27 6
M  V30 27 1 28 7
M  V30 28 1 28 18
M  V30 29 1 29 1
M  V30 30 1 29 17
M  V30 31 2 29 23
M  V30 32 1 30 1
M  V30 33 1 31 1
M  V30 34 1 32 3
M  V30 35 1 33 3
M  V30 36 1 34 4
M  V30 37 1 35 4
M  V30 38 1 36 4
M  V30 39 1 37 5
M  V30 40 1 38 5
M  V30 41 1 39 5
M  V30 42 1 40 7
M  V30 43 1 41 7
M  V30 44 1 42 11
M  V30 45 1 43 12
M  V30 46 1 44 13
M  V30 47 1 45 13
M  V30 48 1 46 13
M  V30 49 1 47 14
M  V30 50 1 48 14
M  V30 51 1 49 15
M  V30 52 1 16 50 CFG=1
M  V30 53 1 51 17
M  V30 54 1 52 18
M  V30 55 1 53 23
M  V30 56 1 54 24
M  V30 57 1 55 24
M  V30 58 1 56 25
M  V30 59 1 57 26
M  V30 60 1 58 27
M  V30 61 1 59 27
M  V30 62 1 60 28
M  V30 63 1 61 28
M  V30 64 1 62 18
M  V30 65 1 63 12
M  V30 END BOND
M  V30 END CTAB
M  END
>  <i_epik_Tot_Q>  (1) 
2

>  <i_epik_Tot_abs_Q>  (1) 
2

>  <i_i_glide_confnum>  (1) 
193

>  <i_i_glide_lignum>  (1) 
63

>  <i_i_glide_posenum>  (1) 
294

>  <i_i_glide_rotatable_bonds>  (1) 
9

>  <i_lp_mmshare_version>  (1) 
72125

>  <i_m_source_file_index>  (1) 
25

>  <i_f3d_flags>  (1) 
0

>  <num_sample>  (1) 
100

>  <b_lp_Chiralities_Consistent>  (1) 
1

>  <r_epik_Charging_Adjusted_Penalty>  (1) 
1.6940302234007771

>  <r_epik_Ionization_Penalty>  (1) 
0.87564545374797542

>  <r_epik_Ionization_Penalty_Charging>  (1) 
0.87490775709823365

>  <r_epik_Ionization_Penalty_Neutral>  (1) 
0.00073769664974180401

>  <r_epik_State_Penalty>  (1) 
0.81912246630254359

>  <r_glide_ring_energy>  (1) 
0

>  <r_i_docking_score>  (1) 
-8.5732528047512417

>  <r_i_glide_ecoul>  (1) 
-7.1717884593616477

>  <r_i_glide_eff_state_penalty>  (1) 
0.81912246630254359

>  <r_i_glide_einternal>  (1) 
5.9151978619508832

>  <r_i_glide_emodel>  (1) 
-77.307055297801142

>  <r_i_glide_emodel_strain>  (1) 
0.90129721086719883

>  <r_i_glide_energy>  (1) 
-46.256445053015433

>  <r_i_glide_erotb>  (1) 
0.86311099515177125

>  <r_i_glide_esite>  (1) 
-0.092320659517426074

>  <r_i_glide_evdw>  (1) 
-39.084656593653783

>  <r_i_glide_gscore>  (1) 
-9.3923752710537851

>  <r_i_glide_gscore_strain>  (1) 
0

>  <r_i_glide_hbond>  (1) 
-0.49623568275882279

>  <r_i_glide_ligand_efficiency>  (1) 
-0.29562940706038765

>  <r_i_glide_ligand_efficiency_ln>  (1) 
-1.963057493354599

>  <r_i_glide_ligand_efficiency_sa>  (1) 
-0.90826720147915951

>  <r_i_glide_lipo>  (1) 
-4.2862578994399101

>  <r_i_glide_metal>  (1) 
-0

>  <r_i_glide_rewards>  (1) 
-2.3506709259024614

>  <r_lp_Energy>  (1) 
68.015124999999998

>  <s_epik_cmdline>  (1) 
J2VwaWtfcHl0aG9uJywgJy1waHQnLCAnMS4wJywgJy1waCcsICc3LjQnLCAnLXRuJywgJzgnLCAnLW1hJywgJzUwMCcsICctaW1hZScsICc8aW5maWxlLm1hZT4nLCAnLW9tYWUnLCAnPG91dGZpbGUubWFlPic=

>  <s_epik_input>  (1) 
W0NIMl0xW0NIMl1bTkhdW0NAQEhdKFtDSDJdW09IXSlDKD1PKU4xW0NIMl1bQ0gyXVtOSF1bQ0gyXWMoW2NIXTIpW2NIXWMoQyhbQ0gzXSk9W0NIMl0pYyhjMjMpW2NIXVtjSF1jKFtjSF0zKU4oW0NIM10pW0NIM10=

>  <s_glide_docking_method>  (1) 
confgen

>  <s_i_glide_gridfile>  (1) 
gpcr_5ht2c_6bqh_protein_autoprepared_prepared

>  <s_lp_Force_Field>  (1) 
S-OPLS

>  <s_lp_Variant>  (1) 
DiffSBDD_24_num_sample_100-2

>  <s_m_source_file>  (1) 
generated__ligand_DiffSBDD_2026-05-06_prepared.sdf

>  <GenAI_Model>  (1) 
DiffSBDD

>  <Protein>  (1) 
GPCR_5HT2C

$$$$
DiffSBDD_69_num_sample_100
     RDKit          3D

  0  0  0  0  0  0  0  0  0  0999 V3000
M  V30 BEGIN CTAB
M  V30 COUNTS 67 72 0 0 1
M  V30 BEGIN ATOM
M  V30 1 C 38.321766 28.853358 54.213160 0
M  V30 2 C 43.059354 30.603822 68.436611 0 CFG=1
M  V30 3 C 38.711209 31.405248 61.544926 0
M  V30 4 C 41.746204 30.834513 67.715712 0 CFG=1
M  V30 5 C 36.928240 32.935362 60.890371 0
M  V30 6 C 39.623275 25.449232 57.227551 0
M  V30 7 C 39.648071 30.868298 62.609020 0
M  V30 8 C 40.667691 28.585032 56.767277 0
M  V30 9 N 40.675494 31.844952 62.947339 0
M  V30 10 C 40.914285 30.995310 65.250334 0
M  V30 11 C 37.877270 31.402074 59.250164 0
M  V30 12 O 42.123260 32.820665 64.589985 0
M  V30 13 C 38.797477 25.674985 55.965808 0
M  V30 14 C 37.920838 30.854139 57.834056 0 CFG=1
M  V30 15 C 37.802267 32.427400 61.866167 0
M  V30 16 C 37.980511 28.196119 53.024916 0
M  V30 17 O 43.051795 30.999724 69.819395 0
M  V30 18 C 39.272533 29.887090 54.198513 0
M  V30 19 C 42.125424 31.651247 68.934059 0 CFG=1
M  V30 20 C 39.663888 30.569660 55.491305 0 CFG=1
M  V30 21 C 36.963260 32.424222 59.583700 0
M  V30 22 N 39.472144 25.878474 54.837646 0
M  V30 23 C 38.843338 31.792705 55.740706 0
M  V30 24 C 39.527934 29.613959 51.786563 0
M  V30 25 C 41.699303 31.446354 66.332825 0
M  V30 26 O 37.570508 25.663384 56.014345 0
M  V30 27 C 38.586967 28.568019 51.810063 0
M  V30 28 C 38.065615 31.925802 56.796094 0
M  V30 29 O 37.067976 27.196189 53.053897 0
M  V30 30 C 39.776037 29.589456 56.689277 0
M  V30 31 C 39.622659 26.667577 58.169361 0
M  V30 32 C 38.751706 30.890031 60.237822 0
M  V30 33 O 38.886155 29.800706 57.732493 0
M  V30 34 C 39.867426 30.278245 52.980240 0
M  V30 35 C 40.791947 27.650637 57.960019 0
M  V30 36 C 41.210301 31.861126 64.239013 0
M  V30 37 C 42.411042 32.537129 65.909756 0
M  V30 38 H 37.858475 28.556800 55.143451 0
M  V30 39 H 43.956618 30.926209 67.911079 0
M  V30 40 H 40.968305 30.086604 67.859195 0
M  V30 41 H 36.231263 33.720492 61.144977 0
M  V30 42 H 40.642418 25.158402 56.976230 0
M  V30 43 H 39.181132 24.595720 57.742491 0
M  V30 44 H 39.035674 30.614417 63.472266 0
M  V30 45 H 40.118053 29.945137 62.268111 0
M  V30 46 H 41.356538 28.421440 55.954042 0
M  V30 47 H 40.911944 32.537904 62.251992 0
M  V30 48 H 40.229347 30.160821 65.216149 0
M  V30 49 H 36.952349 30.386595 57.660742 0
M  V30 50 H 37.777925 32.821397 62.864791 0
M  V30 51 H 42.382918 32.692765 68.753517 0
M  V30 52 H 40.667466 30.956261 55.339473 0
M  V30 53 H 36.290500 32.816563 58.834311 0
M  V30 54 H 40.480345 25.879840 54.846346 0
M  V30 55 H 38.967687 26.043346 53.977365 0
M  V30 56 H 38.907360 32.587027 55.011832 0
M  V30 57 H 39.989209 29.906560 50.854084 0
M  V30 58 H 38.325161 28.056889 50.894722 0
M  V30 59 H 37.486048 32.827042 56.929388 0
M  V30 60 H 36.831807 26.828155 52.202761 0
M  V30 61 H 39.697518 26.290497 59.187081 0
M  V30 62 H 38.668417 27.194728 58.130918 0
M  V30 63 H 39.452308 30.106438 59.991039 0
M  V30 64 H 40.593274 31.078119 52.963995 0
M  V30 65 H 41.736945 27.111183 57.891011 0
M  V30 66 H 40.879842 28.278533 58.847726 0
M  V30 67 H 43.124764 33.197222 66.378984 0
M  V30 END ATOM
M  V30 BEGIN BOND
M  V30 1 1 4 2
M  V30 2 1 7 3
M  V30 3 1 9 7
M  V30 4 1 13 6
M  V30 5 1 14 11
M  V30 6 1 15 3
M  V30 7 2 15 5
M  V30 8 2 16 1
M  V30 9 1 17 2
M  V30 10 1 18 1
M  V30 11 1 19 2
M  V30 12 1 19 4
M  V30 13 1 19 17
M  V30 14 1 20 18
M  V30 15 1 21 5
M  V30 16 2 21 11
M  V30 17 1 22 13
M  V30 18 1 23 20
M  V30 19 1 25 4
M  V30 20 1 25 10
M  V30 21 2 26 13
M  V30 22 1 27 16
M  V30 23 2 27 24
M  V30 24 1 28 14
M  V30 25 2 28 23
M  V30 26 1 29 16
M  V30 27 2 30 8
M  V30 28 1 30 20
M  V30 29 1 31 6
M  V30 30 2 32 3
M  V30 31 1 32 11
M  V30 32 1 33 14
M  V30 33 1 33 30
M  V30 34 2 34 18
M  V30 35 1 34 24
M  V30 36 1 35 8
M  V30 37 1 35 31
M  V30 38 1 36 9
M  V30 39 2 36 10
M  V30 40 1 36 12
M  V30 41 1 37 12
M  V30 42 2 37 25
M  V30 43 1 38 1
M  V30 44 1 2 39 CFG=3
M  V30 45 1 4 40 CFG=1
M  V30 46 1 41 5
M  V30 47 1 42 6
M  V30 48 1 43 6
M  V30 49 1 44 7
M  V30 50 1 45 7
M  V30 51 1 46 8
M  V30 52 1 47 9
M  V30 53 1 48 10
M  V30 54 1 14 49 CFG=3
M  V30 55 1 50 15
M  V30 56 1 19 51 CFG=3
M  V30 57 1 20 52 CFG=3
M  V30 58 1 53 21
M  V30 59 1 54 22
M  V30 60 1 55 22
M  V30 61 1 56 23
M  V30 62 1 57 24
M  V30 63 1 58 27
M  V30 64 1 59 28
M  V30 65 1 60 29
M  V30 66 1 61 31
M  V30 67 1 62 31
M  V30 68 1 63 32
M  V30 69 1 64 34
M  V30 70 1 65 35
M  V30 71 1 66 35
M  V30 72 1 67 37
M  V30 END BOND
M  V30 END CTAB
M  END
>  <i_epik_Tot_Q>  (1) 
0

>  <i_epik_Tot_abs_Q>  (1) 
0

>  <i_i_glide_confnum>  (1) 
590

>  <i_i_glide_lignum>  (1) 
177

>  <i_i_glide_posenum>  (1) 
267

>  <i_i_glide_rotatable_bonds>  (1) 
11

>  <i_lp_mmshare_version>  (1) 
72125

>  <i_m_source_file_index>  (1) 
70

>  <i_f3d_flags>  (1) 
0

>  <num_sample>  (1) 
100

>  <b_lp_Chiralities_Consistent>  (1) 
1

>  <r_epik_Charging_Adjusted_Penalty>  (1) 
0

>  <r_epik_Ionization_Penalty>  (1) 
0.0027858750297933624

>  <r_epik_Ionization_Penalty_Charging>  (1) 
0

>  <r_epik_Ionization_Penalty_Neutral>  (1) 
0.0027858750297933624

>  <r_epik_State_Penalty>  (1) 
-0

>  <r_glide_ring_energy>  (1) 
1.6699314456563892

>  <r_i_docking_score>  (1) 
-8.5176581060228731

>  <r_i_glide_ecoul>  (1) 
-8.3490651402794569

>  <r_i_glide_eff_state_penalty>  (1) 
-0

>  <r_i_glide_einternal>  (1) 
14.282764688824743

>  <r_i_glide_emodel>  (1) 
-73.192629628536906

>  <r_i_glide_emodel_strain>  (1) 
1.4461031691473707

>  <r_i_glide_energy>  (1) 
-53.051662153280617

>  <r_i_glide_erotb>  (1) 
0.7388310729384443

>  <r_i_glide_esite>  (1) 
0

>  <r_i_glide_evdw>  (1) 
-44.70259701300116

>  <r_i_glide_gscore>  (1) 
-8.5176581060228731

>  <r_i_glide_gscore_strain>  (1) 
0

>  <r_i_glide_hbond>  (1) 
-0.32000000000000001

>  <r_i_glide_ligand_efficiency>  (1) 
-0.23020697583845603

>  <r_i_glide_ligand_efficiency_ln>  (1) 
-1.8472803609592456

>  <r_i_glide_ligand_efficiency_sa>  (1) 
-0.76710071529023527

>  <r_i_glide_lipo>  (1) 
-4.316706655145512

>  <r_i_glide_metal>  (1) 
-0

>  <r_i_glide_rewards>  (1) 
-1.1322929021238275

>  <r_lp_Energy>  (1) 
39.698884999999997

>  <r_lp_tautomer_probability>  (1) 
1

>  <s_epik_cmdline>  (1) 
J2VwaWtfcHl0aG9uJywgJy1waHQnLCAnMS4wJywgJy1waCcsICc3LjQnLCAnLXRuJywgJzgnLCAnLW1hJywgJzUwMCcsICctaW1hZScsICc8aW5maWxlLm1hZT4nLCAnLW9tYWUnLCAnPG91dGZpbGUubWFlPic=

>  <s_epik_input>  (1) 
W05IMl1DKD1PKVtDSDJdW0NIMl1bQ0gyXS9bQ0hdPUMoTzEpL1tDQEBIXShjKFtjSF1jMltPSF0pW2NIXVtjSF1bY0hdMilbQ0hdPVtDSF1bQ0BASF0xYyhbY0hdMylbY0hdW2NIXVtjSF1jM1tDSDJdW05IXWMob1tjSF00KVtjSF1jNFtDQEBIXTVbQ0hdKE82KVtDSF01Ng==

>  <s_glide_docking_method>  (1) 
confgen

>  <s_i_glide_gridfile>  (1) 
gpcr_5ht2c_6bqh_protein_autoprepared_prepared

>  <s_lp_Force_Field>  (1) 
S-OPLS

>  <s_lp_Variant>  (1) 
DiffSBDD_69_num_sample_100-1

>  <s_m_source_file>  (1) 
generated__ligand_DiffSBDD_2026-05-06_prepared.sdf

>  <GenAI_Model>  (1) 
DiffSBDD

>  <Protein>  (1) 
GPCR_5HT2C

$$$$
DiffSBDD_14_num_sample_100
     RDKit          3D

  0  0  0  0  0  0  0  0  0  0999 V3000
M  V30 BEGIN CTAB
M  V30 COUNTS 76 78 0 0 1
M  V30 BEGIN ATOM
M  V30 1 C 38.075985 28.161321 52.232130 0
M  V30 2 C 38.343216 28.594941 53.685453 0 CFG=2
M  V30 3 C 38.500348 30.480317 59.597804 0
M  V30 4 C 39.869442 30.426790 52.732480 0
M  V30 5 C 38.744739 30.089545 53.724449 0 CFG=2
M  V30 6 C 41.067373 30.043862 50.534078 0
M  V30 7 O 39.467732 38.115860 61.853499 0
M  V30 8 C 38.038416 25.347226 56.849552 0
M  V30 9 C 39.071232 33.268166 61.248694 0
M  V30 10 C 39.718473 26.955286 57.155989 0
M  V30 11 C 39.762042 29.851419 51.305896 0 CFG=1
M  V30 12 O 37.867408 32.647761 55.100727 0
M  V30 13 O 38.267430 25.477928 58.251430 0
M  V30 14 N 39.865679 36.835679 62.279641 0
M  V30 15 C 38.322817 31.707203 57.251412 0
M  V30 16 O 38.466018 35.974300 60.732664 0
M  V30 17 C 39.125060 30.596005 55.127745 0
M  V30 18 N 36.667402 30.524262 58.653517 0 CHG=1
M  V30 19 O 39.375818 27.780649 54.238662 0
M  V30 20 C 39.110086 26.597138 58.504086 0
M  V30 21 C 38.963144 26.515245 54.744267 0
M  V30 22 C 39.288573 35.814276 61.637068 0
M  V30 23 C 37.105249 30.969633 59.986036 0 CFG=2
M  V30 24 C 36.772479 32.445054 60.301403 0 CFG=2
M  V30 25 C 39.700197 34.405735 62.077132 0
M  V30 26 C 38.035132 30.500837 58.152255 0 CFG=2
M  V30 27 C 37.564797 33.026494 61.499350 0
M  V30 28 C 38.566414 26.639589 56.223647 0 CFG=1
M  V30 29 C 38.009349 31.417958 55.783284 0 CFG=2
M  V30 30 C 35.267528 32.606727 60.569150 0
M  V30 31 C 39.300674 28.382864 51.324357 0
M  V30 32 H 37.223239 28.721954 51.853511 0
M  V30 33 H 37.787763 27.112633 52.193414 0
M  V30 34 H 37.431298 28.477338 54.273483 0
M  V30 35 H 39.341433 31.140080 59.776532 0
M  V30 36 H 38.708047 29.475529 59.967570 0
M  V30 37 H 40.011782 31.507481 52.681389 0
M  V30 38 H 40.746882 30.021551 53.200489 0
M  V30 39 H 37.866014 30.657851 53.453506 0
M  V30 40 H 41.893479 29.570486 51.053300 0
M  V30 41 H 41.002071 29.625803 49.529218 0
M  V30 42 H 41.309171 31.102616 50.434065 0
M  V30 43 H 38.834715 37.911777 61.176532 0
M  V30 44 H 36.982326 25.179046 56.634158 0
M  V30 45 H 38.598469 24.481356 56.491371 0
M  V30 46 H 39.250376 33.466154 60.190006 0
M  V30 47 H 39.618781 32.359067 61.493500 0
M  V30 48 H 40.573712 26.309812 56.946343 0
M  V30 49 H 40.055506 27.989697 57.103484 0
M  V30 50 H 39.067226 30.436733 50.725022 0
M  V30 51 H 36.967013 32.954353 55.231167 0
M  V30 52 H 40.544456 36.869928 63.029509 0
M  V30 53 H 37.750612 32.579630 57.559232 0
M  V30 54 H 39.367167 32.009101 57.339269 0
M  V30 55 H 40.023346 31.215369 55.087811 0
M  V30 56 H 39.400808 29.752950 55.756011 0
M  V30 57 H 36.271911 29.596176 58.678572 0
M  V30 58 H 38.487725 27.412594 58.870990 0
M  V30 59 H 39.867390 26.385511 59.255814 0
M  V30 60 H 38.143628 26.093025 54.161183 0
M  V30 61 H 39.798914 25.820921 54.647375 0
M  V30 62 H 36.681897 30.306620 60.737156 0
M  V30 63 H 36.996576 33.082420 59.449734 0
M  V30 64 H 40.785946 34.341051 61.993033 0
M  V30 65 H 39.467403 34.274514 63.132143 0
M  V30 66 H 38.241886 29.545018 57.673929 0
M  V30 67 H 37.440756 32.393184 62.377835 0
M  V30 68 H 37.101952 33.975433 61.769689 0
M  V30 69 H 37.803131 27.409663 56.335918 0
M  V30 70 H 37.067394 30.875912 55.703889 0
M  V30 71 H 34.970967 32.057973 61.462867 0
M  V30 72 H 35.003315 33.654576 60.722375 0
M  V30 73 H 34.668372 32.244686 59.733049 0
M  V30 74 H 39.068653 28.056409 50.309409 0
M  V30 75 H 40.117999 27.749947 51.670152 0
M  V30 76 H 36.081305 31.174152 58.107861 0
M  V30 END ATOM
M  V30 BEGIN BOND
M  V30 1 1 2 1
M  V30 2 1 5 2
M  V30 3 1 5 4
M  V30 4 1 11 4
M  V30 5 1 11 6
M  V30 6 1 13 8
M  V30 7 1 14 7
M  V30 8 1 17 5
M  V30 9 1 19 2
M  V30 10 1 20 10
M  V30 11 1 20 13
M  V30 12 1 21 19
M  V30 13 1 22 14
M  V30 14 2 22 16
M  V30 15 1 23 3
M  V30 16 1 23 18
M  V30 17 1 24 23
M  V30 18 1 25 9
M  V30 19 1 25 22
M  V30 20 1 26 3
M  V30 21 1 26 15
M  V30 22 1 26 18
M  V30 23 1 27 9
M  V30 24 1 27 24
M  V30 25 1 28 8
M  V30 26 1 28 10
M  V30 27 1 28 21
M  V30 28 1 29 12
M  V30 29 1 29 15
M  V30 30 1 29 17
M  V30 31 1 30 24
M  V30 32 1 31 1
M  V30 33 1 31 11
M  V30 34 1 32 1
M  V30 35 1 33 1
M  V30 36 1 2 34 CFG=1
M  V30 37 1 35 3
M  V30 38 1 36 3
M  V30 39 1 37 4
M  V30 40 1 38 4
M  V30 41 1 5 39 CFG=3
M  V30 42 1 40 6
M  V30 43 1 41 6
M  V30 44 1 42 6
M  V30 45 1 43 7
M  V30 46 1 44 8
M  V30 47 1 45 8
M  V30 48 1 46 9
M  V30 49 1 47 9
M  V30 50 1 48 10
M  V30 51 1 49 10
M  V30 52 1 11 50 CFG=3
M  V30 53 1 51 12
M  V30 54 1 52 14
M  V30 55 1 53 15
M  V30 56 1 54 15
M  V30 57 1 55 17
M  V30 58 1 56 17
M  V30 59 1 57 18
M  V30 60 1 58 20
M  V30 61 1 59 20
M  V30 62 1 60 21
M  V30 63 1 61 21
M  V30 64 1 23 62 CFG=1
M  V30 65 1 24 63 CFG=3
M  V30 66 1 64 25
M  V30 67 1 65 25
M  V30 68 1 26 66 CFG=3
M  V30 69 1 67 27
M  V30 70 1 68 27
M  V30 71 1 28 69 CFG=3
M  V30 72 1 29 70 CFG=1
M  V30 73 1 71 30
M  V30 74 1 72 30
M  V30 75 1 73 30
M  V30 76 1 74 31
M  V30 77 1 75 31
M  V30 78 1 76 18
M  V30 END BOND
M  V30 END CTAB
M  END
>  <i_epik_Tot_Q>  (1) 
1

>  <i_epik_Tot_abs_Q>  (1) 
1

>  <i_i_glide_confnum>  (1) 
1353

>  <i_i_glide_lignum>  (1) 
33

>  <i_i_glide_posenum>  (1) 
378

>  <i_i_glide_rotatable_bonds>  (1) 
15

>  <i_lp_mmshare_version>  (1) 
72125

>  <i_m_source_file_index>  (1) 
15

>  <i_f3d_flags>  (1) 
0

>  <num_sample>  (1) 
100

>  <b_lp_Chiralities_Consistent>  (1) 
1

>  <r_epik_Charging_Adjusted_Penalty>  (1) 
0.00011085431656654283

>  <r_epik_Ionization_Penalty>  (1) 
0.0093428253379992804

>  <r_epik_Ionization_Penalty_Charging>  (1) 
0.00011085431656654283

>  <r_epik_Ionization_Penalty_Neutral>  (1) 
0.0092319710214327378

>  <r_epik_State_Penalty>  (1) 
-0

>  <r_glide_ring_energy>  (1) 
0

>  <r_i_docking_score>  (1) 
-8.5118485253378946

>  <r_i_glide_ecoul>  (1) 
-10.955671298189264

>  <r_i_glide_eff_state_penalty>  (1) 
-0

>  <r_i_glide_einternal>  (1) 
21.914123225868771

>  <r_i_glide_emodel>  (1) 
-70.448501718912169

>  <r_i_glide_emodel_strain>  (1) 
1.3453268699061738

>  <r_i_glide_energy>  (1) 
-52.387137415689402

>  <r_i_glide_erotb>  (1) 
1.3314850251941783

>  <r_i_glide_esite>  (1) 
-0.10000000000000001

>  <r_i_glide_evdw>  (1) 
-41.431466117500136

>  <r_i_glide_gscore>  (1) 
-8.5118485253378946

>  <r_i_glide_gscore_strain>  (1) 
0

>  <r_i_glide_hbond>  (1) 
-0.35999999999999999

>  <r_i_glide_ligand_efficiency>  (1) 
-0.27457575888186758

>  <r_i_glide_ligand_efficiency_ln>  (1) 
-1.9196826992932765

>  <r_i_glide_ligand_efficiency_sa>  (1) 
-0.86254697656718315

>  <r_i_glide_lipo>  (1) 
-4.1737754976551864

>  <r_i_glide_metal>  (1) 
-0

>  <r_i_glide_rewards>  (1) 
-1.4946340522734902

>  <r_lp_Energy>  (1) 
17.773495

>  <r_lp_tautomer_probability>  (1) 
1

>  <s_epik_Chemistry_Notes>  (1) 
This compound has a N-S or N-O group and may undergo hydrolysis at high or low pH.

>  <s_epik_cmdline>  (1) 
J2VwaWtfcHl0aG9uJywgJy1waHQnLCAnMS4wJywgJy1waCcsICc3LjQnLCAnLXRuJywgJzgnLCAnLW1hJywgJzUwMCcsICctaW1hZScsICc8aW5maWxlLm1hZT4nLCAnLW9tYWUnLCAnPG91dGZpbGUubWFlPic=

>  <s_epik_input>  (1) 
W0NIMl0xW0NIMl1PW0NIMl1bQ0BASF0xW0NIMl1PW0NASF0yW0NIMl1bQ0gyXVtDQEhdKFtDSDNdKVtDSDJdW0NAQEhdMltDSDJdW0NASF0oW09IXSlbQ0gyXVtDQEhdKFtOSF0zKVtDSDJdW0NASF0zW0NAQEhdKFtDSDNdKVtDSDJdW0NIMl1bQ0gyXUMoPU8pW05IXVtPSF0=

>  <s_glide_docking_method>  (1) 
confgen

>  <s_i_glide_gridfile>  (1) 
gpcr_5ht2c_6bqh_protein_autoprepared_prepared

>  <s_lp_Force_Field>  (1) 
S-OPLS

>  <s_lp_Variant>  (1) 
DiffSBDD_14_num_sample_100-2

>  <s_m_source_file>  (1) 
generated__ligand_DiffSBDD_2026-05-06_prepared.sdf

>  <GenAI_Model>  (1) 
DiffSBDD

>  <Protein>  (1) 
GPCR_5HT2C

$$$$
DiffSBDD_70_num_sample_100
     RDKit          3D

  0  0  0  0  0  0  0  0  0  0999 V3000
M  V30 BEGIN CTAB
M  V30 COUNTS 77 80 0 0 1
M  V30 BEGIN ATOM
M  V30 1 N 39.790440 31.250930 61.355813 0
M  V30 2 C 38.220364 26.331668 58.653507 0
M  V30 3 F 39.133463 26.870142 51.012579 0
M  V30 4 C 38.862875 24.307774 57.386738 0
M  V30 5 P 38.142501 31.903557 61.002901 0
M  V30 6 C 38.389763 28.001384 56.057220 0
M  V30 7 F 38.267441 28.821434 51.221864 0
M  V30 8 C 38.649135 27.652656 59.325593 0
M  V30 9 C 40.891310 33.740645 64.046517 0
M  V30 10 O 40.501701 28.569087 51.452785 0
M  V30 11 C 40.895061 27.606279 58.053035 0
M  V30 12 C 40.611360 29.894402 50.939802 0
M  V30 13 C 40.305959 26.528120 57.128689 0 CFG=2
M  V30 14 O 38.137604 33.376812 60.925755 0 CHG=-1
M  V30 15 C 40.730535 33.209732 62.758954 0
M  V30 16 O 37.945747 31.339368 59.427151 0
M  V30 17 C 40.779643 34.088522 61.656619 0
M  V30 18 C 39.322157 29.048024 55.441529 0
M  V30 19 C 39.088667 26.657700 56.221356 0 CFG=1
M  V30 20 C 41.078838 35.124931 64.182235 0
M  V30 21 C 39.015771 25.830389 57.492282 0 CFG=2
M  V30 22 O 41.795223 31.087621 62.660492 0
M  V30 23 C 39.056358 25.913694 54.882058 0
M  V30 24 C 39.262956 28.041312 51.677599 0
M  V30 25 N 40.968327 35.425465 61.771314 0
M  V30 26 C 38.982364 27.853583 53.177239 0 CFG=2
M  V30 27 C 41.104323 35.923716 63.019870 0
M  V30 28 C 39.090091 29.200839 53.955852 0 CFG=1
M  V30 29 C 39.776777 26.651526 53.762069 0
M  V30 30 O 37.909383 29.968047 53.853503 0
M  V30 31 C 39.850469 29.783575 61.184514 0
M  V30 32 C 40.291715 29.947119 49.453506 0
M  V30 33 O 37.144157 31.221500 61.853487 0
M  V30 34 C 40.400084 29.385216 59.797085 0
M  V30 35 C 40.151103 27.919795 59.376058 0 CFG=1
M  V30 36 C 40.525629 31.710164 62.563797 0 CFG=2
M  V30 37 C 41.251190 35.749364 65.552832 0
M  V30 38 H 38.267404 25.571954 59.428180 0
M  V30 39 H 37.202408 26.400106 58.253521 0
M  V30 40 H 38.267390 23.878596 58.193455 0
M  V30 41 H 38.329090 24.021405 56.483141 0
M  V30 42 H 39.840763 23.829875 57.395957 0
M  V30 43 H 38.014248 28.396841 56.979554 0
M  V30 44 H 37.480830 27.865313 55.471387 0
M  V30 45 H 38.272232 27.621336 60.346045 0
M  V30 46 H 38.119446 28.517150 58.937046 0
M  V30 47 H 40.866682 33.098315 64.915365 0
M  V30 48 H 41.054110 28.522054 57.494032 0
M  V30 49 H 41.903932 27.284147 58.316968 0
M  V30 50 H 39.977161 30.590928 51.489336 0
M  V30 51 H 41.636644 30.241967 51.053485 0
M  V30 52 H 41.067351 25.992896 56.593473 0
M  V30 53 H 37.185337 31.776980 59.075904 0
M  V30 54 H 40.667365 33.709365 60.653506 0
M  V30 55 H 40.366560 28.774209 55.562434 0
M  V30 56 H 39.208332 30.007940 55.950748 0
M  V30 57 H 41.951977 30.878558 63.568505 0
M  V30 58 H 39.566587 24.956453 54.981734 0
M  V30 59 H 38.026027 25.685087 54.608767 0
M  V30 60 H 37.937040 27.544311 53.218602 0
M  V30 61 H 41.246632 36.990302 63.090691 0
M  V30 62 H 39.912373 29.802501 53.575327 0
M  V30 63 H 40.766098 26.821425 54.149163 0
M  V30 64 H 39.984279 25.979600 52.946061 0
M  V30 65 H 37.359259 29.788384 54.602312 0
M  V30 66 H 40.421017 29.280559 61.963376 0
M  V30 67 H 38.845721 29.389703 61.308457 0
M  V30 68 H 40.024567 30.965541 49.172180 0
M  V30 69 H 41.141204 29.621482 48.855545 0
M  V30 70 H 39.467405 29.300297 49.176305 0
M  V30 71 H 39.957831 30.021402 59.032706 0
M  V30 72 H 41.467375 29.592230 59.770088 0
M  V30 73 H 40.552323 27.266388 60.145072 0
M  V30 74 H 39.952598 31.372715 63.429058 0
M  V30 75 H 40.622896 36.635966 65.648570 0
M  V30 76 H 40.971903 35.055332 66.345811 0
M  V30 77 H 42.289382 36.044131 65.704631 0
M  V30 END ATOM
M  V30 BEGIN BOND
M  V30 1 1 5 1
M  V30 2 1 8 2
M  V30 3 1 12 10
M  V30 4 1 13 11
M  V30 5 1 14 5
M  V30 6 1 15 9
M  V30 7 1 16 5
M  V30 8 2 17 15
M  V30 9 1 18 6
M  V30 10 1 19 6 CFG=3
M  V30 11 1 19 13
M  V30 12 2 20 9
M  V30 13 1 21 2
M  V30 14 1 21 4 CFG=3
M  V30 15 1 21 13
M  V30 16 1 21 19
M  V30 17 1 23 19
M  V30 18 1 24 3
M  V30 19 1 24 7
M  V30 20 1 24 10
M  V30 21 1 25 17
M  V30 22 1 26 24
M  V30 23 1 27 20
M  V30 24 2 27 25
M  V30 25 1 28 18
M  V30 26 1 28 26
M  V30 27 1 29 23
M  V30 28 1 29 26
M  V30 29 1 30 28
M  V30 30 1 31 1
M  V30 31 1 32 12
M  V30 32 2 33 5
M  V30 33 1 34 31
M  V30 34 1 35 8
M  V30 35 1 35 11
M  V30 36 1 35 34
M  V30 37 1 36 1
M  V30 38 1 36 15
M  V30 39 1 36 22
M  V30 40 1 37 20
M  V30 41 1 38 2
M  V30 42 1 39 2
M  V30 43 1 40 4
M  V30 44 1 41 4
M  V30 45 1 42 4
M  V30 46 1 43 6
M  V30 47 1 44 6
M  V30 48 1 45 8
M  V30 49 1 46 8
M  V30 50 1 47 9
M  V30 51 1 48 11
M  V30 52 1 49 11
M  V30 53 1 50 12
M  V30 54 1 51 12
M  V30 55 1 13 52 CFG=3
M  V30 56 1 53 16
M  V30 57 1 54 17
M  V30 58 1 55 18
M  V30 59 1 56 18
M  V30 60 1 57 22
M  V30 61 1 58 23
M  V30 62 1 59 23
M  V30 63 1 26 60 CFG=3
M  V30 64 1 61 27
M  V30 65 1 28 62 CFG=3
M  V30 66 1 63 29
M  V30 67 1 64 29
M  V30 68 1 65 30
M  V30 69 1 66 31
M  V30 70 1 67 31
M  V30 71 1 68 32
M  V30 72 1 69 32
M  V30 73 1 70 32
M  V30 74 1 71 34
M  V30 75 1 72 34
M  V30 76 1 35 73 CFG=1
M  V30 77 1 36 74 CFG=1
M  V30 78 1 75 37
M  V30 79 1 76 37
M  V30 80 1 77 37
M  V30 END BOND
M  V30 END CTAB
M  END
>  <i_epik_Tot_Q>  (1) 
-1

>  <i_epik_Tot_abs_Q>  (1) 
1

>  <i_i_glide_confnum>  (1) 
192

>  <i_i_glide_lignum>  (1) 
179

>  <i_i_glide_posenum>  (1) 
54

>  <i_i_glide_rotatable_bonds>  (1) 
12

>  <i_lp_mmshare_version>  (1) 
72125

>  <i_m_source_file_index>  (1) 
71

>  <i_f3d_flags>  (1) 
0

>  <num_sample>  (1) 
100

>  <b_lp_Chiralities_Consistent>  (1) 
1

>  <r_epik_Charging_Adjusted_Penalty>  (1) 
2.5863915032327713e-05

>  <r_epik_Ionization_Penalty>  (1) 
0.063291997969961059

>  <r_epik_Ionization_Penalty_Charging>  (1) 
2.5863915032327713e-05

>  <r_epik_Ionization_Penalty_Neutral>  (1) 
0.06326613405492873

>  <r_epik_State_Penalty>  (1) 
-0

>  <r_glide_ring_energy>  (1) 
0

>  <r_i_docking_score>  (1) 
-8.5097369200890114

>  <r_i_glide_ecoul>  (1) 
-10.51368737951192

>  <r_i_glide_eff_state_penalty>  (1) 
-0

>  <r_i_glide_einternal>  (1) 
9.9350234658252745

>  <r_i_glide_emodel>  (1) 
-54.42867791270308

>  <r_i_glide_emodel_strain>  (1) 
7.2209704665926324

>  <r_i_glide_energy>  (1) 
-46.703719270669026

>  <r_i_glide_erotb>  (1) 
0.55646031454045308

>  <r_i_glide_esite>  (1) 
0

>  <r_i_glide_evdw>  (1) 
-36.190031891157105

>  <r_i_glide_gscore>  (1) 
-8.5097369200890114

>  <r_i_glide_gscore_strain>  (1) 
0.8052426166481581

>  <r_i_glide_hbond>  (1) 
-0.36158632823761383

>  <r_i_glide_ligand_efficiency>  (1) 
-0.22999288973213544

>  <r_i_glide_ligand_efficiency_ln>  (1) 
-1.8455624414291365

>  <r_i_glide_ligand_efficiency_sa>  (1) 
-0.76638733288862004

>  <r_i_glide_lipo>  (1) 
-4.9400206872412289

>  <r_i_glide_metal>  (1) 
-0

>  <r_i_glide_rewards>  (1) 
-1.1832781343141383

>  <r_lp_Energy>  (1) 
42.482589999999995

>  <r_lp_tautomer_probability>  (1) 
1

>  <s_epik_Chemistry_Notes>  (1) 
This compound contains an acetal/aminal-like group ( X-CH(R)-Y where X, Y are N, S, or O) that may be acid/base labile, releasing an aldehyde.

>  <s_epik_cmdline>  (1) 
J2VwaWtfcHl0aG9uJywgJy1waHQnLCAnMS4wJywgJy1waCcsICc3LjQnLCAnLXRuJywgJzgnLCAnLW1hJywgJzUwMCcsICctaW1hZScsICc8aW5maWxlLm1hZT4nLCAnLW9tYWUnLCAnPG91dGZpbGUubWFlPic=

>  <s_epik_input>  (1) 
W2NIXTFuW2NIXWMoW0NIM10pW2NIXWMxW0NASF0oW09IXSlOKFAoPU8pKFtPSF0pW09IXSlbQ0gyXVtDSDJdW0NASF0oW0NIMl0yKVtDSDJdW0NIMl1bQ0BdMyhbQ0gzXSlbQ0BIXTJbQ0BdMzRbQ0gyXVtDSDJdW0NASF0oW09IXSlbQ0BIXShbQ0gyXVtDSDJdNClDKEYpKEYpT1tDSDJdW0NIM10=

>  <s_glide_docking_method>  (1) 
confgen

>  <s_i_glide_gridfile>  (1) 
gpcr_5ht2c_6bqh_protein_autoprepared_prepared

>  <s_lp_Force_Field>  (1) 
S-OPLS

>  <s_lp_Variant>  (1) 
DiffSBDD_70_num_sample_100-1

>  <s_m_source_file>  (1) 
generated__ligand_DiffSBDD_2026-05-06_prepared.sdf

>  <GenAI_Model>  (1) 
DiffSBDD

>  <Protein>  (1) 
GPCR_5HT2C

$$$$
DiffSBDD_80_num_sample_100
     RDKit          3D

  0  0  0  0  0  0  0  0  0  0999 V3000
M  V30 BEGIN CTAB
M  V30 COUNTS 73 76 0 0 1
M  V30 BEGIN ATOM
M  V30 1 C 40.462088 27.923116 59.708625 0
M  V30 2 C 39.145241 31.159230 60.847986 0
M  V30 3 N 39.009386 32.633465 60.802066 0 CFG=1 CHG=1
M  V30 4 O 39.223728 29.083901 56.307809 0
M  V30 5 O 38.667402 31.529028 57.984122 0
M  V30 6 O 40.667422 28.535379 60.964696 0
M  V30 7 C 38.998398 35.503857 61.420711 0 CFG=2
M  V30 8 C 37.665655 34.698710 61.312583 0 CFG=1
M  V30 9 C 38.915935 28.284331 51.453505 0
M  V30 10 C 38.845160 26.888422 55.581012 0
M  V30 11 O 39.838661 30.868911 54.613356 0
M  V30 12 C 39.534584 30.021414 53.589356 0
M  V30 13 O 35.067408 32.087877 60.329705 0
M  V30 14 C 38.584614 27.917473 52.770963 0
M  V30 15 C 36.340712 33.807533 59.245557 0
M  V30 16 C 39.867403 30.378707 52.267536 0
M  V30 17 O 39.867412 25.758723 57.444621 0
M  V30 18 C 40.168261 34.792785 60.704571 0
M  V30 19 O 39.867407 29.869556 49.921538 0
M  V30 20 C 36.851157 35.004483 60.036060 0
M  V30 21 C 39.556575 29.512672 51.201130 0
M  V30 22 C 39.830425 28.215967 57.260757 0 CFG=1
M  V30 23 C 38.057579 30.422886 60.073955 0 CFG=2
M  V30 24 C 39.797041 28.849394 58.674512 0 CFG=1
M  V30 25 C 37.932731 33.198006 61.644231 0
M  V30 26 C 39.093510 26.883419 57.073755 0 CFG=1
M  V30 27 C 35.067413 33.221466 59.853494 0
M  V30 28 C 38.390262 29.305607 59.083904 0 CFG=2
M  V30 29 C 36.593888 36.264560 59.640098 0
M  V30 30 C 40.120504 36.757217 63.125314 0
M  V30 31 C 37.789201 30.602010 58.591784 0 CFG=2
M  V30 32 C 38.536011 28.361032 55.282176 0 CFG=2
M  V30 33 C 38.894313 28.778316 53.847989 0
M  V30 34 C 40.272520 33.324431 61.133142 0
M  V30 35 O 39.311748 35.633960 62.801397 0
M  V30 36 H 39.867392 27.023242 59.849369 0
M  V30 37 H 41.441952 27.621424 59.338127 0
M  V30 38 H 39.167565 30.802245 61.878670 0
M  V30 39 H 40.106463 30.906021 60.412094 0
M  V30 40 H 38.371867 31.656504 57.091649 0
M  V30 41 H 41.140395 27.928496 61.517351 0
M  V30 42 H 38.875419 36.502484 61.005140 0
M  V30 43 H 37.005437 35.083707 62.090671 0
M  V30 44 H 38.676555 27.621263 50.634680 0
M  V30 45 H 39.195118 29.621424 49.299219 0
M  V30 46 H 38.049020 26.209463 55.273014 0
M  V30 47 H 39.759528 26.592608 55.062821 0
M  V30 48 H 39.664009 30.440819 55.445941 0
M  V30 49 H 38.093608 26.973531 52.956347 0
M  V30 50 H 36.093207 34.128979 58.234217 0
M  V30 51 H 37.103596 33.047604 59.140346 0
M  V30 52 H 40.356316 31.321835 52.070943 0
M  V30 53 H 40.698523 25.788258 56.989510 0
M  V30 54 H 41.110783 35.308048 60.886798 0
M  V30 55 H 40.017008 34.821428 59.629581 0
M  V30 56 H 40.868360 28.090039 56.944763 0
M  V30 57 H 37.150670 30.288113 60.656781 0
M  V30 58 H 40.430056 29.725924 58.596794 0
M  V30 59 H 37.037126 32.592060 61.609607 0
M  V30 60 H 38.267423 33.107768 62.672093 0
M  V30 61 H 38.140536 26.871859 57.601938 0
M  V30 62 H 34.189460 33.867243 59.828139 0
M  V30 63 H 37.696862 28.473195 59.110898 0
M  V30 64 H 36.020174 36.458562 58.744602 0
M  V30 65 H 36.950003 37.113759 60.203778 0
M  V30 66 H 40.267384 36.793048 64.204564 0
M  V30 67 H 41.103396 36.709657 62.655940 0
M  V30 68 H 39.640000 37.690050 62.830666 0
M  V30 69 H 36.755821 30.646138 58.253494 0
M  V30 70 H 37.470970 28.542990 55.429143 0
M  V30 71 H 40.477578 33.255252 62.203029 0
M  V30 72 H 41.106091 32.821432 60.653501 0
M  V30 73 H 38.796466 32.838705 59.833143 0
M  V30 END ATOM
M  V30 BEGIN BOND
M  V30 1 1 3 2
M  V30 2 1 6 1
M  V30 3 1 8 7
M  V30 4 1 12 11
M  V30 5 2 14 9
M  V30 6 1 16 12
M  V30 7 1 18 7
M  V30 8 1 20 8
M  V30 9 1 20 15
M  V30 10 1 21 9
M  V30 11 2 21 16
M  V30 12 1 21 19
M  V30 13 1 22 4
M  V30 14 1 23 2
M  V30 15 1 24 1
M  V30 16 1 24 22
M  V30 17 1 25 3
M  V30 18 1 25 8
M  V30 19 1 26 10
M  V30 20 1 26 17
M  V30 21 1 26 22
M  V30 22 2 27 13
M  V30 23 1 27 15
M  V30 24 1 28 23
M  V30 25 1 28 24
M  V30 26 2 29 20
M  V30 27 1 31 5
M  V30 28 1 31 23
M  V30 29 1 31 28
M  V30 30 1 32 4
M  V30 31 1 32 10
M  V30 32 2 33 12
M  V30 33 1 33 14
M  V30 34 1 33 32
M  V30 35 1 34 3
M  V30 36 1 34 18
M  V30 37 1 35 7
M  V30 38 1 35 30
M  V30 39 1 36 1
M  V30 40 1 37 1
M  V30 41 1 38 2
M  V30 42 1 39 2
M  V30 43 1 40 5
M  V30 44 1 41 6
M  V30 45 1 7 42 CFG=3
M  V30 46 1 8 43 CFG=1
M  V30 47 1 44 9
M  V30 48 1 45 19
M  V30 49 1 46 10
M  V30 50 1 47 10
M  V30 51 1 48 11
M  V30 52 1 49 14
M  V30 53 1 50 15
M  V30 54 1 51 15
M  V30 55 1 52 16
M  V30 56 1 53 17
M  V30 57 1 54 18
M  V30 58 1 55 18
M  V30 59 1 22 56 CFG=3
M  V30 60 1 23 57 CFG=1
M  V30 61 1 24 58 CFG=3
M  V30 62 1 59 25
M  V30 63 1 60 25
M  V30 64 1 26 61 CFG=1
M  V30 65 1 62 27
M  V30 66 1 28 63 CFG=1
M  V30 67 1 64 29
M  V30 68 1 65 29
M  V30 69 1 66 30
M  V30 70 1 67 30
M  V30 71 1 68 30
M  V30 72 1 31 69 CFG=1
M  V30 73 1 32 70 CFG=1
M  V30 74 1 71 34
M  V30 75 1 72 34
M  V30 76 1 3 73 CFG=3
M  V30 END BOND
M  V30 END CTAB
M  END
>  <i_epik_Tot_Q>  (1) 
1

>  <i_epik_Tot_abs_Q>  (1) 
1

>  <i_i_glide_confnum>  (1) 
1840

>  <i_i_glide_lignum>  (1) 
208

>  <i_i_glide_posenum>  (1) 
169

>  <i_i_glide_rotatable_bonds>  (1) 
15

>  <i_lp_mmshare_version>  (1) 
72125

>  <i_m_source_file_index>  (1) 
81

>  <i_f3d_flags>  (1) 
0

>  <num_sample>  (1) 
100

>  <b_lp_Chiralities_Consistent>  (1) 
1

>  <r_epik_Charging_Adjusted_Penalty>  (1) 
0.034071705691259377

>  <r_epik_Ionization_Penalty>  (1) 
0.043305258844254187

>  <r_epik_Ionization_Penalty_Charging>  (1) 
0.034071705691259377

>  <r_epik_Ionization_Penalty_Neutral>  (1) 
0.009233553152994808

>  <r_epik_State_Penalty>  (1) 
-0

>  <r_glide_ring_energy>  (1) 
0

>  <r_i_docking_score>  (1) 
-8.5029438764698213

>  <r_i_glide_ecoul>  (1) 
-7.2205505331529771

>  <r_i_glide_eff_state_penalty>  (1) 
-0

>  <r_i_glide_einternal>  (1) 
13.720319746851128

>  <r_i_glide_emodel>  (1) 
-70.937640791852203

>  <r_i_glide_emodel_strain>  (1) 
3.0232083370761273

>  <r_i_glide_energy>  (1) 
-55.254910085827291

>  <r_i_glide_erotb>  (1) 
0.67144220787932085

>  <r_i_glide_esite>  (1) 
-0.03971009610438872

>  <r_i_glide_evdw>  (1) 
-48.03435955267431

>  <r_i_glide_gscore>  (1) 
-8.5029438764698213

>  <r_i_glide_gscore_strain>  (1) 
0

>  <r_i_glide_hbond>  (1) 
-0.38692816553342085

>  <r_i_glide_ligand_efficiency>  (1) 
-0.24294125361342347

>  <r_i_glide_ligand_efficiency_ln>  (1) 
-1.8665848935568945

>  <r_i_glide_ligand_efficiency_sa>  (1) 
-0.79467695004985162

>  <r_i_glide_lipo>  (1) 
-4.4576477151655194

>  <r_i_glide_metal>  (1) 
-0

>  <r_i_glide_rewards>  (1) 
-0.80529954993915076

>  <r_lp_Energy>  (1) 
34.743352000000002

>  <r_lp_tautomer_probability>  (1) 
1

>  <s_epik_cmdline>  (1) 
J2VwaWtfcHl0aG9uJywgJy1waHQnLCAnMS4wJywgJy1waCcsICc3LjQnLCAnLXRuJywgJzgnLCAnLW1hJywgJzUwMCcsICctaW1hZScsICc8aW5maWxlLm1hZT4nLCAnLW9tYWUnLCAnPG91dGZpbGUubWFlPic=

>  <s_epik_input>  (1) 
Tz1bQ0hdW0NIMl1DKD1bQ0gyXSlbQ0BASF0oW0NASF0oW0NIMl1bQ0gyXTEpT1tDSDNdKVtDSDJdTjFbQ0gyXVtDQEBIXTJbQ0BASF0oW0NAQEhdMltPSF0pW0NAQEhdKFtDSDJdW09IXSlbQ0BASF0zT1tDQEhdKFtDSDJdW0NASF0zW09IXSlDND1bQ0hdW0NIMl1DKD1PKVtDSF09QzRbT0hd

>  <s_glide_docking_method>  (1) 
confgen

>  <s_i_glide_gridfile>  (1) 
gpcr_5ht2c_6bqh_protein_autoprepared_prepared

>  <s_lp_Force_Field>  (1) 
S-OPLS

>  <s_lp_Variant>  (1) 
DiffSBDD_80_num_sample_100-4

>  <s_m_source_file>  (1) 
generated__ligand_DiffSBDD_2026-05-06_prepared.sdf

>  <GenAI_Model>  (1) 
DiffSBDD

>  <Protein>  (1) 
GPCR_5HT2C

$$$$
DiffSBDD_23_num_sample_100
     RDKit          3D

  0  0  0  0  0  0  0  0  0  0999 V3000
M  V30 BEGIN CTAB
M  V30 COUNTS 83 87 0 0 1
M  V30 BEGIN ATOM
M  V30 1 C 38.286285 26.561621 55.318399 0
M  V30 2 C 39.085790 32.172413 62.197367 0
M  V30 3 C 40.196010 35.892289 62.618388 0
M  V30 4 O 36.667422 36.316605 60.368333 0
M  V30 5 N 41.224939 30.627408 62.961407 0
M  V30 6 C 38.803119 30.110184 60.790998 0
M  V30 7 C 40.023954 27.296717 58.708871 0
M  V30 8 N 39.924793 33.331969 62.646575 0
M  V30 9 C 38.270306 34.870355 61.489098 0
M  V30 10 C 39.717167 37.162463 62.253322 0
M  V30 11 C 42.814571 32.266660 65.879543 0
M  V30 12 C 42.333420 31.286940 64.818184 0
M  V30 13 C 39.480623 27.531753 57.293242 0 CFG=1
M  V30 14 C 42.577511 30.036821 64.726907 0
M  V30 15 N 38.920419 26.310404 56.648698 0 CFG=2 CHG=1
M  V30 16 C 38.882442 32.405693 59.622724 0
M  V30 17 C 36.181714 35.217381 59.607128 0
M  V30 18 C 37.816494 36.158419 61.115718 0
M  V30 19 C 39.391463 31.546871 60.801844 0 CFG=1
M  V30 20 C 39.729297 30.042080 53.856652 0
M  V30 21 C 41.493623 31.640141 63.731024 0
M  V30 22 C 38.104263 29.417785 58.542185 0
M  V30 23 C 37.198403 28.342423 52.956056 0
M  V30 24 O 37.029607 30.004133 58.651769 0
M  V30 25 C 37.368648 29.339415 54.116345 0
M  V30 26 C 39.467316 34.713172 62.253593 0
M  V30 27 C 41.010615 33.136658 63.539887 0
M  V30 28 C 39.856386 25.165418 56.590733 0
M  V30 29 C 41.926397 29.369525 63.546459 0
M  V30 30 C 38.854406 29.669645 56.134490 0
M  V30 31 C 39.015335 27.599832 54.405594 0 CFG=2
M  V30 32 C 38.534961 37.293845 61.510004 0
M  V30 33 C 40.276649 28.639918 59.402131 0
M  V30 34 C 38.774073 29.136676 54.675774 0 CFG=2
M  V30 35 C 38.435930 27.442954 52.989363 0
M  V30 36 O 41.573185 34.038521 64.145353 0
M  V30 37 N 39.026036 29.392669 59.531173 0
M  V30 38 C 38.445363 28.683607 57.233404 0 CFG=1
M  V30 39 H 38.228506 25.604616 54.796466 0
M  V30 40 H 37.238788 26.827791 55.449282 0
M  V30 41 H 38.029608 32.417184 62.247412 0
M  V30 42 H 39.006866 31.418932 62.978391 0
M  V30 43 H 41.106219 35.846856 63.166445 0
M  V30 44 H 37.736862 30.171522 61.009892 0
M  V30 45 H 39.209690 29.518207 61.611040 0
M  V30 46 H 39.328061 26.701453 59.298467 0
M  V30 47 H 40.965170 26.753271 58.653474 0
M  V30 48 H 37.700362 34.018983 61.194547 0
M  V30 49 H 40.267329 38.043163 62.542979 0
M  V30 50 H 43.467445 33.027818 65.454441 0
M  V30 51 H 43.384625 31.741234 66.645920 0
M  V30 52 H 41.973573 32.751207 66.377289 0
M  V30 53 H 40.360601 27.816686 56.712503 0
M  V30 54 H 43.189444 29.480752 65.421666 0
M  V30 55 H 37.802643 32.543029 59.671007 0
M  V30 56 H 39.067439 31.958636 58.649116 0
M  V30 57 H 39.367290 33.380827 59.600191 0
M  V30 58 H 35.397906 35.568612 58.936909 0
M  V30 59 H 35.741780 34.448196 60.243170 0
M  V30 60 H 36.965960 34.778344 58.989119 0
M  V30 61 H 40.470010 31.465306 60.674899 0
M  V30 62 H 40.737796 30.021527 54.257474 0
M  V30 63 H 39.413752 31.085296 53.904645 0
M  V30 64 H 39.784025 29.788188 52.799662 0
M  V30 65 H 37.119122 28.821452 51.983133 0
M  V30 66 H 36.291685 27.752493 53.094715 0
M  V30 67 H 36.667416 29.118439 54.907533 0
M  V30 68 H 37.175867 30.377395 53.853501 0
M  V30 69 H 40.667371 25.372446 55.895870 0
M  V30 70 H 39.334016 24.275448 56.243140 0
M  V30 71 H 40.267518 24.913540 57.566479 0
M  V30 72 H 41.207622 28.607231 63.851108 0
M  V30 73 H 42.660634 28.946367 62.860527 0
M  V30 74 H 39.867753 30.005131 56.357604 0
M  V30 75 H 38.253566 30.579546 56.204531 0
M  V30 76 H 40.066714 27.324826 54.406433 0
M  V30 77 H 38.182009 38.275369 61.230370 0
M  V30 78 H 40.728142 28.462993 60.379838 0
M  V30 79 H 40.995051 29.233480 58.834935 0
M  V30 80 H 38.184389 26.421434 52.723347 0
M  V30 81 H 39.157924 27.769474 52.240790 0
M  V30 82 H 37.467401 28.288006 56.984580 0
M  V30 83 H 38.167394 26.004336 57.249014 0
M  V30 END ATOM
M  V30 BEGIN BOND
M  V30 1 1 8 2
M  V30 2 1 10 3
M  V30 3 1 12 11
M  V30 4 1 13 7
M  V30 5 2 14 12
M  V30 6 1 15 1
M  V30 7 1 15 13
M  V30 8 1 17 4
M  V30 9 1 18 4
M  V30 10 2 18 9
M  V30 11 1 19 2
M  V30 12 1 19 6
M  V30 13 1 19 16
M  V30 14 2 21 5
M  V30 15 1 21 12
M  V30 16 2 24 22
M  V30 17 1 25 23
M  V30 18 2 26 3
M  V30 19 1 26 8
M  V30 20 1 26 9
M  V30 21 1 27 8
M  V30 22 1 27 21
M  V30 23 1 28 15
M  V30 24 1 29 5
M  V30 25 1 29 14
M  V30 26 1 31 1
M  V30 27 2 32 10
M  V30 28 1 32 18
M  V30 29 1 33 7
M  V30 30 1 34 20 CFG=3
M  V30 31 1 34 25
M  V30 32 1 34 30
M  V30 33 1 34 31
M  V30 34 1 35 23
M  V30 35 1 35 31
M  V30 36 2 36 27
M  V30 37 1 37 6
M  V30 38 1 37 22
M  V30 39 1 37 33
M  V30 40 1 38 13
M  V30 41 1 38 22
M  V30 42 1 38 30
M  V30 43 1 39 1
M  V30 44 1 40 1
M  V30 45 1 41 2
M  V30 46 1 42 2
M  V30 47 1 43 3
M  V30 48 1 44 6
M  V30 49 1 45 6
M  V30 50 1 46 7
M  V30 51 1 47 7
M  V30 52 1 48 9
M  V30 53 1 49 10
M  V30 54 1 50 11
M  V30 55 1 51 11
M  V30 56 1 52 11
M  V30 57 1 13 53 CFG=3
M  V30 58 1 54 14
M  V30 59 1 55 16
M  V30 60 1 56 16
M  V30 61 1 57 16
M  V30 62 1 58 17
M  V30 63 1 59 17
M  V30 64 1 60 17
M  V30 65 1 19 61 CFG=3
M  V30 66 1 62 20
M  V30 67 1 63 20
M  V30 68 1 64 20
M  V30 69 1 65 23
M  V30 70 1 66 23
M  V30 71 1 67 25
M  V30 72 1 68 25
M  V30 73 1 69 28
M  V30 74 1 70 28
M  V30 75 1 71 28
M  V30 76 1 72 29
M  V30 77 1 73 29
M  V30 78 1 74 30
M  V30 79 1 75 30
M  V30 80 1 31 76 CFG=3
M  V30 81 1 77 32
M  V30 82 1 78 33
M  V30 83 1 79 33
M  V30 84 1 80 35
M  V30 85 1 81 35
M  V30 86 1 38 82 CFG=3
M  V30 87 1 15 83 CFG=1
M  V30 END BOND
M  V30 END CTAB
M  END
>  <i_epik_Tot_Q>  (1) 
1

>  <i_epik_Tot_abs_Q>  (1) 
1

>  <i_i_glide_confnum>  (1) 
237

>  <i_i_glide_lignum>  (1) 
59

>  <i_i_glide_posenum>  (1) 
160

>  <i_i_glide_rotatable_bonds>  (1) 
8

>  <i_lp_mmshare_version>  (1) 
72125

>  <i_m_source_file_index>  (1) 
24

>  <i_f3d_flags>  (1) 
0

>  <num_sample>  (1) 
100

>  <b_lp_Chiralities_Consistent>  (1) 
1

>  <r_epik_Charging_Adjusted_Penalty>  (1) 
0.0029773975431382485

>  <r_epik_Ionization_Penalty>  (1) 
0.013183626931022738

>  <r_epik_Ionization_Penalty_Charging>  (1) 
0.0029773975431382485

>  <r_epik_Ionization_Penalty_Neutral>  (1) 
0.010206229387884489

>  <r_epik_State_Penalty>  (1) 
-0

>  <r_glide_ring_energy>  (1) 
0

>  <r_i_docking_score>  (1) 
-8.4934520692632525

>  <r_i_glide_ecoul>  (1) 
-0.43131216542455492

>  <r_i_glide_eff_state_penalty>  (1) 
-0

>  <r_i_glide_einternal>  (1) 
35.531754619673592

>  <r_i_glide_emodel>  (1) 
-52.58150333898827

>  <r_i_glide_emodel_strain>  (1) 
0.46083254501061788

>  <r_i_glide_energy>  (1) 
-51.751814127366778

>  <r_i_glide_erotb>  (1) 
0.5287100460970352

>  <r_i_glide_esite>  (1) 
0

>  <r_i_glide_evdw>  (1) 
-51.32050196194222

>  <r_i_glide_gscore>  (1) 
-8.4934520692632525

>  <r_i_glide_gscore_strain>  (1) 
0

>  <r_i_glide_hbond>  (1) 
-0.014136340759018656

>  <r_i_glide_ligand_efficiency>  (1) 
-0.22351189655955928

>  <r_i_glide_ligand_efficiency_ln>  (1) 
-1.8314381181792125

>  <r_i_glide_ligand_efficiency_sa>  (1) 
-0.7514414993602323

>  <r_i_glide_lipo>  (1) 
-4.9071789336714335

>  <r_i_glide_metal>  (1) 
-0

>  <r_i_glide_rewards>  (1) 
-1.4701249180190412

>  <r_lp_Energy>  (1) 
98.080461999999997

>  <r_lp_tautomer_probability>  (1) 
1

>  <s_epik_Chemistry_Notes>  (1) 
This compound has an imine and may undergo hydrolysis.

>  <s_epik_cmdline>  (1) 
J2VwaWtfcHl0aG9uJywgJy1waHQnLCAnMS4wJywgJy1waCcsICc3LjQnLCAnLXRuJywgJzgnLCAnLW1hJywgJzUwMCcsICctaW1hZScsICc8aW5maWxlLm1hZT4nLCAnLW9tYWUnLCAnPG91dGZpbGUubWFlPic=

>  <s_epik_input>  (1) 
W0NIMl0xW0NIMl1bQ0gyXVtDQEBIXShbQ0BAXTEyW0NIM10pW0NIMl1OKFtDSDNdKVtDQEhdM1tDQEhdKFtDSDJdMilDKD1PKU4oW0NIMl1bQ0gyXTMpW0NIMl1bQ0BASF0oW0NIM10pW0NIMl1OKGMoW2NIXVtjSF1bY0hdNClbY0hdYzRPW0NIM10pQyg9TylDNT1OW0NIMl1bQ0hdPUM1W0NIM10=

>  <s_glide_docking_method>  (1) 
confgen

>  <s_i_glide_gridfile>  (1) 
gpcr_5ht2c_6bqh_protein_autoprepared_prepared

>  <s_lp_Force_Field>  (1) 
S-OPLS

>  <s_lp_Variant>  (1) 
DiffSBDD_23_num_sample_100-2

>  <s_m_source_file>  (1) 
generated__ligand_DiffSBDD_2026-05-06_prepared.sdf

>  <GenAI_Model>  (1) 
DiffSBDD

>  <Protein>  (1) 
GPCR_5HT2C

$$$$
DiffSBDD_69_num_sample_100
     RDKit          3D

  0  0  0  0  0  0  0  0  0  0999 V3000
M  V30 BEGIN CTAB
M  V30 COUNTS 67 72 0 0 1
M  V30 BEGIN ATOM
M  V30 1 C 39.957973 30.164377 52.389902 0
M  V30 2 C 42.468947 34.538744 65.236551 0 CFG=1
M  V30 3 C 37.615010 33.290997 60.104563 0
M  V30 4 C 41.248129 34.107239 64.448428 0 CFG=1
M  V30 5 C 38.013567 30.909367 60.460833 0
M  V30 6 C 38.294062 25.407983 55.695115 0
M  V30 7 C 37.298179 34.670464 60.663794 0
M  V30 8 C 38.908818 28.213193 56.670851 0
M  V30 9 N 38.404540 35.626224 60.653659 0
M  V30 10 C 39.525036 34.541088 62.562001 0
M  V30 11 C 38.067577 31.828242 58.197985 0
M  V30 12 O 40.422001 36.445560 61.673942 0
M  V30 13 C 37.365998 24.358492 56.279119 0
M  V30 14 C 38.196443 31.614964 56.688360 0 CFG=1
M  V30 15 C 37.716411 32.182168 60.973589 0
M  V30 16 C 39.760085 29.706136 51.075477 0
M  V30 17 O 42.296597 34.424284 66.661805 0
M  V30 18 C 39.467363 29.412626 53.481964 0
M  V30 19 C 41.125182 34.641249 65.859362 0 CFG=1
M  V30 20 C 39.761539 29.854230 54.919881 0 CFG=1
M  V30 21 C 38.188316 30.730775 59.079147 0
M  V30 22 N 36.458740 23.837218 55.453622 0
M  V30 23 C 40.153701 31.273008 55.183013 0
M  V30 24 C 38.558277 27.766544 51.925987 0
M  V30 25 C 40.683925 34.876463 63.280063 0
M  V30 26 O 37.467096 24.021563 57.453686 0
M  V30 27 C 39.067095 28.505166 50.846125 0
M  V30 28 C 39.465086 32.067955 56.000870 0
M  V30 29 O 40.241230 30.424759 50.023976 0
M  V30 30 C 38.809584 29.380975 56.011163 0
M  V30 31 C 39.465329 25.761335 56.635688 0
M  V30 32 C 37.792503 33.113098 58.713878 0
M  V30 33 O 37.808492 30.276343 56.314026 0
M  V30 34 C 38.756083 28.217271 53.240703 0
M  V30 35 C 39.992312 27.174339 56.421591 0
M  V30 36 C 39.416355 35.514818 61.617267 0
M  V30 37 C 41.200993 36.018658 62.735388 0
M  V30 38 H 40.505282 31.078690 52.560402 0
M  V30 39 H 42.958584 35.464489 64.934690 0
M  V30 40 H 41.102858 33.037569 64.316805 0
M  V30 41 H 38.098627 30.065248 61.128907 0
M  V30 42 H 37.650905 26.266689 55.517506 0
M  V30 43 H 38.673662 25.083474 54.724942 0
M  V30 44 H 36.483940 35.090505 60.070700 0
M  V30 45 H 36.899435 34.578066 61.675142 0
M  V30 46 H 38.186947 27.976844 57.438702 0
M  V30 47 H 38.365365 36.385130 59.988934 0
M  V30 48 H 38.866206 33.710423 62.716892 0
M  V30 49 H 37.467748 32.274066 56.228374 0
M  V30 50 H 37.565160 32.307758 62.032993 0
M  V30 51 H 40.713538 35.644822 65.966273 0
M  V30 52 H 40.699559 29.366546 55.151024 0
M  V30 53 H 38.399428 29.749705 58.695966 0
M  V30 54 H 36.413383 24.146284 54.492291 0
M  V30 55 H 35.816621 23.136197 55.791539 0
M  V30 56 H 41.049819 31.621513 54.700379 0
M  V30 57 H 38.020504 26.846114 51.745435 0
M  V30 58 H 38.917880 28.154294 49.840609 0
M  V30 59 H 39.789854 33.081480 56.177722 0
M  V30 60 H 39.815526 30.190339 49.212786 0
M  V30 61 H 40.267395 25.037646 56.489509 0
M  V30 62 H 39.180769 25.692229 57.685785 0
M  V30 63 H 37.698715 33.955138 58.043380 0
M  V30 64 H 38.380115 27.638167 54.062546 0
M  V30 65 H 40.404703 27.243284 55.417142 0
M  V30 66 H 40.814538 27.364200 57.113577 0
M  V30 67 H 42.060302 36.635084 62.956320 0
M  V30 END ATOM
M  V30 BEGIN BOND
M  V30 1 1 4 2
M  V30 2 1 7 3
M  V30 3 1 9 7
M  V30 4 1 13 6
M  V30 5 1 14 11
M  V30 6 1 15 3
M  V30 7 2 15 5
M  V30 8 2 16 1
M  V30 9 1 17 2
M  V30 10 1 18 1
M  V30 11 1 19 2
M  V30 12 1 19 4
M  V30 13 1 19 17
M  V30 14 1 20 18
M  V30 15 1 21 5
M  V30 16 2 21 11
M  V30 17 1 22 13
M  V30 18 1 23 20
M  V30 19 1 25 4
M  V30 20 1 25 10
M  V30 21 2 26 13
M  V30 22 1 27 16
M  V30 23 2 27 24
M  V30 24 1 28 14
M  V30 25 2 28 23
M  V30 26 1 29 16
M  V30 27 2 30 8
M  V30 28 1 30 20
M  V30 29 1 31 6
M  V30 30 2 32 3
M  V30 31 1 32 11
M  V30 32 1 33 14
M  V30 33 1 33 30
M  V30 34 2 34 18
M  V30 35 1 34 24
M  V30 36 1 35 8
M  V30 37 1 35 31
M  V30 38 1 36 9
M  V30 39 2 36 10
M  V30 40 1 36 12
M  V30 41 1 37 12
M  V30 42 2 37 25
M  V30 43 1 38 1
M  V30 44 1 2 39 CFG=3
M  V30 45 1 4 40 CFG=1
M  V30 46 1 41 5
M  V30 47 1 42 6
M  V30 48 1 43 6
M  V30 49 1 44 7
M  V30 50 1 45 7
M  V30 51 1 46 8
M  V30 52 1 47 9
M  V30 53 1 48 10
M  V30 54 1 14 49 CFG=3
M  V30 55 1 50 15
M  V30 56 1 19 51 CFG=1
M  V30 57 1 20 52 CFG=1
M  V30 58 1 53 21
M  V30 59 1 54 22
M  V30 60 1 55 22
M  V30 61 1 56 23
M  V30 62 1 57 24
M  V30 63 1 58 27
M  V30 64 1 59 28
M  V30 65 1 60 29
M  V30 66 1 61 31
M  V30 67 1 62 31
M  V30 68 1 63 32
M  V30 69 1 64 34
M  V30 70 1 65 35
M  V30 71 1 66 35
M  V30 72 1 67 37
M  V30 END BOND
M  V30 END CTAB
M  END
>  <i_epik_Tot_Q>  (1) 
0

>  <i_epik_Tot_abs_Q>  (1) 
0

>  <i_i_glide_confnum>  (1) 
400

>  <i_i_glide_lignum>  (1) 
178

>  <i_i_glide_posenum>  (1) 
255

>  <i_i_glide_rotatable_bonds>  (1) 
11

>  <i_lp_mmshare_version>  (1) 
72125

>  <i_m_source_file_index>  (1) 
70

>  <i_f3d_flags>  (1) 
0

>  <num_sample>  (1) 
100

>  <b_lp_Chiralities_Consistent>  (1) 
1

>  <r_epik_Charging_Adjusted_Penalty>  (1) 
0

>  <r_epik_Ionization_Penalty>  (1) 
0.0027858750297933624

>  <r_epik_Ionization_Penalty_Charging>  (1) 
0

>  <r_epik_Ionization_Penalty_Neutral>  (1) 
0.0027858750297933624

>  <r_epik_State_Penalty>  (1) 
-0

>  <r_glide_ring_energy>  (1) 
1.6699314456563878

>  <r_i_docking_score>  (1) 
-8.4441037829215606

>  <r_i_glide_ecoul>  (1) 
-2.8942052740172661

>  <r_i_glide_eff_state_penalty>  (1) 
-0

>  <r_i_glide_einternal>  (1) 
7.8309500621042369

>  <r_i_glide_emodel>  (1) 
-76.591143960663246

>  <r_i_glide_emodel_strain>  (1) 
1.0331269111391492

>  <r_i_glide_energy>  (1) 
-56.902532783221126

>  <r_i_glide_erotb>  (1) 
0.7388310729384443

>  <r_i_glide_esite>  (1) 
0

>  <r_i_glide_evdw>  (1) 
-54.008327509203859

>  <r_i_glide_gscore>  (1) 
-8.4441037829215606

>  <r_i_glide_gscore_strain>  (1) 
0

>  <r_i_glide_hbond>  (1) 
0

>  <r_i_glide_ligand_efficiency>  (1) 
-0.22821902116004217

>  <r_i_glide_ligand_efficiency_ln>  (1) 
-1.8313281526365579

>  <r_i_glide_ligand_efficiency_sa>  (1) 
-0.76047640927074289

>  <r_i_glide_lipo>  (1) 
-4.8545918114273352

>  <r_i_glide_metal>  (1) 
-0

>  <r_i_glide_rewards>  (1) 
-1.1937958778698863

>  <r_lp_Energy>  (1) 
41.231663999999995

>  <r_lp_tautomer_probability>  (1) 
1

>  <s_epik_cmdline>  (1) 
J2VwaWtfcHl0aG9uJywgJy1waHQnLCAnMS4wJywgJy1waCcsICc3LjQnLCAnLXRuJywgJzgnLCAnLW1hJywgJzUwMCcsICctaW1hZScsICc8aW5maWxlLm1hZT4nLCAnLW9tYWUnLCAnPG91dGZpbGUubWFlPic=

>  <s_epik_input>  (1) 
W05IMl1DKD1PKVtDSDJdW0NIMl1bQ0gyXS9bQ0hdPUMoTzEpXFtDQEBIXShjKFtjSF1jMltPSF0pW2NIXVtjSF1bY0hdMilbQ0hdPVtDSF1bQ0BASF0xYyhbY0hdMylbY0hdW2NIXVtjSF1jM1tDSDJdW05IXWMob1tjSF00KVtjSF1jNFtDQEBIXTVbQ0hdKE82KVtDSF01Ng==

>  <s_glide_docking_method>  (1) 
confgen

>  <s_i_glide_gridfile>  (1) 
gpcr_5ht2c_6bqh_protein_autoprepared_prepared

>  <s_lp_Force_Field>  (1) 
S-OPLS

>  <s_lp_Variant>  (1) 
DiffSBDD_69_num_sample_100-2

>  <s_m_source_file>  (1) 
generated__ligand_DiffSBDD_2026-05-06_prepared.sdf

>  <GenAI_Model>  (1) 
DiffSBDD

>  <Protein>  (1) 
GPCR_5HT2C

$$$$
DiffSBDD_71_num_sample_100
     RDKit          3D

  0  0  0  0  0  0  0  0  0  0999 V3000
M  V30 BEGIN CTAB
M  V30 COUNTS 57 61 0 0 1
M  V30 BEGIN ATOM
M  V30 1 C 39.037823 32.466037 60.038040 0 CFG=2
M  V30 2 C 39.730432 35.900226 61.846471 0
M  V30 3 C 41.019752 32.154052 63.777748 0
M  V30 4 N 37.871864 32.238818 59.188732 0
M  V30 5 C 42.077403 33.596409 65.513950 0
M  V30 6 C 38.417657 28.488003 53.611098 0
M  V30 7 C 39.391903 28.385014 56.487549 0
M  V30 8 C 41.695640 34.928794 64.841956 0
M  V30 9 C 39.467370 31.143813 60.653737 0
M  V30 10 C 38.398255 28.324862 52.213354 0
M  V30 11 C 39.867422 30.253264 51.963290 0
M  V30 12 N 39.884743 33.484473 62.179304 0
M  V30 13 C 40.351242 32.235254 62.644877 0
M  V30 14 O 42.690683 33.621462 66.578460 0
M  V30 15 C 38.500612 33.176740 55.506176 0
M  V30 16 C 41.723853 32.231198 64.887434 0
M  V30 17 C 39.514113 26.025972 57.770436 0
M  V30 18 C 39.247853 29.695836 55.718628 0 CFG=1
M  V30 19 C 38.569873 32.301464 56.763454 0 CFG=1
M  V30 20 C 41.022505 34.946031 63.713283 0
M  V30 21 C 37.862236 33.014336 57.948366 0
M  V30 22 C 39.174547 29.534805 54.193105 0
M  V30 23 C 40.280497 34.748053 62.643591 0
M  V30 24 C 39.887695 30.421434 53.361008 0
M  V30 25 S 38.573703 35.203977 60.653510 0
M  V30 26 N 38.330820 26.442024 57.256037 0
M  V30 27 S 37.867406 30.651128 56.394052 0
M  V30 28 C 40.631501 27.997937 57.012131 0
M  V30 29 C 40.692073 26.780452 57.680646 0
M  V30 30 C 38.792718 33.485250 61.193855 0 CFG=1
M  V30 31 N 38.267415 27.630483 56.626888 0
M  V30 32 C 39.127090 29.202899 51.390755 0
M  V30 33 C 40.069357 31.055675 61.849572 0
M  V30 34 H 39.867398 32.821447 59.430513 0
M  V30 35 H 40.534974 36.422888 61.327487 0
M  V30 36 H 39.210776 36.609594 62.492231 0
M  V30 37 H 37.014354 32.403335 59.696698 0
M  V30 38 H 37.861821 27.806193 54.231848 0
M  V30 39 H 42.004182 35.843568 65.328012 0
M  V30 40 H 39.277141 30.248795 60.078280 0
M  V30 41 H 37.826611 27.521549 51.771784 0
M  V30 42 H 40.423193 30.930438 51.330069 0
M  V30 43 H 38.932888 34.160675 55.675731 0
M  V30 44 H 37.467402 33.322434 55.189668 0
M  V30 45 H 39.031767 32.722361 54.674287 0
M  V30 46 H 42.088865 31.344159 65.383385 0
M  V30 47 H 39.515636 25.066222 58.253496 0
M  V30 48 H 40.148721 30.271341 55.924108 0
M  V30 49 H 39.613292 32.166304 57.038774 0
M  V30 50 H 36.824925 33.221430 57.688573 0
M  V30 51 H 38.302941 33.995840 58.115032 0
M  V30 52 H 40.467545 31.221380 53.795860 0
M  V30 53 H 41.508010 28.612326 56.894991 0
M  V30 54 H 41.618630 26.421424 58.101487 0
M  V30 55 H 37.887872 33.201658 61.732952 0
M  V30 56 H 39.112586 29.074481 50.317935 0
M  V30 57 H 40.359016 30.083166 62.222992 0
M  V30 END ATOM
M  V30 BEGIN BOND
M  V30 1 1 4 1
M  V30 2 1 8 5
M  V30 3 1 9 1
M  V30 4 1 10 6
M  V30 5 2 13 3
M  V30 6 1 13 12
M  V30 7 2 14 5
M  V30 8 2 16 3
M  V30 9 1 16 5
M  V30 10 1 18 7
M  V30 11 1 19 15
M  V30 12 2 20 8
M  V30 13 1 21 4
M  V30 14 1 21 19
M  V30 15 2 22 6
M  V30 16 1 22 18
M  V30 17 1 23 2
M  V30 18 1 23 12
M  V30 19 2 23 20
M  V30 20 2 24 11
M  V30 21 1 24 22
M  V30 22 1 25 2
M  V30 23 1 26 17
M  V30 24 1 27 18
M  V30 25 1 27 19
M  V30 26 2 28 7
M  V30 27 2 29 17
M  V30 28 1 29 28
M  V30 29 1 30 1
M  V30 30 1 30 12
M  V30 31 1 30 25
M  V30 32 1 31 7
M  V30 33 2 31 26
M  V30 34 2 32 10
M  V30 35 1 32 11
M  V30 36 2 33 9
M  V30 37 1 33 13
M  V30 38 1 1 34 CFG=3
M  V30 39 1 35 2
M  V30 40 1 36 2
M  V30 41 1 37 4
M  V30 42 1 38 6
M  V30 43 1 39 8
M  V30 44 1 40 9
M  V30 45 1 41 10
M  V30 46 1 42 11
M  V30 47 1 43 15
M  V30 48 1 44 15
M  V30 49 1 45 15
M  V30 50 1 46 16
M  V30 51 1 47 17
M  V30 52 1 18 48 CFG=3
M  V30 53 1 19 49 CFG=1
M  V30 54 1 50 21
M  V30 55 1 51 21
M  V30 56 1 52 24
M  V30 57 1 53 28
M  V30 58 1 54 29
M  V30 59 1 30 55 CFG=1
M  V30 60 1 56 32
M  V30 61 1 57 33
M  V30 END BOND
M  V30 END CTAB
M  END
>  <i_epik_Tot_Q>  (1) 
0

>  <i_epik_Tot_abs_Q>  (1) 
0

>  <i_i_glide_confnum>  (1) 
91

>  <i_i_glide_lignum>  (1) 
180

>  <i_i_glide_posenum>  (1) 
54

>  <i_i_glide_rotatable_bonds>  (1) 
7

>  <i_lp_mmshare_version>  (1) 
72125

>  <i_m_source_file_index>  (1) 
72

>  <i_f3d_flags>  (1) 
0

>  <num_sample>  (1) 
100

>  <b_lp_Chiralities_Consistent>  (1) 
1

>  <r_epik_Charging_Adjusted_Penalty>  (1) 
0.0075576566344756546

>  <r_epik_Ionization_Penalty>  (1) 
0.0075696552327297675

>  <r_epik_Ionization_Penalty_Charging>  (1) 
0

>  <r_epik_Ionization_Penalty_Neutral>  (1) 
0.0075696552327297675

>  <r_epik_State_Penalty>  (1) 
0.0075576566344756546

>  <r_glide_ring_energy>  (1) 
0

>  <r_i_docking_score>  (1) 
-8.4382251049444044

>  <r_i_glide_ecoul>  (1) 
-1.8637010961514302

>  <r_i_glide_eff_state_penalty>  (1) 
0.0075576566344756546

>  <r_i_glide_einternal>  (1) 
6.8789455502120109

>  <r_i_glide_emodel>  (1) 
-79.332448021245497

>  <r_i_glide_emodel_strain>  (1) 
0.66161456019774789

>  <r_i_glide_energy>  (1) 
-53.367519099946136

>  <r_i_glide_erotb>  (1) 
0.54314142718381586

>  <r_i_glide_esite>  (1) 
0

>  <r_i_glide_evdw>  (1) 
-51.503818003794706

>  <r_i_glide_gscore>  (1) 
-8.4457827615788794

>  <r_i_glide_gscore_strain>  (1) 
0

>  <r_i_glide_hbond>  (1) 
0

>  <r_i_glide_ligand_efficiency>  (1) 
-0.25570379105892133

>  <r_i_glide_ligand_efficiency_ln>  (1) 
-1.876617572548323

>  <r_i_glide_ligand_efficiency_sa>  (1) 
-0.82017868813157013

>  <r_i_glide_lipo>  (1) 
-4.771245421886773

>  <r_i_glide_metal>  (1) 
-0

>  <r_i_glide_rewards>  (1) 
-1.3629327022634719

>  <r_lp_Energy>  (1) 
30.938364999999997

>  <r_lp_tautomer_probability>  (1) 
1

>  <s_epik_Chemistry_Notes>  (1) 
This compound contains an acetal/aminal-like group ( X-CH(R)-Y where X, Y are N, S, or O) that may be acid/base labile, releasing an aldehyde.

>  <s_epik_cmdline>  (1) 
J2VwaWtfcHl0aG9uJywgJy1waHQnLCAnMS4wJywgJy1waCcsICc3LjQnLCAnLXRuJywgJzgnLCAnLW1hJywgJzUwMCcsICctaW1hZScsICc8aW5maWxlLm1hZT4nLCAnLW9tYWUnLCAnPG91dGZpbGUubWFlPic=

>  <s_epik_input>  (1) 
W2NIXTFbY0hdW2NIXVtjSF1bY0hdYzFbQ0BIXShjMltjSF1bY0hdW2NIXW5uMilTW0NAQEhdKFtDSDNdKVtDSDJdW05IXVtDQEhdKFtDSF09W0NIXTMpW0NAQEhdNFNbQ0gyXUM1PUM9W0NIXUMoPU8pW0NIXT1DPUMzTjQ1

>  <s_glide_docking_method>  (1) 
confgen

>  <s_i_glide_gridfile>  (1) 
gpcr_5ht2c_6bqh_protein_autoprepared_prepared

>  <s_lp_Force_Field>  (1) 
S-OPLS

>  <s_lp_Variant>  (1) 
DiffSBDD_71_num_sample_100-1

>  <s_m_source_file>  (1) 
generated__ligand_DiffSBDD_2026-05-06_prepared.sdf

>  <GenAI_Model>  (1) 
DiffSBDD

>  <Protein>  (1) 
GPCR_5HT2C

$$$$
DiffSBDD_80_num_sample_100
     RDKit          3D

  0  0  0  0  0  0  0  0  0  0999 V3000
M  V30 BEGIN CTAB
M  V30 COUNTS 73 76 0 0 1
M  V30 BEGIN ATOM
M  V30 1 C 37.598403 30.476544 58.077086 0
M  V30 2 C 39.134924 29.912518 62.016003 0
M  V30 3 N 40.291410 30.528647 62.711079 0 CFG=1 CHG=1
M  V30 4 O 38.062556 28.711074 55.913500 0
M  V30 5 O 41.067394 28.421404 60.609309 0
M  V30 6 O 36.667397 30.895276 59.053502 0
M  V30 7 C 41.863414 31.921206 64.772456 0 CFG=2
M  V30 8 C 41.441951 32.669467 63.478768 0 CFG=2
M  V30 9 C 39.083685 28.076592 51.145815 0
M  V30 10 C 39.419259 26.822189 55.556326 0
M  V30 11 O 39.652627 30.382875 54.594326 0
M  V30 12 C 39.454827 29.623818 53.475973 0
M  V30 13 O 40.268365 36.942129 61.853517 0
M  V30 14 C 38.665835 27.575242 52.392424 0
M  V30 15 C 40.133495 34.908196 63.104321 0
M  V30 16 C 39.867392 30.118205 52.222936 0
M  V30 17 O 40.267397 26.623510 57.807709 0
M  V30 18 C 41.933400 30.401672 64.548316 0
M  V30 19 O 40.087380 29.831735 49.853513 0
M  V30 20 C 41.341026 34.197501 63.712280 0
M  V30 21 C 39.684292 29.346327 51.061520 0
M  V30 22 C 38.847368 28.511574 57.085777 0 CFG=1
M  V30 23 C 39.277183 30.020188 60.508526 0 CFG=2
M  V30 24 C 38.069418 29.029732 58.316587 0 CFG=1
M  V30 25 C 40.181548 32.006243 62.850212 0
M  V30 26 C 39.145066 27.009606 57.038024 0 CFG=1
M  V30 27 C 40.527651 35.742790 61.894020 0
M  V30 28 C 38.841617 28.841150 59.627427 0 CFG=1
M  V30 29 C 42.267405 34.874988 64.418206 0
M  V30 30 C 41.451275 32.191852 67.104890 0
M  V30 31 C 40.300040 29.224828 59.745884 0 CFG=2
M  V30 32 C 38.395909 27.761153 54.910266 0 CFG=2
M  V30 33 C 38.846293 28.338286 53.563422 0
M  V30 34 C 40.608970 29.865984 63.996355 0
M  V30 35 O 40.913026 32.213019 65.790828 0
M  V30 36 H 38.429165 31.178591 58.005321 0
M  V30 37 H 37.075743 30.530665 57.123209 0
M  V30 38 H 38.197590 30.366666 62.337319 0
M  V30 39 H 39.067408 28.850915 62.253520 0
M  V30 40 H 41.326188 27.637322 60.142410 0
M  V30 41 H 35.986376 31.341372 58.547373 0
M  V30 42 H 42.856368 32.254120 65.076251 0
M  V30 43 H 42.251002 32.542803 62.757415 0
M  V30 44 H 38.944057 27.483729 50.253525 0
M  V30 45 H 39.595183 29.467256 49.131921 0
M  V30 46 H 39.330086 25.789564 55.217016 0
M  V30 47 H 40.428923 27.165725 55.325104 0
M  V30 48 H 39.956847 31.256395 54.401067 0
M  V30 49 H 38.206671 26.601077 52.452720 0
M  V30 50 H 39.295866 34.266188 62.851598 0
M  V30 51 H 39.751858 35.601628 63.854681 0
M  V30 52 H 40.329903 31.092590 52.152695 0
M  V30 53 H 41.052759 26.910078 57.364746 0
M  V30 54 H 42.183245 29.887195 65.476098 0
M  V30 55 H 42.741487 30.171884 63.851955 0
M  V30 56 H 39.772026 29.074919 56.952118 0
M  V30 57 H 39.137624 31.032907 60.140830 0
M  V30 58 H 37.166403 28.424432 58.390572 0
M  V30 59 H 40.004551 32.430408 61.861414 0
M  V30 60 H 39.304209 32.223863 63.453506 0
M  V30 61 H 38.266905 26.436183 57.339450 0
M  V30 62 H 41.034155 35.205460 61.091794 0
M  V30 63 H 38.577330 27.915512 60.135131 0
M  V30 64 H 42.178790 35.942325 64.571715 0
M  V30 65 H 43.120223 34.376331 64.848582 0
M  V30 66 H 40.665538 32.403165 67.829279 0
M  V30 67 H 41.879760 31.220939 67.353030 0
M  V30 68 H 42.222445 32.954468 67.222010 0
M  V30 69 H 40.835487 29.621428 58.888841 0
M  V30 70 H 37.477336 27.199270 54.734065 0
M  V30 71 H 39.800120 30.025014 64.711570 0
M  V30 72 H 40.694333 28.788556 63.849064 0
M  V30 73 H 41.074320 30.325970 62.109764 0
M  V30 END ATOM
M  V30 BEGIN BOND
M  V30 1 1 3 2
M  V30 2 1 6 1
M  V30 3 1 8 7
M  V30 4 1 12 11
M  V30 5 2 14 9
M  V30 6 1 16 12
M  V30 7 1 18 7
M  V30 8 1 20 8
M  V30 9 1 20 15
M  V30 10 1 21 9
M  V30 11 2 21 16
M  V30 12 1 21 19
M  V30 13 1 22 4
M  V30 14 1 23 2
M  V30 15 1 24 1
M  V30 16 1 24 22
M  V30 17 1 25 3
M  V30 18 1 25 8
M  V30 19 1 26 10
M  V30 20 1 26 17
M  V30 21 1 26 22
M  V30 22 2 27 13
M  V30 23 1 27 15
M  V30 24 1 28 23
M  V30 25 1 28 24
M  V30 26 2 29 20
M  V30 27 1 31 5
M  V30 28 1 31 23
M  V30 29 1 31 28
M  V30 30 1 32 4
M  V30 31 1 32 10
M  V30 32 2 33 12
M  V30 33 1 33 14
M  V30 34 1 33 32
M  V30 35 1 34 3
M  V30 36 1 34 18
M  V30 37 1 35 7
M  V30 38 1 35 30
M  V30 39 1 36 1
M  V30 40 1 37 1
M  V30 41 1 38 2
M  V30 42 1 39 2
M  V30 43 1 40 5
M  V30 44 1 41 6
M  V30 45 1 7 42 CFG=1
M  V30 46 1 8 43 CFG=3
M  V30 47 1 44 9
M  V30 48 1 45 19
M  V30 49 1 46 10
M  V30 50 1 47 10
M  V30 51 1 48 11
M  V30 52 1 49 14
M  V30 53 1 50 15
M  V30 54 1 51 15
M  V30 55 1 52 16
M  V30 56 1 53 17
M  V30 57 1 54 18
M  V30 58 1 55 18
M  V30 59 1 22 56 CFG=3
M  V30 60 1 23 57 CFG=3
M  V30 61 1 24 58 CFG=1
M  V30 62 1 59 25
M  V30 63 1 60 25
M  V30 64 1 26 61 CFG=1
M  V30 65 1 62 27
M  V30 66 1 28 63 CFG=1
M  V30 67 1 64 29
M  V30 68 1 65 29
M  V30 69 1 66 30
M  V30 70 1 67 30
M  V30 71 1 68 30
M  V30 72 1 31 69 CFG=3
M  V30 73 1 32 70 CFG=3
M  V30 74 1 71 34
M  V30 75 1 72 34
M  V30 76 1 3 73 CFG=3
M  V30 END BOND
M  V30 END CTAB
M  END
>  <i_epik_Tot_Q>  (1) 
1

>  <i_epik_Tot_abs_Q>  (1) 
1

>  <i_i_glide_confnum>  (1) 
2283

>  <i_i_glide_lignum>  (1) 
210

>  <i_i_glide_posenum>  (1) 
183

>  <i_i_glide_rotatable_bonds>  (1) 
15

>  <i_lp_mmshare_version>  (1) 
72125

>  <i_m_source_file_index>  (1) 
81

>  <i_f3d_flags>  (1) 
0

>  <num_sample>  (1) 
100

>  <b_lp_Chiralities_Consistent>  (1) 
1

>  <r_epik_Charging_Adjusted_Penalty>  (1) 
0.034071705691259377

>  <r_epik_Ionization_Penalty>  (1) 
0.043305258844254187

>  <r_epik_Ionization_Penalty_Charging>  (1) 
0.034071705691259377

>  <r_epik_Ionization_Penalty_Neutral>  (1) 
0.009233553152994808

>  <r_epik_State_Penalty>  (1) 
-0

>  <r_glide_ring_energy>  (1) 
0

>  <r_i_docking_score>  (1) 
-8.422310964383362

>  <r_i_glide_ecoul>  (1) 
-7.2253997097868625

>  <r_i_glide_eff_state_penalty>  (1) 
-0

>  <r_i_glide_einternal>  (1) 
27.275101899207677

>  <r_i_glide_emodel>  (1) 
-63.806623560226711

>  <r_i_glide_emodel_strain>  (1) 
2.8104311259569101

>  <r_i_glide_energy>  (1) 
-54.927958261367316

>  <r_i_glide_erotb>  (1) 
0.67144220787932085

>  <r_i_glide_esite>  (1) 
-0.0020504419443001715

>  <r_i_glide_evdw>  (1) 
-47.702558551580452

>  <r_i_glide_gscore>  (1) 
-8.422310964383362

>  <r_i_glide_gscore_strain>  (1) 
0

>  <r_i_glide_hbond>  (1) 
-0.27819411197929994

>  <r_i_glide_ligand_efficiency>  (1) 
-0.2406374561252389

>  <r_i_glide_ligand_efficiency_ln>  (1) 
-1.8488841798028512

>  <r_i_glide_ligand_efficiency_sa>  (1) 
-0.78714107570075398

>  <r_i_glide_lipo>  (1) 
-4.5181687728892284

>  <r_i_glide_metal>  (1) 
-0

>  <r_i_glide_rewards>  (1) 
-0.82640196140280142

>  <r_lp_Energy>  (1) 
30.281509

>  <r_lp_tautomer_probability>  (1) 
1

>  <s_epik_cmdline>  (1) 
J2VwaWtfcHl0aG9uJywgJy1waHQnLCAnMS4wJywgJy1waCcsICc3LjQnLCAnLXRuJywgJzgnLCAnLW1hJywgJzUwMCcsICctaW1hZScsICc8aW5maWxlLm1hZT4nLCAnLW9tYWUnLCAnPG91dGZpbGUubWFlPic=

>  <s_epik_input>  (1) 
Tz1bQ0hdW0NIMl1DKD1bQ0gyXSlbQ0BASF0oW0NASF0oW0NIMl1bQ0gyXTEpT1tDSDNdKVtDSDJdTjFbQ0gyXVtDQEBIXTJbQ0BASF0oW0NAQEhdMltPSF0pW0NAQEhdKFtDSDJdW09IXSlbQ0BASF0zT1tDQEhdKFtDSDJdW0NASF0zW09IXSlDND1bQ0hdW0NIMl1DKD1PKVtDSF09QzRbT0hd

>  <s_glide_docking_method>  (1) 
confgen

>  <s_i_glide_gridfile>  (1) 
gpcr_5ht2c_6bqh_protein_autoprepared_prepared

>  <s_lp_Force_Field>  (1) 
S-OPLS

>  <s_lp_Variant>  (1) 
DiffSBDD_80_num_sample_100-6

>  <s_m_source_file>  (1) 
generated__ligand_DiffSBDD_2026-05-06_prepared.sdf

>  <GenAI_Model>  (1) 
DiffSBDD

>  <Protein>  (1) 
GPCR_5HT2C

$$$$
DiffSBDD_68_num_sample_100
     RDKit          3D

  0  0  0  0  0  0  0  0  0  0999 V3000
M  V30 BEGIN CTAB
M  V30 COUNTS 94 97 0 0 1
M  V30 BEGIN ATOM
M  V30 1 C 36.803740 30.198142 59.383043 0 CFG=1
M  V30 2 C 40.486964 27.362583 58.328704 0 CFG=1
M  V30 3 C 41.777414 29.931312 64.897249 0
M  V30 4 C 41.254196 36.317849 61.459036 0
M  V30 5 C 40.282671 31.538207 63.119677 0
M  V30 6 N 37.566584 32.279595 60.530028 0
M  V30 7 C 37.646265 24.236232 57.525996 0
M  V30 8 O 37.467336 26.421433 53.476509 0
M  V30 9 C 37.485880 36.148773 60.535574 0
M  V30 10 O 37.889505 30.626462 62.052146 0
M  V30 11 C 37.623952 24.395459 55.990170 0 CFG=2
M  V30 12 C 38.275696 36.821465 62.835385 0
M  V30 13 C 40.479221 31.948033 64.456127 0
M  V30 14 O 42.135271 28.340940 63.138665 0
M  V30 15 C 37.781526 25.896761 55.828985 0 CFG=2
M  V30 16 C 42.002752 27.182738 58.133862 0
M  V30 17 C 40.398565 35.821227 63.846195 0
M  V30 18 C 38.718901 28.823938 59.453655 0
M  V30 19 C 37.897785 33.604688 60.011078 0
M  V30 20 C 38.233748 31.695617 61.576660 0
M  V30 21 O 38.477574 25.274136 58.018246 0
M  V30 22 C 39.018607 36.449581 63.903202 0
M  V30 23 C 39.465699 32.415568 62.156559 0
M  V30 24 C 41.347936 36.588784 62.945281 0
M  V30 25 C 41.591475 29.518128 63.564816 0
M  V30 26 C 39.906180 35.811207 61.037923 0
M  V30 27 C 36.437658 31.606294 59.874887 0
M  V30 28 C 38.714922 30.609446 54.249946 0
M  V30 29 C 35.945617 29.631585 58.263611 0
M  V30 30 C 39.824867 28.023009 55.925104 0
M  V30 31 O 40.667394 28.898523 55.922735 0
M  V30 32 C 38.400335 26.420104 54.528075 0 CFG=2
M  V30 33 C 38.678937 36.674842 61.364396 0 CFG=1
M  V30 34 C 40.177161 28.711384 58.997995 0
M  V30 35 C 41.224136 31.145665 65.341269 0
M  V30 36 N 38.266086 31.782651 54.256183 0
M  V30 37 C 36.397713 23.761786 55.319745 0
M  V30 38 O 38.180599 30.070267 59.043741 0
M  V30 39 C 37.126966 34.676384 60.821945 0
M  V30 40 C 39.610832 27.121256 57.086154 0
M  V30 41 S 37.704357 29.174657 54.653644 0
M  V30 42 C 38.674408 26.158461 57.005879 0
M  V30 43 C 38.950234 27.844339 54.681193 0 CFG=1
M  V30 44 C 40.846289 30.321436 62.673516 0
M  V30 45 H 36.569973 29.619071 60.253380 0
M  V30 46 H 40.195897 26.606582 59.055055 0
M  V30 47 H 42.347515 29.316773 65.580070 0
M  V30 48 H 41.467212 37.230594 60.913343 0
M  V30 49 H 41.998181 35.586122 61.155940 0
M  V30 50 H 37.984069 23.252737 57.852843 0
M  V30 51 H 36.668024 24.419072 57.951599 0
M  V30 52 H 36.805817 27.070977 53.659748 0
M  V30 53 H 37.667349 36.280591 59.468437 0
M  V30 54 H 36.616926 36.769806 60.755711 0
M  V30 55 H 38.526754 23.947317 55.581443 0
M  V30 56 H 37.305212 37.262106 63.011389 0
M  V30 57 H 40.057152 32.875256 64.805375 0
M  V30 58 H 42.324633 28.276599 62.212803 0
M  V30 59 H 36.837081 26.402860 56.029794 0
M  V30 60 H 42.255243 26.135877 58.253733 0
M  V30 61 H 42.373330 27.522841 57.167634 0
M  V30 62 H 42.569897 27.701699 58.905036 0
M  V30 63 H 40.791232 35.894924 64.861274 0
M  V30 64 H 40.375368 34.759128 63.628734 0
M  V30 65 H 38.112860 28.017377 59.048107 0
M  V30 66 H 38.670592 28.718625 60.537822 0
M  V30 67 H 38.968501 33.723515 59.922788 0
M  V30 68 H 37.582398 33.687197 58.971180 0
M  V30 69 H 38.616744 36.603067 64.895058 0
M  V30 70 H 40.151627 32.724310 61.368343 0
M  V30 71 H 39.096414 33.280461 62.699373 0
M  V30 72 H 41.067104 37.621517 63.053567 0
M  V30 73 H 42.371868 36.463798 63.293256 0
M  V30 74 H 39.778633 34.852329 61.495737 0
M  V30 75 H 39.961182 35.628309 59.966929 0
M  V30 76 H 36.062107 32.207556 59.054024 0
M  V30 77 H 35.599850 31.547323 60.571553 0
M  V30 78 H 39.751597 30.372772 53.996871 0
M  V30 79 H 34.910237 29.941158 58.385762 0
M  V30 80 H 36.278758 30.004607 57.297253 0
M  V30 81 H 36.004065 28.544632 58.253262 0
M  V30 82 H 39.222735 25.763044 54.243096 0
M  V30 83 H 38.868453 37.701296 61.053487 0
M  V30 84 H 40.823892 28.827364 59.864070 0
M  V30 85 H 40.431394 29.540177 58.339730 0
M  V30 86 H 41.369695 31.463676 66.363025 0
M  V30 87 H 38.951091 32.476488 53.996426 0
M  V30 88 H 35.468640 24.061026 55.801873 0
M  V30 89 H 36.342532 24.029753 54.264347 0
M  V30 90 H 36.457975 22.676157 55.378420 0
M  V30 91 H 36.061075 34.539781 60.627806 0
M  V30 92 H 37.238762 34.483555 61.882918 0
M  V30 93 H 39.571774 28.019334 53.804190 0
M  V30 94 H 40.700390 30.005438 61.655012 0
M  V30 END ATOM
M  V30 BEGIN BOND
M  V30 1 1 11 7
M  V30 2 2 13 5
M  V30 3 1 15 11
M  V30 4 1 16 2
M  V30 5 1 19 6
M  V30 6 1 20 6
M  V30 7 2 20 10
M  V30 8 1 21 7
M  V30 9 2 22 12
M  V30 10 1 22 17
M  V30 11 1 23 5
M  V30 12 1 23 20
M  V30 13 1 24 4
M  V30 14 1 24 17
M  V30 15 1 25 3
M  V30 16 1 25 14
M  V30 17 1 26 4
M  V30 18 1 27 1
M  V30 19 1 27 6
M  V30 20 1 29 1
M  V30 21 2 31 30
M  V30 22 1 32 8
M  V30 23 1 32 15
M  V30 24 1 33 9
M  V30 25 1 33 12
M  V30 26 1 33 26
M  V30 27 1 34 2
M  V30 28 1 34 18
M  V30 29 2 35 3
M  V30 30 1 35 13
M  V30 31 2 36 28
M  V30 32 1 37 11
M  V30 33 1 38 1
M  V30 34 1 38 18
M  V30 35 1 39 9
M  V30 36 1 39 19
M  V30 37 1 40 2
M  V30 38 1 40 30
M  V30 39 1 41 28
M  V30 40 1 42 15
M  V30 41 1 42 21
M  V30 42 2 42 40
M  V30 43 1 43 30
M  V30 44 1 43 32
M  V30 45 1 43 41
M  V30 46 1 44 5
M  V30 47 2 44 25
M  V30 48 1 1 45 CFG=1
M  V30 49 1 2 46 CFG=1
M  V30 50 1 47 3
M  V30 51 1 48 4
M  V30 52 1 49 4
M  V30 53 1 50 7
M  V30 54 1 51 7
M  V30 55 1 52 8
M  V30 56 1 53 9
M  V30 57 1 54 9
M  V30 58 1 11 55 CFG=3
M  V30 59 1 56 12
M  V30 60 1 57 13
M  V30 61 1 58 14
M  V30 62 1 15 59 CFG=1
M  V30 63 1 60 16
M  V30 64 1 61 16
M  V30 65 1 62 16
M  V30 66 1 63 17
M  V30 67 1 64 17
M  V30 68 1 65 18
M  V30 69 1 66 18
M  V30 70 1 67 19
M  V30 71 1 68 19
M  V30 72 1 69 22
M  V30 73 1 70 23
M  V30 74 1 71 23
M  V30 75 1 72 24
M  V30 76 1 73 24
M  V30 77 1 74 26
M  V30 78 1 75 26
M  V30 79 1 76 27
M  V30 80 1 77 27
M  V30 81 1 78 28
M  V30 82 1 79 29
M  V30 83 1 80 29
M  V30 84 1 81 29
M  V30 85 1 32 82 CFG=3
M  V30 86 1 33 83 CFG=3
M  V30 87 1 84 34
M  V30 88 1 85 34
M  V30 89 1 86 35
M  V30 90 1 87 36
M  V30 91 1 88 37
M  V30 92 1 89 37
M  V30 93 1 90 37
M  V30 94 1 91 39
M  V30 95 1 92 39
M  V30 96 1 43 93 CFG=3
M  V30 97 1 94 44
M  V30 END BOND
M  V30 END CTAB
M  END
>  <i_epik_Tot_Q>  (1) 
0

>  <i_epik_Tot_abs_Q>  (1) 
0

>  <i_i_glide_confnum>  (1) 
7407

>  <i_i_glide_lignum>  (1) 
176

>  <i_i_glide_posenum>  (1) 
347

>  <i_i_glide_rotatable_bonds>  (1) 
18

>  <i_lp_mmshare_version>  (1) 
72125

>  <i_m_source_file_index>  (1) 
69

>  <i_f3d_flags>  (1) 
0

>  <num_sample>  (1) 
100

>  <b_lp_Chiralities_Consistent>  (1) 
1

>  <r_epik_Charging_Adjusted_Penalty>  (1) 
0

>  <r_epik_Ionization_Penalty>  (1) 
0.0034918609457469025

>  <r_epik_Ionization_Penalty_Charging>  (1) 
0

>  <r_epik_Ionization_Penalty_Neutral>  (1) 
0.0034918609457469025

>  <r_epik_State_Penalty>  (1) 
-0

>  <r_glide_ring_energy>  (1) 
1.2573811357100717

>  <r_i_docking_score>  (1) 
-8.4135458134367234

>  <r_i_glide_ecoul>  (1) 
-0.57858586881949514

>  <r_i_glide_eff_state_penalty>  (1) 
-0

>  <r_i_glide_einternal>  (1) 
10.21785025670804

>  <r_i_glide_emodel>  (1) 
-55.494554808094748

>  <r_i_glide_emodel_strain>  (1) 
3.0881558160266565

>  <r_i_glide_energy>  (1) 
-48.246567932377033

>  <r_i_glide_erotb>  (1) 
0.6701242194964161

>  <r_i_glide_esite>  (1) 
-0.0044098318977128619

>  <r_i_glide_evdw>  (1) 
-47.667982063557538

>  <r_i_glide_gscore>  (1) 
-8.4135458134367234

>  <r_i_glide_gscore_strain>  (1) 
0

>  <r_i_glide_hbond>  (1) 
-0.39897256129036224

>  <r_i_glide_ligand_efficiency>  (1) 
-0.19121695030538008

>  <r_i_glide_ligand_efficiency_ln>  (1) 
-1.7586146154800331

>  <r_i_glide_ligand_efficiency_sa>  (1) 
-0.67506244219672518

>  <r_i_glide_lipo>  (1) 
-4.8474487375232069

>  <r_i_glide_metal>  (1) 
-0

>  <r_i_glide_rewards>  (1) 
-1.3626519187210546

>  <r_lp_Energy>  (1) 
28.073183999999998

>  <r_lp_tautomer_probability>  (1) 
1

>  <s_epik_Chemistry_Notes>  (1) 
This compound has an imine and may undergo hydrolysis.

>  <s_epik_cmdline>  (1) 
J2VwaWtfcHl0aG9uJywgJy1waHQnLCAnMS4wJywgJy1waCcsICc3LjQnLCAnLXRuJywgJzgnLCAnLW1hJywgJzUwMCcsICctaW1hZScsICc8aW5maWxlLm1hZT4nLCAnLW9tYWUnLCAnPG91dGZpbGUubWFlPic=

>  <s_epik_input>  (1) 
W0hdXE49W0NIXVxTW0NASF0oW0NAQEhdMVtPSF0pQyg9TylDKD1DKFtDQEBIXTEyKU9bQ0gyXVtDQEhdMltDSDNdKVtDQEBIXShbQ0gzXSlbQ0gyXVtDSDJdT1tDQEhdKFtDSDNdKVtDSDJdTihDKD1PKVtDSDJdYzNbY0hdW2NIXVtjSF1jKFtPSF0pW2NIXTMpW0NIMl1bQ0gyXVtDSDJdW0NASF00W0NIXT1bQ0hdW0NIMl1bQ0gyXVtDSDJdW0NIMl00

>  <s_glide_docking_method>  (1) 
confgen

>  <s_i_glide_gridfile>  (1) 
gpcr_5ht2c_6bqh_protein_autoprepared_prepared

>  <s_lp_Force_Field>  (1) 
S-OPLS

>  <s_lp_Variant>  (1) 
DiffSBDD_68_num_sample_100-1

>  <s_m_source_file>  (1) 
generated__ligand_DiffSBDD_2026-05-06_prepared.sdf

>  <GenAI_Model>  (1) 
DiffSBDD

>  <Protein>  (1) 
GPCR_5HT2C

$$$$
DiffSBDD_70_num_sample_100
     RDKit          3D

  0  0  0  0  0  0  0  0  0  0999 V3000
M  V30 BEGIN CTAB
M  V30 COUNTS 77 80 0 0 1
M  V30 BEGIN ATOM
M  V30 1 N 39.339078 30.258304 59.902291 0
M  V30 2 C 37.625416 26.131424 58.061236 0
M  V30 3 F 39.435067 27.336117 50.616695 0
M  V30 4 C 37.579954 24.281759 56.427228 0
M  V30 5 P 39.884221 30.866109 61.502577 0
M  V30 6 C 38.322668 27.948289 55.681311 0
M  V30 7 F 38.470508 29.221344 51.053641 0
M  V30 8 C 38.433690 27.191561 58.857480 0
M  V30 9 C 37.633328 33.425699 59.777054 0
M  V30 10 O 40.666635 29.076081 51.298700 0
M  V30 11 C 40.589933 26.629604 57.600470 0
M  V30 12 C 40.884171 29.830375 50.110836 0
M  V30 13 C 39.756033 25.825745 56.615261 0 CFG=2
M  V30 14 O 41.067466 30.097489 61.953027 0 CHG=-1
M  V30 15 C 37.517611 32.027180 59.750353 0
M  V30 16 O 40.486644 32.371930 61.053411 0
M  V30 17 C 36.419844 31.424751 60.397110 0
M  V30 18 C 39.444194 28.913413 55.286751 0
M  V30 19 C 38.756026 26.487638 55.674504 0 CFG=1
M  V30 20 C 36.650150 34.164431 60.448384 0
M  V30 21 C 38.262774 25.600466 56.793259 0 CFG=2
M  V30 22 O 37.920152 30.518672 57.955211 0
M  V30 23 C 38.770961 25.975747 54.253513 0
M  V30 24 C 39.479593 28.429530 51.412262 0
M  V30 25 N 35.466849 32.124575 61.055095 0
M  V30 26 C 39.106011 28.092777 52.858502 0 CFG=2
M  V30 27 C 35.590685 33.473868 61.070337 0
M  V30 28 C 39.338648 29.302853 53.825554 0 CFG=1
M  V30 29 C 39.699778 26.739457 53.312471 0
M  V30 30 O 38.267023 30.220202 53.805805 0
M  V30 31 C 40.369859 29.476216 59.178074 0
M  V30 32 C 40.126072 31.158731 50.104882 0
M  V30 33 O 38.735027 31.070030 62.410515 0
M  V30 34 C 40.601473 28.039805 59.731788 0
M  V30 35 C 39.897706 26.929604 58.919706 0 CFG=1
M  V30 36 C 38.551139 31.183859 59.030641 0 CFG=2
M  V30 37 C 36.724824 35.675722 60.503169 0
M  V30 38 H 37.484378 25.245420 58.653496 0
M  V30 39 H 36.630457 26.510831 57.834470 0
M  V30 40 H 37.534852 23.617363 57.288055 0
M  V30 41 H 36.558828 24.470557 56.093954 0
M  V30 42 H 38.100714 23.741638 55.641070 0
M  V30 43 H 37.467618 28.047377 55.015324 0
M  V30 44 H 37.893153 28.258605 56.613038 0
M  V30 45 H 38.267288 27.221057 59.927729 0
M  V30 46 H 38.191982 28.195688 58.561541 0
M  V30 47 H 38.459310 33.921208 59.288807 0
M  V30 48 H 40.989870 27.527440 57.148853 0
M  V30 49 H 41.467159 26.044215 57.853670 0
M  V30 50 H 41.946097 30.061184 50.074004 0
M  V30 51 H 40.658614 29.244920 49.218770 0
M  V30 52 H 40.301651 24.975579 56.212763 0
M  V30 53 H 41.008397 32.656187 61.785810 0
M  V30 54 H 36.303242 30.352110 60.387983 0
M  V30 55 H 40.421889 28.479220 55.453485 0
M  V30 56 H 39.422422 29.804449 55.915820 0
M  V30 57 H 37.229484 31.077626 57.611949 0
M  V30 58 H 39.153916 24.961372 54.271371 0
M  V30 59 H 37.753855 25.922438 53.862238 0
M  V30 60 H 38.030093 27.911838 52.820943 0
M  V30 61 H 34.819753 34.018597 61.595856 0
M  V30 62 H 40.236660 29.860761 53.559388 0
M  V30 63 H 40.667404 26.821374 53.780792 0
M  V30 64 H 39.867198 26.089055 52.456710 0
M  V30 65 H 37.587004 29.909413 54.385271 0
M  V30 66 H 40.174579 29.449902 58.106282 0
M  V30 67 H 41.324894 29.990013 59.288762 0
M  V30 68 H 40.544622 31.811259 49.351005 0
M  V30 69 H 39.069137 31.070690 49.859624 0
M  V30 70 H 40.213044 31.621525 51.084944 0
M  V30 71 H 41.672999 27.838220 59.737555 0
M  V30 72 H 40.297318 27.976442 60.777918 0
M  V30 73 H 39.867366 25.987096 59.453383 0
M  V30 74 H 39.222387 31.895750 58.554879 0
M  V30 75 H 36.628124 36.027341 61.530255 0
M  V30 76 H 37.678868 36.037161 60.119991 0
M  V30 77 H 35.931306 36.116592 59.896664 0
M  V30 END ATOM
M  V30 BEGIN BOND
M  V30 1 1 5 1
M  V30 2 1 8 2
M  V30 3 1 12 10
M  V30 4 1 13 11
M  V30 5 1 14 5
M  V30 6 1 15 9
M  V30 7 1 16 5
M  V30 8 2 17 15
M  V30 9 1 18 6
M  V30 10 1 19 6 CFG=3
M  V30 11 1 19 13
M  V30 12 2 20 9
M  V30 13 1 21 2
M  V30 14 1 21 4 CFG=3
M  V30 15 1 21 13
M  V30 16 1 21 19
M  V30 17 1 23 19
M  V30 18 1 24 3
M  V30 19 1 24 7
M  V30 20 1 24 10
M  V30 21 1 25 17
M  V30 22 1 26 24
M  V30 23 1 27 20
M  V30 24 2 27 25
M  V30 25 1 28 18
M  V30 26 1 28 26
M  V30 27 1 29 23
M  V30 28 1 29 26
M  V30 29 1 30 28
M  V30 30 1 31 1
M  V30 31 1 32 12
M  V30 32 2 33 5
M  V30 33 1 34 31
M  V30 34 1 35 8
M  V30 35 1 35 11
M  V30 36 1 35 34
M  V30 37 1 36 1
M  V30 38 1 36 15
M  V30 39 1 36 22
M  V30 40 1 37 20
M  V30 41 1 38 2
M  V30 42 1 39 2
M  V30 43 1 40 4
M  V30 44 1 41 4
M  V30 45 1 42 4
M  V30 46 1 43 6
M  V30 47 1 44 6
M  V30 48 1 45 8
M  V30 49 1 46 8
M  V30 50 1 47 9
M  V30 51 1 48 11
M  V30 52 1 49 11
M  V30 53 1 50 12
M  V30 54 1 51 12
M  V30 55 1 13 52 CFG=3
M  V30 56 1 53 16
M  V30 57 1 54 17
M  V30 58 1 55 18
M  V30 59 1 56 18
M  V30 60 1 57 22
M  V30 61 1 58 23
M  V30 62 1 59 23
M  V30 63 1 26 60 CFG=3
M  V30 64 1 61 27
M  V30 65 1 28 62 CFG=3
M  V30 66 1 63 29
M  V30 67 1 64 29
M  V30 68 1 65 30
M  V30 69 1 66 31
M  V30 70 1 67 31
M  V30 71 1 68 32
M  V30 72 1 69 32
M  V30 73 1 70 32
M  V30 74 1 71 34
M  V30 75 1 72 34
M  V30 76 1 35 73 CFG=1
M  V30 77 1 36 74 CFG=3
M  V30 78 1 75 37
M  V30 79 1 76 37
M  V30 80 1 77 37
M  V30 END BOND
M  V30 END CTAB
M  END
>  <i_epik_Tot_Q>  (1) 
-1

>  <i_epik_Tot_abs_Q>  (1) 
1

>  <i_i_glide_confnum>  (1) 
860

>  <i_i_glide_lignum>  (1) 
179

>  <i_i_glide_posenum>  (1) 
19

>  <i_i_glide_rotatable_bonds>  (1) 
12

>  <i_lp_mmshare_version>  (1) 
72125

>  <i_m_source_file_index>  (1) 
71

>  <i_f3d_flags>  (1) 
0

>  <num_sample>  (1) 
100

>  <b_lp_Chiralities_Consistent>  (1) 
1

>  <r_epik_Charging_Adjusted_Penalty>  (1) 
2.5863915032327713e-05

>  <r_epik_Ionization_Penalty>  (1) 
0.063291997969961059

>  <r_epik_Ionization_Penalty_Charging>  (1) 
2.5863915032327713e-05

>  <r_epik_Ionization_Penalty_Neutral>  (1) 
0.06326613405492873

>  <r_epik_State_Penalty>  (1) 
-0

>  <r_glide_ring_energy>  (1) 
0

>  <r_i_docking_score>  (1) 
-8.4110072394820694

>  <r_i_glide_ecoul>  (1) 
-6.9703493255806332

>  <r_i_glide_eff_state_penalty>  (1) 
-0

>  <r_i_glide_einternal>  (1) 
14.657915793672576

>  <r_i_glide_emodel>  (1) 
-48.148286977487743

>  <r_i_glide_emodel_strain>  (1) 
3.8026622506870211

>  <r_i_glide_energy>  (1) 
-39.597501352185667

>  <r_i_glide_erotb>  (1) 
0.55646031454045308

>  <r_i_glide_esite>  (1) 
-0.030458206900318252

>  <r_i_glide_evdw>  (1) 
-32.627152026605032

>  <r_i_glide_gscore>  (1) 
-8.4110072394820694

>  <r_i_glide_gscore_strain>  (1) 
0

>  <r_i_glide_hbond>  (1) 
-0.27064925580736227

>  <r_i_glide_ligand_efficiency>  (1) 
-0.22732451998600187

>  <r_i_glide_ligand_efficiency_ln>  (1) 
-1.8241502882575951

>  <r_i_glide_ligand_efficiency_sa>  (1) 
-0.75749573291228278

>  <r_i_glide_lipo>  (1) 
-4.7336012487583679

>  <r_i_glide_metal>  (1) 
-0

>  <r_i_glide_rewards>  (1) 
-1.2558488423891268

>  <r_lp_Energy>  (1) 
42.482589999999995

>  <r_lp_tautomer_probability>  (1) 
1

>  <s_epik_Chemistry_Notes>  (1) 
This compound contains an acetal/aminal-like group ( X-CH(R)-Y where X, Y are N, S, or O) that may be acid/base labile, releasing an aldehyde.

>  <s_epik_cmdline>  (1) 
J2VwaWtfcHl0aG9uJywgJy1waHQnLCAnMS4wJywgJy1waCcsICc3LjQnLCAnLXRuJywgJzgnLCAnLW1hJywgJzUwMCcsICctaW1hZScsICc8aW5maWxlLm1hZT4nLCAnLW9tYWUnLCAnPG91dGZpbGUubWFlPic=

>  <s_epik_input>  (1) 
W2NIXTFuW2NIXWMoW0NIM10pW2NIXWMxW0NASF0oW09IXSlOKFAoPU8pKFtPSF0pW09IXSlbQ0gyXVtDSDJdW0NASF0oW0NIMl0yKVtDSDJdW0NIMl1bQ0BdMyhbQ0gzXSlbQ0BIXTJbQ0BdMzRbQ0gyXVtDSDJdW0NASF0oW09IXSlbQ0BIXShbQ0gyXVtDSDJdNClDKEYpKEYpT1tDSDJdW0NIM10=

>  <s_glide_docking_method>  (1) 
confgen

>  <s_i_glide_gridfile>  (1) 
gpcr_5ht2c_6bqh_protein_autoprepared_prepared

>  <s_lp_Force_Field>  (1) 
S-OPLS

>  <s_lp_Variant>  (1) 
DiffSBDD_70_num_sample_100-1

>  <s_m_source_file>  (1) 
generated__ligand_DiffSBDD_2026-05-06_prepared.sdf

>  <GenAI_Model>  (1) 
DiffSBDD

>  <Protein>  (1) 
GPCR_5HT2C

$$$$
DiffSBDD_24_num_sample_100
     RDKit          3D

  0  0  0  0  0  0  0  0  0  0999 V3000
M  V30 BEGIN CTAB
M  V30 COUNTS 63 65 0 0 1
M  V30 BEGIN ATOM
M  V30 1 C 38.376237 30.017445 58.416281 0
M  V30 2 O 39.762060 33.371642 60.653507 0
M  V30 3 C 36.920066 36.217263 61.076178 0
M  V30 4 C 39.867405 28.784807 49.980965 0
M  V30 5 C 40.156703 30.954364 51.220569 0
M  V30 6 N 37.802621 34.192054 59.870112 0
M  V30 7 C 37.581997 33.078155 58.941529 0
M  V30 8 C 38.103839 27.032321 56.006630 0
M  V30 9 C 38.731404 29.071764 54.733300 0
M  V30 10 N 39.532226 29.640902 51.106829 0
M  V30 11 O 40.267405 36.837993 63.053481 0
M  V30 12 N 38.300264 36.706605 61.118479 0 CHG=1
M  V30 13 C 38.056007 24.894708 57.460548 0
M  V30 14 C 39.840840 35.548007 62.666450 0
M  V30 15 C 39.074899 29.719441 53.527699 0
M  V30 16 C 39.336713 35.656084 61.219111 0 CFG=1
M  V30 17 C 38.687797 29.818940 55.920633 0
M  V30 18 N 37.067406 30.666237 58.653501 0 CHG=1
M  V30 19 C 38.451086 27.675960 54.748445 0
M  V30 20 C 39.168618 28.989000 52.320203 0
M  V30 21 C 37.721714 25.559295 56.134737 0
M  V30 22 C 38.960765 34.302399 60.572126 0
M  V30 23 C 38.113742 27.820354 57.188896 0
M  V30 24 C 37.109612 24.857276 55.155744 0
M  V30 25 C 38.907861 27.601777 52.335461 0
M  V30 26 C 38.563612 26.951438 53.532180 0
M  V30 27 C 36.762971 35.230788 59.910901 0
M  V30 28 C 37.121776 31.777481 59.627253 0
M  V30 29 C 38.392954 29.197995 57.141415 0
M  V30 30 H 39.161390 30.767674 58.341984 0
M  V30 31 H 38.629956 29.389106 59.271262 0
M  V30 32 H 36.267405 37.078878 60.948581 0
M  V30 33 H 36.667414 35.743443 62.026402 0
M  V30 34 H 38.961379 28.326174 49.593216 0
M  V30 35 H 40.316097 29.356994 49.168827 0
M  V30 36 H 40.566605 28.000643 50.270072 0
M  V30 37 H 39.467404 31.699517 51.611477 0
M  V30 38 H 41.041166 30.923840 51.853510 0
M  V30 39 H 40.474961 31.304985 50.238871 0
M  V30 40 H 36.840170 33.370818 58.196241 0
M  V30 41 H 38.498769 32.917364 58.371960 0
M  V30 42 H 40.766949 36.791770 63.860666 0
M  V30 43 H 38.439959 37.324794 61.907945 0
M  V30 44 H 37.424581 25.284390 58.253508 0
M  V30 45 H 37.881922 23.818969 57.421579 0
M  V30 46 H 39.104369 25.049920 57.718233 0
M  V30 47 H 40.679641 34.854384 62.742324 0
M  V30 48 H 39.067403 35.211756 63.350099 0
M  V30 49 H 39.279169 30.778061 53.537852 0
M  V30 50 H 40.181017 36.021395 60.633639 0
M  V30 51 H 38.902908 30.877803 55.895748 0
M  V30 52 H 36.420185 29.963917 58.978974 0
M  V30 53 H 37.875063 27.367116 58.137242 0
M  V30 54 H 36.872879 23.812929 55.298367 0
M  V30 55 H 36.824235 25.299599 54.222714 0
M  V30 56 H 38.983222 27.022497 51.429020 0
M  V30 57 H 38.421802 25.905115 53.504880 0
M  V30 58 H 36.792962 35.774110 58.964966 0
M  V30 59 H 35.778784 34.762122 59.961571 0
M  V30 60 H 37.768187 31.505586 60.463201 0
M  V30 61 H 36.121643 31.924951 60.037164 0
M  V30 62 H 36.681608 31.043468 57.786235 0
M  V30 63 H 38.469025 37.227211 60.270282 0
M  V30 END ATOM
M  V30 BEGIN BOND
M  V30 1 1 7 6
M  V30 2 1 10 4
M  V30 3 1 10 5
M  V30 4 1 12 3
M  V30 5 1 14 11
M  V30 6 1 15 9
M  V30 7 1 16 12
M  V30 8 1 16 14
M  V30 9 2 17 9
M  V30 10 1 18 1
M  V30 11 2 19 8
M  V30 12 1 19 9
M  V30 13 1 20 10
M  V30 14 2 20 15
M  V30 15 1 21 8
M  V30 16 1 21 13
M  V30 17 2 22 2
M  V30 18 1 22 6
M  V30 19 1 22 16
M  V30 20 1 23 8
M  V30 21 2 24 21
M  V30 22 1 25 20
M  V30 23 1 26 19
M  V30 24 2 26 25
M  V30 25 1 27 3
M  V30 26 1 27 6
M  V30 27 1 28 7
M  V30 28 1 28 18
M  V30 29 1 29 1
M  V30 30 1 29 17
M  V30 31 2 29 23
M  V30 32 1 30 1
M  V30 33 1 31 1
M  V30 34 1 32 3
M  V30 35 1 33 3
M  V30 36 1 34 4
M  V30 37 1 35 4
M  V30 38 1 36 4
M  V30 39 1 37 5
M  V30 40 1 38 5
M  V30 41 1 39 5
M  V30 42 1 40 7
M  V30 43 1 41 7
M  V30 44 1 42 11
M  V30 45 1 43 12
M  V30 46 1 44 13
M  V30 47 1 45 13
M  V30 48 1 46 13
M  V30 49 1 47 14
M  V30 50 1 48 14
M  V30 51 1 49 15
M  V30 52 1 16 50 CFG=3
M  V30 53 1 51 17
M  V30 54 1 52 18
M  V30 55 1 53 23
M  V30 56 1 54 24
M  V30 57 1 55 24
M  V30 58 1 56 25
M  V30 59 1 57 26
M  V30 60 1 58 27
M  V30 61 1 59 27
M  V30 62 1 60 28
M  V30 63 1 61 28
M  V30 64 1 62 18
M  V30 65 1 63 12
M  V30 END BOND
M  V30 END CTAB
M  END
>  <i_epik_Tot_Q>  (1) 
2

>  <i_epik_Tot_abs_Q>  (1) 
2

>  <i_i_glide_confnum>  (1) 
207

>  <i_i_glide_lignum>  (1) 
63

>  <i_i_glide_posenum>  (1) 
237

>  <i_i_glide_rotatable_bonds>  (1) 
9

>  <i_lp_mmshare_version>  (1) 
72125

>  <i_m_source_file_index>  (1) 
25

>  <i_f3d_flags>  (1) 
0

>  <num_sample>  (1) 
100

>  <b_lp_Chiralities_Consistent>  (1) 
1

>  <r_epik_Charging_Adjusted_Penalty>  (1) 
1.6940302234007771

>  <r_epik_Ionization_Penalty>  (1) 
0.87564545374797542

>  <r_epik_Ionization_Penalty_Charging>  (1) 
0.87490775709823365

>  <r_epik_Ionization_Penalty_Neutral>  (1) 
0.00073769664974180401

>  <r_epik_State_Penalty>  (1) 
0.81912246630254359

>  <r_glide_ring_energy>  (1) 
0

>  <r_i_docking_score>  (1) 
-8.4022855971734014

>  <r_i_glide_ecoul>  (1) 
-6.0575203878828043

>  <r_i_glide_eff_state_penalty>  (1) 
0.81912246630254359

>  <r_i_glide_einternal>  (1) 
13.036947943061858

>  <r_i_glide_emodel>  (1) 
-75.597811397302237

>  <r_i_glide_emodel_strain>  (1) 
0.55272965174404476

>  <r_i_glide_energy>  (1) 
-48.394958203690457

>  <r_i_glide_erotb>  (1) 
0.86311099515177125

>  <r_i_glide_esite>  (1) 
-0.10000000000000001

>  <r_i_glide_evdw>  (1) 
-42.337437815807654

>  <r_i_glide_gscore>  (1) 
-9.2214080634759448

>  <r_i_glide_gscore_strain>  (1) 
0

>  <r_i_glide_hbond>  (1) 
-0.29580764954098193

>  <r_i_glide_ligand_efficiency>  (1) 
-0.28973398610942763

>  <r_i_glide_ligand_efficiency_ln>  (1) 
-1.9239103381735931

>  <r_i_glide_ligand_efficiency_sa>  (1) 
-0.89015460049702422

>  <r_i_glide_lipo>  (1) 
-4.4347292026742284

>  <r_i_glide_metal>  (1) 
-0

>  <r_i_glide_rewards>  (1) 
-2.2284822574397007

>  <r_lp_Energy>  (1) 
68.015124999999998

>  <s_epik_cmdline>  (1) 
J2VwaWtfcHl0aG9uJywgJy1waHQnLCAnMS4wJywgJy1waCcsICc3LjQnLCAnLXRuJywgJzgnLCAnLW1hJywgJzUwMCcsICctaW1hZScsICc8aW5maWxlLm1hZT4nLCAnLW9tYWUnLCAnPG91dGZpbGUubWFlPic=

>  <s_epik_input>  (1) 
W0NIMl0xW0NIMl1bTkhdW0NAQEhdKFtDSDJdW09IXSlDKD1PKU4xW0NIMl1bQ0gyXVtOSF1bQ0gyXWMoW2NIXTIpW2NIXWMoQyhbQ0gzXSk9W0NIMl0pYyhjMjMpW2NIXVtjSF1jKFtjSF0zKU4oW0NIM10pW0NIM10=

>  <s_glide_docking_method>  (1) 
confgen

>  <s_i_glide_gridfile>  (1) 
gpcr_5ht2c_6bqh_protein_autoprepared_prepared

>  <s_lp_Force_Field>  (1) 
S-OPLS

>  <s_lp_Variant>  (1) 
DiffSBDD_24_num_sample_100-2

>  <s_m_source_file>  (1) 
generated__ligand_DiffSBDD_2026-05-06_prepared.sdf

>  <GenAI_Model>  (1) 
DiffSBDD

>  <Protein>  (1) 
GPCR_5HT2C

$$$$
DiffSBDD_13_num_sample_100
     RDKit          3D

  0  0  0  0  0  0  0  0  0  0999 V3000
M  V30 BEGIN CTAB
M  V30 COUNTS 69 72 0 0 1
M  V30 BEGIN ATOM
M  V30 1 C 36.687743 31.631300 59.857073 0 CFG=1
M  V30 2 N 39.867439 29.934462 52.207978 0
M  V30 3 C 40.659629 33.350556 61.674020 0 CFG=2
M  V30 4 C 37.902216 30.356464 58.019305 0
M  V30 5 C 41.732034 32.342005 65.337408 0
M  V30 6 C 37.780186 30.660916 59.389237 0
M  V30 7 C 38.330457 27.554977 54.277693 0
M  V30 8 C 36.573825 35.540443 59.142654 0
M  V30 9 C 38.614466 33.416783 60.132129 0
M  V30 10 O 36.667382 35.896244 60.513848 0
M  V30 11 C 39.668880 29.190596 59.880890 0
M  V30 12 C 39.067325 29.519928 52.930629 0
M  V30 13 C 38.040525 28.995303 53.843352 0 CFG=2
M  V30 14 C 38.905451 29.462121 57.569349 0
M  V30 15 C 36.749420 37.573882 62.224731 0
M  V30 16 O 36.061062 31.221530 61.053521 0
M  V30 17 C 38.826195 27.627034 55.730059 0
M  V30 18 N 41.704510 34.570748 65.449214 0
M  V30 19 C 41.460077 34.205527 64.134218 0
M  V30 20 C 37.982353 29.784640 55.148082 0
M  V30 21 C 38.660765 30.067737 60.320416 0
M  V30 22 C 39.800815 28.888155 58.511696 0
M  V30 23 N 40.974768 34.810430 61.914533 0
M  V30 24 C 39.023271 29.120718 56.069314 0 CFG=1
M  V30 25 C 37.095295 33.135207 60.025298 0 CFG=1
M  V30 26 C 41.765901 35.921381 65.969151 0
M  V30 27 C 41.463204 32.873961 64.046918 0
M  V30 28 C 41.875600 33.407042 66.191209 0
M  V30 29 O 41.382867 31.081080 62.482140 0
M  V30 30 C 36.386768 34.019540 58.972331 0
M  V30 31 C 41.249455 35.169942 63.107867 0
M  V30 32 Cl 41.059962 27.821393 57.994713 0
M  V30 33 C 39.129497 33.222169 61.567904 0
M  V30 34 C 36.708432 37.295650 60.720937 0
M  V30 35 C 41.212258 32.273657 62.730389 0
M  V30 36 H 35.894914 31.562037 59.111304 0
M  V30 37 H 41.067367 33.050338 60.712996 0
M  V30 38 H 37.223858 30.810222 57.316595 0
M  V30 39 H 41.807134 31.300163 65.613508 0
M  V30 40 H 39.070451 27.087704 53.625565 0
M  V30 41 H 37.426037 26.948387 54.218864 0
M  V30 42 H 37.467307 35.875940 58.622809 0
M  V30 43 H 35.733011 36.057168 58.677165 0
M  V30 44 H 39.180006 32.820254 59.416656 0
M  V30 45 H 38.838330 34.446557 59.860049 0
M  V30 46 H 40.345431 28.748129 60.597477 0
M  V30 47 H 37.091079 29.053752 53.311446 0
M  V30 48 H 36.667166 38.642802 62.416742 0
M  V30 49 H 35.922840 37.086674 62.741492 0
M  V30 50 H 37.678132 37.211515 62.666264 0
M  V30 51 H 35.288042 31.756537 61.159372 0
M  V30 52 H 39.729567 27.032531 55.859377 0
M  V30 53 H 38.061278 27.201330 56.381876 0
M  V30 54 H 36.976742 29.648543 55.547478 0
M  V30 55 H 38.142991 30.855015 55.015098 0
M  V30 56 H 38.564600 30.286116 61.371521 0
M  V30 57 H 40.014913 29.430331 55.733744 0
M  V30 58 H 36.662386 33.477778 60.967128 0
M  V30 59 H 41.770375 35.897757 67.053388 0
M  V30 60 H 42.666934 36.421429 65.613233 0
M  V30 61 H 40.877879 36.471186 65.659803 0
M  V30 62 H 42.080031 33.449211 67.251472 0
M  V30 63 H 36.688938 33.725723 57.966036 0
M  V30 64 H 35.316281 33.815903 59.026891 0
M  V30 65 H 41.339836 36.227262 63.370351 0
M  V30 66 H 38.651222 33.952585 62.222429 0
M  V30 67 H 38.792433 32.265578 61.953606 0
M  V30 68 H 37.580036 37.729564 60.229081 0
M  V30 69 H 35.821367 37.756415 60.289159 0
M  V30 END ATOM
M  V30 BEGIN BOND
M  V30 1 1 6 1
M  V30 2 2 6 4
M  V30 3 1 10 8
M  V30 4 3 12 2
M  V30 5 1 13 7
M  V30 6 1 13 12
M  V30 7 1 14 4
M  V30 8 1 16 1
M  V30 9 1 17 7
M  V30 10 1 19 18
M  V30 11 1 20 13
M  V30 12 1 21 6
M  V30 13 2 21 11
M  V30 14 1 22 11
M  V30 15 2 22 14
M  V30 16 1 23 3
M  V30 17 1 24 14
M  V30 18 1 24 17
M  V30 19 1 24 20
M  V30 20 1 25 1
M  V30 21 1 25 9
M  V30 22 1 26 18
M  V30 23 1 27 5
M  V30 24 2 27 19
M  V30 25 2 28 5
M  V30 26 1 28 18
M  V30 27 1 30 8
M  V30 28 1 30 25
M  V30 29 1 31 19
M  V30 30 2 31 23
M  V30 31 1 32 22
M  V30 32 1 33 3
M  V30 33 1 33 9
M  V30 34 1 34 10
M  V30 35 1 34 15
M  V30 36 1 35 3
M  V30 37 1 35 27
M  V30 38 2 35 29
M  V30 39 1 1 36 CFG=3
M  V30 40 1 3 37 CFG=3
M  V30 41 1 38 4
M  V30 42 1 39 5
M  V30 43 1 40 7
M  V30 44 1 41 7
M  V30 45 1 42 8
M  V30 46 1 43 8
M  V30 47 1 44 9
M  V30 48 1 45 9
M  V30 49 1 46 11
M  V30 50 1 13 47 CFG=3
M  V30 51 1 48 15
M  V30 52 1 49 15
M  V30 53 1 50 15
M  V30 54 1 51 16
M  V30 55 1 52 17
M  V30 56 1 53 17
M  V30 57 1 54 20
M  V30 58 1 55 20
M  V30 59 1 56 21
M  V30 60 1 24 57 CFG=3
M  V30 61 1 25 58 CFG=1
M  V30 62 1 59 26
M  V30 63 1 60 26
M  V30 64 1 61 26
M  V30 65 1 62 28
M  V30 66 1 63 30
M  V30 67 1 64 30
M  V30 68 1 65 31
M  V30 69 1 66 33
M  V30 70 1 67 33
M  V30 71 1 68 34
M  V30 72 1 69 34
M  V30 END BOND
M  V30 END CTAB
M  END
>  <i_epik_Tot_Q>  (1) 
0

>  <i_epik_Tot_abs_Q>  (1) 
0

>  <i_i_glide_confnum>  (1) 
515

>  <i_i_glide_lignum>  (1) 
31

>  <i_i_glide_posenum>  (1) 
340

>  <i_i_glide_rotatable_bonds>  (1) 
11

>  <i_lp_mmshare_version>  (1) 
72125

>  <i_m_source_file_index>  (1) 
14

>  <i_f3d_flags>  (1) 
0

>  <num_sample>  (1) 
100

>  <b_lp_Chiralities_Consistent>  (1) 
1

>  <r_epik_Charging_Adjusted_Penalty>  (1) 
0

>  <r_epik_Ionization_Penalty>  (1) 
0.00035140533553461783

>  <r_epik_Ionization_Penalty_Charging>  (1) 
0

>  <r_epik_Ionization_Penalty_Neutral>  (1) 
0.00035140533553461783

>  <r_epik_State_Penalty>  (1) 
-0

>  <r_glide_ring_energy>  (1) 
0

>  <r_i_docking_score>  (1) 
-8.3777748761767743

>  <r_i_glide_ecoul>  (1) 
-6.300338183756268

>  <r_i_glide_eff_state_penalty>  (1) 
-0

>  <r_i_glide_einternal>  (1) 
6.9214168407630474

>  <r_i_glide_emodel>  (1) 
-79.812277894302625

>  <r_i_glide_emodel_strain>  (1) 
2.3015545179441972

>  <r_i_glide_energy>  (1) 
-57.037695709945851

>  <r_i_glide_erotb>  (1) 
0.74574999833683076

>  <r_i_glide_esite>  (1) 
0

>  <r_i_glide_evdw>  (1) 
-50.737357526189584

>  <r_i_glide_gscore>  (1) 
-8.3777748761767743

>  <r_i_glide_gscore_strain>  (1) 
0

>  <r_i_glide_hbond>  (1) 
-0.49461613609768945

>  <r_i_glide_ligand_efficiency>  (1) 
-0.23936499646219356

>  <r_i_glide_ligand_efficiency_ln>  (1) 
-1.8391075200162825

>  <r_i_glide_ligand_efficiency_sa>  (1) 
-0.78297877576589237

>  <r_i_glide_lipo>  (1) 
-3.4083952368189339

>  <r_i_glide_metal>  (1) 
-0

>  <r_i_glide_rewards>  (1) 
-1.7385948977240622

>  <r_lp_Energy>  (1) 
44.436326000000001

>  <r_lp_tautomer_probability>  (1) 
1

>  <s_epik_Chemistry_Notes>  (1) 
This compound has an imine and may undergo hydrolysis.

>  <s_epik_cmdline>  (1) 
J2VwaWtfcHl0aG9uJywgJy1waHQnLCAnMS4wJywgJy1waCcsICc3LjQnLCAnLXRuJywgJzgnLCAnLW1hJywgJzUwMCcsICctaW1hZScsICc8aW5maWxlLm1hZT4nLCAnLW9tYWUnLCAnPG91dGZpbGUubWFlPic=

>  <s_epik_input>  (1) 
TiNDW0NASF0xW0NIMl1bQ0gyXVtDQEBIXShbQ0gyXTEpYyhjKENsKVtjSF1bY0hdMilbY0hdYzJbQ0BASF0oW09IXSlbQ0BIXShbQ0gyXVtDSDJdT1tDSDJdW0NIM10pW0NIMl1bQ0gyXVtDQEBIXShOPVtDSF0zKUMoPU8pYyhjMzQpW2NIXVtjSF1uNFtDSDNd

>  <s_glide_docking_method>  (1) 
confgen

>  <s_i_glide_gridfile>  (1) 
gpcr_5ht2c_6bqh_protein_autoprepared_prepared

>  <s_lp_Force_Field>  (1) 
S-OPLS

>  <s_lp_Variant>  (1) 
DiffSBDD_13_num_sample_100-1

>  <s_m_source_file>  (1) 
generated__ligand_DiffSBDD_2026-05-06_prepared.sdf

>  <GenAI_Model>  (1) 
DiffSBDD

>  <Protein>  (1) 
GPCR_5HT2C

$$$$
DiffSBDD_66_num_sample_100
     RDKit          3D

  0  0  0  0  0  0  0  0  0  0999 V3000
M  V30 BEGIN CTAB
M  V30 COUNTS 111 115 0 0 1
M  V30 BEGIN ATOM
M  V30 1 C 38.969387 28.684599 55.646688 0
M  V30 2 C 41.900318 31.729845 62.752676 0
M  V30 3 C 34.636433 34.419484 58.956966 0
M  V30 4 C 39.953350 35.787268 66.852407 0
M  V30 5 C 41.209200 26.214356 65.588112 0
M  V30 6 C 41.933134 27.639204 63.617870 0
M  V30 7 C 36.848499 34.694774 59.911432 0
M  V30 8 S 41.197578 34.746937 63.003740 0
M  V30 9 C 40.717060 32.212018 61.942358 0 CFG=1
M  V30 10 C 39.336430 30.107907 55.713813 0
M  V30 11 C 39.049454 29.378104 58.722101 0
M  V30 12 C 39.067542 30.630004 58.214996 0
M  V30 13 C 42.445156 26.473882 67.827259 0
M  V30 14 C 38.300195 26.814431 54.867091 0
M  V30 15 C 43.020030 31.739525 66.176320 0 CFG=2
M  V30 16 C 39.426097 28.125864 58.013163 0
M  V30 17 C 38.736562 31.819084 59.131356 0
M  V30 18 O 41.469417 27.072637 69.951003 0
M  V30 19 C 37.885413 32.868144 61.359348 0 CFG=1
M  V30 20 N 38.598890 28.126319 54.497092 0
M  V30 21 C 35.801269 35.181966 59.128736 0
M  V30 22 C 36.735266 33.429845 60.536566 0
M  V30 23 C 41.141435 26.099701 67.119309 0
M  V30 24 C 38.411862 25.403801 57.061288 0
M  V30 25 C 39.385335 30.931371 56.803133 0
M  V30 26 C 42.650321 33.233481 66.001585 0
M  V30 27 C 41.643996 27.610301 65.111635 0 CFG=1
M  V30 28 C 42.164684 31.127931 67.328342 0
M  V30 29 C 38.514677 31.620842 60.665783 0 CFG=2
M  V30 30 C 39.736816 31.086443 61.489317 0 CFG=2
M  V30 31 C 42.249220 36.022086 65.914617 0
M  V30 32 C 42.655995 29.815997 67.923205 0
M  V30 33 N 38.988274 27.855727 56.687670 0
M  V30 34 C 35.558049 32.672682 60.374508 0
M  V30 35 C 38.544648 26.625289 56.207939 0
M  V30 36 C 44.523216 31.718650 66.556660 0
M  V30 37 O 40.667606 28.588077 65.422402 0
M  V30 38 C 42.922172 30.974133 64.833477 0
M  V30 39 C 41.167160 33.711096 66.075329 0
M  V30 40 C 40.936641 35.241016 65.788969 0
M  V30 41 C 40.021646 33.399920 62.638893 0 CFG=2
M  V30 42 N 41.772055 31.349766 63.983412 0 CHG=1
M  V30 43 C 41.844040 28.830280 68.340564 0
M  V30 44 C 40.399319 35.623542 64.372750 0
M  V30 45 C 34.510296 33.168669 59.584907 0
M  V30 46 C 39.207484 30.225469 62.646086 0
M  V30 47 C 43.622168 25.918823 67.493675 0
M  V30 48 C 42.334540 27.518949 68.929577 0 CFG=2
M  V30 49 C 38.943944 33.933053 61.708652 0
M  V30 50 H 42.894585 31.708849 62.325189 0
M  V30 51 H 33.831921 34.797762 58.344933 0
M  V30 52 H 39.018981 35.226784 66.883776 0
M  V30 53 H 39.700732 36.831781 66.666098 0
M  V30 54 H 40.382289 35.740470 67.854173 0
M  V30 55 H 41.909226 25.469977 65.208992 0
M  V30 56 H 40.243488 25.956304 65.150843 0
M  V30 57 H 42.779124 26.984580 63.410190 0
M  V30 58 H 42.200481 28.630904 63.264546 0
M  V30 59 H 41.066265 27.311020 63.050468 0
M  V30 60 H 37.739384 35.288093 60.023999 0
M  V30 61 H 39.551274 30.558430 54.756950 0
M  V30 62 H 38.798892 29.245079 59.760911 0
M  V30 63 H 37.945619 26.102941 54.135562 0
M  V30 64 H 40.512964 28.040248 58.023232 0
M  V30 65 H 39.072033 27.323590 58.657088 0
M  V30 66 H 39.466428 32.611889 58.976521 0
M  V30 67 H 37.825995 32.203732 58.669837 0
M  V30 68 H 40.570417 27.133781 69.622176 0
M  V30 69 H 37.442093 32.535127 62.299443 0
M  V30 70 H 35.889870 36.146072 58.653473 0
M  V30 71 H 40.336319 26.740755 67.454005 0
M  V30 72 H 40.841161 25.096196 67.411440 0
M  V30 73 H 38.161479 24.532293 56.456545 0
M  V30 74 H 37.620159 25.534322 57.799740 0
M  V30 75 H 39.343064 25.183582 57.583859 0
M  V30 76 H 39.631914 31.961696 56.591792 0
M  V30 77 H 43.164633 33.708715 66.832165 0
M  V30 78 H 43.101581 33.615025 65.087118 0
M  V30 79 H 42.567839 27.883765 65.617626 0
M  V30 80 H 42.139283 31.832612 68.160768 0
M  V30 81 H 41.130688 31.006024 67.007519 0
M  V30 82 H 37.727375 30.867290 60.700778 0
M  V30 83 H 40.311596 30.412758 60.855900 0
M  V30 84 H 42.813692 36.060100 64.983159 0
M  V30 85 H 42.926647 35.672183 66.653888 0
M  V30 86 H 42.050793 37.026832 66.253739 0
M  V30 87 H 43.721004 29.692580 68.007945 0
M  V30 88 H 35.465900 31.707108 60.846459 0
M  V30 89 H 45.109084 32.356578 65.892050 0
M  V30 90 H 44.952426 30.718924 66.480292 0
M  V30 91 H 44.690348 32.083605 67.570591 0
M  V30 92 H 39.821652 28.338806 65.053504 0
M  V30 93 H 43.837121 31.145969 64.255216 0
M  V30 94 H 42.870363 29.907280 65.008051 0
M  V30 95 H 40.518168 33.106137 65.455202 0
M  V30 96 H 40.822268 33.496662 67.088118 0
M  V30 97 H 39.545738 33.065441 63.557207 0
M  V30 98 H 40.774317 28.952122 68.260119 0
M  V30 99 H 39.323197 35.621417 64.252362 0
M  V30 100 H 40.619266 36.679400 64.204134 0
M  V30 101 H 33.612566 32.585485 59.452879 0
M  V30 102 H 38.810993 30.824026 63.456836 0
M  V30 103 H 39.960643 29.550332 63.041977 0
M  V30 104 H 38.388037 29.603548 62.317130 0
M  V30 105 H 44.534707 26.198431 68.001118 0
M  V30 106 H 43.686770 25.181050 66.710581 0
M  V30 107 H 43.317290 27.678130 69.377972 0
M  V30 108 H 38.461004 34.795339 62.169839 0
M  V30 109 H 39.437452 34.289099 60.802707 0
M  V30 110 H 41.150951 32.623524 61.031830 0
M  V30 111 H 40.851839 31.344098 64.413504 0
M  V30 END ATOM
M  V30 BEGIN BOND
M  V30 1 1 9 2
M  V30 2 1 10 1
M  V30 3 2 12 11
M  V30 4 1 16 11
M  V30 5 1 17 12
M  V30 6 2 20 1
M  V30 7 1 20 14
M  V30 8 2 21 3
M  V30 9 1 21 7
M  V30 10 2 22 7
M  V30 11 1 22 19
M  V30 12 1 23 5
M  V30 13 1 23 13
M  V30 14 2 25 10
M  V30 15 1 25 12
M  V30 16 1 26 15
M  V30 17 1 27 5
M  V30 18 1 27 6
M  V30 19 1 15 28 CFG=1
M  V30 20 1 29 17
M  V30 21 1 29 19
M  V30 22 1 30 9
M  V30 23 1 30 29
M  V30 24 1 32 28
M  V30 25 1 33 1
M  V30 26 1 33 16
M  V30 27 1 34 22
M  V30 28 2 35 14
M  V30 29 1 35 24
M  V30 30 1 35 33
M  V30 31 1 36 15
M  V30 32 1 37 27
M  V30 33 1 38 15
M  V30 34 1 39 26
M  V30 35 1 40 4
M  V30 36 1 40 31
M  V30 37 1 40 39
M  V30 38 1 41 8
M  V30 39 1 41 9
M  V30 40 2 42 2
M  V30 41 1 42 38
M  V30 42 2 43 32
M  V30 43 1 44 8
M  V30 44 1 44 40
M  V30 45 1 45 3
M  V30 46 2 45 34
M  V30 47 1 46 30
M  V30 48 2 47 13
M  V30 49 1 48 13
M  V30 50 1 48 18
M  V30 51 1 48 43
M  V30 52 1 49 19
M  V30 53 1 49 41
M  V30 54 1 50 2
M  V30 55 1 51 3
M  V30 56 1 52 4
M  V30 57 1 53 4
M  V30 58 1 54 4
M  V30 59 1 55 5
M  V30 60 1 56 5
M  V30 61 1 57 6
M  V30 62 1 58 6
M  V30 63 1 59 6
M  V30 64 1 60 7
M  V30 65 1 61 10
M  V30 66 1 62 11
M  V30 67 1 63 14
M  V30 68 1 64 16
M  V30 69 1 65 16
M  V30 70 1 66 17
M  V30 71 1 67 17
M  V30 72 1 68 18
M  V30 73 1 19 69 CFG=1
M  V30 74 1 70 21
M  V30 75 1 71 23
M  V30 76 1 72 23
M  V30 77 1 73 24
M  V30 78 1 74 24
M  V30 79 1 75 24
M  V30 80 1 76 25
M  V30 81 1 77 26
M  V30 82 1 78 26
M  V30 83 1 27 79 CFG=1
M  V30 84 1 80 28
M  V30 85 1 81 28
M  V30 86 1 29 82 CFG=3
M  V30 87 1 30 83 CFG=3
M  V30 88 1 84 31
M  V30 89 1 85 31
M  V30 90 1 86 31
M  V30 91 1 87 32
M  V30 92 1 88 34
M  V30 93 1 89 36
M  V30 94 1 90 36
M  V30 95 1 91 36
M  V30 96 1 92 37
M  V30 97 1 93 38
M  V30 98 1 94 38
M  V30 99 1 95 39
M  V30 100 1 96 39
M  V30 101 1 41 97 CFG=1
M  V30 102 1 98 43
M  V30 103 1 99 44
M  V30 104 1 100 44
M  V30 105 1 101 45
M  V30 106 1 102 46
M  V30 107 1 103 46
M  V30 108 1 104 46
M  V30 109 1 105 47
M  V30 110 1 106 47
M  V30 111 1 48 107 CFG=1
M  V30 112 1 108 49
M  V30 113 1 109 49
M  V30 114 1 9 110 CFG=3
M  V30 115 1 111 42
M  V30 END BOND
M  V30 END CTAB
M  END
>  <i_epik_Tot_Q>  (1) 
1

>  <i_epik_Tot_abs_Q>  (1) 
1

>  <i_i_glide_confnum>  (1) 
2085

>  <i_i_glide_lignum>  (1) 
168

>  <i_i_glide_posenum>  (1) 
4

>  <i_i_glide_rotatable_bonds>  (1) 
12

>  <i_lp_mmshare_version>  (1) 
72125

>  <i_m_source_file_index>  (1) 
67

>  <i_f3d_flags>  (1) 
0

>  <num_sample>  (1) 
100

>  <b_lp_Chiralities_Consistent>  (1) 
1

>  <r_epik_Charging_Adjusted_Penalty>  (1) 
1.5687136755604425

>  <r_epik_Ionization_Penalty>  (1) 
3.7043048325211934

>  <r_epik_Ionization_Penalty_Charging>  (1) 
0.78327048387713327

>  <r_epik_Ionization_Penalty_Neutral>  (1) 
2.92103434864406

>  <r_epik_State_Penalty>  (1) 
0.78544319168330923

>  <r_glide_ring_energy>  (1) 
0

>  <r_i_docking_score>  (1) 
-8.3688344527087484

>  <r_i_glide_ecoul>  (1) 
-8.2871297132394321

>  <r_i_glide_eff_state_penalty>  (1) 
0.78544319168330923

>  <r_i_glide_einternal>  (1) 
24.035305148134995

>  <r_i_glide_emodel>  (1) 
-61.693725892839794

>  <r_i_glide_emodel_strain>  (1) 
2.4372928887243006

>  <r_i_glide_energy>  (1) 
-49.601466515258785

>  <r_i_glide_erotb>  (1) 
0.28694684240539414

>  <r_i_glide_esite>  (1) 
0

>  <r_i_glide_evdw>  (1) 
-41.314336802019355

>  <r_i_glide_gscore>  (1) 
-9.1542776443920584

>  <r_i_glide_gscore_strain>  (1) 
0

>  <r_i_glide_hbond>  (1) 
-0.60799999999999998

>  <r_i_glide_ligand_efficiency>  (1) 
-0.17079253985119894

>  <r_i_glide_ligand_efficiency_ln>  (1) 
-1.7107812517031855

>  <r_i_glide_ligand_efficiency_sa>  (1) 
-0.62498211630681832

>  <r_i_glide_lipo>  (1) 
-4.3910258296461597

>  <r_i_glide_metal>  (1) 
-0

>  <r_i_glide_rewards>  (1) 
-1.133412360064409

>  <r_lp_Energy>  (1) 
57.418498999999997

>  <s_epik_Chemistry_Notes>  (1) 
This compound has an imine and may undergo hydrolysis.

>  <s_epik_cmdline>  (1) 
J2VwaWtfcHl0aG9uJywgJy1waHQnLCAnMS4wJywgJy1waCcsICc3LjQnLCAnLXRuJywgJzgnLCAnLW1hJywgJzUwMCcsICctaW1hZScsICc8aW5maWxlLm1hZT4nLCAnLW9tYWUnLCAnPG91dGZpbGUubWFlPic=

>  <s_epik_input>  (1) 
bjFbY0hdYyhbQ0gzXSluKGMxMilbQ0gyXVtDSF09QyhbQ0hdPVtDSF0yKVtDSDJdW0NAQEhdKFtDQEBIXTNbQ0gzXSlbQ0BIXShjNFtjSF1bY0hdW2NIXVtjSF1bY0hdNClbQ0gyXVtDQEBIXShbQ0BIXTM1KVNbQ0gyXUMoW0NIM10pKFtDSDNdKVtDSDJdW0NIMl1bQ0BdKFtDSDNdKShbQ0gyXVxOPVtDSF1cNSlbQ0gyXS9bQ0hdPVtDSF0vW0NAQEhdKFtPSF0pQyg9W0NIMl0pW0NIMl1bQ0gyXVtDQEBIXShbQ0gzXSlbT0hd

>  <s_glide_docking_method>  (1) 
confgen

>  <s_i_glide_gridfile>  (1) 
gpcr_5ht2c_6bqh_protein_autoprepared_prepared

>  <s_lp_Force_Field>  (1) 
S-OPLS

>  <s_lp_Variant>  (1) 
DiffSBDD_66_num_sample_100-5

>  <s_m_source_file>  (1) 
generated__ligand_DiffSBDD_2026-05-06_prepared.sdf

>  <GenAI_Model>  (1) 
DiffSBDD

>  <Protein>  (1) 
GPCR_5HT2C

$$$$
DiffSBDD_77_num_sample_100
     RDKit          3D

  0  0  0  0  0  0  0  0  0  0999 V3000
M  V30 BEGIN CTAB
M  V30 COUNTS 77 79 0 0 1
M  V30 BEGIN ATOM
M  V30 1 C 41.167058 31.289923 66.297455 0
M  V30 2 F 44.154874 33.221431 67.205900 0
M  V30 3 C 39.241626 27.443720 59.237693 0
M  V30 4 C 40.743203 31.986367 65.149771 0
M  V30 5 C 39.436148 30.869781 53.556118 0
M  V30 6 C 40.589624 31.870706 61.882743 0
M  V30 7 C 37.471129 29.795880 58.498006 0
M  V30 8 C 38.767340 31.085833 60.189924 0 CFG=2
M  V30 9 O 38.667393 31.163040 56.110909 0
M  V30 10 C 39.939615 31.132461 52.115837 0
M  V30 11 N 38.221126 36.286363 61.017305 0
M  V30 12 C 41.015427 33.880315 63.440765 0
M  V30 13 C 43.045745 32.823631 66.539096 0
M  V30 14 O 41.650372 27.221431 57.853485 0
M  V30 15 C 40.583827 27.693425 57.054478 0
M  V30 16 C 41.470000 33.108617 64.689638 0
M  V30 17 F 42.724538 31.034024 68.093327 0
M  V30 18 C 39.158911 33.581379 60.093164 0
M  V30 19 O 36.843776 37.221428 59.493205 0
M  V30 20 O 38.667404 30.596642 62.582706 0
M  V30 21 C 42.317489 31.707213 66.991011 0
M  V30 22 C 39.467624 28.729243 51.573933 0
M  V30 23 N 38.998921 29.060228 55.269479 0
M  V30 24 C 38.551753 35.161376 61.885394 0
M  V30 25 C 42.621657 33.526887 65.392166 0
M  V30 26 C 39.415054 28.204605 57.927998 0
M  V30 27 C 37.122384 36.301961 60.250408 0
M  V30 28 C 39.223969 28.398432 52.966917 0
M  V30 29 C 38.101855 32.467830 60.174088 0
M  V30 30 F 39.382159 27.755941 50.653498 0
M  V30 31 C 38.982329 26.954472 53.372204 0
M  V30 32 C 40.003162 33.200973 62.463483 0 CFG=1
M  V30 33 C 38.771403 29.950447 56.278158 0
M  V30 34 N 37.820393 30.019074 59.908331 0
M  V30 35 C 38.593490 29.269209 57.580965 0
M  V30 36 C 39.213472 29.384297 53.895369 0
M  V30 37 C 39.783740 29.965168 51.172481 0
M  V30 38 C 39.548498 30.792817 61.492913 0 CFG=2
M  V30 39 N 39.560792 34.172746 61.402859 0 CFG=1 CHG=1
M  V30 40 H 40.608601 30.432468 66.644882 0
M  V30 41 H 39.999353 27.748618 59.960263 0
M  V30 42 H 38.267404 27.549664 59.693698 0
M  V30 43 H 39.369583 26.376187 59.053558 0
M  V30 44 H 39.867327 31.657160 64.625999 0
M  V30 45 H 38.488147 31.397238 53.673043 0
M  V30 46 H 40.163225 31.317708 54.233963 0
M  V30 47 H 41.268544 32.070479 61.053514 0
M  V30 48 H 41.234451 31.404363 62.625811 0
M  V30 49 H 37.067398 30.716157 58.074626 0
M  V30 50 H 36.650371 29.080746 58.441507 0
M  V30 51 H 39.467402 31.075585 59.367002 0
M  V30 52 H 41.006406 31.338474 52.138331 0
M  V30 53 H 39.467412 32.016474 51.692375 0
M  V30 54 H 38.854879 37.071914 60.988562 0
M  V30 55 H 41.908883 34.146335 62.877230 0
M  V30 56 H 40.619875 34.823406 63.815282 0
M  V30 57 H 42.128123 26.550542 57.379229 0
M  V30 58 H 41.045788 28.453916 56.426524 0
M  V30 59 H 40.241269 26.871723 56.424533 0
M  V30 60 H 40.034264 33.221418 59.564168 0
M  V30 61 H 38.787530 34.361503 59.439195 0
M  V30 62 H 38.667632 29.682709 62.841370 0
M  V30 63 H 38.972452 28.077604 55.494250 0
M  V30 64 H 37.637261 34.621850 62.120143 0
M  V30 65 H 38.878269 35.604187 62.824710 0
M  V30 66 H 43.181529 34.384367 65.049424 0
M  V30 67 H 36.519291 35.390903 60.387723 0
M  V30 68 H 37.476698 32.547296 59.283790 0
M  V30 69 H 37.424737 32.594433 61.018817 0
M  V30 70 H 38.576123 26.421431 52.519287 0
M  V30 71 H 39.912973 26.474236 53.674629 0
M  V30 72 H 38.250535 26.854680 54.173870 0
M  V30 73 H 39.111244 32.972235 63.045426 0
M  V30 74 H 38.159099 29.150179 60.307611 0
M  V30 75 H 39.960933 30.159650 50.124344 0
M  V30 76 H 40.087801 29.855106 61.350203 0
M  V30 77 H 40.383634 34.717671 61.188898 0
M  V30 END ATOM
M  V30 BEGIN BOND
M  V30 1 2 4 1
M  V30 2 1 10 5
M  V30 3 1 13 2
M  V30 4 1 15 14
M  V30 5 1 16 4
M  V30 6 1 16 12
M  V30 7 1 21 1
M  V30 8 2 21 13
M  V30 9 1 21 17
M  V30 10 1 24 11
M  V30 11 1 25 13
M  V30 12 2 25 16
M  V30 13 1 26 3
M  V30 14 1 26 15
M  V30 15 1 27 11
M  V30 16 2 27 19
M  V30 17 1 28 22
M  V30 18 1 29 8
M  V30 19 1 29 18
M  V30 20 1 30 22
M  V30 21 1 31 28
M  V30 22 1 32 6
M  V30 23 1 32 12
M  V30 24 2 33 9
M  V30 25 1 33 23
M  V30 26 1 34 7
M  V30 27 1 34 8
M  V30 28 1 35 7
M  V30 29 2 35 26
M  V30 30 1 35 33
M  V30 31 1 36 5
M  V30 32 1 36 23
M  V30 33 2 36 28
M  V30 34 1 37 10
M  V30 35 2 37 22
M  V30 36 1 38 6
M  V30 37 1 38 8
M  V30 38 1 38 20
M  V30 39 1 39 18
M  V30 40 1 39 24
M  V30 41 1 39 32
M  V30 42 1 40 1
M  V30 43 1 41 3
M  V30 44 1 42 3
M  V30 45 1 43 3
M  V30 46 1 44 4
M  V30 47 1 45 5
M  V30 48 1 46 5
M  V30 49 1 47 6
M  V30 50 1 48 6
M  V30 51 1 49 7
M  V30 52 1 50 7
M  V30 53 1 8 51 CFG=3
M  V30 54 1 52 10
M  V30 55 1 53 10
M  V30 56 1 54 11
M  V30 57 1 55 12
M  V30 58 1 56 12
M  V30 59 1 57 14
M  V30 60 1 58 15
M  V30 61 1 59 15
M  V30 62 1 60 18
M  V30 63 1 61 18
M  V30 64 1 62 20
M  V30 65 1 63 23
M  V30 66 1 64 24
M  V30 67 1 65 24
M  V30 68 1 66 25
M  V30 69 1 67 27
M  V30 70 1 68 29
M  V30 71 1 69 29
M  V30 72 1 70 31
M  V30 73 1 71 31
M  V30 74 1 72 31
M  V30 75 1 32 73 CFG=1
M  V30 76 1 74 34
M  V30 77 1 75 37
M  V30 78 1 38 76 CFG=3
M  V30 79 1 39 77 CFG=3
M  V30 END BOND
M  V30 END CTAB
M  END
>  <i_epik_Tot_Q>  (1) 
1

>  <i_epik_Tot_abs_Q>  (1) 
1

>  <i_i_glide_confnum>  (1) 
5426

>  <i_i_glide_lignum>  (1) 
194

>  <i_i_glide_posenum>  (1) 
340

>  <i_i_glide_rotatable_bonds>  (1) 
14

>  <i_lp_mmshare_version>  (1) 
72125

>  <i_m_source_file_index>  (1) 
78

>  <i_f3d_flags>  (1) 
0

>  <num_sample>  (1) 
100

>  <b_lp_Chiralities_Consistent>  (1) 
1

>  <r_epik_Charging_Adjusted_Penalty>  (1) 
1.2599673287133732

>  <r_epik_Ionization_Penalty>  (1) 
0.56885031527891383

>  <r_epik_Ionization_Penalty_Charging>  (1) 
0.52000942162343

>  <r_epik_Ionization_Penalty_Neutral>  (1) 
0.048840893655483872

>  <r_epik_State_Penalty>  (1) 
0.73995790708994325

>  <r_glide_ring_energy>  (1) 
0

>  <r_i_docking_score>  (1) 
-8.3314458923494499

>  <r_i_glide_ecoul>  (1) 
-4.7540282025640002

>  <r_i_glide_eff_state_penalty>  (1) 
0.73995790708994325

>  <r_i_glide_einternal>  (1) 
25.366602706389795

>  <r_i_glide_emodel>  (1) 
-67.271257120841852

>  <r_i_glide_emodel_strain>  (1) 
3.3209240938118398

>  <r_i_glide_energy>  (1) 
-51.911684504093245

>  <r_i_glide_erotb>  (1) 
0.67934156738045093

>  <r_i_glide_esite>  (1) 
-0.0022391224818304883

>  <r_i_glide_evdw>  (1) 
-47.157656301529244

>  <r_i_glide_gscore>  (1) 
-9.071403799439393

>  <r_i_glide_gscore_strain>  (1) 
0

>  <r_i_glide_hbond>  (1) 
-0.57118054615862901

>  <r_i_glide_ligand_efficiency>  (1) 
-0.21362681775254999

>  <r_i_glide_ligand_efficiency_ln>  (1) 
-1.7864985014755472

>  <r_i_glide_ligand_efficiency_sa>  (1) 
-0.72445370889714955

>  <r_i_glide_lipo>  (1) 
-4.3436288012326036

>  <r_i_glide_metal>  (1) 
-0

>  <r_i_glide_rewards>  (1) 
-1.7627098514857178

>  <r_lp_Energy>  (1) 
51.282467999999994

>  <s_epik_Chemistry_Notes>  (1) 
This compound contains an acetal/aminal-like group ( X-CH(R)-Y where X, Y are N, S, or O) that may be acid/base labile, releasing an aldehyde.

>  <s_epik_cmdline>  (1) 
J2VwaWtfcHl0aG9uJywgJy1waHQnLCAnMS4wJywgJy1waCcsICc3LjQnLCAnLXRuJywgJzgnLCAnLW1hJywgJzUwMCcsICctaW1hZScsICc8aW5maWxlLm1hZT4nLCAnLW9tYWUnLCAnPG91dGZpbGUubWFlPic=

>  <s_epik_input>  (1) 
RmMxYyhGKVtjSF1bY0hdYyhbY0hdMSlbQ0gyXVtDQEhdKFtDSDJdW0NASF0yW09IXSlOKFtDSDJdW05IXVtDSF09TylbQ0gyXVtDSDJdW0NAQEhdMltOSF1bQ0gyXS9DKD1DKFxbQ0gzXSlbQ0gyXVtPSF0pQyg9TylbTkhdQyg9QzNbQ0gzXSlbQ0gyXVtDSDJdW0NIXT1DM0Y=

>  <s_glide_docking_method>  (1) 
confgen

>  <s_i_glide_gridfile>  (1) 
gpcr_5ht2c_6bqh_protein_autoprepared_prepared

>  <s_lp_Force_Field>  (1) 
S-OPLS

>  <s_lp_Variant>  (1) 
DiffSBDD_77_num_sample_100-5

>  <s_m_source_file>  (1) 
generated__ligand_DiffSBDD_2026-05-06_prepared.sdf

>  <GenAI_Model>  (1) 
DiffSBDD

>  <Protein>  (1) 
GPCR_5HT2C

$$$$
DiffSBDD_51_num_sample_100
     RDKit          3D

  0  0  0  0  0  0  0  0  0  0999 V3000
M  V30 BEGIN CTAB
M  V30 COUNTS 64 65 0 0 1
M  V30 BEGIN ATOM
M  V30 1 C 38.874211 28.831558 56.065840 0 CFG=1
M  V30 2 O 38.760526 24.778842 57.267976 0
M  V30 3 C 38.406330 26.633127 54.938525 0
M  V30 4 N 38.953421 27.041525 57.478176 0
M  V30 5 C 37.131107 30.536845 58.822350 0
M  V30 6 C 38.218460 31.862833 56.894803 0 CFG=2
M  V30 7 C 38.984183 27.186451 53.615244 0
M  V30 8 C 39.186998 27.308929 56.080384 0 CFG=2
M  V30 9 N 37.721724 32.598312 59.898248 0
M  V30 10 O 38.897106 28.111146 59.489453 0
M  V30 11 N 36.869705 31.481559 59.754024 0
M  V30 12 C 39.198439 29.425670 57.479942 0 CFG=2
M  V30 13 N 37.467404 31.461451 55.696895 0 CHG=1
M  V30 14 C 37.419980 33.566986 60.766839 0
M  V30 15 C 40.552924 35.649880 61.966112 0
M  V30 16 C 36.670269 36.462176 59.886146 0
M  V30 17 C 39.061540 28.734551 53.565124 0
M  V30 18 C 40.748927 32.569428 62.523619 0
M  V30 19 C 38.762348 25.792301 57.965069 0
M  V30 20 O 36.420403 33.534642 61.484114 0
M  V30 21 C 38.999329 28.122057 58.259816 0
M  V30 22 C 39.477447 32.643083 56.523113 0
M  V30 23 C 37.640154 36.103230 61.026082 0
M  V30 24 C 38.416969 30.717347 57.955204 0 CFG=2
M  V30 25 C 39.518420 34.508509 61.869864 0 CFG=1
M  V30 26 O 36.394281 29.572427 58.643019 0
M  V30 27 C 38.396072 34.762654 60.825558 0 CFG=1
M  V30 28 C 39.612441 29.396491 54.854810 0
M  V30 29 O 40.229398 33.344622 61.453592 0
M  V30 30 H 37.797885 28.933738 55.917065 0
M  V30 31 H 37.337356 26.835041 55.015302 0
M  V30 32 H 38.525415 25.550250 54.941039 0
M  V30 33 H 37.560954 32.622307 57.320109 0
M  V30 34 H 39.986861 26.779917 53.478839 0
M  V30 35 H 38.397681 26.821329 52.771342 0
M  V30 36 H 40.254817 27.129842 55.929317 0
M  V30 37 H 38.519054 32.569122 59.282284 0
M  V30 38 H 36.071605 31.515948 60.373454 0
M  V30 39 H 40.267393 29.632093 57.524448 0
M  V30 40 H 37.778442 30.578230 55.323594 0
M  V30 41 H 37.498825 32.193264 55.002424 0
M  V30 42 H 40.117360 36.559757 62.377671 0
M  V30 43 H 40.973570 35.888381 60.988851 0
M  V30 44 H 41.383732 35.386524 62.620445 0
M  V30 45 H 36.208777 37.432668 60.069021 0
M  V30 46 H 35.867408 35.731795 59.787291 0
M  V30 47 H 37.187586 36.519167 58.928046 0
M  V30 48 H 39.651468 29.048214 52.702875 0
M  V30 49 H 38.055626 29.116518 53.387184 0
M  V30 50 H 41.283234 31.708324 62.122626 0
M  V30 51 H 39.945785 32.196105 63.160908 0
M  V30 52 H 41.446573 33.139055 63.137825 0
M  V30 53 H 38.610912 25.797869 59.053494 0
M  V30 54 H 39.867398 33.168841 57.394420 0
M  V30 55 H 39.261816 33.402515 55.770655 0
M  V30 56 H 40.267401 32.005435 56.133580 0
M  V30 57 H 38.352146 36.923559 61.094456 0
M  V30 58 H 37.104874 36.093566 61.976991 0
M  V30 59 H 39.134880 31.099076 58.672887 0
M  V30 60 H 39.067407 34.351159 62.849612 0
M  V30 61 H 38.884880 34.821425 59.853501 0
M  V30 62 H 39.535831 30.471421 54.745186 0
M  V30 63 H 40.667400 29.221452 55.053489 0
M  V30 64 H 36.493319 31.411278 56.037020 0
M  V30 END ATOM
M  V30 BEGIN BOND
M  V30 1 1 7 3
M  V30 2 1 8 1
M  V30 3 1 8 3
M  V30 4 1 8 4
M  V30 5 1 11 5
M  V30 6 1 11 9
M  V30 7 1 12 1
M  V30 8 1 13 6
M  V30 9 1 14 9
M  V30 10 1 17 7
M  V30 11 2 19 2
M  V30 12 1 19 4
M  V30 13 2 20 14
M  V30 14 1 21 4
M  V30 15 2 21 10
M  V30 16 1 21 12
M  V30 17 1 22 6
M  V30 18 1 23 16
M  V30 19 1 24 5
M  V30 20 1 24 6
M  V30 21 1 24 12
M  V30 22 1 25 15
M  V30 23 2 26 5
M  V30 24 1 27 14
M  V30 25 1 27 23
M  V30 26 1 27 25
M  V30 27 1 28 1
M  V30 28 1 28 17
M  V30 29 1 29 18
M  V30 30 1 29 25
M  V30 31 1 1 30 CFG=3
M  V30 32 1 31 3
M  V30 33 1 32 3
M  V30 34 1 6 33 CFG=1
M  V30 35 1 34 7
M  V30 36 1 35 7
M  V30 37 1 8 36 CFG=3
M  V30 38 1 37 9
M  V30 39 1 38 11
M  V30 40 1 12 39 CFG=3
M  V30 41 1 40 13
M  V30 42 1 41 13
M  V30 43 1 42 15
M  V30 44 1 43 15
M  V30 45 1 44 15
M  V30 46 1 45 16
M  V30 47 1 46 16
M  V30 48 1 47 16
M  V30 49 1 48 17
M  V30 50 1 49 17
M  V30 51 1 50 18
M  V30 52 1 51 18
M  V30 53 1 52 18
M  V30 54 1 53 19
M  V30 55 1 54 22
M  V30 56 1 55 22
M  V30 57 1 56 22
M  V30 58 1 57 23
M  V30 59 1 58 23
M  V30 60 1 24 59 CFG=1
M  V30 61 1 25 60 CFG=1
M  V30 62 1 27 61 CFG=3
M  V30 63 1 62 28
M  V30 64 1 63 28
M  V30 65 1 64 13
M  V30 END BOND
M  V30 END CTAB
M  END
>  <i_epik_Tot_Q>  (1) 
1

>  <i_epik_Tot_abs_Q>  (1) 
1

>  <i_i_glide_confnum>  (1) 
62

>  <i_i_glide_lignum>  (1) 
136

>  <i_i_glide_posenum>  (1) 
274

>  <i_i_glide_rotatable_bonds>  (1) 
11

>  <i_lp_mmshare_version>  (1) 
72125

>  <i_m_source_file_index>  (1) 
52

>  <i_f3d_flags>  (1) 
0

>  <num_sample>  (1) 
100

>  <b_lp_Chiralities_Consistent>  (1) 
1

>  <r_epik_Charging_Adjusted_Penalty>  (1) 
0.019458142528331109

>  <r_epik_Ionization_Penalty>  (1) 
0.0099781937774174462

>  <r_epik_Ionization_Penalty_Charging>  (1) 
0.0097290712641655529

>  <r_epik_Ionization_Penalty_Neutral>  (1) 
0.00024912251325189406

>  <r_epik_State_Penalty>  (1) 
0.0097290712641655563

>  <r_glide_ring_energy>  (1) 
0

>  <r_i_docking_score>  (1) 
-8.3298932607329927

>  <r_i_glide_ecoul>  (1) 
-6.4711374661466561

>  <r_i_glide_eff_state_penalty>  (1) 
0.0097290712641655563

>  <r_i_glide_einternal>  (1) 
25.573479227717524

>  <r_i_glide_emodel>  (1) 
-57.877022878600549

>  <r_i_glide_emodel_strain>  (1) 
3.1472858748228703

>  <r_i_glide_energy>  (1) 
-45.612641611750668

>  <r_i_glide_erotb>  (1) 
0.57029248470027072

>  <r_i_glide_esite>  (1) 
-0.27463409297750552

>  <r_i_glide_evdw>  (1) 
-39.14150414560401

>  <r_i_glide_gscore>  (1) 
-8.339622331997159

>  <r_i_glide_gscore_strain>  (1) 
0

>  <r_i_glide_hbond>  (1) 
-0.17246869974342574

>  <r_i_glide_ligand_efficiency>  (1) 
-0.28723769864596527

>  <r_i_glide_ligand_efficiency_ln>  (1) 
-1.9073343288400022

>  <r_i_glide_ligand_efficiency_sa>  (1) 
-0.88248521452128015

>  <r_i_glide_lipo>  (1) 
-2.6531595982432505

>  <r_i_glide_metal>  (1) 
-0

>  <r_i_glide_rewards>  (1) 
-2.881906598531049

>  <r_lp_Energy>  (1) 
35.249798999999996

>  <r_lp_tautomer_probability>  (1) 
0.99995000000000001

>  <s_epik_cmdline>  (1) 
J2VwaWtfcHl0aG9uJywgJy1waHQnLCAnMS4wJywgJy1waCcsICc3LjQnLCAnLXRuJywgJzgnLCAnLW1hJywgJzUwMCcsICctaW1hZScsICc8aW5maWxlLm1hZT4nLCAnLW9tYWUnLCAnPG91dGZpbGUubWFlPic=

>  <s_epik_input>  (1) 
W0NIMl0xW0NIMl1bQ0gyXVtDSDJdW0NAQEhdKFtDQEhdMTIpTihbQ0hdPU8pQyg9TylbQ0BASF0yW0NAQEhdKFtDQEhdKFtOSDJdKVtDSDNdKUMoPU8pW05IXVtOSF1DKD1PKVtDQEBIXShbQ0gyXVtDSDNdKVtDQEhdKFtDSDNdKU9bQ0gzXQ==

>  <s_glide_docking_method>  (1) 
confgen

>  <s_i_glide_gridfile>  (1) 
gpcr_5ht2c_6bqh_protein_autoprepared_prepared

>  <s_lp_Force_Field>  (1) 
S-OPLS

>  <s_lp_Variant>  (1) 
DiffSBDD_51_num_sample_100-1

>  <s_m_source_file>  (1) 
generated__ligand_DiffSBDD_2026-05-06_prepared.sdf

>  <GenAI_Model>  (1) 
DiffSBDD

>  <Protein>  (1) 
GPCR_5HT2C

$$$$
DiffSBDD_85_num_sample_100
     RDKit          3D

  0  0  0  0  0  0  0  0  0  0999 V3000
M  V30 BEGIN CTAB
M  V30 COUNTS 83 87 0 0 1
M  V30 BEGIN ATOM
M  V30 1 C 41.060869 28.514864 65.753609 0
M  V30 2 N 37.552710 28.526397 53.804635 0
M  V30 3 C 40.110806 30.486215 51.632081 0
M  V30 4 Cl 44.170746 29.299069 65.146426 0
M  V30 5 C 41.541227 31.000146 65.840128 0 CFG=1
M  V30 6 C 38.598424 26.535800 58.090510 0
M  V30 7 C 38.374916 28.909183 52.659981 0
M  V30 8 C 40.705863 29.277472 50.900354 0
M  V30 9 O 42.046561 33.743011 63.817421 0
M  V30 10 S 39.464310 28.821235 60.703364 0
M  V30 11 C 39.715770 28.117222 50.709548 0
M  V30 12 O 41.037384 33.501032 61.853206 0 CHG=-1
M  V30 13 C 39.364121 30.080027 52.916079 0
M  V30 14 C 39.424084 30.295294 61.764015 0 CFG=1
M  V30 15 C 38.538845 31.069266 59.563461 0 CFG=1
M  V30 16 C 38.879995 29.056606 57.940625 0 CFG=1
M  V30 17 C 40.467622 29.907281 66.019857 0
M  V30 18 N 38.267247 28.666139 55.078070 0 CHG=1
M  V30 19 C 42.126690 30.982091 64.389313 0 CFG=2
M  V30 20 C 39.920944 26.367609 57.345439 0 CFG=1
M  V30 21 C 39.087672 27.697348 52.046509 0
M  V30 22 C 41.072273 32.372553 66.350439 0
M  V30 23 C 38.253504 27.476493 55.952524 0 CFG=2
M  V30 24 C 40.406616 28.866704 57.704932 0
M  V30 25 C 38.068113 27.817125 57.450098 0 CFG=1
M  V30 26 C 41.712524 28.431401 64.363275 0
M  V30 27 C 41.434616 33.072468 62.958994 0
M  V30 28 C 41.134400 31.581949 63.295822 0 CFG=1
M  V30 29 C 39.546994 26.640021 55.876151 0
M  V30 30 O 37.467345 31.782077 58.960404 0
M  V30 31 C 40.882097 30.748705 61.989796 0
M  V30 32 C 38.524639 31.345119 61.072369 0 CFG=1
M  V30 33 C 42.731281 29.569566 64.118632 0 CFG=2
M  V30 34 C 40.917996 27.415957 57.883838 0
M  V30 35 C 38.472080 29.540645 59.364413 0 CFG=1
M  V30 36 O 37.169614 31.221426 61.459303 0
M  V30 37 H 41.799982 28.283999 66.521568 0
M  V30 38 H 40.282032 27.757155 65.843378 0
M  V30 39 H 36.837003 29.226672 53.946114 0
M  V30 40 H 39.467232 31.017937 50.939043 0
M  V30 41 H 40.897439 31.202908 51.871130 0
M  V30 42 H 42.352549 30.737254 66.519181 0
M  V30 43 H 37.931419 25.695610 57.890729 0
M  V30 44 H 38.718409 26.602965 59.168463 0
M  V30 45 H 37.653974 29.221432 51.906799 0
M  V30 46 H 41.069815 29.621410 49.931643 0
M  V30 47 H 41.564871 28.904575 51.453492 0
M  V30 48 H 38.934486 28.420020 50.011966 0
M  V30 49 H 40.219473 27.264691 50.253543 0
M  V30 50 H 38.842016 30.948156 53.322331 0
M  V30 51 H 40.114494 29.804032 53.655949 0
M  V30 52 H 38.991958 29.999418 62.720329 0
M  V30 53 H 39.467378 31.448001 59.162919 0
M  V30 54 H 38.582990 29.890221 57.305593 0
M  V30 55 H 40.068660 29.934777 67.034610 0
M  V30 56 H 39.619640 30.084353 65.357767 0
M  V30 57 H 37.813293 29.429774 55.560812 0
M  V30 58 H 43.009851 31.621135 64.411604 0
M  V30 59 H 40.321196 25.362013 57.477794 0
M  V30 60 H 39.850062 27.302667 52.719148 0
M  V30 61 H 38.376387 26.889121 51.871484 0
M  V30 62 H 40.267900 32.787536 65.747601 0
M  V30 63 H 40.715584 32.307676 67.378394 0
M  V30 64 H 41.892916 33.090048 66.341367 0
M  V30 65 H 37.420419 26.833724 55.660304 0
M  V30 66 H 40.629914 29.165559 56.681695 0
M  V30 67 H 40.986501 29.545801 58.330081 0
M  V30 68 H 37.015023 27.957997 57.685203 0
M  V30 69 H 42.200223 27.463891 64.239608 0
M  V30 70 H 40.920008 28.460187 63.617098 0
M  V30 71 H 40.160097 31.647862 63.775317 0
M  V30 72 H 40.355549 27.141564 55.343835 0
M  V30 73 H 39.352616 25.705229 55.348708 0
M  V30 74 H 37.354059 31.554214 58.047431 0
M  V30 75 H 41.467778 29.843534 61.979688 0
M  V30 76 H 41.231504 31.257829 61.091391 0
M  V30 77 H 38.834338 32.365930 61.294418 0
M  V30 78 H 43.142407 29.507907 63.112989 0
M  V30 79 H 41.885615 27.302451 57.392897 0
M  V30 80 H 41.104191 27.221454 58.939360 0
M  V30 81 H 37.443075 29.238160 59.563871 0
M  V30 82 H 36.684048 31.613551 60.740880 0
M  V30 83 H 39.217636 28.926753 54.857478 0
M  V30 END ATOM
M  V30 BEGIN BOND
M  V30 1 1 7 2
M  V30 2 1 8 3
M  V30 3 1 11 8
M  V30 4 1 13 3
M  V30 5 1 13 7
M  V30 6 1 14 10
M  V30 7 1 17 1
M  V30 8 1 17 5
M  V30 9 1 18 2
M  V30 10 1 19 5
M  V30 11 1 20 6
M  V30 12 1 21 7
M  V30 13 1 21 11
M  V30 14 1 22 5
M  V30 15 1 23 18
M  V30 16 1 24 16
M  V30 17 1 25 6
M  V30 18 1 25 16
M  V30 19 1 25 23
M  V30 20 1 26 1
M  V30 21 2 27 9
M  V30 22 1 27 12
M  V30 23 1 28 19
M  V30 24 1 28 27
M  V30 25 1 29 20
M  V30 26 1 29 23
M  V30 27 1 30 15
M  V30 28 1 31 14
M  V30 29 1 31 28
M  V30 30 1 32 14
M  V30 31 1 32 15
M  V30 32 1 33 4
M  V30 33 1 33 19
M  V30 34 1 33 26
M  V30 35 1 34 20
M  V30 36 1 34 24
M  V30 37 1 35 10
M  V30 38 1 35 15
M  V30 39 1 35 16
M  V30 40 1 36 32
M  V30 41 1 37 1
M  V30 42 1 38 1
M  V30 43 1 39 2
M  V30 44 1 40 3
M  V30 45 1 41 3
M  V30 46 1 5 42 CFG=1
M  V30 47 1 43 6
M  V30 48 1 44 6
M  V30 49 1 45 7
M  V30 50 1 46 8
M  V30 51 1 47 8
M  V30 52 1 48 11
M  V30 53 1 49 11
M  V30 54 1 50 13
M  V30 55 1 51 13
M  V30 56 1 14 52 CFG=1
M  V30 57 1 15 53 CFG=3
M  V30 58 1 16 54 CFG=3
M  V30 59 1 55 17
M  V30 60 1 56 17
M  V30 61 1 57 18
M  V30 62 1 19 58 CFG=1
M  V30 63 1 20 59 CFG=3
M  V30 64 1 60 21
M  V30 65 1 61 21
M  V30 66 1 62 22
M  V30 67 1 63 22
M  V30 68 1 64 22
M  V30 69 1 23 65 CFG=3
M  V30 70 1 66 24
M  V30 71 1 67 24
M  V30 72 1 25 68 CFG=3
M  V30 73 1 69 26
M  V30 74 1 70 26
M  V30 75 1 28 71 CFG=1
M  V30 76 1 72 29
M  V30 77 1 73 29
M  V30 78 1 74 30
M  V30 79 1 75 31
M  V30 80 1 76 31
M  V30 81 1 32 77 CFG=3
M  V30 82 1 33 78 CFG=3
M  V30 83 1 79 34
M  V30 84 1 80 34
M  V30 85 1 35 81 CFG=1
M  V30 86 1 82 36
M  V30 87 1 83 18
M  V30 END BOND
M  V30 END CTAB
M  END
>  <i_epik_Tot_Q>  (1) 
0

>  <i_epik_Tot_abs_Q>  (1) 
2

>  <i_i_glide_confnum>  (1) 
939

>  <i_i_glide_lignum>  (1) 
220

>  <i_i_glide_posenum>  (1) 
247

>  <i_i_glide_rotatable_bonds>  (1) 
10

>  <i_lp_mmshare_version>  (1) 
72125

>  <i_m_source_file_index>  (1) 
86

>  <i_f3d_flags>  (1) 
0

>  <num_sample>  (1) 
100

>  <b_lp_Chiralities_Consistent>  (1) 
1

>  <r_epik_Charging_Adjusted_Penalty>  (1) 
0.24139881983135253

>  <r_epik_Ionization_Penalty>  (1) 
0.013577590547947769

>  <r_epik_Ionization_Penalty_Charging>  (1) 
0.013577468157686226

>  <r_epik_Ionization_Penalty_Neutral>  (1) 
1.223902615442005e-07

>  <r_epik_State_Penalty>  (1) 
0.22782135167366629

>  <r_glide_ring_energy>  (1) 
0.31597086924411422

>  <r_i_docking_score>  (1) 
-8.3296939299014578

>  <r_i_glide_ecoul>  (1) 
-3.3878421360700743

>  <r_i_glide_eff_state_penalty>  (1) 
0.22782135167366629

>  <r_i_glide_einternal>  (1) 
16.585692134823447

>  <r_i_glide_emodel>  (1) 
-61.788528001469452

>  <r_i_glide_emodel_strain>  (1) 
0.93499371177399837

>  <r_i_glide_energy>  (1) 
-49.869268159109602

>  <r_i_glide_erotb>  (1) 
0.49083612240102314

>  <r_i_glide_esite>  (1) 
0

>  <r_i_glide_evdw>  (1) 
-46.481426023039525

>  <r_i_glide_gscore>  (1) 
-8.5575152815751245

>  <r_i_glide_gscore_strain>  (1) 
0

>  <r_i_glide_hbond>  (1) 
-0.3381624169931432

>  <r_i_glide_ligand_efficiency>  (1) 
-0.23138038694170715

>  <r_i_glide_ligand_efficiency_ln>  (1) 
-1.8173141731813574

>  <r_i_glide_ligand_efficiency_sa>  (1) 
-0.76400120450260545

>  <r_i_glide_lipo>  (1) 
-4.936030826487702

>  <r_i_glide_metal>  (1) 
-0

>  <r_i_glide_rewards>  (1) 
-0.94191053893281484

>  <r_lp_Energy>  (1) 
69.240732999999992

>  <s_epik_cmdline>  (1) 
J2VwaWtfcHl0aG9uJywgJy1waHQnLCAnMS4wJywgJy1waCcsICc3LjQnLCAnLXRuJywgJzgnLCAnLW1hJywgJzUwMCcsICctaW1hZScsICc8aW5maWxlLm1hZT4nLCAnLW9tYWUnLCAnPG91dGZpbGUubWFlPic=

>  <s_epik_input>  (1) 
W0NIM11bQ0BIXTFbQ0gyXVtDSDJdW0NIMl1bQ0BIXShDbClbQ0BIXTFbQ0BASF0oQyg9TylbT0hdKVtDSDJdW0NAQEhdMlNbQ0BASF0oW0NAQEhdKFtPSF0pW0NASF0yW09IXSlbQ0BASF0oW0NIMl1bQ0gyXTMpW0NASF0oW0NIMl1bQ0BIXTM0KVtDQEhdKFtDSDJdNClbTkhdW05IXVtDSF01W0NIMl1bQ0gyXVtDSDJdW0NIMl1bQ0gyXTU=

>  <s_glide_docking_method>  (1) 
confgen

>  <s_i_glide_gridfile>  (1) 
gpcr_5ht2c_6bqh_protein_autoprepared_prepared

>  <s_lp_Force_Field>  (1) 
S-OPLS

>  <s_lp_Variant>  (1) 
DiffSBDD_85_num_sample_100-1

>  <s_m_source_file>  (1) 
generated__ligand_DiffSBDD_2026-05-06_prepared.sdf

>  <GenAI_Model>  (1) 
DiffSBDD

>  <Protein>  (1) 
GPCR_5HT2C

$$$$
DiffSBDD_70_num_sample_100
     RDKit          3D

  0  0  0  0  0  0  0  0  0  0999 V3000
M  V30 BEGIN CTAB
M  V30 COUNTS 77 80 0 0 1
M  V30 BEGIN ATOM
M  V30 1 N 39.279344 30.249881 59.887977 0
M  V30 2 C 37.719212 25.936138 58.253548 0
M  V30 3 F 39.467475 27.221564 50.653435 0
M  V30 4 C 37.597202 24.153069 56.565810 0
M  V30 5 P 39.867117 30.992595 61.413931 0
M  V30 6 C 38.256280 27.802238 55.736335 0
M  V30 7 F 38.412392 29.063909 51.056323 0
M  V30 8 C 38.423753 27.135412 58.930077 0
M  V30 9 C 37.158464 33.250362 59.058214 0
M  V30 10 O 40.609957 28.990252 51.416520 0
M  V30 11 C 40.576965 26.619261 57.642039 0
M  V30 12 C 40.872975 29.777216 50.261866 0
M  V30 13 C 39.758445 25.748766 56.704088 0 CFG=2
M  V30 14 O 39.930667 32.460665 61.252553 0 CHG=-1
M  V30 15 C 37.382457 31.952542 59.530427 0
M  V30 16 O 38.603093 30.604211 62.462566 0
M  V30 17 C 36.522059 31.430740 60.518180 0
M  V30 18 C 39.344204 28.798327 55.314217 0
M  V30 19 C 38.729836 26.357789 55.767211 0 CFG=1
M  V30 20 C 36.087231 33.975418 59.581516 0
M  V30 21 C 38.280007 25.472312 56.919893 0 CFG=2
M  V30 22 O 37.953359 30.415419 57.871360 0
M  V30 23 C 38.800867 25.833425 54.347071 0
M  V30 24 C 39.436145 28.308371 51.460908 0
M  V30 25 N 35.489183 32.126986 61.052782 0
M  V30 26 C 39.029530 27.956536 52.900918 0 CFG=2
M  V30 27 C 35.281702 33.377786 60.572168 0
M  V30 28 C 39.183114 29.185490 53.858963 0 CFG=1
M  V30 29 C 39.693565 26.651553 53.398090 0
M  V30 30 O 38.053664 30.031311 53.853480 0
M  V30 31 C 40.335072 29.462603 59.204618 0
M  V30 32 C 40.134177 31.111290 50.266176 0
M  V30 33 O 41.067389 30.264114 61.876189 0
M  V30 34 C 40.581705 28.044658 59.780363 0
M  V30 35 C 39.893437 26.930231 58.961472 0 CFG=1
M  V30 36 C 38.508002 31.123545 58.954688 0 CFG=2
M  V30 37 C 35.793232 35.369076 59.076245 0
M  V30 38 H 37.867404 25.085525 58.920618 0
M  V30 39 H 36.649465 26.104246 58.145913 0
M  V30 40 H 37.547231 23.491301 57.431477 0
M  V30 41 H 36.576107 24.348484 56.236502 0
M  V30 42 H 38.108091 23.621673 55.767579 0
M  V30 43 H 37.405479 27.849993 55.058622 0
M  V30 44 H 37.801867 28.115405 56.653426 0
M  V30 45 H 38.267384 27.221435 60.000335 0
M  V30 46 H 38.115158 28.102407 58.578479 0
M  V30 47 H 37.790219 33.676362 58.293015 0
M  V30 48 H 40.942516 27.513892 57.159107 0
M  V30 49 H 41.467697 26.063647 57.900657 0
M  V30 50 H 41.933933 30.021418 50.272758 0
M  V30 51 H 40.667729 29.223547 49.344266 0
M  V30 52 H 40.322076 24.901156 56.324466 0
M  V30 53 H 38.900804 29.873164 62.983734 0
M  V30 54 H 36.660900 30.426209 60.887100 0
M  V30 55 H 40.338116 28.390408 55.449486 0
M  V30 56 H 39.329051 29.694124 55.930669 0
M  V30 57 H 37.214157 30.916927 57.540080 0
M  V30 58 H 39.231673 24.837062 54.393856 0
M  V30 59 H 37.791491 25.717108 53.948593 0
M  V30 60 H 37.965828 27.715671 52.840475 0
M  V30 61 H 34.445756 33.913564 60.988945 0
M  V30 62 H 40.039301 29.801261 53.586730 0
M  V30 63 H 40.667401 26.811105 53.845781 0
M  V30 64 H 39.898126 26.021365 52.541823 0
M  V30 65 H 37.445743 29.726833 54.510242 0
M  V30 66 H 40.179219 29.413679 58.128992 0
M  V30 67 H 41.279570 29.990916 59.323880 0
M  V30 68 H 40.511932 31.718111 49.453466 0
M  V30 69 H 39.067470 31.027233 50.095916 0
M  V30 70 H 40.287683 31.621503 51.215494 0
M  V30 71 H 41.656077 27.856633 59.785051 0
M  V30 72 H 40.276236 27.995883 60.826923 0
M  V30 73 H 39.867410 25.969936 59.453558 0
M  V30 74 H 39.186516 31.849173 58.510179 0
M  V30 75 H 35.467414 36.043512 59.853555 0
M  V30 76 H 36.691665 35.815486 58.653534 0
M  V30 77 H 35.008620 35.320134 58.319695 0
M  V30 END ATOM
M  V30 BEGIN BOND
M  V30 1 1 5 1
M  V30 2 1 8 2
M  V30 3 1 12 10
M  V30 4 1 13 11
M  V30 5 1 14 5
M  V30 6 1 15 9
M  V30 7 1 16 5
M  V30 8 2 17 15
M  V30 9 1 18 6
M  V30 10 1 19 6 CFG=3
M  V30 11 1 19 13
M  V30 12 2 20 9
M  V30 13 1 21 2
M  V30 14 1 21 4 CFG=3
M  V30 15 1 21 13
M  V30 16 1 21 19
M  V30 17 1 23 19
M  V30 18 1 24 3
M  V30 19 1 24 7
M  V30 20 1 24 10
M  V30 21 1 25 17
M  V30 22 1 26 24
M  V30 23 1 27 20
M  V30 24 2 27 25
M  V30 25 1 28 18
M  V30 26 1 28 26
M  V30 27 1 29 23
M  V30 28 1 29 26
M  V30 29 1 30 28
M  V30 30 1 31 1
M  V30 31 1 32 12
M  V30 32 2 33 5
M  V30 33 1 34 31
M  V30 34 1 35 8
M  V30 35 1 35 11
M  V30 36 1 35 34
M  V30 37 1 36 1
M  V30 38 1 36 15
M  V30 39 1 36 22
M  V30 40 1 37 20
M  V30 41 1 38 2
M  V30 42 1 39 2
M  V30 43 1 40 4
M  V30 44 1 41 4
M  V30 45 1 42 4
M  V30 46 1 43 6
M  V30 47 1 44 6
M  V30 48 1 45 8
M  V30 49 1 46 8
M  V30 50 1 47 9
M  V30 51 1 48 11
M  V30 52 1 49 11
M  V30 53 1 50 12
M  V30 54 1 51 12
M  V30 55 1 13 52 CFG=3
M  V30 56 1 53 16
M  V30 57 1 54 17
M  V30 58 1 55 18
M  V30 59 1 56 18
M  V30 60 1 57 22
M  V30 61 1 58 23
M  V30 62 1 59 23
M  V30 63 1 26 60 CFG=3
M  V30 64 1 61 27
M  V30 65 1 28 62 CFG=3
M  V30 66 1 63 29
M  V30 67 1 64 29
M  V30 68 1 65 30
M  V30 69 1 66 31
M  V30 70 1 67 31
M  V30 71 1 68 32
M  V30 72 1 69 32
M  V30 73 1 70 32
M  V30 74 1 71 34
M  V30 75 1 72 34
M  V30 76 1 35 73 CFG=1
M  V30 77 1 36 74 CFG=3
M  V30 78 1 75 37
M  V30 79 1 76 37
M  V30 80 1 77 37
M  V30 END BOND
M  V30 END CTAB
M  END
>  <i_epik_Tot_Q>  (1) 
-1

>  <i_epik_Tot_abs_Q>  (1) 
1

>  <i_i_glide_confnum>  (1) 
1580

>  <i_i_glide_lignum>  (1) 
179

>  <i_i_glide_posenum>  (1) 
98

>  <i_i_glide_rotatable_bonds>  (1) 
12

>  <i_lp_mmshare_version>  (1) 
72125

>  <i_m_source_file_index>  (1) 
71

>  <i_f3d_flags>  (1) 
0

>  <num_sample>  (1) 
100

>  <b_lp_Chiralities_Consistent>  (1) 
1

>  <r_epik_Charging_Adjusted_Penalty>  (1) 
2.5863915032327713e-05

>  <r_epik_Ionization_Penalty>  (1) 
0.063291997969961059

>  <r_epik_Ionization_Penalty_Charging>  (1) 
2.5863915032327713e-05

>  <r_epik_Ionization_Penalty_Neutral>  (1) 
0.06326613405492873

>  <r_epik_State_Penalty>  (1) 
-0

>  <r_glide_ring_energy>  (1) 
0

>  <r_i_docking_score>  (1) 
-8.3262461578045333

>  <r_i_glide_ecoul>  (1) 
-9.7309595271085811

>  <r_i_glide_eff_state_penalty>  (1) 
-0

>  <r_i_glide_einternal>  (1) 
15.264748644255526

>  <r_i_glide_emodel>  (1) 
-48.347474480485417

>  <r_i_glide_emodel_strain>  (1) 
4.9200821051513088

>  <r_i_glide_energy>  (1) 
-41.415872604608339

>  <r_i_glide_erotb>  (1) 
0.55646031454045308

>  <r_i_glide_esite>  (1) 
-0.034110883179509936

>  <r_i_glide_evdw>  (1) 
-31.684913077499761

>  <r_i_glide_gscore>  (1) 
-8.3262461578045333

>  <r_i_glide_gscore_strain>  (1) 
0.23002052628782721

>  <r_i_glide_hbond>  (1) 
-0.41323684754477685

>  <r_i_glide_ligand_efficiency>  (1) 
-0.22503367994066306

>  <r_i_glide_ligand_efficiency_ln>  (1) 
-1.805767596723421

>  <r_i_glide_ligand_efficiency_sa>  (1) 
-0.7498621456545792

>  <r_i_glide_lipo>  (1) 
-4.4851950240986103

>  <r_i_glide_metal>  (1) 
-0

>  <r_i_glide_rewards>  (1) 
-1.1362946608686404

>  <r_lp_Energy>  (1) 
42.482589999999995

>  <r_lp_tautomer_probability>  (1) 
1

>  <s_epik_Chemistry_Notes>  (1) 
This compound contains an acetal/aminal-like group ( X-CH(R)-Y where X, Y are N, S, or O) that may be acid/base labile, releasing an aldehyde.

>  <s_epik_cmdline>  (1) 
J2VwaWtfcHl0aG9uJywgJy1waHQnLCAnMS4wJywgJy1waCcsICc3LjQnLCAnLXRuJywgJzgnLCAnLW1hJywgJzUwMCcsICctaW1hZScsICc8aW5maWxlLm1hZT4nLCAnLW9tYWUnLCAnPG91dGZpbGUubWFlPic=

>  <s_epik_input>  (1) 
W2NIXTFuW2NIXWMoW0NIM10pW2NIXWMxW0NASF0oW09IXSlOKFAoPU8pKFtPSF0pW09IXSlbQ0gyXVtDSDJdW0NASF0oW0NIMl0yKVtDSDJdW0NIMl1bQ0BdMyhbQ0gzXSlbQ0BIXTJbQ0BdMzRbQ0gyXVtDSDJdW0NASF0oW09IXSlbQ0BIXShbQ0gyXVtDSDJdNClDKEYpKEYpT1tDSDJdW0NIM10=

>  <s_glide_docking_method>  (1) 
confgen

>  <s_i_glide_gridfile>  (1) 
gpcr_5ht2c_6bqh_protein_autoprepared_prepared

>  <s_lp_Force_Field>  (1) 
S-OPLS

>  <s_lp_Variant>  (1) 
DiffSBDD_70_num_sample_100-1

>  <s_m_source_file>  (1) 
generated__ligand_DiffSBDD_2026-05-06_prepared.sdf

>  <GenAI_Model>  (1) 
DiffSBDD

>  <Protein>  (1) 
GPCR_5HT2C

$$$$
DiffSBDD_48_num_sample_100
     RDKit          3D

  0  0  0  0  0  0  0  0  0  0999 V3000
M  V30 BEGIN CTAB
M  V30 COUNTS 71 75 0 0 1
M  V30 BEGIN ATOM
M  V30 1 C 39.199767 27.386759 51.644238 0
M  V30 2 C 39.159419 32.780862 60.845262 0 CFG=1
M  V30 3 C 39.567098 30.020650 52.457420 0
M  V30 4 C 39.662463 25.752389 57.901141 0
M  V30 5 C 39.036232 26.361087 54.899629 0
M  V30 6 C 38.733628 31.248678 54.247719 0 CFG=1
M  V30 7 O 40.450392 30.848681 61.546667 0
M  V30 8 O 38.943383 29.100735 59.978139 0
M  V30 9 C 38.050812 26.801945 53.820266 0
M  V30 10 C 39.183347 32.025881 55.496808 0
M  V30 11 C 39.678730 31.390344 52.960385 0
M  V30 12 N 38.530767 29.788440 54.465311 0
M  V30 13 C 38.440475 32.749199 57.776082 0
M  V30 14 C 38.658544 30.298136 60.012835 0
M  V30 15 C 36.174913 30.121856 59.262664 0
M  V30 16 C 38.658129 25.070417 55.640677 0 CFG=2
M  V30 17 N 38.144584 31.988024 56.546883 0 CHG=1
M  V30 18 C 37.498156 32.364880 58.945043 0 CFG=2
M  V30 19 C 37.281515 25.131552 56.288907 0
M  V30 20 C 39.867405 28.294655 50.800336 0
M  V30 21 C 37.267867 29.350944 54.998261 0
M  V30 22 O 37.068500 30.015111 58.153806 0
M  V30 23 O 36.338090 24.475173 55.853499 0
M  V30 24 O 37.667772 34.504643 60.023621 0
M  V30 25 C 37.774395 33.115261 60.258765 0 CFG=2
M  V30 26 C 37.132175 26.040635 57.505277 0
M  V30 27 C 39.378319 33.412674 62.234235 0
M  V30 28 C 39.508706 31.274145 60.875602 0
M  V30 29 C 37.484524 30.869419 59.234561 0 CFG=1
M  V30 30 C 39.697120 24.773991 56.723274 0
M  V30 31 C 38.722750 27.811670 52.904653 0
M  V30 32 C 38.931322 29.176308 53.281206 0
M  V30 33 C 40.053089 29.621909 51.208355 0
M  V30 34 C 38.267394 25.794730 58.521594 0
M  V30 35 H 39.067406 26.368864 51.329734 0
M  V30 36 H 39.902217 33.226297 60.183722 0
M  V30 37 H 39.968796 26.752597 57.594866 0
M  V30 38 H 40.381200 25.439034 58.653364 0
M  V30 39 H 40.003347 26.185791 54.425450 0
M  V30 40 H 39.200896 27.188761 55.586216 0
M  V30 41 H 37.761426 31.645675 53.950267 0
M  V30 42 H 37.069372 27.052179 54.202728 0
M  V30 43 H 37.809240 25.948730 53.201859 0
M  V30 44 H 39.366086 33.068425 55.237966 0
M  V30 45 H 40.119846 31.616143 55.874257 0
M  V30 46 H 39.285963 32.021437 52.180937 0
M  V30 47 H 40.711297 31.607369 53.201133 0
M  V30 48 H 38.352689 33.811290 57.546792 0
M  V30 49 H 39.467402 32.572389 58.058312 0
M  V30 50 H 36.083892 29.221434 59.853500 0
M  V30 51 H 35.256622 30.665807 59.053501 0
M  V30 52 H 37.997440 31.019145 56.805816 0
M  V30 53 H 36.487185 32.648039 58.653501 0
M  V30 54 H 40.239259 27.968855 49.853500 0
M  V30 55 H 36.667408 28.996863 54.173750 0
M  V30 56 H 37.467406 28.583278 55.742333 0
M  V30 57 H 36.705795 30.154144 55.473032 0
M  V30 58 H 37.144425 27.078004 57.179775 0
M  V30 59 H 37.687625 34.961543 60.851962 0
M  V30 60 H 37.002572 32.852484 60.985277 0
M  V30 61 H 36.159691 25.859619 57.959049 0
M  V30 62 H 38.651752 24.251097 54.921249 0
M  V30 63 H 40.404461 33.275942 62.578392 0
M  V30 64 H 39.195250 34.486921 62.224031 0
M  V30 65 H 38.720171 32.964980 62.978304 0
M  V30 66 H 39.556987 23.758532 57.096295 0
M  V30 67 H 40.667404 24.821408 56.253493 0
M  V30 68 H 40.559837 30.327281 50.565618 0
M  V30 69 H 38.267400 26.565985 59.290796 0
M  V30 70 H 38.059812 24.844766 59.012517 0
M  V30 71 H 37.251175 32.316229 56.188521 0
M  V30 END ATOM
M  V30 BEGIN BOND
M  V30 1 1 9 5
M  V30 2 1 10 6
M  V30 3 1 11 3
M  V30 4 1 11 6
M  V30 5 1 12 6
M  V30 6 2 14 8
M  V30 7 1 16 5
M  V30 8 1 17 10
M  V30 9 1 17 13
M  V30 10 1 18 13
M  V30 11 1 19 16
M  V30 12 2 20 1
M  V30 13 1 21 12
M  V30 14 1 22 15
M  V30 15 2 23 19
M  V30 16 1 25 2
M  V30 17 1 25 18
M  V30 18 1 25 24
M  V30 19 1 26 19
M  V30 20 1 27 2
M  V30 21 1 28 2
M  V30 22 2 28 7
M  V30 23 1 28 14
M  V30 24 1 29 14
M  V30 25 1 29 15
M  V30 26 1 29 18
M  V30 27 1 29 22 CFG=3
M  V30 28 1 30 4
M  V30 29 1 30 16
M  V30 30 1 31 1
M  V30 31 1 31 9
M  V30 32 1 32 3
M  V30 33 1 32 12
M  V30 34 2 32 31
M  V30 35 2 33 3
M  V30 36 1 33 20
M  V30 37 1 34 4
M  V30 38 1 34 26
M  V30 39 1 35 1
M  V30 40 1 2 36 CFG=3
M  V30 41 1 37 4
M  V30 42 1 38 4
M  V30 43 1 39 5
M  V30 44 1 40 5
M  V30 45 1 6 41 CFG=3
M  V30 46 1 42 9
M  V30 47 1 43 9
M  V30 48 1 44 10
M  V30 49 1 45 10
M  V30 50 1 46 11
M  V30 51 1 47 11
M  V30 52 1 48 13
M  V30 53 1 49 13
M  V30 54 1 50 15
M  V30 55 1 51 15
M  V30 56 1 52 17
M  V30 57 1 18 53 CFG=3
M  V30 58 1 54 20
M  V30 59 1 55 21
M  V30 60 1 56 21
M  V30 61 1 57 21
M  V30 62 1 58 26
M  V30 63 1 59 24
M  V30 64 1 25 60 CFG=1
M  V30 65 1 61 26
M  V30 66 1 16 62 CFG=3
M  V30 67 1 63 27
M  V30 68 1 64 27
M  V30 69 1 65 27
M  V30 70 1 66 30
M  V30 71 1 67 30
M  V30 72 1 68 33
M  V30 73 1 69 34
M  V30 74 1 70 34
M  V30 75 1 71 17
M  V30 END BOND
M  V30 END CTAB
M  END
>  <i_epik_Tot_Q>  (1) 
1

>  <i_epik_Tot_abs_Q>  (1) 
1

>  <i_i_glide_confnum>  (1) 
1025

>  <i_i_glide_lignum>  (1) 
132

>  <i_i_glide_posenum>  (1) 
65

>  <i_i_glide_rotatable_bonds>  (1) 
8

>  <i_lp_mmshare_version>  (1) 
72125

>  <i_m_source_file_index>  (1) 
49

>  <i_f3d_flags>  (1) 
0

>  <num_sample>  (1) 
100

>  <b_lp_Chiralities_Consistent>  (1) 
1

>  <r_epik_Charging_Adjusted_Penalty>  (1) 
0.027363245261170371

>  <r_epik_Ionization_Penalty>  (1) 
0.0277407901544389

>  <r_epik_Ionization_Penalty_Charging>  (1) 
0.027363245261170371

>  <r_epik_Ionization_Penalty_Neutral>  (1) 
0.00037754489326852995

>  <r_epik_State_Penalty>  (1) 
-0

>  <r_glide_ring_energy>  (1) 
0.34311052289791549

>  <r_i_docking_score>  (1) 
-8.3229964269600796

>  <r_i_glide_ecoul>  (1) 
-3.0337035194815369

>  <r_i_glide_eff_state_penalty>  (1) 
-0

>  <r_i_glide_einternal>  (1) 
5.2896879904492522

>  <r_i_glide_emodel>  (1) 
-69.073231049952824

>  <r_i_glide_emodel_strain>  (1) 
0.13182465929460818

>  <r_i_glide_energy>  (1) 
-45.547696400425103

>  <r_i_glide_erotb>  (1) 
0.64114366914740972

>  <r_i_glide_esite>  (1) 
-0.10000000000000001

>  <r_i_glide_evdw>  (1) 
-42.513992880943569

>  <r_i_glide_gscore>  (1) 
-8.3229964269600796

>  <r_i_glide_gscore_strain>  (1) 
0

>  <r_i_glide_hbond>  (1) 
-0.14167672645024265

>  <r_i_glide_ligand_efficiency>  (1) 
-0.2447940125576494

>  <r_i_glide_ligand_efficiency_ln>  (1) 
-1.8387833628577068

>  <r_i_glide_ligand_efficiency_sa>  (1) 
-0.79303757196382951

>  <r_i_glide_lipo>  (1) 
-4.4307398058630616

>  <r_i_glide_metal>  (1) 
-0

>  <r_i_glide_rewards>  (1) 
-1.7109683918247778

>  <r_lp_Energy>  (1) 
31.271559

>  <r_lp_tautomer_probability>  (1) 
1

>  <s_epik_cmdline>  (1) 
J2VwaWtfcHl0aG9uJywgJy1waHQnLCAnMS4wJywgJy1waCcsICc3LjQnLCAnLXRuJywgJzgnLCAnLW1hJywgJzUwMCcsICctaW1hZScsICc8aW5maWxlLm1hZT4nLCAnLW9tYWUnLCAnPG91dGZpbGUubWFlPic=

>  <s_epik_input>  (1) 
W0NIMl0xW0NIMl1bQ0gyXVtDSDJdQyhbT0hdKT1DMVtDSDJdW0NIMl1jKFtjSF1bY0hdW2NIXTIpYyhjMjMpTihbQ0gzXSlbQ0BIXShbQ0gyXTMpW0NIMl1bTkhdW0NIMl1bQ0BASF00W0NASF0oW09IXSlbQ0BASF0oW0NIM10pQyg9TylDKD1PKVtDQEBdNDVbQ0gyXU81

>  <s_glide_docking_method>  (1) 
confgen

>  <s_i_glide_gridfile>  (1) 
gpcr_5ht2c_6bqh_protein_autoprepared_prepared

>  <s_lp_Force_Field>  (1) 
S-OPLS

>  <s_lp_Variant>  (1) 
DiffSBDD_48_num_sample_100-2

>  <s_m_source_file>  (1) 
generated__ligand_DiffSBDD_2026-05-06_prepared.sdf

>  <GenAI_Model>  (1) 
DiffSBDD

>  <Protein>  (1) 
GPCR_5HT2C

$$$$
DiffSBDD_19_num_sample_100
     RDKit          3D

  0  0  0  0  0  0  0  0  0  0999 V3000
M  V30 BEGIN CTAB
M  V30 COUNTS 71 72 0 0 1
M  V30 BEGIN ATOM
M  V30 1 C 38.947092 30.157721 57.172777 0
M  V30 2 C 38.057284 30.342608 60.409627 0
M  V30 3 C 39.710995 29.660524 54.816755 0
M  V30 4 C 39.132857 26.824070 53.687823 0
M  V30 5 O 36.347634 31.587165 59.229673 0
M  V30 6 C 38.339972 25.163147 57.420059 0
M  V30 7 C 38.667744 28.115034 52.978975 0 CFG=2
M  V30 8 C 38.973441 34.784851 61.185837 0
M  V30 9 C 38.904857 33.372405 60.728523 0
M  V30 10 C 39.985018 30.201011 52.387999 0
M  V30 11 C 39.930943 35.336064 61.930215 0
M  V30 12 C 38.592949 27.798141 51.451676 0
M  V30 13 C 39.246348 28.821530 50.546476 0
M  V30 14 O 39.035330 32.649826 56.055848 0
M  V30 15 O 38.044310 32.073949 54.161234 0 CHG=-1
M  V30 16 O 37.955661 35.494223 60.681276 0
M  V30 17 C 39.864872 29.918846 50.989352 0
M  V30 18 N 38.231197 29.054282 57.864059 0 CFG=2 CHG=1
M  V30 19 C 36.758213 30.267933 59.531579 0 CFG=1
M  V30 20 C 41.055160 34.622430 62.524852 0
M  V30 21 C 37.997526 31.191999 61.713488 0 CFG=1
M  V30 22 C 41.112787 33.295863 62.845496 0
M  V30 23 C 38.395192 27.729437 57.210352 0
M  V30 24 C 38.616823 30.327768 55.661660 0 CFG=2
M  V30 25 C 38.554719 31.814418 55.260459 0
M  V30 26 C 36.843512 29.446325 58.212637 0
M  V30 27 C 39.467025 29.393886 53.333239 0
M  V30 28 C 40.054455 32.277222 62.670031 0
M  V30 29 C 37.383063 24.775543 56.286826 0
M  V30 30 C 39.047531 32.306774 61.772201 0
M  V30 31 C 37.987440 26.513574 58.067915 0
M  V30 32 O 36.714441 31.763821 61.851759 0
M  V30 33 H 38.717408 31.064771 57.731487 0
M  V30 34 H 40.020310 30.006769 57.280567 0
M  V30 35 H 38.880149 30.742909 59.828609 0
M  V30 36 H 38.383632 29.334788 60.665042 0
M  V30 37 H 40.589341 30.306721 54.877263 0
M  V30 38 H 40.073279 28.752426 55.277263 0
M  V30 39 H 39.180725 26.900510 54.766568 0
M  V30 40 H 38.427222 26.021781 53.469449 0
M  V30 41 H 40.108377 26.493041 53.332240 0
M  V30 42 H 35.867348 31.625502 58.388278 0
M  V30 43 H 39.374243 25.170733 57.070207 0
M  V30 44 H 38.292617 24.385664 58.184081 0
M  V30 45 H 37.650681 28.327560 53.312348 0
M  V30 46 H 37.998150 33.239082 60.141763 0
M  V30 47 H 39.702723 33.223090 60.000451 0
M  V30 48 H 40.542299 31.077484 52.692915 0
M  V30 49 H 39.870480 36.398524 62.111631 0
M  V30 50 H 37.548993 27.709488 51.153708 0
M  V30 51 H 39.040469 26.828164 51.220343 0
M  V30 52 H 39.180987 28.642356 49.483649 0
M  V30 53 H 38.055714 36.384081 60.980090 0
M  V30 54 H 40.299549 30.608813 50.276638 0
M  V30 55 H 35.948823 29.846472 60.126413 0
M  V30 56 H 41.910856 35.220034 62.795174 0
M  V30 57 H 38.154283 30.532004 62.567767 0
M  V30 58 H 42.015247 32.968264 63.343925 0
M  V30 59 H 37.851981 27.729169 56.267791 0
M  V30 60 H 39.457135 27.604912 56.998763 0
M  V30 61 H 37.646744 29.886978 55.425828 0
M  V30 62 H 36.202493 28.572661 58.283614 0
M  V30 63 H 36.401667 30.004970 57.388764 0
M  V30 64 H 40.091335 31.424171 63.330101 0
M  V30 65 H 37.785609 23.943396 55.714595 0
M  V30 66 H 36.430542 24.443629 56.695882 0
M  V30 67 H 37.201197 25.601952 55.598984 0
M  V30 68 H 38.477097 26.586292 59.042773 0
M  V30 69 H 36.914036 26.508699 58.252734 0
M  V30 70 H 36.422074 31.968332 60.969212 0
M  V30 71 H 38.705844 28.966919 58.748660 0
M  V30 END ATOM
M  V30 BEGIN BOND
M  V30 1 1 7 4
M  V30 2 1 9 8
M  V30 3 2 11 8
M  V30 4 1 12 7
M  V30 5 1 13 12
M  V30 6 1 16 8
M  V30 7 1 17 10
M  V30 8 2 17 13
M  V30 9 1 18 1
M  V30 10 1 19 2
M  V30 11 1 19 5
M  V30 12 1 20 11
M  V30 13 1 21 2
M  V30 14 2 22 20
M  V30 15 1 23 18
M  V30 16 1 24 1
M  V30 17 1 24 3
M  V30 18 2 25 14
M  V30 19 1 25 15
M  V30 20 1 25 24
M  V30 21 1 26 18
M  V30 22 1 26 19
M  V30 23 1 27 3
M  V30 24 1 27 7
M  V30 25 2 27 10
M  V30 26 1 28 22
M  V30 27 1 29 6
M  V30 28 1 30 9
M  V30 29 1 30 21
M  V30 30 2 30 28
M  V30 31 1 31 6
M  V30 32 1 31 23
M  V30 33 1 32 21
M  V30 34 1 33 1
M  V30 35 1 34 1
M  V30 36 1 35 2
M  V30 37 1 36 2
M  V30 38 1 37 3
M  V30 39 1 38 3
M  V30 40 1 39 4
M  V30 41 1 40 4
M  V30 42 1 41 4
M  V30 43 1 42 5
M  V30 44 1 43 6
M  V30 45 1 44 6
M  V30 46 1 7 45 CFG=1
M  V30 47 1 46 9
M  V30 48 1 47 9
M  V30 49 1 48 10
M  V30 50 1 49 11
M  V30 51 1 50 12
M  V30 52 1 51 12
M  V30 53 1 52 13
M  V30 54 1 53 16
M  V30 55 1 54 17
M  V30 56 1 19 55 CFG=1
M  V30 57 1 56 20
M  V30 58 1 21 57 CFG=1
M  V30 59 1 58 22
M  V30 60 1 59 23
M  V30 61 1 60 23
M  V30 62 1 24 61 CFG=1
M  V30 63 1 62 26
M  V30 64 1 63 26
M  V30 65 1 64 28
M  V30 66 1 65 29
M  V30 67 1 66 29
M  V30 68 1 67 29
M  V30 69 1 68 31
M  V30 70 1 69 31
M  V30 71 1 70 32
M  V30 72 1 18 71 CFG=1
M  V30 END BOND
M  V30 END CTAB
M  END
>  <i_epik_Tot_Q>  (1) 
0

>  <i_epik_Tot_abs_Q>  (1) 
2

>  <i_i_glide_confnum>  (1) 
2582

>  <i_i_glide_lignum>  (1) 
51

>  <i_i_glide_posenum>  (1) 
338

>  <i_i_glide_rotatable_bonds>  (1) 
16

>  <i_lp_mmshare_version>  (1) 
72125

>  <i_m_source_file_index>  (1) 
20

>  <i_f3d_flags>  (1) 
0

>  <num_sample>  (1) 
100

>  <b_lp_Chiralities_Consistent>  (1) 
1

>  <r_epik_Charging_Adjusted_Penalty>  (1) 
0.015037487925518506

>  <r_epik_Ionization_Penalty>  (1) 
0.015045499532085388

>  <r_epik_Ionization_Penalty_Charging>  (1) 
0.0012943130925640431

>  <r_epik_Ionization_Penalty_Neutral>  (1) 
0.013751186439521345

>  <r_epik_State_Penalty>  (1) 
0.013743174832954463

>  <r_glide_ring_energy>  (1) 
0

>  <r_i_docking_score>  (1) 
-8.3195132710423874

>  <r_i_glide_ecoul>  (1) 
-11.843164186001271

>  <r_i_glide_eff_state_penalty>  (1) 
0.013743174832954463

>  <r_i_glide_einternal>  (1) 
26.455166756914984

>  <r_i_glide_emodel>  (1) 
-60.729737451863201

>  <r_i_glide_emodel_strain>  (1) 
5.5474794476034219

>  <r_i_glide_energy>  (1) 
-45.738800164146326

>  <r_i_glide_erotb>  (1) 
1.1084889849388277

>  <r_i_glide_esite>  (1) 
-0.021907515723359628

>  <r_i_glide_evdw>  (1) 
-33.895635978145059

>  <r_i_glide_gscore>  (1) 
-8.3332564458753424

>  <r_i_glide_gscore_strain>  (1) 
0.38686986190085548

>  <r_i_glide_hbond>  (1) 
-0.45599999999999996

>  <r_i_glide_ligand_efficiency>  (1) 
-0.2599847897200746

>  <r_i_glide_ligand_efficiency_ln>  (1) 
-1.8629658027530449

>  <r_i_glide_ligand_efficiency_sa>  (1) 
-0.8254002573947552

>  <r_i_glide_lipo>  (1) 
-4.8337817924862296

>  <r_i_glide_metal>  (1) 
-0

>  <r_i_glide_rewards>  (1) 
-1.0456695576979897

>  <r_lp_Energy>  (1) 
24.107240999999998

>  <s_epik_cmdline>  (1) 
J2VwaWtfcHl0aG9uJywgJy1waHQnLCAnMS4wJywgJy1waCcsICc3LjQnLCAnLXRuJywgJzgnLCAnLW1hJywgJzUwMCcsICctaW1hZScsICc8aW5maWxlLm1hZT4nLCAnLW9tYWUnLCAnPG91dGZpbGUubWFlPic=

>  <s_epik_input>  (1) 
W0NIM11bQ0BIXTFbQ0gyXVtDSF09W0NIXVtDSF09QzFbQ0gyXVtDQEhdKEMoPU8pW09IXSlbQ0gyXU4oW0NIMl1bQ0gyXVtDSDJdW0NIM10pW0NIMl1bQ0BIXShbT0hdKVtDSDJdW0NASF0oW09IXSlDKFtDSDJdMik9W0NIXVtDSF09W0NIXVtDSF09QzJbT0hd

>  <s_glide_docking_method>  (1) 
confgen

>  <s_i_glide_gridfile>  (1) 
gpcr_5ht2c_6bqh_protein_autoprepared_prepared

>  <s_lp_Force_Field>  (1) 
S-OPLS

>  <s_lp_Variant>  (1) 
DiffSBDD_19_num_sample_100-3

>  <s_m_source_file>  (1) 
generated__ligand_DiffSBDD_2026-05-06_prepared.sdf

>  <GenAI_Model>  (1) 
DiffSBDD

>  <Protein>  (1) 
GPCR_5HT2C

$$$$
DiffSBDD_19_num_sample_100
     RDKit          3D

  0  0  0  0  0  0  0  0  0  0999 V3000
M  V30 BEGIN CTAB
M  V30 COUNTS 71 72 0 0 1
M  V30 BEGIN ATOM
M  V30 1 C 38.267150 29.425696 60.011408 0
M  V30 2 C 39.309815 30.622789 55.367043 0
M  V30 3 C 38.312317 32.017246 59.945002 0
M  V30 4 C 35.548053 32.895108 60.633786 0
M  V30 5 O 38.267375 32.293412 56.764324 0
M  V30 6 C 39.461285 25.670633 57.698712 0
M  V30 7 C 36.752398 33.521492 61.363207 0 CFG=2
M  V30 8 C 39.925396 30.107718 50.867574 0
M  V30 9 C 39.723274 30.397423 52.308087 0
M  V30 10 C 39.067739 34.279520 60.705570 0
M  V30 11 C 39.845327 28.935693 50.253544 0
M  V30 12 C 36.441447 34.998188 61.723547 0
M  V30 13 C 37.667272 35.883882 61.853468 0
M  V30 14 O 39.887114 31.353061 62.617721 0
M  V30 15 O 40.764553 30.169424 60.949406 0 CHG=-1
M  V30 16 O 40.267338 31.221194 50.217870 0
M  V30 17 C 38.864001 35.540749 61.369793 0
M  V30 18 N 38.977150 29.419163 58.705490 0 CFG=1 CHG=1
M  V30 19 C 38.923536 31.042521 56.780803 0 CFG=1
M  V30 20 C 39.467496 27.668581 50.849957 0
M  V30 21 C 38.189853 30.540895 54.312112 0 CFG=1
M  V30 22 C 38.848003 27.441157 52.037886 0
M  V30 23 C 39.684783 28.150579 58.382520 0
M  V30 24 C 38.460995 30.745689 60.813360 0 CFG=2
M  V30 25 C 39.821197 30.756164 61.523405 0
M  V30 26 C 38.166612 29.947117 57.569441 0
M  V30 27 C 38.109680 33.332176 60.667938 0
M  V30 28 C 38.392988 28.395885 53.045766 0
M  V30 29 C 39.779458 25.756632 56.200558 0
M  V30 30 C 38.738015 29.689067 53.174286 0
M  V30 31 C 38.757216 26.918319 58.257832 0
M  V30 32 O 36.980540 30.021654 54.832077 0
M  V30 33 H 37.207610 29.221757 59.853479 0
M  V30 34 H 38.643103 28.600053 60.621358 0
M  V30 35 H 39.805846 29.653951 55.443441 0
M  V30 36 H 40.077240 31.308501 55.002928 0
M  V30 37 H 39.196345 32.133726 59.323164 0
M  V30 38 H 37.481203 31.922818 59.254849 0
M  V30 39 H 35.623986 31.809181 60.571915 0
M  V30 40 H 34.622898 33.114360 61.165817 0
M  V30 41 H 35.447355 33.284574 59.620299 0
M  V30 42 H 37.326788 32.172386 56.653342 0
M  V30 43 H 40.377504 25.472258 58.254024 0
M  V30 44 H 38.816283 24.806118 57.853635 0
M  V30 45 H 36.869434 32.967135 62.288980 0
M  V30 46 H 40.667408 30.272799 52.814145 0
M  V30 47 H 39.508401 31.464513 52.388540 0
M  V30 48 H 40.012505 34.091812 60.220769 0
M  V30 49 H 40.080506 28.922292 49.200158 0
M  V30 50 H 35.826000 35.064158 62.622238 0
M  V30 51 H 35.867781 35.405567 60.891305 0
M  V30 52 H 37.534865 36.838078 62.342110 0
M  V30 53 H 40.402366 30.998872 49.311101 0
M  V30 54 H 39.692531 36.225587 61.470684 0
M  V30 55 H 39.867392 31.227137 57.276581 0
M  V30 56 H 39.667730 26.796907 50.253492 0
M  V30 57 H 37.948958 31.539043 53.941642 0
M  V30 58 H 38.627446 26.421430 52.252250 0
M  V30 59 H 40.237812 28.305670 57.456243 0
M  V30 60 H 40.438752 27.963832 59.149268 0
M  V30 61 H 37.702459 30.755029 61.596024 0
M  V30 62 H 37.194013 30.314116 57.896952 0
M  V30 63 H 37.909433 29.124724 56.908228 0
M  V30 64 H 37.711319 28.003350 53.785325 0
M  V30 65 H 40.221375 24.822910 55.853627 0
M  V30 66 H 38.879284 25.936046 55.610939 0
M  V30 67 H 40.491588 26.551786 55.982369 0
M  V30 68 H 38.360521 26.677857 59.241796 0
M  V30 69 H 37.885542 27.125043 57.638860 0
M  V30 70 H 36.496323 30.718614 55.260516 0
M  V30 71 H 39.725305 30.081479 58.865572 0
M  V30 END ATOM
M  V30 BEGIN BOND
M  V30 1 1 7 4
M  V30 2 1 9 8
M  V30 3 2 11 8
M  V30 4 1 12 7
M  V30 5 1 13 12
M  V30 6 1 16 8
M  V30 7 1 17 10
M  V30 8 2 17 13
M  V30 9 1 18 1
M  V30 10 1 19 2
M  V30 11 1 19 5
M  V30 12 1 20 11
M  V30 13 1 21 2
M  V30 14 2 22 20
M  V30 15 1 23 18
M  V30 16 1 24 1
M  V30 17 1 24 3
M  V30 18 2 25 14
M  V30 19 1 25 15
M  V30 20 1 25 24
M  V30 21 1 26 18
M  V30 22 1 26 19
M  V30 23 1 27 3
M  V30 24 1 27 7
M  V30 25 2 27 10
M  V30 26 1 28 22
M  V30 27 1 29 6
M  V30 28 1 30 9
M  V30 29 1 30 21
M  V30 30 2 30 28
M  V30 31 1 31 6
M  V30 32 1 31 23
M  V30 33 1 32 21
M  V30 34 1 33 1
M  V30 35 1 34 1
M  V30 36 1 35 2
M  V30 37 1 36 2
M  V30 38 1 37 3
M  V30 39 1 38 3
M  V30 40 1 39 4
M  V30 41 1 40 4
M  V30 42 1 41 4
M  V30 43 1 42 5
M  V30 44 1 43 6
M  V30 45 1 44 6
M  V30 46 1 7 45 CFG=1
M  V30 47 1 46 9
M  V30 48 1 47 9
M  V30 49 1 48 10
M  V30 50 1 49 11
M  V30 51 1 50 12
M  V30 52 1 51 12
M  V30 53 1 52 13
M  V30 54 1 53 16
M  V30 55 1 54 17
M  V30 56 1 19 55 CFG=1
M  V30 57 1 56 20
M  V30 58 1 21 57 CFG=3
M  V30 59 1 58 22
M  V30 60 1 59 23
M  V30 61 1 60 23
M  V30 62 1 24 61 CFG=1
M  V30 63 1 62 26
M  V30 64 1 63 26
M  V30 65 1 64 28
M  V30 66 1 65 29
M  V30 67 1 66 29
M  V30 68 1 67 29
M  V30 69 1 68 31
M  V30 70 1 69 31
M  V30 71 1 70 32
M  V30 72 1 18 71 CFG=1
M  V30 END BOND
M  V30 END CTAB
M  END
>  <i_epik_Tot_Q>  (1) 
0

>  <i_epik_Tot_abs_Q>  (1) 
2

>  <i_i_glide_confnum>  (1) 
1047

>  <i_i_glide_lignum>  (1) 
52

>  <i_i_glide_posenum>  (1) 
28

>  <i_i_glide_rotatable_bonds>  (1) 
16

>  <i_lp_mmshare_version>  (1) 
72125

>  <i_m_source_file_index>  (1) 
20

>  <i_f3d_flags>  (1) 
0

>  <num_sample>  (1) 
100

>  <b_lp_Chiralities_Consistent>  (1) 
1

>  <r_epik_Charging_Adjusted_Penalty>  (1) 
0.015037487925518506

>  <r_epik_Ionization_Penalty>  (1) 
0.015045499532085388

>  <r_epik_Ionization_Penalty_Charging>  (1) 
0.0012943130925640431

>  <r_epik_Ionization_Penalty_Neutral>  (1) 
0.013751186439521345

>  <r_epik_State_Penalty>  (1) 
0.013743174832954463

>  <r_glide_ring_energy>  (1) 
0

>  <r_i_docking_score>  (1) 
-8.3148685203713111

>  <r_i_glide_ecoul>  (1) 
-5.7546817534979526

>  <r_i_glide_eff_state_penalty>  (1) 
0.013743174832954463

>  <r_i_glide_einternal>  (1) 
23.777441971098447

>  <r_i_glide_emodel>  (1) 
-62.512676668043582

>  <r_i_glide_emodel_strain>  (1) 
3.0132390532227333

>  <r_i_glide_energy>  (1) 
-48.888342342582014

>  <r_i_glide_erotb>  (1) 
1.1084889849388277

>  <r_i_glide_esite>  (1) 
0

>  <r_i_glide_evdw>  (1) 
-43.133660589084059

>  <r_i_glide_gscore>  (1) 
-8.3286116952042661

>  <r_i_glide_gscore_strain>  (1) 
0

>  <r_i_glide_hbond>  (1) 
-0.3796800240642963

>  <r_i_glide_ligand_efficiency>  (1) 
-0.25983964126160347

>  <r_i_glide_ligand_efficiency_ln>  (1) 
-1.8619257164666696

>  <r_i_glide_ligand_efficiency_sa>  (1) 
-0.82493943976341799

>  <r_i_glide_lipo>  (1) 
-4.5871009114892809

>  <r_i_glide_metal>  (1) 
-0

>  <r_i_glide_rewards>  (1) 
-1.4504344521106214

>  <r_lp_Energy>  (1) 
25.908189

>  <s_epik_cmdline>  (1) 
J2VwaWtfcHl0aG9uJywgJy1waHQnLCAnMS4wJywgJy1waCcsICc3LjQnLCAnLXRuJywgJzgnLCAnLW1hJywgJzUwMCcsICctaW1hZScsICc8aW5maWxlLm1hZT4nLCAnLW9tYWUnLCAnPG91dGZpbGUubWFlPic=

>  <s_epik_input>  (1) 
W0NIM11bQ0BIXTFbQ0gyXVtDSF09W0NIXVtDSF09QzFbQ0gyXVtDQEhdKEMoPU8pW09IXSlbQ0gyXU4oW0NIMl1bQ0gyXVtDSDJdW0NIM10pW0NIMl1bQ0BIXShbT0hdKVtDSDJdW0NASF0oW09IXSlDKFtDSDJdMik9W0NIXVtDSF09W0NIXVtDSF09QzJbT0hd

>  <s_glide_docking_method>  (1) 
confgen

>  <s_i_glide_gridfile>  (1) 
gpcr_5ht2c_6bqh_protein_autoprepared_prepared

>  <s_lp_Force_Field>  (1) 
S-OPLS

>  <s_lp_Variant>  (1) 
DiffSBDD_19_num_sample_100-4

>  <s_m_source_file>  (1) 
generated__ligand_DiffSBDD_2026-05-06_prepared.sdf

>  <GenAI_Model>  (1) 
DiffSBDD

>  <Protein>  (1) 
GPCR_5HT2C

$$$$
DiffSBDD_80_num_sample_100
     RDKit          3D

  0  0  0  0  0  0  0  0  0  0999 V3000
M  V30 BEGIN CTAB
M  V30 COUNTS 73 76 0 0 1
M  V30 BEGIN ATOM
M  V30 1 C 37.010662 29.753647 57.695264 0
M  V30 2 C 39.071954 29.972739 61.377338 0
M  V30 3 N 40.137047 30.910540 61.807544 0 CFG=1 CHG=1
M  V30 4 O 37.867461 28.486683 55.460540 0
M  V30 5 O 41.067392 28.530292 59.964413 0
M  V30 6 O 36.172240 30.021432 58.795101 0
M  V30 7 C 41.583527 32.960836 63.361918 0 CFG=2
M  V30 8 C 40.957213 33.280494 61.985351 0 CFG=2
M  V30 9 C 39.474439 28.473843 50.806998 0
M  V30 10 C 39.090533 26.568370 54.876775 0
M  V30 11 O 39.228367 30.401295 54.506680 0
M  V30 12 C 39.303820 29.763412 53.304574 0
M  V30 13 O 38.044993 36.936377 61.346232 0
M  V30 14 C 38.892911 27.806444 51.897605 0
M  V30 15 C 39.390136 35.293345 62.464036 0
M  V30 16 C 39.882375 30.424348 52.206315 0
M  V30 17 O 39.867405 26.037852 57.114854 0
M  V30 18 C 41.921723 31.460568 63.446242 0
M  V30 19 O 40.540197 30.421396 49.898095 0
M  V30 20 C 40.655910 34.778454 61.807657 0
M  V30 21 C 39.971462 29.779816 50.959800 0
M  V30 22 C 38.607976 28.086268 56.608827 0 CFG=1
M  V30 23 C 39.053298 29.859722 59.861946 0 CFG=2
M  V30 24 C 37.847787 28.476468 57.901129 0 CFG=1
M  V30 25 C 39.758174 32.344825 61.683031 0
M  V30 26 C 38.801589 26.589079 56.368114 0 CFG=1
M  V30 27 C 38.366871 35.752860 61.427850 0
M  V30 28 C 38.751702 28.534949 59.143695 0 CFG=1
M  V30 29 C 41.467389 35.591997 61.114928 0
M  V30 30 C 41.282789 33.619359 65.631453 0
M  V30 31 C 40.137354 29.152643 59.106472 0 CFG=2
M  V30 32 C 38.187130 27.683913 54.331758 0 CFG=2
M  V30 33 C 38.805982 28.439003 53.151897 0
M  V30 34 C 40.687130 30.591406 63.148375 0
M  V30 35 O 40.667450 33.284633 64.396216 0
M  V30 36 H 37.625816 30.622362 57.459709 0
M  V30 37 H 36.333152 29.625719 56.854601 0
M  V30 38 H 38.099290 30.312926 61.734217 0
M  V30 39 H 39.233869 28.980771 61.803311 0
M  V30 40 H 41.482254 27.812606 59.505067 0
M  V30 41 H 35.599172 30.723076 58.492862 0
M  V30 42 H 42.494725 33.552964 63.469386 0
M  V30 43 H 41.724720 33.037114 61.250092 0
M  V30 44 H 39.539995 27.982673 49.853499 0
M  V30 45 H 40.817395 31.306243 50.089477 0
M  V30 46 H 38.901627 25.602224 54.409100 0
M  V30 47 H 40.137298 26.822507 54.703291 0
M  V30 48 H 38.670446 29.904009 55.096464 0
M  V30 49 H 38.514239 26.806657 51.772697 0
M  V30 50 H 38.954968 34.502773 63.053524 0
M  V30 51 H 39.631388 36.115572 63.138695 0
M  V30 52 H 40.262438 31.428968 52.322698 0
M  V30 53 H 40.687965 26.363522 56.773805 0
M  V30 54 H 42.325236 31.208432 64.426730 0
M  V30 55 H 42.712003 31.229851 62.731657 0
M  V30 56 H 39.567597 28.597630 56.538396 0
M  V30 57 H 38.724951 30.779488 59.386748 0
M  V30 58 H 37.118883 27.687362 58.076078 0
M  V30 59 H 39.391041 32.550130 60.677206 0
M  V30 60 H 38.928193 32.529021 62.365086 0
M  V30 61 H 37.879225 26.044716 56.576271 0
M  V30 62 H 37.956546 34.969496 60.790122 0
M  V30 63 H 38.667333 27.645572 59.766122 0
M  V30 64 H 41.239873 36.642719 61.004971 0
M  V30 65 H 42.364398 35.221439 60.653498 0
M  V30 66 H 40.514922 33.822558 66.377718 0
M  V30 67 H 41.907466 32.809825 66.009182 0
M  V30 68 H 41.896363 34.515921 65.531258 0
M  V30 69 H 40.554316 29.621391 58.218830 0
M  V30 70 H 37.244988 27.249479 53.993280 0
M  V30 71 H 39.918200 30.737584 63.909270 0
M  V30 72 H 40.972928 29.539156 63.190326 0
M  V30 73 H 40.888935 30.743480 61.156475 0
M  V30 END ATOM
M  V30 BEGIN BOND
M  V30 1 1 3 2
M  V30 2 1 6 1
M  V30 3 1 8 7
M  V30 4 1 12 11
M  V30 5 2 14 9
M  V30 6 1 16 12
M  V30 7 1 18 7
M  V30 8 1 20 8
M  V30 9 1 20 15
M  V30 10 1 21 9
M  V30 11 2 21 16
M  V30 12 1 21 19
M  V30 13 1 22 4
M  V30 14 1 23 2
M  V30 15 1 24 1
M  V30 16 1 24 22
M  V30 17 1 25 3
M  V30 18 1 25 8
M  V30 19 1 26 10
M  V30 20 1 26 17
M  V30 21 1 26 22
M  V30 22 2 27 13
M  V30 23 1 27 15
M  V30 24 1 28 23
M  V30 25 1 28 24
M  V30 26 2 29 20
M  V30 27 1 31 5
M  V30 28 1 31 23
M  V30 29 1 31 28
M  V30 30 1 32 4
M  V30 31 1 32 10
M  V30 32 2 33 12
M  V30 33 1 33 14
M  V30 34 1 33 32
M  V30 35 1 34 3
M  V30 36 1 34 18
M  V30 37 1 35 7
M  V30 38 1 35 30
M  V30 39 1 36 1
M  V30 40 1 37 1
M  V30 41 1 38 2
M  V30 42 1 39 2
M  V30 43 1 40 5
M  V30 44 1 41 6
M  V30 45 1 7 42 CFG=1
M  V30 46 1 8 43 CFG=3
M  V30 47 1 44 9
M  V30 48 1 45 19
M  V30 49 1 46 10
M  V30 50 1 47 10
M  V30 51 1 48 11
M  V30 52 1 49 14
M  V30 53 1 50 15
M  V30 54 1 51 15
M  V30 55 1 52 16
M  V30 56 1 53 17
M  V30 57 1 54 18
M  V30 58 1 55 18
M  V30 59 1 22 56 CFG=1
M  V30 60 1 23 57 CFG=3
M  V30 61 1 24 58 CFG=1
M  V30 62 1 59 25
M  V30 63 1 60 25
M  V30 64 1 26 61 CFG=3
M  V30 65 1 62 27
M  V30 66 1 28 63 CFG=1
M  V30 67 1 64 29
M  V30 68 1 65 29
M  V30 69 1 66 30
M  V30 70 1 67 30
M  V30 71 1 68 30
M  V30 72 1 31 69 CFG=3
M  V30 73 1 32 70 CFG=3
M  V30 74 1 71 34
M  V30 75 1 72 34
M  V30 76 1 3 73 CFG=3
M  V30 END BOND
M  V30 END CTAB
M  END
>  <i_epik_Tot_Q>  (1) 
1

>  <i_epik_Tot_abs_Q>  (1) 
1

>  <i_i_glide_confnum>  (1) 
2283

>  <i_i_glide_lignum>  (1) 
210

>  <i_i_glide_posenum>  (1) 
195

>  <i_i_glide_rotatable_bonds>  (1) 
15

>  <i_lp_mmshare_version>  (1) 
72125

>  <i_m_source_file_index>  (1) 
81

>  <i_f3d_flags>  (1) 
0

>  <num_sample>  (1) 
100

>  <b_lp_Chiralities_Consistent>  (1) 
1

>  <r_epik_Charging_Adjusted_Penalty>  (1) 
0.034071705691259377

>  <r_epik_Ionization_Penalty>  (1) 
0.043305258844254187

>  <r_epik_Ionization_Penalty_Charging>  (1) 
0.034071705691259377

>  <r_epik_Ionization_Penalty_Neutral>  (1) 
0.009233553152994808

>  <r_epik_State_Penalty>  (1) 
-0

>  <r_glide_ring_energy>  (1) 
0

>  <r_i_docking_score>  (1) 
-8.3125752915271036

>  <r_i_glide_ecoul>  (1) 
-5.6970691097151169

>  <r_i_glide_eff_state_penalty>  (1) 
-0

>  <r_i_glide_einternal>  (1) 
21.602560509662467

>  <r_i_glide_emodel>  (1) 
-67.266220101460803

>  <r_i_glide_emodel_strain>  (1) 
0.57405508587702059

>  <r_i_glide_energy>  (1) 
-53.644893116101819

>  <r_i_glide_erotb>  (1) 
0.67144220787932085

>  <r_i_glide_esite>  (1) 
0

>  <r_i_glide_evdw>  (1) 
-47.947824006386703

>  <r_i_glide_gscore>  (1) 
-8.3125752915271036

>  <r_i_glide_gscore_strain>  (1) 
0

>  <r_i_glide_hbond>  (1) 
-0.12883553249054508

>  <r_i_glide_ligand_efficiency>  (1) 
-0.23750215118648868

>  <r_i_glide_ligand_efficiency_ln>  (1) 
-1.8247947641588622

>  <r_i_glide_ligand_efficiency_sa>  (1) 
-0.77688528534344026

>  <r_i_glide_lipo>  (1) 
-4.9186937236491062

>  <r_i_glide_metal>  (1) 
-0

>  <r_i_glide_rewards>  (1) 
-0.68453667649017069

>  <r_lp_Energy>  (1) 
30.281509

>  <r_lp_tautomer_probability>  (1) 
1

>  <s_epik_cmdline>  (1) 
J2VwaWtfcHl0aG9uJywgJy1waHQnLCAnMS4wJywgJy1waCcsICc3LjQnLCAnLXRuJywgJzgnLCAnLW1hJywgJzUwMCcsICctaW1hZScsICc8aW5maWxlLm1hZT4nLCAnLW9tYWUnLCAnPG91dGZpbGUubWFlPic=

>  <s_epik_input>  (1) 
Tz1bQ0hdW0NIMl1DKD1bQ0gyXSlbQ0BASF0oW0NASF0oW0NIMl1bQ0gyXTEpT1tDSDNdKVtDSDJdTjFbQ0gyXVtDQEBIXTJbQ0BASF0oW0NAQEhdMltPSF0pW0NAQEhdKFtDSDJdW09IXSlbQ0BASF0zT1tDQEhdKFtDSDJdW0NASF0zW09IXSlDND1bQ0hdW0NIMl1DKD1PKVtDSF09QzRbT0hd

>  <s_glide_docking_method>  (1) 
confgen

>  <s_i_glide_gridfile>  (1) 
gpcr_5ht2c_6bqh_protein_autoprepared_prepared

>  <s_lp_Force_Field>  (1) 
S-OPLS

>  <s_lp_Variant>  (1) 
DiffSBDD_80_num_sample_100-6

>  <s_m_source_file>  (1) 
generated__ligand_DiffSBDD_2026-05-06_prepared.sdf

>  <GenAI_Model>  (1) 
DiffSBDD

>  <Protein>  (1) 
GPCR_5HT2C

$$$$
DiffSBDD_10_num_sample_100
     RDKit          3D

  0  0  0  0  0  0  0  0  0  0999 V3000
M  V30 BEGIN CTAB
M  V30 COUNTS 89 92 0 0 1
M  V30 BEGIN ATOM
M  V30 1 C 43.508869 29.810953 66.207411 0
M  V30 2 C 40.430902 29.056477 61.121510 0
M  V30 3 C 40.800658 28.501607 57.705437 0
M  V30 4 C 38.262511 30.104084 54.468769 0 CFG=2
M  V30 5 C 41.240408 30.620301 63.912938 0
M  V30 6 C 38.538433 30.521716 56.770374 0 CFG=1
M  V30 7 C 39.040077 27.402411 52.989523 0
M  V30 8 C 39.775737 30.131052 62.016429 0
M  V30 9 O 43.147596 30.661814 69.209878 0
M  V30 10 O 41.191085 32.722342 66.953268 0
M  V30 11 C 45.542197 31.122981 67.228037 0
M  V30 12 C 44.961300 32.544293 67.274341 0
M  V30 13 O 39.907246 25.896112 57.620259 0
M  V30 14 C 41.835276 31.516927 67.317466 0 CFG=2
M  V30 15 C 43.899023 32.820197 68.358596 0
M  V30 16 N 41.371067 30.405005 65.227041 0
M  V30 17 C 38.997959 26.724234 57.626984 0
M  V30 18 C 38.702011 28.772203 59.127355 0 CFG=2
M  V30 19 C 39.270845 28.250869 57.750469 0 CFG=1
M  V30 20 C 38.804409 28.543408 51.969544 0 CFG=2
M  V30 21 C 39.216306 28.016603 50.585148 0
M  V30 22 C 38.470590 27.578135 54.405918 0
M  V30 23 C 37.791578 30.917057 58.030110 0
M  V30 24 C 38.514208 29.006629 56.597999 0 CFG=2
M  V30 25 C 39.605977 29.844637 52.247449 0
M  V30 26 C 38.512878 30.312686 59.224711 0
M  V30 27 C 39.177713 30.752256 53.426432 0
M  V30 28 C 37.294362 25.081733 57.343698 0
M  V30 29 N 37.932798 31.055738 55.550698 0 CHG=1
M  V30 30 C 39.408837 28.170042 60.383460 0
M  V30 31 C 44.981979 30.243874 66.097454 0
M  V30 32 C 42.726649 31.833868 68.544629 0 CFG=2
M  V30 33 O 37.691843 26.427560 57.529046 0
M  V30 34 C 42.473640 30.947852 66.018978 0 CFG=2
M  V30 35 O 42.022532 31.295648 63.244318 0
M  V30 36 C 38.921478 28.866293 55.120395 0 CFG=2
M  V30 37 N 40.161380 30.020861 63.410475 0
M  V30 38 H 43.373012 29.077368 65.410536 0
M  V30 39 H 43.322072 29.243121 67.115977 0
M  V30 40 H 41.096612 29.529700 60.401720 0
M  V30 41 H 41.070433 28.410075 61.725031 0
M  V30 42 H 41.035229 29.523981 57.987256 0
M  V30 43 H 41.347942 27.871884 58.408604 0
M  V30 44 H 41.233860 28.299984 56.726696 0
M  V30 45 H 37.309748 29.837233 54.010836 0
M  V30 46 H 39.565838 30.887071 56.808078 0
M  V30 47 H 40.102512 27.180508 53.051679 0
M  V30 48 H 38.589636 26.491493 52.595929 0
M  V30 49 H 38.691443 30.014818 62.031256 0
M  V30 50 H 39.972847 31.136189 61.636314 0
M  V30 51 H 43.765986 30.211715 68.654220 0
M  V30 52 H 40.681259 32.554201 66.174708 0
M  V30 53 H 46.613655 31.221076 67.045745 0
M  V30 54 H 45.471419 30.625885 68.193058 0
M  V30 55 H 44.604702 32.850289 66.292631 0
M  V30 56 H 45.790440 33.221610 67.468275 0
M  V30 57 H 41.057850 30.831585 67.661027 0
M  V30 58 H 43.467859 33.801334 68.155665 0
M  V30 59 H 44.406401 32.925911 69.318612 0
M  V30 60 H 40.686059 29.838276 65.702434 0
M  V30 61 H 37.675641 28.421636 59.159445 0
M  V30 62 H 37.737797 28.773884 51.929072 0
M  V30 63 H 40.268704 27.749468 50.568871 0
M  V30 64 H 38.666745 27.118437 50.302034 0
M  V30 65 H 39.066644 28.763002 49.807151 0
M  V30 66 H 38.794966 26.706609 54.970427 0
M  V30 67 H 37.381712 27.524209 54.378881 0
M  V30 68 H 36.769620 30.536388 58.006534 0
M  V30 69 H 37.730624 32.002368 58.127679 0
M  V30 70 H 37.467334 28.717500 56.651822 0
M  V30 71 H 40.662828 29.606857 52.346513 0
M  V30 72 H 39.566585 30.464542 51.349631 0
M  V30 73 H 37.920801 30.563597 60.103865 0
M  V30 74 H 39.466837 30.819636 59.329055 0
M  V30 75 H 40.083948 31.122256 53.907529 0
M  V30 76 H 38.680658 31.647895 53.053621 0
M  V30 77 H 36.230787 25.046786 57.112388 0
M  V30 78 H 37.831161 24.625311 56.512486 0
M  V30 79 H 37.474797 24.491609 58.242274 0
M  V30 80 H 36.928417 31.104113 55.698479 0
M  V30 81 H 39.909011 27.240488 60.115634 0
M  V30 82 H 38.667517 27.866353 61.115798 0
M  V30 83 H 45.143276 30.738104 65.137982 0
M  V30 84 H 45.581485 29.334205 66.055356 0
M  V30 85 H 42.065689 32.301516 69.277004 0
M  V30 86 H 42.946514 31.761629 65.470983 0
M  V30 87 H 40.004664 28.957666 55.053911 0
M  V30 88 H 39.568691 29.470261 64.021082 0
M  V30 89 H 38.273833 31.985797 55.353536 0
M  V30 END ATOM
M  V30 BEGIN BOND
M  V30 1 1 8 2
M  V30 2 1 12 11
M  V30 3 1 14 10
M  V30 4 1 15 12
M  V30 5 1 16 5
M  V30 6 2 17 13
M  V30 7 1 19 3 CFG=1
M  V30 8 1 19 17
M  V30 9 1 19 18
M  V30 10 1 20 7
M  V30 11 1 21 20
M  V30 12 1 22 7
M  V30 13 1 23 6
M  V30 14 1 24 6
M  V30 15 1 24 19
M  V30 16 1 25 20
M  V30 17 1 26 18
M  V30 18 1 26 23
M  V30 19 1 27 4
M  V30 20 1 27 25
M  V30 21 1 29 4
M  V30 22 1 29 6
M  V30 23 1 30 2
M  V30 24 1 30 18
M  V30 25 1 31 1
M  V30 26 1 31 11
M  V30 27 1 32 9
M  V30 28 1 32 14
M  V30 29 1 32 15
M  V30 30 1 33 17
M  V30 31 1 33 28
M  V30 32 1 34 1
M  V30 33 1 34 14
M  V30 34 1 34 16
M  V30 35 2 35 5
M  V30 36 1 36 4
M  V30 37 1 36 22
M  V30 38 1 36 24
M  V30 39 1 37 5
M  V30 40 1 37 8
M  V30 41 1 38 1
M  V30 42 1 39 1
M  V30 43 1 40 2
M  V30 44 1 41 2
M  V30 45 1 42 3
M  V30 46 1 43 3
M  V30 47 1 44 3
M  V30 48 1 4 45 CFG=3
M  V30 49 1 6 46 CFG=1
M  V30 50 1 47 7
M  V30 51 1 48 7
M  V30 52 1 49 8
M  V30 53 1 50 8
M  V30 54 1 51 9
M  V30 55 1 52 10
M  V30 56 1 53 11
M  V30 57 1 54 11
M  V30 58 1 55 12
M  V30 59 1 56 12
M  V30 60 1 14 57 CFG=1
M  V30 61 1 58 15
M  V30 62 1 59 15
M  V30 63 1 60 16
M  V30 64 1 18 61 CFG=1
M  V30 65 1 20 62 CFG=3
M  V30 66 1 63 21
M  V30 67 1 64 21
M  V30 68 1 65 21
M  V30 69 1 66 22
M  V30 70 1 67 22
M  V30 71 1 68 23
M  V30 72 1 69 23
M  V30 73 1 24 70 CFG=3
M  V30 74 1 71 25
M  V30 75 1 72 25
M  V30 76 1 73 26
M  V30 77 1 74 26
M  V30 78 1 75 27
M  V30 79 1 76 27
M  V30 80 1 77 28
M  V30 81 1 78 28
M  V30 82 1 79 28
M  V30 83 1 80 29
M  V30 84 1 81 30
M  V30 85 1 82 30
M  V30 86 1 83 31
M  V30 87 1 84 31
M  V30 88 1 32 85 CFG=1
M  V30 89 1 34 86 CFG=3
M  V30 90 1 36 87 CFG=1
M  V30 91 1 88 37
M  V30 92 1 89 29
M  V30 END BOND
M  V30 END CTAB
M  END
>  <i_epik_Tot_Q>  (1) 
1

>  <i_epik_Tot_abs_Q>  (1) 
1

>  <i_i_glide_confnum>  (1) 
954

>  <i_i_glide_lignum>  (1) 
29

>  <i_i_glide_posenum>  (1) 
232

>  <i_i_glide_rotatable_bonds>  (1) 
11

>  <i_lp_mmshare_version>  (1) 
72125

>  <i_m_source_file_index>  (1) 
11

>  <i_f3d_flags>  (1) 
0

>  <num_sample>  (1) 
100

>  <b_lp_Chiralities_Consistent>  (1) 
1

>  <r_epik_Charging_Adjusted_Penalty>  (1) 
5.0796361182183547e-05

>  <r_epik_Ionization_Penalty>  (1) 
7.4494793670828869e-05

>  <r_epik_Ionization_Penalty_Charging>  (1) 
5.0796361182183547e-05

>  <r_epik_Ionization_Penalty_Neutral>  (1) 
2.3698432488645322e-05

>  <r_epik_State_Penalty>  (1) 
-0

>  <r_glide_ring_energy>  (1) 
0.60387110762599439

>  <r_i_docking_score>  (1) 
-8.3044017158842358

>  <r_i_glide_ecoul>  (1) 
-6.0944067795310906

>  <r_i_glide_eff_state_penalty>  (1) 
-0

>  <r_i_glide_einternal>  (1) 
11.556255447426253

>  <r_i_glide_emodel>  (1) 
-66.86804713905002

>  <r_i_glide_emodel_strain>  (1) 
0.36943364015705527

>  <r_i_glide_energy>  (1) 
-52.092365727937569

>  <r_i_glide_erotb>  (1) 
0.60206145100119157

>  <r_i_glide_esite>  (1) 
-0.13259386643180682

>  <r_i_glide_evdw>  (1) 
-45.997958948406477

>  <r_i_glide_gscore>  (1) 
-8.3044017158842358

>  <r_i_glide_gscore_strain>  (1) 
0

>  <r_i_glide_hbond>  (1) 
-0.48218016431571364

>  <r_i_glide_ligand_efficiency>  (1) 
-0.22444328961849286

>  <r_i_glide_ligand_efficiency_ln>  (1) 
-1.8010300493772853

>  <r_i_glide_ligand_efficiency_sa>  (1) 
-0.74789483412204338

>  <r_i_glide_lipo>  (1) 
-4.1109077976720991

>  <r_i_glide_metal>  (1) 
-0

>  <r_i_glide_rewards>  (1) 
-0.96672237411582029

>  <r_lp_Energy>  (1) 
70.195819

>  <r_lp_tautomer_probability>  (1) 
1

>  <s_epik_Chemistry_Notes>  (1) 
This compound has an ester and may undergo hydrolysis at high or low pH.

>  <s_epik_cmdline>  (1) 
J2VwaWtfcHl0aG9uJywgJy1waHQnLCAnMS4wJywgJy1waCcsICc3LjQnLCAnLXRuJywgJzgnLCAnLW1hJywgJzUwMCcsICctaW1hZScsICc8aW5maWxlLm1hZT4nLCAnLW9tYWUnLCAnPG91dGZpbGUubWFlPic=

>  <s_epik_input>  (1) 
W09IXVtDQEBIXTFbQ0BASF0oW09IXSlbQ0gyXVtDSDJdW0NIMl1bQ0gyXVtDSDJdW0NASF0xW05IXUMoPU8pW05IXVtDSDJdW0NIMl1bQ0gyXVtDQEhdKFtDQEBdMihbQ0gzXSlDKD1PKU9bQ0gzXSlbQ0gyXVtDSDJdW0NASF0oW05IXTMpW0NASF0yW0NASF0oW0NAQEhdMzQpW0NIMl1bQ0gyXVtDQEhdKFtDSDNdKVtDSDJdW0NIMl00

>  <s_glide_docking_method>  (1) 
confgen

>  <s_i_glide_gridfile>  (1) 
gpcr_5ht2c_6bqh_protein_autoprepared_prepared

>  <s_lp_Force_Field>  (1) 
S-OPLS

>  <s_lp_Variant>  (1) 
DiffSBDD_10_num_sample_100-1

>  <s_m_source_file>  (1) 
generated__ligand_DiffSBDD_2026-05-06_prepared.sdf

>  <GenAI_Model>  (1) 
DiffSBDD

>  <Protein>  (1) 
GPCR_5HT2C

$$$$
DiffSBDD_19_num_sample_100
     RDKit          3D

  0  0  0  0  0  0  0  0  0  0999 V3000
M  V30 BEGIN CTAB
M  V30 COUNTS 71 72 0 0 1
M  V30 BEGIN ATOM
M  V30 1 C 38.668453 32.205960 59.539330 0
M  V30 2 C 39.597183 31.182667 55.368692 0
M  V30 3 C 37.821425 34.260749 60.925643 0
M  V30 4 C 38.772765 36.674303 62.627665 0
M  V30 5 O 38.641706 33.381646 55.797631 0
M  V30 6 C 39.190363 27.385161 58.135337 0
M  V30 7 C 39.729590 35.638916 62.011794 0 CFG=1
M  V30 8 C 38.427253 27.621824 52.684858 0
M  V30 9 C 38.970703 28.633748 53.621428 0
M  V30 10 C 39.474019 33.177333 62.503802 0
M  V30 11 C 38.833710 27.373150 51.439551 0
M  V30 12 C 41.071851 35.613762 62.796712 0
M  V30 13 C 41.371195 34.310077 63.510696 0
M  V30 14 O 35.500132 32.524072 61.453518 0
M  V30 15 O 36.872573 30.821434 61.054787 0 CHG=-1
M  V30 16 O 37.471430 26.900782 53.282787 0
M  V30 17 C 40.632545 33.205040 63.363077 0
M  V30 18 N 38.238490 31.128074 58.605172 0 CFG=2 CHG=1
M  V30 19 C 39.049561 32.178867 56.414081 0 CFG=1
M  V30 20 C 39.859286 28.101969 50.708789 0
M  V30 21 C 38.808907 31.132143 54.050400 0 CFG=1
M  V30 22 C 40.308609 29.364443 50.936743 0
M  V30 23 C 39.068443 29.888873 58.625391 0
M  V30 24 C 37.457012 32.954358 60.167047 0 CFG=2
M  V30 25 C 36.531722 32.021274 60.965087 0
M  V30 26 C 37.874683 31.644568 57.264171 0
M  V30 27 C 39.039172 34.276465 61.853552 0
M  V30 28 C 39.867423 30.306855 51.963660 0
M  V30 29 C 38.527707 26.173199 57.470012 0
M  V30 30 C 39.246895 30.021592 53.122742 0
M  V30 31 C 38.343924 28.663546 58.034190 0
M  V30 32 O 37.424972 31.027514 54.255906 0
M  V30 33 H 39.278348 31.756422 60.318560 0
M  V30 34 H 39.321981 32.929144 59.054218 0
M  V30 35 H 39.674830 30.190374 55.809053 0
M  V30 36 H 40.620166 31.466297 55.117074 0
M  V30 37 H 38.000552 35.017651 60.161310 0
M  V30 38 H 36.964645 34.631343 61.489878 0
M  V30 39 H 37.874606 36.810469 62.025915 0
M  V30 40 H 38.461673 36.379987 63.630590 0
M  V30 41 H 39.256414 37.647509 62.705178 0
M  V30 42 H 37.802046 33.223340 55.378637 0
M  V30 43 H 40.163111 27.555244 57.671463 0
M  V30 44 H 39.384619 27.157247 59.183349 0
M  V30 45 H 39.962017 35.984446 61.003653 0
M  V30 46 H 38.280587 28.702723 54.462511 0
M  V30 47 H 39.867348 28.231350 54.084482 0
M  V30 48 H 38.942957 32.246827 62.381059 0
M  V30 49 H 38.364521 26.551156 50.921945 0
M  V30 50 H 41.128261 36.423684 63.523730 0
M  V30 51 H 41.869384 35.796274 62.083555 0
M  V30 52 H 42.235766 34.296474 64.158517 0
M  V30 53 H 37.090609 26.340224 52.617792 0
M  V30 54 H 40.912622 32.309452 63.898014 0
M  V30 55 H 39.867392 32.473466 57.054092 0
M  V30 56 H 40.275123 27.599492 49.854504 0
M  V30 57 H 38.950118 32.076928 53.532598 0
M  V30 58 H 41.039820 29.739497 50.235167 0
M  V30 59 H 40.018166 30.021555 58.110490 0
M  V30 60 H 39.314413 29.653207 59.661742 0
M  V30 61 H 36.812001 33.295637 59.358251 0
M  V30 62 H 37.199022 32.478539 57.441176 0
M  V30 63 H 37.309897 30.879610 56.737522 0
M  V30 64 H 40.053631 31.352161 51.760514 0
M  V30 65 H 39.152662 25.284791 57.572797 0
M  V30 66 H 37.559892 25.951915 57.919684 0
M  V30 67 H 38.371913 26.345762 56.403925 0
M  V30 68 H 37.395549 28.514410 58.549055 0
M  V30 69 H 38.100645 28.829006 56.985818 0
M  V30 70 H 37.231240 30.195281 54.658428 0
M  V30 71 H 37.366369 30.826094 59.029192 0
M  V30 END ATOM
M  V30 BEGIN BOND
M  V30 1 1 7 4
M  V30 2 1 9 8
M  V30 3 2 11 8
M  V30 4 1 12 7
M  V30 5 1 13 12
M  V30 6 1 16 8
M  V30 7 1 17 10
M  V30 8 2 17 13
M  V30 9 1 18 1
M  V30 10 1 19 2
M  V30 11 1 19 5
M  V30 12 1 20 11
M  V30 13 1 21 2
M  V30 14 2 22 20
M  V30 15 1 23 18
M  V30 16 1 24 1
M  V30 17 1 24 3
M  V30 18 2 25 14
M  V30 19 1 25 15
M  V30 20 1 25 24
M  V30 21 1 26 18
M  V30 22 1 26 19
M  V30 23 1 27 3
M  V30 24 1 27 7
M  V30 25 2 27 10
M  V30 26 1 28 22
M  V30 27 1 29 6
M  V30 28 1 30 9
M  V30 29 1 30 21
M  V30 30 2 30 28
M  V30 31 1 31 6
M  V30 32 1 31 23
M  V30 33 1 32 21
M  V30 34 1 33 1
M  V30 35 1 34 1
M  V30 36 1 35 2
M  V30 37 1 36 2
M  V30 38 1 37 3
M  V30 39 1 38 3
M  V30 40 1 39 4
M  V30 41 1 40 4
M  V30 42 1 41 4
M  V30 43 1 42 5
M  V30 44 1 43 6
M  V30 45 1 44 6
M  V30 46 1 7 45 CFG=3
M  V30 47 1 46 9
M  V30 48 1 47 9
M  V30 49 1 48 10
M  V30 50 1 49 11
M  V30 51 1 50 12
M  V30 52 1 51 12
M  V30 53 1 52 13
M  V30 54 1 53 16
M  V30 55 1 54 17
M  V30 56 1 19 55 CFG=1
M  V30 57 1 56 20
M  V30 58 1 21 57 CFG=3
M  V30 59 1 58 22
M  V30 60 1 59 23
M  V30 61 1 60 23
M  V30 62 1 24 61 CFG=3
M  V30 63 1 62 26
M  V30 64 1 63 26
M  V30 65 1 64 28
M  V30 66 1 65 29
M  V30 67 1 66 29
M  V30 68 1 67 29
M  V30 69 1 68 31
M  V30 70 1 69 31
M  V30 71 1 70 32
M  V30 72 1 18 71 CFG=1
M  V30 END BOND
M  V30 END CTAB
M  END
>  <i_epik_Tot_Q>  (1) 
0

>  <i_epik_Tot_abs_Q>  (1) 
2

>  <i_i_glide_confnum>  (1) 
3599

>  <i_i_glide_lignum>  (1) 
49

>  <i_i_glide_posenum>  (1) 
120

>  <i_i_glide_rotatable_bonds>  (1) 
16

>  <i_lp_mmshare_version>  (1) 
72125

>  <i_m_source_file_index>  (1) 
20

>  <i_f3d_flags>  (1) 
0

>  <num_sample>  (1) 
100

>  <b_lp_Chiralities_Consistent>  (1) 
1

>  <r_epik_Charging_Adjusted_Penalty>  (1) 
0.015037487925518506

>  <r_epik_Ionization_Penalty>  (1) 
0.015045499532085388

>  <r_epik_Ionization_Penalty_Charging>  (1) 
0.0012943130925640431

>  <r_epik_Ionization_Penalty_Neutral>  (1) 
0.013751186439521345

>  <r_epik_State_Penalty>  (1) 
0.013743174832954463

>  <r_glide_ring_energy>  (1) 
0

>  <r_i_docking_score>  (1) 
-8.2815821857883538

>  <r_i_glide_ecoul>  (1) 
-8.0693905246709257

>  <r_i_glide_eff_state_penalty>  (1) 
0.013743174832954463

>  <r_i_glide_einternal>  (1) 
15.350955569150438

>  <r_i_glide_emodel>  (1) 
-69.759266162299369

>  <r_i_glide_emodel_strain>  (1) 
0

>  <r_i_glide_energy>  (1) 
-46.836469835711881

>  <r_i_glide_erotb>  (1) 
1.1084889849388277

>  <r_i_glide_esite>  (1) 
-0.099978411785138471

>  <r_i_glide_evdw>  (1) 
-38.767079311040959

>  <r_i_glide_gscore>  (1) 
-8.2953253606213089

>  <r_i_glide_gscore_strain>  (1) 
0

>  <r_i_glide_hbond>  (1) 
-0.45268617041933612

>  <r_i_glide_ligand_efficiency>  (1) 
-0.25879944330588606

>  <r_i_glide_ligand_efficiency_ln>  (1) 
-1.8544719988023337

>  <r_i_glide_ligand_efficiency_sa>  (1) 
-0.82163701710509596

>  <r_i_glide_lipo>  (1) 
-4.6303355142890821

>  <r_i_glide_metal>  (1) 
-0

>  <r_i_glide_rewards>  (1) 
-1.0720517048138936

>  <r_lp_Energy>  (1) 
25.015605999999998

>  <s_epik_cmdline>  (1) 
J2VwaWtfcHl0aG9uJywgJy1waHQnLCAnMS4wJywgJy1waCcsICc3LjQnLCAnLXRuJywgJzgnLCAnLW1hJywgJzUwMCcsICctaW1hZScsICc8aW5maWxlLm1hZT4nLCAnLW9tYWUnLCAnPG91dGZpbGUubWFlPic=

>  <s_epik_input>  (1) 
W0NIM11bQ0BIXTFbQ0gyXVtDSF09W0NIXVtDSF09QzFbQ0gyXVtDQEhdKEMoPU8pW09IXSlbQ0gyXU4oW0NIMl1bQ0gyXVtDSDJdW0NIM10pW0NIMl1bQ0BIXShbT0hdKVtDSDJdW0NASF0oW09IXSlDKFtDSDJdMik9W0NIXVtDSF09W0NIXVtDSF09QzJbT0hd

>  <s_glide_docking_method>  (1) 
confgen

>  <s_i_glide_gridfile>  (1) 
gpcr_5ht2c_6bqh_protein_autoprepared_prepared

>  <s_lp_Force_Field>  (1) 
S-OPLS

>  <s_lp_Variant>  (1) 
DiffSBDD_19_num_sample_100-1

>  <s_m_source_file>  (1) 
generated__ligand_DiffSBDD_2026-05-06_prepared.sdf

>  <GenAI_Model>  (1) 
DiffSBDD

>  <Protein>  (1) 
GPCR_5HT2C

$$$$
DiffSBDD_80_num_sample_100
     RDKit          3D

  0  0  0  0  0  0  0  0  0  0999 V3000
M  V30 BEGIN CTAB
M  V30 COUNTS 73 76 0 0 1
M  V30 BEGIN ATOM
M  V30 1 C 40.367131 28.584526 60.076965 0
M  V30 2 C 39.083803 32.407967 59.674740 0
M  V30 3 N 38.661919 33.770205 60.108192 0 CFG=2 CHG=1
M  V30 4 O 39.431012 29.021185 56.483593 0
M  V30 5 O 37.867426 31.225260 57.347731 0
M  V30 6 O 40.630809 29.530242 61.097690 0
M  V30 7 C 37.071481 35.831580 61.448139 0 CFG=2
M  V30 8 C 38.466267 35.438315 61.985315 0 CFG=2
M  V30 9 C 38.887313 27.860543 51.829916 0
M  V30 10 C 38.275950 27.051707 56.099869 0
M  V30 11 O 39.743782 30.866380 54.616739 0
M  V30 12 C 39.467463 29.879864 53.713120 0
M  V30 13 O 40.643303 35.621345 64.305315 0
M  V30 14 C 38.535593 27.678413 53.182863 0
M  V30 15 C 41.040243 35.850236 61.938217 0
M  V30 16 C 39.822708 30.051518 52.359888 0
M  V30 17 O 38.701958 26.026369 58.251011 0
M  V30 18 C 37.060269 35.699053 59.915297 0
M  V30 19 O 39.868248 29.221617 50.112317 0
M  V30 20 C 39.634586 36.433105 61.805275 0
M  V30 21 C 39.531083 29.045388 51.420446 0
M  V30 22 C 39.521729 28.267837 57.686783 0 CFG=1
M  V30 23 C 38.038007 31.288235 59.795858 0 CFG=2
M  V30 24 C 39.603856 29.230358 58.900560 0 CFG=1
M  V30 25 C 38.705154 33.959435 61.580567 0
M  V30 26 C 38.383725 27.241717 57.604501 0 CFG=1
M  V30 27 C 41.467359 35.621349 63.395383 0
M  V30 28 C 38.263039 29.824583 59.362469 0 CFG=2
M  V30 29 C 39.440819 37.746348 61.560898 0
M  V30 30 C 36.246513 37.205534 63.227407 0
M  V30 31 C 37.355961 30.721723 58.563047 0 CFG=2
M  V30 32 C 38.445582 28.490710 55.601850 0 CFG=2
M  V30 33 C 38.826500 28.684562 54.132087 0
M  V30 34 C 37.392105 34.249383 59.492534 0
M  V30 35 O 36.642228 37.116777 61.865395 0
M  V30 36 H 39.813792 27.741033 60.491801 0
M  V30 37 H 41.326414 28.192175 59.735114 0
M  V30 38 H 39.958435 32.114780 60.253969 0
M  V30 39 H 39.427744 32.509086 58.647473 0
M  V30 40 H 37.122564 31.621369 56.898225 0
M  V30 41 H 39.888165 29.545248 61.684205 0
M  V30 42 H 36.337025 35.116909 61.828206 0
M  V30 43 H 38.399871 35.462860 63.053509 0
M  V30 44 H 38.662958 27.088916 51.105802 0
M  V30 45 H 39.412374 28.639209 49.524323 0
M  V30 46 H 37.340460 26.591334 55.783798 0
M  V30 47 H 39.098970 26.429507 55.742621 0
M  V30 48 H 39.502996 30.604550 55.499331 0
M  V30 49 H 38.043114 26.768708 53.490335 0
M  V30 50 H 41.161193 34.937718 61.357252 0
M  V30 51 H 41.743168 36.563109 61.511339 0
M  V30 52 H 40.312780 30.960529 52.040765 0
M  V30 53 H 38.013799 25.402951 58.075733 0
M  V30 54 H 37.766815 36.400038 59.470196 0
M  V30 55 H 36.078732 35.972473 59.526977 0
M  V30 56 H 40.472524 27.739439 57.588878 0
M  V30 57 H 37.430515 31.374359 60.694121 0
M  V30 58 H 40.238365 30.021424 58.539189 0
M  V30 59 H 37.931151 33.332685 62.027355 0
M  V30 60 H 39.638078 33.580275 61.997053 0
M  V30 61 H 37.447595 27.644849 57.987542 0
M  V30 62 H 42.532405 35.459492 63.551954 0
M  V30 63 H 37.708052 29.088063 59.936367 0
M  V30 64 H 40.267474 38.413461 61.453508 0
M  V30 65 H 38.465262 38.169506 61.465218 0
M  V30 66 H 35.851611 38.202682 63.423955 0
M  V30 67 H 35.459627 36.486527 63.456475 0
M  V30 68 H 37.081728 37.042864 63.908084 0
M  V30 69 H 36.286762 30.518687 58.568780 0
M  V30 70 H 37.516235 29.034618 55.775301 0
M  V30 71 H 37.467986 34.188907 58.404632 0
M  V30 72 H 36.569945 33.595372 59.785535 0
M  V30 73 H 39.376831 34.388498 59.751533 0
M  V30 END ATOM
M  V30 BEGIN BOND
M  V30 1 1 3 2
M  V30 2 1 6 1
M  V30 3 1 8 7
M  V30 4 1 12 11
M  V30 5 2 14 9
M  V30 6 1 16 12
M  V30 7 1 18 7
M  V30 8 1 20 8
M  V30 9 1 20 15
M  V30 10 1 21 9
M  V30 11 2 21 16
M  V30 12 1 21 19
M  V30 13 1 22 4
M  V30 14 1 23 2
M  V30 15 1 24 1
M  V30 16 1 24 22
M  V30 17 1 25 3
M  V30 18 1 25 8
M  V30 19 1 26 10
M  V30 20 1 26 17
M  V30 21 1 26 22
M  V30 22 2 27 13
M  V30 23 1 27 15
M  V30 24 1 28 23
M  V30 25 1 28 24
M  V30 26 2 29 20
M  V30 27 1 31 5
M  V30 28 1 31 23
M  V30 29 1 31 28
M  V30 30 1 32 4
M  V30 31 1 32 10
M  V30 32 2 33 12
M  V30 33 1 33 14
M  V30 34 1 33 32
M  V30 35 1 34 3
M  V30 36 1 34 18
M  V30 37 1 35 7
M  V30 38 1 35 30
M  V30 39 1 36 1
M  V30 40 1 37 1
M  V30 41 1 38 2
M  V30 42 1 39 2
M  V30 43 1 40 5
M  V30 44 1 41 6
M  V30 45 1 7 42 CFG=1
M  V30 46 1 8 43 CFG=1
M  V30 47 1 44 9
M  V30 48 1 45 19
M  V30 49 1 46 10
M  V30 50 1 47 10
M  V30 51 1 48 11
M  V30 52 1 49 14
M  V30 53 1 50 15
M  V30 54 1 51 15
M  V30 55 1 52 16
M  V30 56 1 53 17
M  V30 57 1 54 18
M  V30 58 1 55 18
M  V30 59 1 22 56 CFG=3
M  V30 60 1 23 57 CFG=1
M  V30 61 1 24 58 CFG=3
M  V30 62 1 59 25
M  V30 63 1 60 25
M  V30 64 1 26 61 CFG=1
M  V30 65 1 62 27
M  V30 66 1 28 63 CFG=1
M  V30 67 1 64 29
M  V30 68 1 65 29
M  V30 69 1 66 30
M  V30 70 1 67 30
M  V30 71 1 68 30
M  V30 72 1 31 69 CFG=1
M  V30 73 1 32 70 CFG=3
M  V30 74 1 71 34
M  V30 75 1 72 34
M  V30 76 1 3 73 CFG=3
M  V30 END BOND
M  V30 END CTAB
M  END
>  <i_epik_Tot_Q>  (1) 
1

>  <i_epik_Tot_abs_Q>  (1) 
1

>  <i_i_glide_confnum>  (1) 
597

>  <i_i_glide_lignum>  (1) 
205

>  <i_i_glide_posenum>  (1) 
395

>  <i_i_glide_rotatable_bonds>  (1) 
15

>  <i_lp_mmshare_version>  (1) 
72125

>  <i_m_source_file_index>  (1) 
81

>  <i_f3d_flags>  (1) 
0

>  <num_sample>  (1) 
100

>  <b_lp_Chiralities_Consistent>  (1) 
1

>  <r_epik_Charging_Adjusted_Penalty>  (1) 
0.034071705691259377

>  <r_epik_Ionization_Penalty>  (1) 
0.043305258844254187

>  <r_epik_Ionization_Penalty_Charging>  (1) 
0.034071705691259377

>  <r_epik_Ionization_Penalty_Neutral>  (1) 
0.009233553152994808

>  <r_epik_State_Penalty>  (1) 
-0

>  <r_glide_ring_energy>  (1) 
0

>  <r_i_docking_score>  (1) 
-8.26306884849323

>  <r_i_glide_ecoul>  (1) 
-6.8327457518370496

>  <r_i_glide_eff_state_penalty>  (1) 
-0

>  <r_i_glide_einternal>  (1) 
16.429473006441022

>  <r_i_glide_emodel>  (1) 
-67.062660027940467

>  <r_i_glide_emodel_strain>  (1) 
1.5364524478086992

>  <r_i_glide_energy>  (1) 
-49.992115567633981

>  <r_i_glide_erotb>  (1) 
0.67144220787932085

>  <r_i_glide_esite>  (1) 
0

>  <r_i_glide_evdw>  (1) 
-43.159369815796929

>  <r_i_glide_gscore>  (1) 
-8.26306884849323

>  <r_i_glide_gscore_strain>  (1) 
0

>  <r_i_glide_hbond>  (1) 
-0.40369714515795763

>  <r_i_glide_ligand_efficiency>  (1) 
-0.23608768138552086

>  <r_i_glide_ligand_efficiency_ln>  (1) 
-1.8139270011766222

>  <r_i_glide_ligand_efficiency_sa>  (1) 
-0.77225846083071525

>  <r_i_glide_lipo>  (1) 
-4.4668290706839917

>  <r_i_glide_metal>  (1) 
-0

>  <r_i_glide_rewards>  (1) 
-0.88110448696519816

>  <r_lp_Energy>  (1) 
35.505794999999999

>  <r_lp_tautomer_probability>  (1) 
1

>  <s_epik_cmdline>  (1) 
J2VwaWtfcHl0aG9uJywgJy1waHQnLCAnMS4wJywgJy1waCcsICc3LjQnLCAnLXRuJywgJzgnLCAnLW1hJywgJzUwMCcsICctaW1hZScsICc8aW5maWxlLm1hZT4nLCAnLW9tYWUnLCAnPG91dGZpbGUubWFlPic=

>  <s_epik_input>  (1) 
Tz1bQ0hdW0NIMl1DKD1bQ0gyXSlbQ0BASF0oW0NASF0oW0NIMl1bQ0gyXTEpT1tDSDNdKVtDSDJdTjFbQ0gyXVtDQEBIXTJbQ0BASF0oW0NAQEhdMltPSF0pW0NAQEhdKFtDSDJdW09IXSlbQ0BASF0zT1tDQEhdKFtDSDJdW0NASF0zW09IXSlDND1bQ0hdW0NIMl1DKD1PKVtDSF09QzRbT0hd

>  <s_glide_docking_method>  (1) 
confgen

>  <s_i_glide_gridfile>  (1) 
gpcr_5ht2c_6bqh_protein_autoprepared_prepared

>  <s_lp_Force_Field>  (1) 
S-OPLS

>  <s_lp_Variant>  (1) 
DiffSBDD_80_num_sample_100-1

>  <s_m_source_file>  (1) 
generated__ligand_DiffSBDD_2026-05-06_prepared.sdf

>  <GenAI_Model>  (1) 
DiffSBDD

>  <Protein>  (1) 
GPCR_5HT2C

$$$$
DiffSBDD_78_num_sample_100
     RDKit          3D

  0  0  0  0  0  0  0  0  0  0999 V3000
M  V30 BEGIN CTAB
M  V30 COUNTS 65 70 0 0 1
M  V30 BEGIN ATOM
M  V30 1 C 37.663752 29.590343 57.263341 0
M  V30 2 C 35.143892 33.680468 61.169022 0
M  V30 3 C 40.619515 35.492703 61.870647 0
M  V30 4 C 39.697994 33.254066 61.187396 0 CFG=1
M  V30 5 C 38.430065 29.544485 55.961634 0
M  V30 6 C 41.024357 32.545975 63.999922 0
M  V30 7 C 36.401212 30.408560 59.748319 0
M  V30 8 C 36.024549 32.629024 60.544083 0
M  V30 9 C 41.301323 36.021089 62.929884 0
M  V30 10 C 37.316090 33.157801 59.915389 0 CFG=1
M  V30 11 C 39.391021 29.612070 52.979739 0
M  V30 12 C 42.160687 34.866205 65.117529 0
M  V30 13 C 41.525458 34.963730 63.850698 0
M  V30 14 O 38.690089 32.544894 61.909887 0
M  V30 15 C 38.951947 27.623286 54.432962 0
M  V30 16 C 39.067156 28.165231 53.209679 0
M  V30 17 C 38.435362 30.586477 55.125579 0
M  V30 18 C 38.234799 33.596393 61.042773 0 CFG=1
M  V30 19 C 37.881370 30.743895 59.416039 0 CFG=2
M  V30 20 O 38.712700 28.579464 59.087484 0
M  V30 21 C 39.141162 27.955757 50.698461 0
M  V30 22 C 41.659381 32.476315 65.245681 0
M  V30 23 C 40.299619 28.925461 50.863308 0
M  V30 24 N 40.398423 34.130853 62.089551 0
M  V30 25 C 39.107636 30.647404 53.829241 0
M  V30 26 O 42.846454 33.571665 67.020535 0
M  V30 27 C 39.206807 28.309483 55.718749 0
M  V30 28 C 42.227036 33.635651 65.806569 0
M  V30 29 C 38.877851 27.254872 52.015616 0
M  V30 30 C 37.960347 32.188553 58.911483 0
M  V30 31 N 35.709038 31.396175 60.560074 0
M  V30 32 C 40.960843 33.774032 63.316435 0
M  V30 33 N 38.505260 29.855495 58.428368 0
M  V30 34 O 39.953468 29.961762 51.768813 0
M  V30 35 H 37.065939 28.687706 57.390046 0
M  V30 36 H 36.950869 30.397406 57.133999 0
M  V30 37 H 35.467784 34.675406 60.870206 0
M  V30 38 H 34.116478 33.536546 60.840882 0
M  V30 39 H 35.178809 33.623156 62.253331 0
M  V30 40 H 40.263535 35.970258 60.970291 0
M  V30 41 H 40.308192 32.673379 60.503116 0
M  V30 42 H 40.583729 31.658775 63.566522 0
M  V30 43 H 36.371720 29.453890 60.253469 0
M  V30 44 H 35.791656 30.263072 58.858017 0
M  V30 45 H 41.614765 37.046394 63.050574 0
M  V30 46 H 37.073129 34.058888 59.351657 0
M  V30 47 H 42.600680 35.748728 65.560145 0
M  V30 48 H 38.720717 26.568953 54.507022 0
M  V30 49 H 37.894220 31.469051 55.435880 0
M  V30 50 H 37.883375 34.475531 61.579294 0
M  V30 51 H 38.475635 30.666670 60.326687 0
M  V30 52 H 39.647419 28.462174 58.999563 0
M  V30 53 H 38.267459 28.514407 50.394525 0
M  V30 54 H 39.322124 27.216410 49.924188 0
M  V30 55 H 41.710564 31.533429 65.773613 0
M  V30 56 H 40.568681 29.361675 49.902576 0
M  V30 57 H 41.178383 28.421941 51.247256 0
M  V30 58 H 39.350456 31.635528 53.467564 0
M  V30 59 H 42.865321 32.699936 67.383661 0
M  V30 60 H 40.272229 28.527764 55.805762 0
M  V30 61 H 38.990744 27.586301 56.504760 0
M  V30 62 H 37.871313 26.838951 52.030513 0
M  V30 63 H 39.573478 26.421406 52.122730 0
M  V30 64 H 37.443031 32.291628 57.957639 0
M  V30 65 H 38.988116 32.472903 58.693101 0
M  V30 END ATOM
M  V30 BEGIN BOND
M  V30 1 1 5 1
M  V30 2 1 8 2
M  V30 3 2 9 3
M  V30 4 1 10 8
M  V30 5 1 13 9
M  V30 6 1 13 12
M  V30 7 1 14 4
M  V30 8 1 16 11
M  V30 9 2 16 15
M  V30 10 2 17 5
M  V30 11 1 18 4
M  V30 12 1 18 10
M  V30 13 1 18 14
M  V30 14 1 19 7
M  V30 15 2 22 6
M  V30 16 1 23 21
M  V30 17 1 24 3
M  V30 18 1 24 4
M  V30 19 2 25 11
M  V30 20 1 25 17
M  V30 21 1 27 5
M  V30 22 1 27 15
M  V30 23 2 28 12
M  V30 24 1 28 22
M  V30 25 1 28 26
M  V30 26 1 29 16
M  V30 27 1 29 21
M  V30 28 1 30 10
M  V30 29 1 30 19
M  V30 30 1 31 7
M  V30 31 2 31 8
M  V30 32 1 32 6
M  V30 33 2 32 13
M  V30 34 1 32 24
M  V30 35 1 33 1
M  V30 36 1 33 19
M  V30 37 1 33 20
M  V30 38 1 34 11
M  V30 39 1 34 23
M  V30 40 1 35 1
M  V30 41 1 36 1
M  V30 42 1 37 2
M  V30 43 1 38 2
M  V30 44 1 39 2
M  V30 45 1 40 3
M  V30 46 1 4 41 CFG=3
M  V30 47 1 42 6
M  V30 48 1 43 7
M  V30 49 1 44 7
M  V30 50 1 45 9
M  V30 51 1 10 46 CFG=3
M  V30 52 1 47 12
M  V30 53 1 48 15
M  V30 54 1 49 17
M  V30 55 1 18 50 CFG=1
M  V30 56 1 19 51 CFG=1
M  V30 57 1 52 20
M  V30 58 1 53 21
M  V30 59 1 54 21
M  V30 60 1 55 22
M  V30 61 1 56 23
M  V30 62 1 57 23
M  V30 63 1 58 25
M  V30 64 1 59 26
M  V30 65 1 60 27
M  V30 66 1 61 27
M  V30 67 1 62 29
M  V30 68 1 63 29
M  V30 69 1 64 30
M  V30 70 1 65 30
M  V30 END BOND
M  V30 END CTAB
M  END
>  <i_epik_Tot_Q>  (1) 
0

>  <i_epik_Tot_abs_Q>  (1) 
0

>  <i_i_glide_confnum>  (1) 
349

>  <i_i_glide_lignum>  (1) 
198

>  <i_i_glide_posenum>  (1) 
174

>  <i_i_glide_rotatable_bonds>  (1) 
7

>  <i_lp_mmshare_version>  (1) 
72125

>  <i_m_source_file_index>  (1) 
79

>  <i_f3d_flags>  (1) 
0

>  <num_sample>  (1) 
100

>  <b_lp_Chiralities_Consistent>  (1) 
1

>  <r_epik_Charging_Adjusted_Penalty>  (1) 
0

>  <r_epik_Ionization_Penalty>  (1) 
0.004645851909936884

>  <r_epik_Ionization_Penalty_Charging>  (1) 
0

>  <r_epik_Ionization_Penalty_Neutral>  (1) 
0.004645851909936884

>  <r_epik_State_Penalty>  (1) 
-0

>  <r_glide_ring_energy>  (1) 
0

>  <r_i_docking_score>  (1) 
-8.2620929576304505

>  <r_i_glide_ecoul>  (1) 
-4.6492925163520962

>  <r_i_glide_eff_state_penalty>  (1) 
-0

>  <r_i_glide_einternal>  (1) 
14.003769247103556

>  <r_i_glide_emodel>  (1) 
-70.790265437254718

>  <r_i_glide_emodel_strain>  (1) 
0.34344285624842996

>  <r_i_glide_energy>  (1) 
-55.200591644255525

>  <r_i_glide_erotb>  (1) 
0.47260877555534697

>  <r_i_glide_esite>  (1) 
-0.025626773587423046

>  <r_i_glide_evdw>  (1) 
-50.551299127903427

>  <r_i_glide_gscore>  (1) 
-8.2620929576304505

>  <r_i_glide_gscore_strain>  (1) 
0

>  <r_i_glide_hbond>  (1) 
0

>  <r_i_glide_ligand_efficiency>  (1) 
-0.24300273404795442

>  <r_i_glide_ligand_efficiency_ln>  (1) 
-1.8253280781983405

>  <r_i_glide_ligand_efficiency_sa>  (1) 
-0.78723452496444701

>  <r_i_glide_lipo>  (1) 
-4.0373032081461799

>  <r_i_glide_metal>  (1) 
-0

>  <r_i_glide_rewards>  (1) 
-1.4468129176042086

>  <r_lp_Energy>  (1) 
27.740355999999998

>  <r_lp_tautomer_probability>  (1) 
1

>  <s_epik_Chemistry_Notes>  (1) 
This compound has an imine and may undergo hydrolysis. This compound contains an acetal/aminal-like group ( X-CH(R)-Y where X, Y are N, S, or O) that may be acid/base labile, releasing an aldehyde. This compound has a N-S or N-O group and may undergo hydrolysis at high or low pH.

>  <s_epik_cmdline>  (1) 
J2VwaWtfcHl0aG9uJywgJy1waHQnLCAnMS4wJywgJy1waCcsICc3LjQnLCAnLXRuJywgJzgnLCAnLW1hJywgJzUwMCcsICctaW1hZScsICc8aW5maWxlLm1hZT4nLCAnLW9tYWUnLCAnPG91dGZpbGUubWFlPic=

>  <s_epik_input>  (1) 
TzFbQ0gyXVtDSDJdW0NIMl1DKEMxPTIpPVtDSF1bQ0gyXUMoPVtDSF1bQ0hdMilbQ0gyXU4oW09IXSlbQ0BIXShbQ0gyXU49QzNbQ0gzXSlbQ0gyXVtDQEBIXTNbQ0BIXTRPW0NAQEhdNG4oW2NIXVtjSF01KWMoYzU2KVtjSF1bY0hdYyhbY0hdNilbT0hd

>  <s_glide_docking_method>  (1) 
confgen

>  <s_i_glide_gridfile>  (1) 
gpcr_5ht2c_6bqh_protein_autoprepared_prepared

>  <s_lp_Force_Field>  (1) 
S-OPLS

>  <s_lp_Variant>  (1) 
DiffSBDD_78_num_sample_100-1

>  <s_m_source_file>  (1) 
generated__ligand_DiffSBDD_2026-05-06_prepared.sdf

>  <GenAI_Model>  (1) 
DiffSBDD

>  <Protein>  (1) 
GPCR_5HT2C

$$$$
DiffSBDD_77_num_sample_100
     RDKit          3D

  0  0  0  0  0  0  0  0  0  0999 V3000
M  V30 BEGIN CTAB
M  V30 COUNTS 77 79 0 0 1
M  V30 BEGIN ATOM
M  V30 1 C 36.992145 38.596051 61.143546 0
M  V30 2 F 34.875465 38.229338 64.118233 0
M  V30 3 C 40.572452 27.882259 57.034093 0
M  V30 4 C 37.923117 37.588896 61.362046 0
M  V30 5 C 39.461677 30.873999 53.364211 0
M  V30 6 C 37.258069 34.068596 61.453956 0
M  V30 7 C 37.463138 30.052713 58.346243 0
M  V30 8 C 37.611255 32.004571 59.909733 0 CFG=2
M  V30 9 O 38.608457 31.286533 55.875937 0
M  V30 10 C 39.958305 31.064584 51.909618 0
M  V30 11 N 41.739696 32.916090 63.421496 0
M  V30 12 C 38.897798 35.727159 62.720294 0
M  V30 13 C 35.869071 38.020955 63.222838 0
M  V30 14 O 40.175568 28.333416 60.158693 0
M  V30 15 C 39.263929 27.776948 59.235325 0
M  V30 16 C 37.858692 36.802968 62.508421 0
M  V30 17 F 35.067404 39.790553 61.853536 0
M  V30 18 C 39.200528 32.010879 61.917951 0
M  V30 19 O 41.380421 34.526629 64.976184 0
M  V30 20 O 37.467409 34.269222 59.035469 0
M  V30 21 C 35.960061 38.816136 62.069241 0
M  V30 22 C 39.536058 28.626564 51.510568 0
M  V30 23 N 39.052652 29.157809 55.173200 0
M  V30 24 C 40.989858 33.570842 62.353930 0
M  V30 25 C 36.827448 37.016419 63.452236 0
M  V30 26 C 39.418821 28.449610 57.875479 0
M  V30 27 C 41.867933 33.448306 64.645888 0
M  V30 28 C 39.302376 28.371520 52.917921 0
M  V30 29 C 39.070899 31.883316 60.387729 0
M  V30 30 F 39.466847 27.601534 50.651536 0
M  V30 31 C 39.086576 26.949073 53.403083 0
M  V30 32 C 38.742337 34.468692 61.793994 0 CFG=1
M  V30 33 C 38.764560 30.092142 56.119317 0
M  V30 34 N 37.467396 31.525862 58.510861 0 CHG=1
M  V30 35 C 38.589403 29.485152 57.461754 0
M  V30 36 C 39.267681 29.407409 53.786479 0
M  V30 37 C 39.822143 29.843471 51.036568 0
M  V30 38 C 37.020905 33.418749 60.070002 0 CFG=2
M  V30 39 N 39.534819 33.364603 62.370104 0
M  V30 40 H 37.067908 39.204432 60.261901 0
M  V30 41 H 41.325012 27.446587 57.691177 0
M  V30 42 H 40.232152 27.075801 56.382850 0
M  V30 43 H 41.106537 28.634887 56.455721 0
M  V30 44 H 38.689910 37.417246 60.653354 0
M  V30 45 H 38.505164 31.391959 53.453468 0
M  V30 46 H 40.181788 31.365660 54.019891 0
M  V30 47 H 36.846075 33.420434 62.228962 0
M  V30 48 H 36.608805 34.940939 61.461498 0
M  V30 49 H 36.523396 29.805098 57.846350 0
M  V30 50 H 37.384447 29.587996 59.321716 0
M  V30 51 H 37.003784 31.357145 60.542881 0
M  V30 52 H 41.028781 31.261956 51.915053 0
M  V30 53 H 39.467880 31.914925 51.435140 0
M  V30 54 H 42.173008 32.027192 63.222713 0
M  V30 55 H 39.019091 35.529637 63.779763 0
M  V30 56 H 39.841418 36.214769 62.476598 0
M  V30 57 H 41.044699 28.010434 59.967012 0
M  V30 58 H 39.477287 26.711960 59.120164 0
M  V30 59 H 38.267692 27.809668 59.654056 0
M  V30 60 H 38.282411 31.684536 62.404817 0
M  V30 61 H 39.959912 31.315015 62.278293 0
M  V30 62 H 36.847547 34.977053 58.920354 0
M  V30 63 H 39.066711 28.190369 55.456292 0
M  V30 64 H 41.395672 33.216265 61.408043 0
M  V30 65 H 41.258265 34.625824 62.374001 0
M  V30 66 H 36.772246 36.421406 64.344379 0
M  V30 67 H 42.463086 32.796301 65.303757 0
M  V30 68 H 39.449302 30.898317 60.121733 0
M  V30 69 H 39.708554 32.593521 59.862163 0
M  V30 70 H 38.598774 26.421387 52.591099 0
M  V30 71 H 40.033328 26.459164 53.641253 0
M  V30 72 H 38.419371 26.883130 54.261818 0
M  V30 73 H 39.202912 34.740235 60.843491 0
M  V30 74 H 38.176385 31.949257 57.926198 0
M  V30 75 H 39.990656 29.981412 49.978358 0
M  V30 76 H 35.941626 33.326409 59.932195 0
M  V30 77 H 36.573736 31.841789 58.120896 0
M  V30 END ATOM
M  V30 BEGIN BOND
M  V30 1 2 4 1
M  V30 2 1 10 5
M  V30 3 1 13 2
M  V30 4 1 15 14
M  V30 5 1 16 4
M  V30 6 1 16 12
M  V30 7 1 21 1
M  V30 8 2 21 13
M  V30 9 1 21 17
M  V30 10 1 24 11
M  V30 11 1 25 13
M  V30 12 2 25 16
M  V30 13 1 26 3
M  V30 14 1 26 15
M  V30 15 1 27 11
M  V30 16 2 27 19
M  V30 17 1 28 22
M  V30 18 1 29 8
M  V30 19 1 29 18
M  V30 20 1 30 22
M  V30 21 1 31 28
M  V30 22 1 32 6
M  V30 23 1 32 12
M  V30 24 2 33 9
M  V30 25 1 33 23
M  V30 26 1 34 7
M  V30 27 1 34 8
M  V30 28 1 35 7
M  V30 29 2 35 26
M  V30 30 1 35 33
M  V30 31 1 36 5
M  V30 32 1 36 23
M  V30 33 2 36 28
M  V30 34 1 37 10
M  V30 35 2 37 22
M  V30 36 1 38 6
M  V30 37 1 38 8
M  V30 38 1 38 20
M  V30 39 1 39 18
M  V30 40 1 39 24
M  V30 41 1 39 32
M  V30 42 1 40 1
M  V30 43 1 41 3
M  V30 44 1 42 3
M  V30 45 1 43 3
M  V30 46 1 44 4
M  V30 47 1 45 5
M  V30 48 1 46 5
M  V30 49 1 47 6
M  V30 50 1 48 6
M  V30 51 1 49 7
M  V30 52 1 50 7
M  V30 53 1 8 51 CFG=1
M  V30 54 1 52 10
M  V30 55 1 53 10
M  V30 56 1 54 11
M  V30 57 1 55 12
M  V30 58 1 56 12
M  V30 59 1 57 14
M  V30 60 1 58 15
M  V30 61 1 59 15
M  V30 62 1 60 18
M  V30 63 1 61 18
M  V30 64 1 62 20
M  V30 65 1 63 23
M  V30 66 1 64 24
M  V30 67 1 65 24
M  V30 68 1 66 25
M  V30 69 1 67 27
M  V30 70 1 68 29
M  V30 71 1 69 29
M  V30 72 1 70 31
M  V30 73 1 71 31
M  V30 74 1 72 31
M  V30 75 1 32 73 CFG=3
M  V30 76 1 74 34
M  V30 77 1 75 37
M  V30 78 1 38 76 CFG=3
M  V30 79 1 77 34
M  V30 END BOND
M  V30 END CTAB
M  END
>  <i_epik_Tot_Q>  (1) 
1

>  <i_epik_Tot_abs_Q>  (1) 
1

>  <i_i_glide_confnum>  (1) 
250

>  <i_i_glide_lignum>  (1) 
193

>  <i_i_glide_posenum>  (1) 
96

>  <i_i_glide_rotatable_bonds>  (1) 
14

>  <i_lp_mmshare_version>  (1) 
72125

>  <i_m_source_file_index>  (1) 
78

>  <i_f3d_flags>  (1) 
0

>  <num_sample>  (1) 
100

>  <b_lp_Chiralities_Consistent>  (1) 
1

>  <r_epik_Charging_Adjusted_Penalty>  (1) 
1.1871079539409661

>  <r_epik_Ionization_Penalty>  (1) 
0.55718335861310397

>  <r_epik_Ionization_Penalty_Charging>  (1) 
0.49341796909107616

>  <r_epik_Ionization_Penalty_Neutral>  (1) 
0.063765389522027774

>  <r_epik_State_Penalty>  (1) 
0.69368998484988997

>  <r_glide_ring_energy>  (1) 
0

>  <r_i_docking_score>  (1) 
-8.261100520224895

>  <r_i_glide_ecoul>  (1) 
-3.0138346401017522

>  <r_i_glide_eff_state_penalty>  (1) 
0.69368998484988997

>  <r_i_glide_einternal>  (1) 
7.6196957088075514

>  <r_i_glide_emodel>  (1) 
-71.021086489268612

>  <r_i_glide_emodel_strain>  (1) 
2.828770945369115

>  <r_i_glide_energy>  (1) 
-44.999089002127434

>  <r_i_glide_erotb>  (1) 
0.67934156738045093

>  <r_i_glide_esite>  (1) 
-0.099431125460897649

>  <r_i_glide_evdw>  (1) 
-41.985254362025678

>  <r_i_glide_gscore>  (1) 
-8.9547905050747847

>  <r_i_glide_gscore_strain>  (1) 
0

>  <r_i_glide_hbond>  (1) 
-0.20000000000000001

>  <r_i_glide_ligand_efficiency>  (1) 
-0.2118230902621768

>  <r_i_glide_ligand_efficiency_ln>  (1) 
-1.7714144568199062

>  <r_i_glide_ligand_efficiency_sa>  (1) 
-0.71833688759171677

>  <r_i_glide_lipo>  (1) 
-4.4563709096466892

>  <r_i_glide_metal>  (1) 
-0

>  <r_i_glide_rewards>  (1) 
-2.3269921232311019

>  <r_lp_Energy>  (1) 
42.462567

>  <s_epik_Chemistry_Notes>  (1) 
This compound contains an acetal/aminal-like group ( X-CH(R)-Y where X, Y are N, S, or O) that may be acid/base labile, releasing an aldehyde.

>  <s_epik_cmdline>  (1) 
J2VwaWtfcHl0aG9uJywgJy1waHQnLCAnMS4wJywgJy1waCcsICc3LjQnLCAnLXRuJywgJzgnLCAnLW1hJywgJzUwMCcsICctaW1hZScsICc8aW5maWxlLm1hZT4nLCAnLW9tYWUnLCAnPG91dGZpbGUubWFlPic=

>  <s_epik_input>  (1) 
RmMxYyhGKVtjSF1bY0hdYyhbY0hdMSlbQ0gyXVtDQEhdKFtDSDJdW0NASF0yW09IXSlOKFtDSDJdW05IXVtDSF09TylbQ0gyXVtDSDJdW0NAQEhdMltOSF1bQ0gyXVxDKD1DKFxbQ0gzXSlbQ0gyXVtPSF0pQyg9TylbTkhdQyg9QzNbQ0gzXSlbQ0gyXVtDSDJdW0NIXT1DM0Y=

>  <s_glide_docking_method>  (1) 
confgen

>  <s_i_glide_gridfile>  (1) 
gpcr_5ht2c_6bqh_protein_autoprepared_prepared

>  <s_lp_Force_Field>  (1) 
S-OPLS

>  <s_lp_Variant>  (1) 
DiffSBDD_77_num_sample_100-4

>  <s_m_source_file>  (1) 
generated__ligand_DiffSBDD_2026-05-06_prepared.sdf

>  <GenAI_Model>  (1) 
DiffSBDD

>  <Protein>  (1) 
GPCR_5HT2C

$$$$
DiffSBDD_80_num_sample_100
     RDKit          3D

  0  0  0  0  0  0  0  0  0  0999 V3000
M  V30 BEGIN CTAB
M  V30 COUNTS 73 76 0 0 1
M  V30 BEGIN ATOM
M  V30 1 C 37.137895 30.054585 57.927394 0
M  V30 2 C 39.096798 29.795306 61.656174 0
M  V30 3 N 40.216404 30.567005 62.249883 0 CFG=1 CHG=1
M  V30 4 O 37.867764 28.728942 55.612892 0
M  V30 5 O 41.067015 28.422773 60.099327 0
M  V30 6 O 36.336488 30.374183 59.053536 0
M  V30 7 C 41.745999 32.095896 64.242065 0 CFG=2
M  V30 8 C 41.105892 32.816770 63.021839 0 CFG=2
M  V30 9 C 39.446347 28.395999 50.928450 0
M  V30 10 C 38.830929 26.671303 55.017412 0
M  V30 11 O 39.169404 30.572449 54.489172 0
M  V30 12 C 39.253296 29.853500 53.334553 0
M  V30 13 O 39.866275 37.387346 62.254912 0
M  V30 14 C 38.820024 27.817362 52.049431 0
M  V30 15 C 40.007226 34.996098 62.115452 0
M  V30 16 C 39.872867 30.425020 52.207777 0
M  V30 17 O 39.604802 26.067190 57.228626 0
M  V30 18 C 42.077988 30.637876 63.878651 0
M  V30 19 O 40.582444 30.255536 49.920374 0
M  V30 20 C 40.756297 34.303988 63.254519 0
M  V30 21 C 39.973754 29.697424 51.007804 0
M  V30 22 C 38.542240 28.235148 56.767242 0 CFG=1
M  V30 23 C 39.130453 29.851404 60.134675 0 CFG=2
M  V30 24 C 37.837991 28.691206 58.076890 0 CFG=1
M  V30 25 C 39.888109 31.998152 62.504273 0
M  V30 26 C 38.575735 26.724609 56.515089 0 CFG=1
M  V30 27 C 40.507450 36.416332 61.859691 0
M  V30 28 C 38.751353 28.608667 59.308322 0 CFG=1
M  V30 29 C 41.082625 34.958885 64.391778 0
M  V30 30 C 41.407912 31.911464 66.607783 0
M  V30 31 C 40.163977 29.147334 59.303448 0 CFG=2
M  V30 32 C 38.053698 27.879854 54.479281 0 CFG=2
M  V30 33 C 38.722712 28.536097 53.260020 0
M  V30 34 C 40.813123 29.895876 63.428825 0
M  V30 35 O 40.822774 32.115684 65.328510 0
M  V30 36 H 37.843110 30.859576 57.726196 0
M  V30 37 H 36.469820 30.021430 57.070409 0
M  V30 38 H 38.146938 30.189335 62.014649 0
M  V30 39 H 39.126779 28.751397 61.971524 0
M  V30 40 H 41.461146 27.742515 59.570489 0
M  V30 41 H 35.748346 31.059624 58.749424 0
M  V30 42 H 42.667505 32.610447 64.515045 0
M  V30 43 H 41.849234 32.822604 62.222653 0
M  V30 44 H 39.519031 27.839426 50.006575 0
M  V30 45 H 40.883742 31.140413 50.072202 0
M  V30 46 H 38.528219 25.730226 54.556929 0
M  V30 47 H 39.897064 26.803527 54.825798 0
M  V30 48 H 38.610562 30.113589 55.109576 0
M  V30 49 H 38.416151 26.820970 51.981607 0
M  V30 50 H 40.142546 34.446890 61.184579 0
M  V30 51 H 38.939554 35.011443 62.335522 0
M  V30 52 H 40.275590 31.426498 52.266744 0
M  V30 53 H 40.443026 26.381295 56.921551 0
M  V30 54 H 42.539896 30.114527 64.715256 0
M  V30 55 H 42.820574 30.618097 63.080633 0
M  V30 56 H 39.550601 28.642067 56.706142 0
M  V30 57 H 38.884468 30.839030 59.751553 0
M  V30 58 H 37.026977 27.989971 58.252802 0
M  V30 59 H 39.519738 32.416590 61.567630 0
M  V30 60 H 39.066814 32.068884 63.215634 0
M  V30 61 H 37.609125 26.273686 56.747871 0
M  V30 62 H 41.447365 36.495427 61.315480 0
M  V30 63 H 38.628567 27.675232 59.856208 0
M  V30 64 H 40.821521 35.999906 64.530425 0
M  V30 65 H 41.611110 34.469061 65.193424 0
M  V30 66 H 40.640302 32.005035 67.374480 0
M  V30 67 H 41.846089 30.918195 66.704003 0
M  V30 68 H 42.176750 32.655803 66.821216 0
M  V30 69 H 40.588399 29.621428 58.423074 0
M  V30 70 H 37.058922 27.552787 54.174826 0
M  V30 71 H 40.085861 29.848298 64.240543 0
M  V30 72 H 41.073123 28.866376 63.177990 0
M  V30 73 H 40.938052 30.553341 61.546525 0
M  V30 END ATOM
M  V30 BEGIN BOND
M  V30 1 1 3 2
M  V30 2 1 6 1
M  V30 3 1 8 7
M  V30 4 1 12 11
M  V30 5 2 14 9
M  V30 6 1 16 12
M  V30 7 1 18 7
M  V30 8 1 20 8
M  V30 9 1 20 15
M  V30 10 1 21 9
M  V30 11 2 21 16
M  V30 12 1 21 19
M  V30 13 1 22 4
M  V30 14 1 23 2
M  V30 15 1 24 1
M  V30 16 1 24 22
M  V30 17 1 25 3
M  V30 18 1 25 8
M  V30 19 1 26 10
M  V30 20 1 26 17
M  V30 21 1 26 22
M  V30 22 2 27 13
M  V30 23 1 27 15
M  V30 24 1 28 23
M  V30 25 1 28 24
M  V30 26 2 29 20
M  V30 27 1 31 5
M  V30 28 1 31 23
M  V30 29 1 31 28
M  V30 30 1 32 4
M  V30 31 1 32 10
M  V30 32 2 33 12
M  V30 33 1 33 14
M  V30 34 1 33 32
M  V30 35 1 34 3
M  V30 36 1 34 18
M  V30 37 1 35 7
M  V30 38 1 35 30
M  V30 39 1 36 1
M  V30 40 1 37 1
M  V30 41 1 38 2
M  V30 42 1 39 2
M  V30 43 1 40 5
M  V30 44 1 41 6
M  V30 45 1 7 42 CFG=1
M  V30 46 1 8 43 CFG=3
M  V30 47 1 44 9
M  V30 48 1 45 19
M  V30 49 1 46 10
M  V30 50 1 47 10
M  V30 51 1 48 11
M  V30 52 1 49 14
M  V30 53 1 50 15
M  V30 54 1 51 15
M  V30 55 1 52 16
M  V30 56 1 53 17
M  V30 57 1 54 18
M  V30 58 1 55 18
M  V30 59 1 22 56 CFG=1
M  V30 60 1 23 57 CFG=3
M  V30 61 1 24 58 CFG=1
M  V30 62 1 59 25
M  V30 63 1 60 25
M  V30 64 1 26 61 CFG=3
M  V30 65 1 62 27
M  V30 66 1 28 63 CFG=1
M  V30 67 1 64 29
M  V30 68 1 65 29
M  V30 69 1 66 30
M  V30 70 1 67 30
M  V30 71 1 68 30
M  V30 72 1 31 69 CFG=3
M  V30 73 1 32 70 CFG=3
M  V30 74 1 71 34
M  V30 75 1 72 34
M  V30 76 1 3 73 CFG=3
M  V30 END BOND
M  V30 END CTAB
M  END
>  <i_epik_Tot_Q>  (1) 
1

>  <i_epik_Tot_abs_Q>  (1) 
1

>  <i_i_glide_confnum>  (1) 
2283

>  <i_i_glide_lignum>  (1) 
210

>  <i_i_glide_posenum>  (1) 
183

>  <i_i_glide_rotatable_bonds>  (1) 
15

>  <i_lp_mmshare_version>  (1) 
72125

>  <i_m_source_file_index>  (1) 
81

>  <i_f3d_flags>  (1) 
0

>  <num_sample>  (1) 
100

>  <b_lp_Chiralities_Consistent>  (1) 
1

>  <r_epik_Charging_Adjusted_Penalty>  (1) 
0.034071705691259377

>  <r_epik_Ionization_Penalty>  (1) 
0.043305258844254187

>  <r_epik_Ionization_Penalty_Charging>  (1) 
0.034071705691259377

>  <r_epik_Ionization_Penalty_Neutral>  (1) 
0.009233553152994808

>  <r_epik_State_Penalty>  (1) 
-0

>  <r_glide_ring_energy>  (1) 
0

>  <r_i_docking_score>  (1) 
-8.253484020055053

>  <r_i_glide_ecoul>  (1) 
-5.5320692609716584

>  <r_i_glide_eff_state_penalty>  (1) 
-0

>  <r_i_glide_einternal>  (1) 
24.846355099255788

>  <r_i_glide_emodel>  (1) 
-65.407635117224586

>  <r_i_glide_emodel_strain>  (1) 
2.1109992716160804

>  <r_i_glide_energy>  (1) 
-55.122842386012685

>  <r_i_glide_erotb>  (1) 
0.67144220787932085

>  <r_i_glide_esite>  (1) 
0

>  <r_i_glide_evdw>  (1) 
-49.590773125041025

>  <r_i_glide_gscore>  (1) 
-8.253484020055053

>  <r_i_glide_gscore_strain>  (1) 
0

>  <r_i_glide_hbond>  (1) 
-0.10988331111162261

>  <r_i_glide_ligand_efficiency>  (1) 
-0.23581382914443008

>  <r_i_glide_ligand_efficiency_ln>  (1) 
-1.8118229186106363

>  <r_i_glide_ligand_efficiency_sa>  (1) 
-0.77136267199091357

>  <r_i_glide_lipo>  (1) 
-4.7149166708542261

>  <r_i_glide_metal>  (1) 
-0

>  <r_i_glide_rewards>  (1) 
-0.79077720057072554

>  <r_lp_Energy>  (1) 
30.281509

>  <r_lp_tautomer_probability>  (1) 
1

>  <s_epik_cmdline>  (1) 
J2VwaWtfcHl0aG9uJywgJy1waHQnLCAnMS4wJywgJy1waCcsICc3LjQnLCAnLXRuJywgJzgnLCAnLW1hJywgJzUwMCcsICctaW1hZScsICc8aW5maWxlLm1hZT4nLCAnLW9tYWUnLCAnPG91dGZpbGUubWFlPic=

>  <s_epik_input>  (1) 
Tz1bQ0hdW0NIMl1DKD1bQ0gyXSlbQ0BASF0oW0NASF0oW0NIMl1bQ0gyXTEpT1tDSDNdKVtDSDJdTjFbQ0gyXVtDQEBIXTJbQ0BASF0oW0NAQEhdMltPSF0pW0NAQEhdKFtDSDJdW09IXSlbQ0BASF0zT1tDQEhdKFtDSDJdW0NASF0zW09IXSlDND1bQ0hdW0NIMl1DKD1PKVtDSF09QzRbT0hd

>  <s_glide_docking_method>  (1) 
confgen

>  <s_i_glide_gridfile>  (1) 
gpcr_5ht2c_6bqh_protein_autoprepared_prepared

>  <s_lp_Force_Field>  (1) 
S-OPLS

>  <s_lp_Variant>  (1) 
DiffSBDD_80_num_sample_100-6

>  <s_m_source_file>  (1) 
generated__ligand_DiffSBDD_2026-05-06_prepared.sdf

>  <GenAI_Model>  (1) 
DiffSBDD

>  <Protein>  (1) 
GPCR_5HT2C

$$$$
DiffSBDD_48_num_sample_100
     RDKit          3D

  0  0  0  0  0  0  0  0  0  0999 V3000
M  V30 BEGIN CTAB
M  V30 COUNTS 71 75 0 0 1
M  V30 BEGIN ATOM
M  V30 1 C 40.339327 33.678619 62.756531 0
M  V30 2 C 37.877172 27.902025 54.343236 0 CFG=1
M  V30 3 C 39.283545 31.921178 60.856445 0
M  V30 4 C 35.316607 37.446555 63.744026 0
M  V30 5 C 38.908104 36.473752 62.510978 0
M  V30 6 C 38.129634 32.261833 58.852637 0 CFG=1
M  V30 7 O 37.384129 25.583194 54.876320 0
M  V30 8 O 38.868026 25.659874 57.235374 0
M  V30 9 C 39.620922 35.697485 61.382039 0
M  V30 10 C 38.617365 32.221620 57.385667 0
M  V30 11 C 38.696987 31.076613 59.791320 0
M  V30 12 N 38.489688 33.570893 59.482115 0
M  V30 13 C 37.983543 29.825818 56.838432 0
M  V30 14 C 38.842002 26.641286 56.490174 0
M  V30 15 C 41.085702 27.660817 57.196069 0
M  V30 16 C 37.398375 36.784192 62.332861 0 CFG=2
M  V30 17 N 37.867401 31.271913 56.544728 0 CHG=1
M  V30 18 C 39.196781 29.192028 56.126205 0 CFG=2
M  V30 19 C 37.130768 38.021370 61.453292 0
M  V30 20 C 40.449655 32.281353 62.952300 0
M  V30 21 C 37.398675 34.527161 59.653978 0
M  V30 22 O 40.081578 28.033847 58.144668 0
M  V30 23 O 38.016670 38.531555 60.772697 0
M  V30 24 O 38.642326 30.188937 54.001904 0
M  V30 25 C 38.954000 28.959253 54.628762 0 CFG=2
M  V30 26 C 35.716954 38.592424 61.459242 0
M  V30 27 C 37.805386 27.573551 52.841191 0
M  V30 28 C 37.978043 26.611456 55.197337 0
M  V30 29 C 39.650084 27.894733 56.780156 0 CFG=1
M  V30 30 C 36.766647 36.964942 63.720734 0
M  V30 31 C 39.689079 34.184696 61.601849 0
M  V30 32 C 39.155533 33.251611 60.659317 0
M  V30 33 C 39.920614 31.396036 61.991687 0
M  V30 34 C 35.104510 38.674499 62.860650 0
M  V30 35 H 40.756971 34.357907 63.483732 0
M  V30 36 H 36.911269 28.332869 54.602112 0
M  V30 37 H 35.031100 37.684426 64.769658 0
M  V30 38 H 34.651734 36.636326 63.453501 0
M  V30 39 H 39.075592 35.966028 63.460630 0
M  V30 40 H 39.431673 37.423649 62.638722 0
M  V30 41 H 37.039805 32.188271 58.852658 0
M  V30 42 H 40.667965 35.999838 61.434765 0
M  V30 43 H 39.350959 36.021307 60.386763 0
M  V30 44 H 39.682567 32.042459 57.294152 0
M  V30 45 H 38.446977 33.200840 56.937268 0
M  V30 46 H 37.905829 30.437016 60.183632 0
M  V30 47 H 39.467685 30.470568 59.317989 0
M  V30 48 H 37.067381 29.357973 56.495274 0
M  V30 49 H 37.989776 29.622964 57.902437 0
M  V30 50 H 41.453971 26.644847 57.315760 0
M  V30 51 H 41.836040 28.421509 57.003444 0
M  V30 52 H 38.110446 31.401925 55.569027 0
M  V30 53 H 40.031610 29.886716 56.219958 0
M  V30 54 H 40.943508 31.894584 63.831235 0
M  V30 55 H 36.941545 34.416699 60.634116 0
M  V30 56 H 37.664735 35.561636 59.462693 0
M  V30 57 H 36.611131 34.311570 58.930667 0
M  V30 58 H 35.758012 39.602213 61.053696 0
M  V30 59 H 38.675960 30.063697 53.063945 0
M  V30 60 H 39.867402 28.612454 54.173950 0
M  V30 61 H 35.090583 38.021511 60.779644 0
M  V30 62 H 36.893444 35.943035 61.874653 0
M  V30 63 H 37.067793 26.799546 52.653520 0
M  V30 64 H 37.501294 28.440737 52.253320 0
M  V30 65 H 38.760734 27.217417 52.452524 0
M  V30 66 H 36.770595 36.022971 64.248993 0
M  V30 67 H 37.416670 37.621429 64.280806 0
M  V30 68 H 40.003661 30.326711 62.127884 0
M  V30 69 H 35.520059 39.545709 63.367209 0
M  V30 70 H 34.031434 38.821421 62.753098 0
M  V30 71 H 36.875253 31.525809 56.653496 0
M  V30 END ATOM
M  V30 BEGIN BOND
M  V30 1 1 9 5
M  V30 2 1 10 6
M  V30 3 1 11 3
M  V30 4 1 11 6
M  V30 5 1 12 6
M  V30 6 2 14 8
M  V30 7 1 16 5
M  V30 8 1 17 10
M  V30 9 1 17 13
M  V30 10 1 18 13
M  V30 11 1 19 16
M  V30 12 2 20 1
M  V30 13 1 21 12
M  V30 14 1 22 15
M  V30 15 2 23 19
M  V30 16 1 25 2
M  V30 17 1 25 18
M  V30 18 1 25 24
M  V30 19 1 26 19
M  V30 20 1 27 2
M  V30 21 1 28 2
M  V30 22 2 28 7
M  V30 23 1 28 14
M  V30 24 1 29 14
M  V30 25 1 29 15
M  V30 26 1 29 18
M  V30 27 1 29 22 CFG=1
M  V30 28 1 30 4
M  V30 29 1 30 16
M  V30 30 1 31 1
M  V30 31 1 31 9
M  V30 32 1 32 3
M  V30 33 1 32 12
M  V30 34 2 32 31
M  V30 35 2 33 3
M  V30 36 1 33 20
M  V30 37 1 34 4
M  V30 38 1 34 26
M  V30 39 1 35 1
M  V30 40 1 2 36 CFG=1
M  V30 41 1 37 4
M  V30 42 1 38 4
M  V30 43 1 39 5
M  V30 44 1 40 5
M  V30 45 1 6 41 CFG=3
M  V30 46 1 42 9
M  V30 47 1 43 9
M  V30 48 1 44 10
M  V30 49 1 45 10
M  V30 50 1 46 11
M  V30 51 1 47 11
M  V30 52 1 48 13
M  V30 53 1 49 13
M  V30 54 1 50 15
M  V30 55 1 51 15
M  V30 56 1 52 17
M  V30 57 1 18 53 CFG=3
M  V30 58 1 54 20
M  V30 59 1 55 21
M  V30 60 1 56 21
M  V30 61 1 57 21
M  V30 62 1 58 26
M  V30 63 1 59 24
M  V30 64 1 25 60 CFG=3
M  V30 65 1 61 26
M  V30 66 1 16 62 CFG=3
M  V30 67 1 63 27
M  V30 68 1 64 27
M  V30 69 1 65 27
M  V30 70 1 66 30
M  V30 71 1 67 30
M  V30 72 1 68 33
M  V30 73 1 69 34
M  V30 74 1 70 34
M  V30 75 1 71 17
M  V30 END BOND
M  V30 END CTAB
M  END
>  <i_epik_Tot_Q>  (1) 
1

>  <i_epik_Tot_abs_Q>  (1) 
1

>  <i_i_glide_confnum>  (1) 
713

>  <i_i_glide_lignum>  (1) 
132

>  <i_i_glide_posenum>  (1) 
388

>  <i_i_glide_rotatable_bonds>  (1) 
8

>  <i_lp_mmshare_version>  (1) 
72125

>  <i_m_source_file_index>  (1) 
49

>  <i_f3d_flags>  (1) 
0

>  <num_sample>  (1) 
100

>  <b_lp_Chiralities_Consistent>  (1) 
1

>  <r_epik_Charging_Adjusted_Penalty>  (1) 
0.027363245261170371

>  <r_epik_Ionization_Penalty>  (1) 
0.0277407901544389

>  <r_epik_Ionization_Penalty_Charging>  (1) 
0.027363245261170371

>  <r_epik_Ionization_Penalty_Neutral>  (1) 
0.00037754489326852995

>  <r_epik_State_Penalty>  (1) 
-0

>  <r_glide_ring_energy>  (1) 
0

>  <r_i_docking_score>  (1) 
-8.2421827677350485

>  <r_i_glide_ecoul>  (1) 
-7.1570858968768558

>  <r_i_glide_eff_state_penalty>  (1) 
-0

>  <r_i_glide_einternal>  (1) 
6.573336544160183

>  <r_i_glide_emodel>  (1) 
-69.053869322446673

>  <r_i_glide_emodel_strain>  (1) 
0.44133734357845356

>  <r_i_glide_energy>  (1) 
-46.735057697639341

>  <r_i_glide_erotb>  (1) 
0.64114366914740972

>  <r_i_glide_esite>  (1) 
-0.10000000000000001

>  <r_i_glide_evdw>  (1) 
-39.577971800762484

>  <r_i_glide_gscore>  (1) 
-8.2421827677350485

>  <r_i_glide_gscore_strain>  (1) 
0

>  <r_i_glide_hbond>  (1) 
-0.20000000000000001

>  <r_i_glide_ligand_efficiency>  (1) 
-0.24241714022750144

>  <r_i_glide_ligand_efficiency_ln>  (1) 
-1.820929358788536

>  <r_i_glide_ligand_efficiency_sa>  (1) 
-0.78533742831295228

>  <r_i_glide_lipo>  (1) 
-3.6061658217854493

>  <r_i_glide_metal>  (1) 
-0

>  <r_i_glide_rewards>  (1) 
-1.9246991405273568

>  <r_lp_Energy>  (1) 
31.271559

>  <r_lp_tautomer_probability>  (1) 
1

>  <s_epik_cmdline>  (1) 
J2VwaWtfcHl0aG9uJywgJy1waHQnLCAnMS4wJywgJy1waCcsICc3LjQnLCAnLXRuJywgJzgnLCAnLW1hJywgJzUwMCcsICctaW1hZScsICc8aW5maWxlLm1hZT4nLCAnLW9tYWUnLCAnPG91dGZpbGUubWFlPic=

>  <s_epik_input>  (1) 
W0NIMl0xW0NIMl1bQ0gyXVtDSDJdQyhbT0hdKT1DMVtDSDJdW0NIMl1jKFtjSF1bY0hdW2NIXTIpYyhjMjMpTihbQ0gzXSlbQ0BIXShbQ0gyXTMpW0NIMl1bTkhdW0NIMl1bQ0BASF00W0NASF0oW09IXSlbQ0BASF0oW0NIM10pQyg9TylDKD1PKVtDQEBdNDVbQ0gyXU81

>  <s_glide_docking_method>  (1) 
confgen

>  <s_i_glide_gridfile>  (1) 
gpcr_5ht2c_6bqh_protein_autoprepared_prepared

>  <s_lp_Force_Field>  (1) 
S-OPLS

>  <s_lp_Variant>  (1) 
DiffSBDD_48_num_sample_100-2

>  <s_m_source_file>  (1) 
generated__ligand_DiffSBDD_2026-05-06_prepared.sdf

>  <GenAI_Model>  (1) 
DiffSBDD

>  <Protein>  (1) 
GPCR_5HT2C

$$$$
DiffSBDD_48_num_sample_100
     RDKit          3D

  0  0  0  0  0  0  0  0  0  0999 V3000
M  V30 BEGIN CTAB
M  V30 COUNTS 71 75 0 0 1
M  V30 BEGIN ATOM
M  V30 1 C 38.721612 27.423632 51.967363 0
M  V30 2 C 38.803671 34.273635 60.541471 0 CFG=1
M  V30 3 C 39.516913 30.004769 52.623731 0
M  V30 4 C 37.120032 24.690745 57.853490 0
M  V30 5 C 37.645109 25.768791 54.151531 0
M  V30 6 C 38.810714 31.502044 54.250806 0 CFG=1
M  V30 7 O 40.190097 32.942762 62.022767 0
M  V30 8 O 39.182552 30.536786 61.021226 0
M  V30 9 C 37.330604 27.278134 54.108735 0
M  V30 10 C 39.280726 32.231881 55.520297 0
M  V30 11 C 39.868582 31.354261 53.050850 0
M  V30 12 N 38.246128 30.151839 54.513491 0
M  V30 13 C 38.438169 33.194131 57.656282 0
M  V30 14 C 38.747375 31.609673 60.601088 0
M  V30 15 C 36.489800 30.707583 59.702421 0
M  V30 16 C 37.979427 25.132594 55.504683 0 CFG=1
M  V30 17 N 38.267355 32.177278 56.598366 0 CHG=1
M  V30 18 C 37.441104 32.998767 58.825241 0 CFG=2
M  V30 19 C 39.267294 25.706966 56.143094 0
M  V30 20 C 39.608708 28.115298 51.118610 0
M  V30 21 C 36.819862 30.089093 54.802497 0
M  V30 22 O 37.531750 30.491428 58.747347 0
M  V30 23 O 40.043247 26.419212 55.506584 0
M  V30 24 O 37.067408 35.352961 59.228156 0
M  V30 25 C 37.432496 34.139592 59.853469 0 CFG=2
M  V30 26 C 39.542230 25.341264 57.594651 0
M  V30 27 C 38.832248 35.432403 61.556587 0
M  V30 28 C 39.326281 32.950713 61.145499 0
M  V30 29 C 37.639200 31.677912 59.555880 0 CFG=1
M  V30 30 C 36.764706 25.134012 56.442944 0
M  V30 31 C 38.241020 28.044592 53.155021 0
M  V30 32 C 38.656641 29.371582 53.435040 0
M  V30 33 C 40.017288 29.415009 51.453291 0
M  V30 34 C 38.267404 25.525325 58.419761 0
M  V30 35 H 38.423071 26.422205 51.714267 0
M  V30 36 H 39.543822 34.528420 59.786507 0
M  V30 37 H 37.385244 23.631873 57.860469 0
M  V30 38 H 36.247809 24.821435 58.481895 0
M  V30 39 H 36.880523 25.205398 53.617985 0
M  V30 40 H 38.569629 25.621443 53.625047 0
M  V30 41 H 37.987647 32.091593 53.843914 0
M  V30 42 H 37.466992 27.662792 55.116897 0
M  V30 43 H 36.300728 27.461599 53.808518 0
M  V30 44 H 39.467307 33.275749 55.277247 0
M  V30 45 H 40.216698 31.807622 55.881405 0
M  V30 46 H 39.718601 32.021422 52.209653 0
M  V30 47 H 40.901616 31.312960 53.394046 0
M  V30 48 H 38.267335 34.164167 57.190214 0
M  V30 49 H 39.467157 33.179608 58.010931 0
M  V30 50 H 36.488234 30.021439 60.542861 0
M  V30 51 H 35.522171 30.953143 59.268831 0
M  V30 52 H 38.287943 31.253486 57.012835 0
M  V30 53 H 36.440876 32.991227 58.400052 0
M  V30 54 H 39.979709 27.643102 50.223739 0
M  V30 55 H 36.267406 29.621429 54.000854 0
M  V30 56 H 36.637419 29.621417 55.764879 0
M  V30 57 H 36.402704 31.092011 54.875824 0
M  V30 58 H 39.867452 24.302004 57.626147 0
M  V30 59 H 36.245714 35.242719 58.769356 0
M  V30 60 H 36.668468 33.935665 60.606634 0
M  V30 61 H 40.354780 25.953084 57.986317 0
M  V30 62 H 38.221152 24.087325 55.308835 0
M  V30 63 H 39.761753 35.472330 62.125873 0
M  V30 64 H 38.735182 36.392316 61.050039 0
M  V30 65 H 38.002661 35.355017 62.254554 0
M  V30 66 H 36.326120 26.124324 56.492816 0
M  V30 67 H 35.989072 24.481872 56.040155 0
M  V30 68 H 40.703436 29.954474 50.817394 0
M  V30 69 H 38.418703 25.223333 59.449107 0
M  V30 70 H 37.990346 26.580013 58.447913 0
M  V30 71 H 37.334455 32.292880 56.209831 0
M  V30 END ATOM
M  V30 BEGIN BOND
M  V30 1 1 9 5
M  V30 2 1 10 6
M  V30 3 1 11 3
M  V30 4 1 11 6
M  V30 5 1 12 6
M  V30 6 2 14 8
M  V30 7 1 16 5
M  V30 8 1 17 10
M  V30 9 1 17 13
M  V30 10 1 18 13
M  V30 11 1 19 16
M  V30 12 2 20 1
M  V30 13 1 21 12
M  V30 14 1 22 15
M  V30 15 2 23 19
M  V30 16 1 25 2
M  V30 17 1 25 18
M  V30 18 1 25 24
M  V30 19 1 26 19
M  V30 20 1 27 2
M  V30 21 1 28 2
M  V30 22 2 28 7
M  V30 23 1 28 14
M  V30 24 1 29 14
M  V30 25 1 29 15
M  V30 26 1 29 18
M  V30 27 1 29 22 CFG=3
M  V30 28 1 30 4
M  V30 29 1 30 16
M  V30 30 1 31 1
M  V30 31 1 31 9
M  V30 32 1 32 3
M  V30 33 1 32 12
M  V30 34 2 32 31
M  V30 35 2 33 3
M  V30 36 1 33 20
M  V30 37 1 34 4
M  V30 38 1 34 26
M  V30 39 1 35 1
M  V30 40 1 2 36 CFG=3
M  V30 41 1 37 4
M  V30 42 1 38 4
M  V30 43 1 39 5
M  V30 44 1 40 5
M  V30 45 1 6 41 CFG=3
M  V30 46 1 42 9
M  V30 47 1 43 9
M  V30 48 1 44 10
M  V30 49 1 45 10
M  V30 50 1 46 11
M  V30 51 1 47 11
M  V30 52 1 48 13
M  V30 53 1 49 13
M  V30 54 1 50 15
M  V30 55 1 51 15
M  V30 56 1 52 17
M  V30 57 1 18 53 CFG=3
M  V30 58 1 54 20
M  V30 59 1 55 21
M  V30 60 1 56 21
M  V30 61 1 57 21
M  V30 62 1 58 26
M  V30 63 1 59 24
M  V30 64 1 25 60 CFG=1
M  V30 65 1 61 26
M  V30 66 1 16 62 CFG=3
M  V30 67 1 63 27
M  V30 68 1 64 27
M  V30 69 1 65 27
M  V30 70 1 66 30
M  V30 71 1 67 30
M  V30 72 1 68 33
M  V30 73 1 69 34
M  V30 74 1 70 34
M  V30 75 1 71 17
M  V30 END BOND
M  V30 END CTAB
M  END
>  <i_epik_Tot_Q>  (1) 
1

>  <i_epik_Tot_abs_Q>  (1) 
1

>  <i_i_glide_confnum>  (1) 
488

>  <i_i_glide_lignum>  (1) 
131

>  <i_i_glide_posenum>  (1) 
286

>  <i_i_glide_rotatable_bonds>  (1) 
8

>  <i_lp_mmshare_version>  (1) 
72125

>  <i_m_source_file_index>  (1) 
49

>  <i_f3d_flags>  (1) 
0

>  <num_sample>  (1) 
100

>  <b_lp_Chiralities_Consistent>  (1) 
1

>  <r_epik_Charging_Adjusted_Penalty>  (1) 
0.027363245261170371

>  <r_epik_Ionization_Penalty>  (1) 
0.0277407901544389

>  <r_epik_Ionization_Penalty_Charging>  (1) 
0.027363245261170371

>  <r_epik_Ionization_Penalty_Neutral>  (1) 
0.00037754489326852995

>  <r_epik_State_Penalty>  (1) 
-0

>  <r_glide_ring_energy>  (1) 
0

>  <r_i_docking_score>  (1) 
-8.241487038104097

>  <r_i_glide_ecoul>  (1) 
-3.5859748034580381

>  <r_i_glide_eff_state_penalty>  (1) 
-0

>  <r_i_glide_einternal>  (1) 
11.598019542919415

>  <r_i_glide_emodel>  (1) 
-63.413284944549744

>  <r_i_glide_emodel_strain>  (1) 
0.88303772071454034

>  <r_i_glide_energy>  (1) 
-41.466834977833663

>  <r_i_glide_erotb>  (1) 
0.64114366914740972

>  <r_i_glide_esite>  (1) 
-0.10000000000000001

>  <r_i_glide_evdw>  (1) 
-37.880860174375627

>  <r_i_glide_gscore>  (1) 
-8.241487038104097

>  <r_i_glide_gscore_strain>  (1) 
0

>  <r_i_glide_hbond>  (1) 
-0.11768336416862028

>  <r_i_glide_ligand_efficiency>  (1) 
-0.24239667759129696

>  <r_i_glide_ligand_efficiency_ln>  (1) 
-1.8207756525985037

>  <r_i_glide_ligand_efficiency_sa>  (1) 
-0.78527113731521903

>  <r_i_glide_lipo>  (1) 
-4.4753963347422214

>  <r_i_glide_metal>  (1) 
-0

>  <r_i_glide_rewards>  (1) 
-1.7576117791031796

>  <r_lp_Energy>  (1) 
35.25817

>  <r_lp_tautomer_probability>  (1) 
1

>  <s_epik_cmdline>  (1) 
J2VwaWtfcHl0aG9uJywgJy1waHQnLCAnMS4wJywgJy1waCcsICc3LjQnLCAnLXRuJywgJzgnLCAnLW1hJywgJzUwMCcsICctaW1hZScsICc8aW5maWxlLm1hZT4nLCAnLW9tYWUnLCAnPG91dGZpbGUubWFlPic=

>  <s_epik_input>  (1) 
W0NIMl0xW0NIMl1bQ0gyXVtDSDJdQyhbT0hdKT1DMVtDSDJdW0NIMl1jKFtjSF1bY0hdW2NIXTIpYyhjMjMpTihbQ0gzXSlbQ0BIXShbQ0gyXTMpW0NIMl1bTkhdW0NIMl1bQ0BASF00W0NASF0oW09IXSlbQ0BASF0oW0NIM10pQyg9TylDKD1PKVtDQEBdNDVbQ0gyXU81

>  <s_glide_docking_method>  (1) 
confgen

>  <s_i_glide_gridfile>  (1) 
gpcr_5ht2c_6bqh_protein_autoprepared_prepared

>  <s_lp_Force_Field>  (1) 
S-OPLS

>  <s_lp_Variant>  (1) 
DiffSBDD_48_num_sample_100-1

>  <s_m_source_file>  (1) 
generated__ligand_DiffSBDD_2026-05-06_prepared.sdf

>  <GenAI_Model>  (1) 
DiffSBDD

>  <Protein>  (1) 
GPCR_5HT2C

$$$$
DiffSBDD_80_num_sample_100
     RDKit          3D

  0  0  0  0  0  0  0  0  0  0999 V3000
M  V30 BEGIN CTAB
M  V30 COUNTS 73 76 0 0 1
M  V30 BEGIN ATOM
M  V30 1 C 37.565405 30.501934 58.090269 0
M  V30 2 C 39.128815 29.930184 61.995641 0
M  V30 3 N 40.259637 30.562985 62.720246 0 CFG=1 CHG=1
M  V30 4 O 38.174823 28.901297 55.841529 0
M  V30 5 O 41.067396 28.421344 60.641431 0
M  V30 6 O 36.574153 30.789544 59.053493 0
M  V30 7 C 41.764875 31.995303 64.807057 0 CFG=2
M  V30 8 C 41.380262 32.708362 63.483035 0 CFG=2
M  V30 9 C 39.867418 30.821431 52.496284 0
M  V30 10 C 39.577974 27.074224 55.384828 0
M  V30 11 O 38.793113 26.821431 52.191967 0
M  V30 12 C 39.139858 28.120250 52.297368 0
M  V30 13 O 40.267428 36.975182 61.853517 0
M  V30 14 C 39.403181 30.139664 53.635478 0
M  V30 15 C 40.068966 34.940885 63.096112 0
M  V30 16 C 39.607993 28.806173 51.163367 0
M  V30 17 O 40.581308 26.928736 57.568467 0
M  V30 18 C 41.846862 30.471436 64.613942 0
M  V30 19 O 40.429669 30.820092 50.161196 0
M  V30 20 C 41.300965 34.241623 63.666248 0
M  V30 21 C 39.973234 30.155066 51.261907 0
M  V30 22 C 38.967956 28.689922 57.005586 0 CFG=1
M  V30 23 C 39.304482 30.032424 60.486278 0 CFG=2
M  V30 24 C 38.137443 29.080188 58.254399 0 CFG=1
M  V30 25 C 40.128097 32.038769 62.849589 0
M  V30 26 C 39.375658 27.217075 56.884182 0 CFG=1
M  V30 27 C 40.428629 35.758370 61.863373 0
M  V30 28 C 38.877503 28.862857 59.583952 0 CFG=1
M  V30 29 C 42.267397 34.934289 64.298558 0
M  V30 30 C 41.275924 32.269195 67.125498 0
M  V30 31 C 40.336391 29.227018 59.749844 0 CFG=2
M  V30 32 C 38.542263 28.032039 54.779030 0 CFG=2
M  V30 33 C 39.037709 28.783143 53.540970 0
M  V30 34 C 40.547790 29.914374 64.021232 0
M  V30 35 O 40.785625 32.306717 65.792126 0
M  V30 36 H 38.338996 31.269839 58.082487 0
M  V30 37 H 37.067418 30.577896 57.125522 0
M  V30 38 H 38.179489 30.378680 62.288349 0
M  V30 39 H 39.067390 28.872489 62.253510 0
M  V30 40 H 41.514745 27.747960 60.144350 0
M  V30 41 H 35.882205 31.222054 58.550049 0
M  V30 42 H 42.745112 32.343518 65.133459 0
M  V30 43 H 42.201721 32.550807 62.782110 0
M  V30 44 H 40.143164 31.854254 52.568931 0
M  V30 45 H 40.695210 31.713703 50.328434 0
M  V30 46 H 39.470758 26.048822 55.028546 0
M  V30 47 H 40.584833 27.401550 55.130716 0
M  V30 48 H 38.255741 26.503123 52.900314 0
M  V30 49 H 39.328696 30.658475 54.580074 0
M  V30 50 H 39.230230 34.290874 62.869406 0
M  V30 51 H 39.703223 35.634634 63.853683 0
M  V30 52 H 39.686004 28.293204 50.216263 0
M  V30 53 H 40.941396 26.120159 57.230688 0
M  V30 54 H 42.065189 29.972786 65.558220 0
M  V30 55 H 42.680370 30.233157 63.951719 0
M  V30 56 H 39.845203 29.330580 56.904913 0
M  V30 57 H 39.187083 31.047065 60.115260 0
M  V30 58 H 37.275993 28.411928 58.264711 0
M  V30 59 H 39.947159 32.458782 61.859642 0
M  V30 60 H 39.247932 32.247415 63.453480 0
M  V30 61 H 38.572216 26.559819 57.221302 0
M  V30 62 H 40.822413 35.193206 61.018616 0
M  V30 63 H 38.585658 27.939279 60.079437 0
M  V30 64 H 42.195242 36.007344 64.418704 0
M  V30 65 H 43.137602 34.441606 64.701185 0
M  V30 66 H 40.473521 32.501725 67.825233 0
M  V30 67 H 41.666253 31.286101 67.387512 0
M  V30 68 H 42.064975 33.008075 67.272831 0
M  V30 69 H 40.905279 29.621441 58.913451 0
M  V30 70 H 37.639554 27.478732 54.518652 0
M  V30 71 H 39.714837 30.066500 64.710100 0
M  V30 72 H 40.655815 28.837242 63.884607 0
M  V30 73 H 41.067273 30.368619 62.148531 0
M  V30 END ATOM
M  V30 BEGIN BOND
M  V30 1 1 3 2
M  V30 2 1 6 1
M  V30 3 1 8 7
M  V30 4 1 12 11
M  V30 5 2 14 9
M  V30 6 1 16 12
M  V30 7 1 18 7
M  V30 8 1 20 8
M  V30 9 1 20 15
M  V30 10 1 21 9
M  V30 11 2 21 16
M  V30 12 1 21 19
M  V30 13 1 22 4
M  V30 14 1 23 2
M  V30 15 1 24 1
M  V30 16 1 24 22
M  V30 17 1 25 3
M  V30 18 1 25 8
M  V30 19 1 26 10
M  V30 20 1 26 17
M  V30 21 1 26 22
M  V30 22 2 27 13
M  V30 23 1 27 15
M  V30 24 1 28 23
M  V30 25 1 28 24
M  V30 26 2 29 20
M  V30 27 1 31 5
M  V30 28 1 31 23
M  V30 29 1 31 28
M  V30 30 1 32 4
M  V30 31 1 32 10
M  V30 32 2 33 12
M  V30 33 1 33 14
M  V30 34 1 33 32
M  V30 35 1 34 3
M  V30 36 1 34 18
M  V30 37 1 35 7
M  V30 38 1 35 30
M  V30 39 1 36 1
M  V30 40 1 37 1
M  V30 41 1 38 2
M  V30 42 1 39 2
M  V30 43 1 40 5
M  V30 44 1 41 6
M  V30 45 1 7 42 CFG=1
M  V30 46 1 8 43 CFG=3
M  V30 47 1 44 9
M  V30 48 1 45 19
M  V30 49 1 46 10
M  V30 50 1 47 10
M  V30 51 1 48 11
M  V30 52 1 49 14
M  V30 53 1 50 15
M  V30 54 1 51 15
M  V30 55 1 52 16
M  V30 56 1 53 17
M  V30 57 1 54 18
M  V30 58 1 55 18
M  V30 59 1 22 56 CFG=3
M  V30 60 1 23 57 CFG=3
M  V30 61 1 24 58 CFG=1
M  V30 62 1 59 25
M  V30 63 1 60 25
M  V30 64 1 26 61 CFG=1
M  V30 65 1 62 27
M  V30 66 1 28 63 CFG=1
M  V30 67 1 64 29
M  V30 68 1 65 29
M  V30 69 1 66 30
M  V30 70 1 67 30
M  V30 71 1 68 30
M  V30 72 1 31 69 CFG=3
M  V30 73 1 32 70 CFG=3
M  V30 74 1 71 34
M  V30 75 1 72 34
M  V30 76 1 3 73 CFG=3
M  V30 END BOND
M  V30 END CTAB
M  END
>  <i_epik_Tot_Q>  (1) 
1

>  <i_epik_Tot_abs_Q>  (1) 
1

>  <i_i_glide_confnum>  (1) 
2283

>  <i_i_glide_lignum>  (1) 
210

>  <i_i_glide_posenum>  (1) 
183

>  <i_i_glide_rotatable_bonds>  (1) 
15

>  <i_lp_mmshare_version>  (1) 
72125

>  <i_m_source_file_index>  (1) 
81

>  <i_f3d_flags>  (1) 
0

>  <num_sample>  (1) 
100

>  <b_lp_Chiralities_Consistent>  (1) 
1

>  <r_epik_Charging_Adjusted_Penalty>  (1) 
0.034071705691259377

>  <r_epik_Ionization_Penalty>  (1) 
0.043305258844254187

>  <r_epik_Ionization_Penalty_Charging>  (1) 
0.034071705691259377

>  <r_epik_Ionization_Penalty_Neutral>  (1) 
0.009233553152994808

>  <r_epik_State_Penalty>  (1) 
-0

>  <r_glide_ring_energy>  (1) 
0

>  <r_i_docking_score>  (1) 
-8.2367787051816777

>  <r_i_glide_ecoul>  (1) 
-7.8928468922272499

>  <r_i_glide_eff_state_penalty>  (1) 
-0

>  <r_i_glide_einternal>  (1) 
23.30925295725276

>  <r_i_glide_emodel>  (1) 
-61.206028291172657

>  <r_i_glide_emodel_strain>  (1) 
2.201812665919519

>  <r_i_glide_energy>  (1) 
-50.293732269153416

>  <r_i_glide_erotb>  (1) 
0.67144220787932085

>  <r_i_glide_esite>  (1) 
0

>  <r_i_glide_evdw>  (1) 
-42.400885376926169

>  <r_i_glide_gscore>  (1) 
-8.2367787051816777

>  <r_i_glide_gscore_strain>  (1) 
0

>  <r_i_glide_hbond>  (1) 
-0.31905659407656528

>  <r_i_glide_ligand_efficiency>  (1) 
-0.23533653443376221

>  <r_i_glide_ligand_efficiency_ln>  (1) 
-1.8081557312414427

>  <r_i_glide_ligand_efficiency_sa>  (1) 
-0.76980140934281671

>  <r_i_glide_lipo>  (1) 
-4.48470206175858

>  <r_i_glide_metal>  (1) 
-0

>  <r_i_glide_rewards>  (1) 
-0.80049095454545582

>  <r_lp_Energy>  (1) 
30.281509

>  <r_lp_tautomer_probability>  (1) 
1

>  <s_epik_cmdline>  (1) 
J2VwaWtfcHl0aG9uJywgJy1waHQnLCAnMS4wJywgJy1waCcsICc3LjQnLCAnLXRuJywgJzgnLCAnLW1hJywgJzUwMCcsICctaW1hZScsICc8aW5maWxlLm1hZT4nLCAnLW9tYWUnLCAnPG91dGZpbGUubWFlPic=

>  <s_epik_input>  (1) 
Tz1bQ0hdW0NIMl1DKD1bQ0gyXSlbQ0BASF0oW0NASF0oW0NIMl1bQ0gyXTEpT1tDSDNdKVtDSDJdTjFbQ0gyXVtDQEBIXTJbQ0BASF0oW0NAQEhdMltPSF0pW0NAQEhdKFtDSDJdW09IXSlbQ0BASF0zT1tDQEhdKFtDSDJdW0NASF0zW09IXSlDND1bQ0hdW0NIMl1DKD1PKVtDSF09QzRbT0hd

>  <s_glide_docking_method>  (1) 
confgen

>  <s_i_glide_gridfile>  (1) 
gpcr_5ht2c_6bqh_protein_autoprepared_prepared

>  <s_lp_Force_Field>  (1) 
S-OPLS

>  <s_lp_Variant>  (1) 
DiffSBDD_80_num_sample_100-6

>  <s_m_source_file>  (1) 
generated__ligand_DiffSBDD_2026-05-06_prepared.sdf

>  <GenAI_Model>  (1) 
DiffSBDD

>  <Protein>  (1) 
GPCR_5HT2C

$$$$
DiffSBDD_39_num_sample_100
     RDKit          3D

  0  0  0  0  0  0  0  0  0  0999 V3000
M  V30 BEGIN CTAB
M  V30 COUNTS 60 63 0 0 1
M  V30 BEGIN ATOM
M  V30 1 C 39.319952 34.771421 61.909617 0
M  V30 2 C 38.027083 31.561207 55.727354 0
M  V30 3 C 35.791906 32.656482 61.061411 0
M  V30 4 C 38.490072 32.310618 56.991695 0
M  V30 5 C 38.585946 33.086241 60.176851 0
M  V30 6 C 39.478513 30.345833 53.988344 0
M  V30 7 N 38.420931 26.736548 53.453493 0
M  V30 8 O 35.866720 31.472672 61.453378 0 CHG=-1
M  V30 9 C 39.067404 28.938094 54.311576 0
M  V30 10 C 37.666377 35.521710 60.253567 0
M  V30 11 O 35.468533 33.622356 61.786845 0
M  V30 12 C 37.652879 36.789941 60.868872 0
M  V30 13 C 38.463264 37.048239 61.984057 0
M  V30 14 N 37.607143 32.733586 59.304720 0
M  V30 15 C 40.183307 36.345959 63.709425 0
M  V30 16 C 35.695719 34.289381 59.098374 0
M  V30 17 C 37.826425 24.931056 54.987440 0
M  V30 18 C 37.925077 31.705865 58.293697 0
M  V30 19 C 41.734692 34.417556 64.396236 0
M  V30 20 C 38.923715 28.449632 55.650315 0
M  V30 21 C 36.160689 32.913940 59.590079 0 CFG=2
M  V30 22 C 37.586452 24.897466 56.544778 0
M  V30 23 O 41.557271 34.452317 65.634343 0 CHG=-1
M  V30 24 C 38.509864 34.484521 60.788776 0
M  V30 25 S 38.288917 26.401821 57.379022 0
M  V30 26 C 38.507457 27.123439 55.818295 0
M  V30 27 O 39.240198 29.213079 56.736804 0 CHG=-1
M  V30 28 C 39.298828 36.046030 62.504074 0
M  V30 29 Cl 39.043509 28.541545 51.610001 0
M  V30 30 C 41.606825 35.740902 63.635677 0
M  V30 31 C 38.827535 28.016425 53.245129 0
M  V30 32 C 39.062531 31.478494 54.615662 0
M  V30 33 C 36.818417 35.308075 59.011228 0
M  V30 34 O 39.504470 32.328725 60.489110 0
M  V30 35 C 38.266540 26.339292 54.732182 0
M  V30 36 O 42.012345 33.401054 63.724246 0
M  V30 37 H 39.960952 34.003445 62.314281 0
M  V30 38 H 37.225460 32.154908 55.292775 0
M  V30 39 H 37.502600 30.631574 55.922107 0
M  V30 40 H 39.576623 32.321068 57.051192 0
M  V30 41 H 38.188197 33.352977 56.891541 0
M  V30 42 H 40.170450 30.452149 53.166332 0
M  V30 43 H 37.025419 37.575086 60.471340 0
M  V30 44 H 38.450328 38.021429 62.435544 0
M  V30 45 H 40.267211 37.428402 63.795042 0
M  V30 46 H 39.663362 36.021809 64.611701 0
M  V30 47 H 34.872818 34.683704 59.690540 0
M  V30 48 H 35.274716 34.176473 58.103146 0
M  V30 49 H 36.926472 24.681186 54.424405 0
M  V30 50 H 38.626367 24.251583 54.696645 0
M  V30 51 H 37.067427 31.080851 58.075793 0
M  V30 52 H 38.638672 30.974987 58.675652 0
M  V30 53 H 35.565994 32.176762 59.053564 0
M  V30 54 H 37.981469 23.988606 56.996844 0
M  V30 55 H 36.512863 24.910881 56.735424 0
M  V30 56 H 41.914703 35.629967 62.596865 0
M  V30 57 H 42.326293 36.421315 64.087980 0
M  V30 58 H 39.465968 32.421489 54.291817 0
M  V30 59 H 36.378276 36.263567 58.723322 0
M  V30 60 H 37.467333 35.057328 58.177939 0
M  V30 END ATOM
M  V30 BEGIN BOND
M  V30 1 1 4 2
M  V30 2 1 8 3
M  V30 3 1 9 6
M  V30 4 2 11 3
M  V30 5 1 12 10
M  V30 6 2 13 12
M  V30 7 1 14 5
M  V30 8 1 18 4
M  V30 9 1 18 14
M  V30 10 2 20 9
M  V30 11 1 21 3
M  V30 12 1 21 14
M  V30 13 1 21 16
M  V30 14 1 22 17
M  V30 15 1 23 19
M  V30 16 1 24 1
M  V30 17 1 24 5
M  V30 18 2 24 10
M  V30 19 1 25 22
M  V30 20 1 26 20
M  V30 21 1 26 25
M  V30 22 1 27 20
M  V30 23 2 28 1
M  V30 24 1 28 13
M  V30 25 1 28 15
M  V30 26 1 30 15
M  V30 27 1 30 19
M  V30 28 2 31 7
M  V30 29 1 31 9
M  V30 30 1 31 29
M  V30 31 1 32 2
M  V30 32 2 32 6
M  V30 33 1 33 10
M  V30 34 1 33 16
M  V30 35 2 34 5
M  V30 36 1 35 7
M  V30 37 1 35 17
M  V30 38 2 35 26
M  V30 39 2 36 19
M  V30 40 1 37 1
M  V30 41 1 38 2
M  V30 42 1 39 2
M  V30 43 1 40 4
M  V30 44 1 41 4
M  V30 45 1 42 6
M  V30 46 1 43 12
M  V30 47 1 44 13
M  V30 48 1 45 15
M  V30 49 1 46 15
M  V30 50 1 47 16
M  V30 51 1 48 16
M  V30 52 1 49 17
M  V30 53 1 50 17
M  V30 54 1 51 18
M  V30 55 1 52 18
M  V30 56 1 21 53 CFG=3
M  V30 57 1 54 22
M  V30 58 1 55 22
M  V30 59 1 56 30
M  V30 60 1 57 30
M  V30 61 1 58 32
M  V30 62 1 59 33
M  V30 63 1 60 33
M  V30 END BOND
M  V30 END CTAB
M  END
>  <i_epik_Tot_Q>  (1) 
-3

>  <i_epik_Tot_abs_Q>  (1) 
3

>  <i_i_glide_confnum>  (1) 
186

>  <i_i_glide_lignum>  (1) 
95

>  <i_i_glide_posenum>  (1) 
196

>  <i_i_glide_rotatable_bonds>  (1) 
9

>  <i_lp_mmshare_version>  (1) 
72125

>  <i_m_source_file_index>  (1) 
40

>  <i_f3d_flags>  (1) 
0

>  <num_sample>  (1) 
100

>  <b_lp_Chiralities_Consistent>  (1) 
1

>  <r_epik_Charging_Adjusted_Penalty>  (1) 
0.2804944600534911

>  <r_epik_Ionization_Penalty>  (1) 
0.1893944324441556

>  <r_epik_Ionization_Penalty_Charging>  (1) 
0.1048911762492778

>  <r_epik_Ionization_Penalty_Neutral>  (1) 
0.084503256194877821

>  <r_epik_State_Penalty>  (1) 
0.17560328380421328

>  <r_glide_ring_energy>  (1) 
0

>  <r_i_docking_score>  (1) 
-8.229048447984594

>  <r_i_glide_ecoul>  (1) 
-4.2618896200762064

>  <r_i_glide_eff_state_penalty>  (1) 
0.17560328380421328

>  <r_i_glide_einternal>  (1) 
6.2242197716523719

>  <r_i_glide_emodel>  (1) 
-72.527556884603172

>  <r_i_glide_emodel_strain>  (1) 
2.0059672552597902

>  <r_i_glide_energy>  (1) 
-55.286709741480294

>  <r_i_glide_erotb>  (1) 
0.44331424450836554

>  <r_i_glide_esite>  (1) 
-0.052383890817983253

>  <r_i_glide_evdw>  (1) 
-51.02482012140409

>  <r_i_glide_gscore>  (1) 
-8.4046517317888068

>  <r_i_glide_gscore_strain>  (1) 
0

>  <r_i_glide_hbond>  (1) 
-0.16

>  <r_i_glide_ligand_efficiency>  (1) 
-0.22858467911068317

>  <r_i_glide_ligand_efficiency_ln>  (1) 
-1.7953560481537851

>  <r_i_glide_ligand_efficiency_sa>  (1) 
-0.75476998063539924

>  <r_i_glide_lipo>  (1) 
-4.1213665870319849

>  <r_i_glide_metal>  (1) 
-0

>  <r_i_glide_rewards>  (1) 
-1.3236910493655671

>  <r_lp_Energy>  (1) 
59.773787999999996

>  <s_epik_cmdline>  (1) 
J2VwaWtfcHl0aG9uJywgJy1waHQnLCAnMS4wJywgJy1waCcsICc3LjQnLCAnLXRuJywgJzgnLCAnLW1hJywgJzUwMCcsICctaW1hZScsICc8aW5maWxlLm1hZT4nLCAnLW9tYWUnLCAnPG91dGZpbGUubWFlPic=

>  <s_epik_input>  (1) 
W09IXUMoPU8pW0NIMl1bQ0gyXWMoW2NIXVtjSF0xKVtjSF1jKGMxMilDKD1PKU4oW0NAQEhdKEMoPU8pW09IXSlbQ0gyXVtDSDJdMilbQ0gyXVtDSDJdW0NIMl0vW0NIXT1bQ0hdXGMoYzNbT0hdKWMoQ2wpbmMoYzM0KVtDSDJdW0NIMl1TNA==

>  <s_glide_docking_method>  (1) 
confgen

>  <s_i_glide_gridfile>  (1) 
gpcr_5ht2c_6bqh_protein_autoprepared_prepared

>  <s_lp_Force_Field>  (1) 
S-OPLS

>  <s_lp_Variant>  (1) 
DiffSBDD_39_num_sample_100-2

>  <s_m_source_file>  (1) 
generated__ligand_DiffSBDD_2026-05-06_prepared.sdf

>  <GenAI_Model>  (1) 
DiffSBDD

>  <Protein>  (1) 
GPCR_5HT2C

$$$$
DiffSBDD_77_num_sample_100
     RDKit          3D

  0  0  0  0  0  0  0  0  0  0999 V3000
M  V30 BEGIN CTAB
M  V30 COUNTS 77 79 0 0 1
M  V30 BEGIN ATOM
M  V30 1 C 37.097040 37.993183 60.739676 0
M  V30 2 F 35.419045 38.282940 63.991189 0
M  V30 3 C 40.605777 27.621887 56.795561 0
M  V30 4 C 38.012468 36.981996 61.006428 0
M  V30 5 C 39.467468 30.845083 53.314221 0
M  V30 6 C 37.332757 33.684425 61.420670 0
M  V30 7 C 37.496179 29.705082 58.234701 0
M  V30 8 C 37.610531 31.630084 59.839595 0 CFG=2
M  V30 9 O 38.590964 31.068753 55.822341 0
M  V30 10 C 39.975888 31.157963 51.887464 0
M  V30 11 N 41.667724 32.658398 63.628275 0
M  V30 12 C 39.089179 35.333114 62.546064 0
M  V30 13 C 36.267447 37.862771 63.024204 0
M  V30 14 O 40.076824 28.021567 59.978203 0
M  V30 15 C 39.294269 27.398359 58.984253 0
M  V30 16 C 38.083605 36.417305 62.278738 0
M  V30 17 F 35.342547 39.427587 61.485708 0
M  V30 18 C 39.161069 31.561804 61.876788 0
M  V30 19 O 42.160960 30.520272 63.053496 0
M  V30 20 O 37.591514 33.911399 59.007960 0
M  V30 21 C 36.222199 38.441719 61.747002 0
M  V30 22 C 39.618790 28.750240 51.294173 0
M  V30 23 N 39.093381 28.994959 54.994497 0
M  V30 24 C 41.018386 33.015480 62.370625 0
M  V30 25 C 37.207739 36.854549 63.297561 0
M  V30 26 C 39.448713 28.137727 57.662573 0
M  V30 27 C 42.181395 31.442303 63.866030 0
M  V30 28 C 39.390188 28.377967 52.679651 0
M  V30 29 C 39.059179 31.469318 60.339609 0
M  V30 30 F 39.572567 27.797638 50.352287 0
M  V30 31 C 39.227751 26.915416 53.056225 0
M  V30 32 C 38.839563 34.020315 61.730653 0 CFG=1
M  V30 33 C 38.776826 29.867301 55.997682 0
M  V30 34 N 37.467427 31.177642 58.430633 0 CHG=1
M  V30 35 C 38.614851 29.187692 57.307236 0
M  V30 36 C 39.315131 29.346100 53.625675 0
M  V30 37 C 39.873761 30.007608 50.919888 0
M  V30 38 C 37.075193 33.067017 60.019107 0 CFG=2
M  V30 39 N 39.554025 32.891565 62.357443 0
M  V30 40 H 37.067410 38.421454 59.760501 0
M  V30 41 H 41.363611 27.173503 57.439114 0
M  V30 42 H 40.276360 26.836372 56.117096 0
M  V30 43 H 41.138387 28.403339 56.253614 0
M  V30 44 H 38.667407 36.635283 60.228111 0
M  V30 45 H 38.505662 31.339561 53.453500 0
M  V30 46 H 40.180185 31.296200 54.005254 0
M  V30 47 H 36.908544 33.052797 62.201034 0
M  V30 48 H 36.704549 34.570571 61.452159 0
M  V30 49 H 36.545884 29.435354 57.773684 0
M  V30 50 H 37.488013 29.220832 59.206691 0
M  V30 51 H 36.968828 30.990167 60.447544 0
M  V30 52 H 41.032671 31.410757 51.922427 0
M  V30 53 H 39.467407 32.021355 51.471258 0
M  V30 54 H 41.723603 33.364346 64.347369 0
M  V30 55 H 39.196387 35.221424 63.614949 0
M  V30 56 H 40.046014 35.757691 62.243087 0
M  V30 57 H 40.315728 27.380015 60.631803 0
M  V30 58 H 39.644773 26.372955 58.855642 0
M  V30 59 H 38.267396 27.294821 59.312269 0
M  V30 60 H 38.217013 31.275695 62.338183 0
M  V30 61 H 39.863291 30.813535 62.240597 0
M  V30 62 H 37.024697 34.664281 58.911562 0
M  V30 63 H 39.131921 28.011242 55.215554 0
M  V30 64 H 41.459248 32.475650 61.529392 0
M  V30 65 H 41.328824 34.042594 62.192457 0
M  V30 66 H 37.256998 36.421419 64.282054 0
M  V30 67 H 42.618333 31.385128 64.874652 0
M  V30 68 H 39.442774 30.496546 60.043103 0
M  V30 69 H 39.705683 32.197582 59.853502 0
M  V30 70 H 39.465623 26.282850 52.203642 0
M  V30 71 H 39.911313 26.633248 53.854635 0
M  V30 72 H 38.203183 26.706852 53.366018 0
M  V30 73 H 39.313248 34.205311 60.766392 0
M  V30 74 H 38.171189 31.621303 57.854740 0
M  V30 75 H 40.038454 30.233799 49.875973 0
M  V30 76 H 35.995258 33.032745 59.860389 0
M  V30 77 H 36.572595 31.507335 58.053345 0
M  V30 END ATOM
M  V30 BEGIN BOND
M  V30 1 2 4 1
M  V30 2 1 10 5
M  V30 3 1 13 2
M  V30 4 1 15 14
M  V30 5 1 16 4
M  V30 6 1 16 12
M  V30 7 1 21 1
M  V30 8 2 21 13
M  V30 9 1 21 17
M  V30 10 1 24 11
M  V30 11 1 25 13
M  V30 12 2 25 16
M  V30 13 1 26 3
M  V30 14 1 26 15
M  V30 15 1 27 11
M  V30 16 2 27 19
M  V30 17 1 28 22
M  V30 18 1 29 8
M  V30 19 1 29 18
M  V30 20 1 30 22
M  V30 21 1 31 28
M  V30 22 1 32 6
M  V30 23 1 32 12
M  V30 24 2 33 9
M  V30 25 1 33 23
M  V30 26 1 34 7
M  V30 27 1 34 8
M  V30 28 1 35 7
M  V30 29 2 35 26
M  V30 30 1 35 33
M  V30 31 1 36 5
M  V30 32 1 36 23
M  V30 33 2 36 28
M  V30 34 1 37 10
M  V30 35 2 37 22
M  V30 36 1 38 6
M  V30 37 1 38 8
M  V30 38 1 38 20
M  V30 39 1 39 18
M  V30 40 1 39 24
M  V30 41 1 39 32
M  V30 42 1 40 1
M  V30 43 1 41 3
M  V30 44 1 42 3
M  V30 45 1 43 3
M  V30 46 1 44 4
M  V30 47 1 45 5
M  V30 48 1 46 5
M  V30 49 1 47 6
M  V30 50 1 48 6
M  V30 51 1 49 7
M  V30 52 1 50 7
M  V30 53 1 8 51 CFG=1
M  V30 54 1 52 10
M  V30 55 1 53 10
M  V30 56 1 54 11
M  V30 57 1 55 12
M  V30 58 1 56 12
M  V30 59 1 57 14
M  V30 60 1 58 15
M  V30 61 1 59 15
M  V30 62 1 60 18
M  V30 63 1 61 18
M  V30 64 1 62 20
M  V30 65 1 63 23
M  V30 66 1 64 24
M  V30 67 1 65 24
M  V30 68 1 66 25
M  V30 69 1 67 27
M  V30 70 1 68 29
M  V30 71 1 69 29
M  V30 72 1 70 31
M  V30 73 1 71 31
M  V30 74 1 72 31
M  V30 75 1 32 73 CFG=3
M  V30 76 1 74 34
M  V30 77 1 75 37
M  V30 78 1 38 76 CFG=3
M  V30 79 1 77 34
M  V30 END BOND
M  V30 END CTAB
M  END
>  <i_epik_Tot_Q>  (1) 
1

>  <i_epik_Tot_abs_Q>  (1) 
1

>  <i_i_glide_confnum>  (1) 
1801

>  <i_i_glide_lignum>  (1) 
193

>  <i_i_glide_posenum>  (1) 
287

>  <i_i_glide_rotatable_bonds>  (1) 
14

>  <i_lp_mmshare_version>  (1) 
72125

>  <i_m_source_file_index>  (1) 
78

>  <i_f3d_flags>  (1) 
0

>  <num_sample>  (1) 
100

>  <b_lp_Chiralities_Consistent>  (1) 
1

>  <r_epik_Charging_Adjusted_Penalty>  (1) 
1.1871079539409661

>  <r_epik_Ionization_Penalty>  (1) 
0.55718335861310397

>  <r_epik_Ionization_Penalty_Charging>  (1) 
0.49341796909107616

>  <r_epik_Ionization_Penalty_Neutral>  (1) 
0.063765389522027774

>  <r_epik_State_Penalty>  (1) 
0.69368998484988997

>  <r_glide_ring_energy>  (1) 
0

>  <r_i_docking_score>  (1) 
-8.2247101334467789

>  <r_i_glide_ecoul>  (1) 
-4.3335349195234869

>  <r_i_glide_eff_state_penalty>  (1) 
0.69368998484988997

>  <r_i_glide_einternal>  (1) 
7.5327613019209565

>  <r_i_glide_emodel>  (1) 
-71.401721811399739

>  <r_i_glide_emodel_strain>  (1) 
3.6623150961139004

>  <r_i_glide_energy>  (1) 
-46.302527152575244

>  <r_i_glide_erotb>  (1) 
0.67934156738045093

>  <r_i_glide_esite>  (1) 
-0.095223710082818463

>  <r_i_glide_evdw>  (1) 
-41.968992233051758

>  <r_i_glide_gscore>  (1) 
-8.9184001182966686

>  <r_i_glide_gscore_strain>  (1) 
0

>  <r_i_glide_hbond>  (1) 
-0.39247333840240661

>  <r_i_glide_ligand_efficiency>  (1) 
-0.21089000342171227

>  <r_i_glide_ligand_efficiency_ln>  (1) 
-1.7636113248921195

>  <r_i_glide_ligand_efficiency_sa>  (1) 
-0.71517259282100754

>  <r_i_glide_lipo>  (1) 
-4.4092242314004384

>  <r_i_glide_metal>  (1) 
-0

>  <r_i_glide_rewards>  (1) 
-1.9523405562103451

>  <r_lp_Energy>  (1) 
42.462567

>  <s_epik_Chemistry_Notes>  (1) 
This compound contains an acetal/aminal-like group ( X-CH(R)-Y where X, Y are N, S, or O) that may be acid/base labile, releasing an aldehyde.

>  <s_epik_cmdline>  (1) 
J2VwaWtfcHl0aG9uJywgJy1waHQnLCAnMS4wJywgJy1waCcsICc3LjQnLCAnLXRuJywgJzgnLCAnLW1hJywgJzUwMCcsICctaW1hZScsICc8aW5maWxlLm1hZT4nLCAnLW9tYWUnLCAnPG91dGZpbGUubWFlPic=

>  <s_epik_input>  (1) 
RmMxYyhGKVtjSF1bY0hdYyhbY0hdMSlbQ0gyXVtDQEhdKFtDSDJdW0NASF0yW09IXSlOKFtDSDJdW05IXVtDSF09TylbQ0gyXVtDSDJdW0NAQEhdMltOSF1bQ0gyXVxDKD1DKFxbQ0gzXSlbQ0gyXVtPSF0pQyg9TylbTkhdQyg9QzNbQ0gzXSlbQ0gyXVtDSDJdW0NIXT1DM0Y=

>  <s_glide_docking_method>  (1) 
confgen

>  <s_i_glide_gridfile>  (1) 
gpcr_5ht2c_6bqh_protein_autoprepared_prepared

>  <s_lp_Force_Field>  (1) 
S-OPLS

>  <s_lp_Variant>  (1) 
DiffSBDD_77_num_sample_100-4

>  <s_m_source_file>  (1) 
generated__ligand_DiffSBDD_2026-05-06_prepared.sdf

>  <GenAI_Model>  (1) 
DiffSBDD

>  <Protein>  (1) 
GPCR_5HT2C

$$$$
DiffSBDD_68_num_sample_100
     RDKit          3D

  0  0  0  0  0  0  0  0  0  0999 V3000
M  V30 BEGIN CTAB
M  V30 COUNTS 94 97 0 0 1
M  V30 BEGIN ATOM
M  V30 1 C 39.668290 29.536040 61.644395 0 CFG=1
M  V30 2 C 40.693930 27.431993 58.042917 0 CFG=1
M  V30 3 C 39.867431 37.078255 63.202435 0
M  V30 4 C 41.685798 25.993557 65.347855 0
M  V30 5 C 41.190963 34.596441 63.198002 0
M  V30 6 N 40.197668 31.374158 63.256833 0
M  V30 7 C 37.837890 24.263320 57.429474 0
M  V30 8 O 37.372442 26.513733 53.453505 0
M  V30 9 C 42.062823 29.732847 66.212445 0
M  V30 10 O 40.608903 32.435552 61.293827 0
M  V30 11 C 37.696705 24.453350 55.901155 0 CFG=2
M  V30 12 C 43.477022 27.979498 67.378577 0
M  V30 13 C 41.067685 35.335823 62.004830 0
M  V30 14 O 39.467233 36.840852 65.558630 0
M  V30 15 C 37.806418 25.970769 55.772910 0 CFG=2
M  V30 16 C 42.153472 27.469380 57.567660 0
M  V30 17 C 43.284715 25.427916 67.264031 0
M  V30 18 C 38.965790 28.614561 59.513333 0
M  V30 19 C 40.514016 31.141908 64.676678 0
M  V30 20 C 40.837028 32.301664 62.496939 0
M  V30 21 O 38.766980 25.256872 57.832210 0
M  V30 22 C 43.786869 26.748029 67.845498 0
M  V30 23 C 41.855251 33.229392 63.180089 0
M  V30 24 C 43.039263 25.400603 65.748939 0
M  V30 25 C 39.996482 36.351947 64.398733 0
M  V30 26 C 41.360823 27.301350 66.079606 0
M  V30 27 C 39.135076 30.549126 62.671303 0
M  V30 28 C 38.371637 30.835226 54.422865 0
M  V30 29 C 39.820250 28.113384 62.199392 0
M  V30 30 C 39.708653 28.240108 55.825635 0
M  V30 31 O 40.432983 29.221222 55.853554 0
M  V30 32 C 38.339212 26.567244 54.462195 0 CFG=2
M  V30 33 C 42.563809 28.269258 66.186912 0 CFG=1
M  V30 34 C 40.384329 28.648632 58.919190 0
M  V30 35 C 40.411980 36.572857 62.010805 0
M  V30 36 N 37.867400 31.962935 54.653526 0
M  V30 37 C 36.427686 23.815147 55.322349 0
M  V30 38 O 38.778435 29.586990 60.531216 0
M  V30 39 C 41.771101 30.257140 64.795473 0
M  V30 40 C 39.682012 27.238329 56.917532 0
M  V30 41 S 37.467414 29.290441 54.653569 0
M  V30 42 C 38.799795 26.218162 56.867184 0
M  V30 43 C 38.796044 28.034784 54.616172 0 CFG=1
M  V30 44 C 40.667431 35.113792 64.398442 0
M  V30 45 H 40.650277 29.865274 61.314879 0
M  V30 46 H 40.617164 26.538601 58.653475 0
M  V30 47 H 39.358094 38.021390 63.199309 0
M  V30 48 H 41.680098 26.163840 64.270433 0
M  V30 49 H 40.890120 25.272779 65.544502 0
M  V30 50 H 38.174346 23.274168 57.737503 0
M  V30 51 H 36.890623 24.459779 57.935248 0
M  V30 52 H 37.161541 25.613914 53.254796 0
M  V30 53 H 42.802308 30.395010 66.665574 0
M  V30 54 H 41.177196 29.802251 66.847224 0
M  V30 55 H 38.567784 24.021586 55.409532 0
M  V30 56 H 43.898010 28.843294 67.874336 0
M  V30 57 H 41.468386 34.945916 61.081396 0
M  V30 58 H 39.136444 37.720290 65.470675 0
M  V30 59 H 36.856911 26.421581 56.056867 0
M  V30 60 H 42.273864 26.821477 56.710363 0
M  V30 61 H 42.473614 28.460483 57.257023 0
M  V30 62 H 42.840324 27.144534 58.350654 0
M  V30 63 H 44.051963 24.685630 67.486646 0
M  V30 64 H 42.397201 25.116712 67.812472 0
M  V30 65 H 38.233378 28.820431 58.732494 0
M  V30 66 H 38.718531 27.620877 59.886950 0
M  V30 67 H 40.599962 32.066231 65.246899 0
M  V30 68 H 39.684070 30.619111 65.153162 0
M  V30 69 H 44.441313 26.667106 68.701986 0
M  V30 70 H 42.200202 32.954449 64.172840 0
M  V30 71 H 42.742150 33.221574 62.550605 0
M  V30 72 H 43.851867 25.915643 65.233961 0
M  V30 73 H 43.074511 24.370236 65.395898 0
M  V30 74 H 40.974267 27.089220 67.078113 0
M  V30 75 H 40.529438 27.776381 65.553549 0
M  V30 76 H 38.438186 31.230457 62.179036 0
M  V30 77 H 38.531615 30.062503 63.426615 0
M  V30 78 H 39.397351 30.706322 54.071123 0
M  V30 79 H 40.267226 28.084862 63.188407 0
M  V30 80 H 40.453349 27.516662 61.548067 0
M  V30 81 H 38.850302 27.621533 62.253465 0
M  V30 82 H 39.200522 25.986638 54.129234 0
M  V30 83 H 43.196923 28.168818 65.303366 0
M  V30 84 H 41.151507 28.647768 59.687024 0
M  V30 85 H 40.519760 29.584684 58.378130 0
M  V30 86 H 40.322612 37.130094 61.100841 0
M  V30 87 H 38.498246 32.734392 54.493873 0
M  V30 88 H 35.533376 24.133399 55.853699 0
M  V30 89 H 36.296713 24.069193 54.272702 0
M  V30 90 H 36.474455 22.728258 55.396842 0
M  V30 91 H 41.643944 29.411351 64.125705 0
M  V30 92 H 42.656023 30.765510 64.416160 0
M  V30 93 H 39.391778 28.271350 53.735007 0
M  V30 94 H 40.760841 34.551807 65.315584 0
M  V30 END ATOM
M  V30 BEGIN BOND
M  V30 1 1 11 7
M  V30 2 2 13 5
M  V30 3 1 15 11
M  V30 4 1 16 2
M  V30 5 1 19 6
M  V30 6 1 20 6
M  V30 7 2 20 10
M  V30 8 1 21 7
M  V30 9 2 22 12
M  V30 10 1 22 17
M  V30 11 1 23 5
M  V30 12 1 23 20
M  V30 13 1 24 4
M  V30 14 1 24 17
M  V30 15 1 25 3
M  V30 16 1 25 14
M  V30 17 1 26 4
M  V30 18 1 27 1
M  V30 19 1 27 6
M  V30 20 1 29 1
M  V30 21 2 31 30
M  V30 22 1 32 8
M  V30 23 1 32 15
M  V30 24 1 33 9
M  V30 25 1 33 12
M  V30 26 1 33 26
M  V30 27 1 34 2
M  V30 28 1 34 18
M  V30 29 2 35 3
M  V30 30 1 35 13
M  V30 31 2 36 28
M  V30 32 1 37 11
M  V30 33 1 38 1
M  V30 34 1 38 18
M  V30 35 1 39 9
M  V30 36 1 39 19
M  V30 37 1 40 2
M  V30 38 1 40 30
M  V30 39 1 41 28
M  V30 40 1 42 15
M  V30 41 1 42 21
M  V30 42 2 42 40
M  V30 43 1 43 30
M  V30 44 1 43 32
M  V30 45 1 43 41
M  V30 46 1 44 5
M  V30 47 2 44 25
M  V30 48 1 1 45 CFG=3
M  V30 49 1 2 46 CFG=1
M  V30 50 1 47 3
M  V30 51 1 48 4
M  V30 52 1 49 4
M  V30 53 1 50 7
M  V30 54 1 51 7
M  V30 55 1 52 8
M  V30 56 1 53 9
M  V30 57 1 54 9
M  V30 58 1 11 55 CFG=3
M  V30 59 1 56 12
M  V30 60 1 57 13
M  V30 61 1 58 14
M  V30 62 1 15 59 CFG=1
M  V30 63 1 60 16
M  V30 64 1 61 16
M  V30 65 1 62 16
M  V30 66 1 63 17
M  V30 67 1 64 17
M  V30 68 1 65 18
M  V30 69 1 66 18
M  V30 70 1 67 19
M  V30 71 1 68 19
M  V30 72 1 69 22
M  V30 73 1 70 23
M  V30 74 1 71 23
M  V30 75 1 72 24
M  V30 76 1 73 24
M  V30 77 1 74 26
M  V30 78 1 75 26
M  V30 79 1 76 27
M  V30 80 1 77 27
M  V30 81 1 78 28
M  V30 82 1 79 29
M  V30 83 1 80 29
M  V30 84 1 81 29
M  V30 85 1 32 82 CFG=3
M  V30 86 1 33 83 CFG=3
M  V30 87 1 84 34
M  V30 88 1 85 34
M  V30 89 1 86 35
M  V30 90 1 87 36
M  V30 91 1 88 37
M  V30 92 1 89 37
M  V30 93 1 90 37
M  V30 94 1 91 39
M  V30 95 1 92 39
M  V30 96 1 43 93 CFG=3
M  V30 97 1 94 44
M  V30 END BOND
M  V30 END CTAB
M  END
>  <i_epik_Tot_Q>  (1) 
0

>  <i_epik_Tot_abs_Q>  (1) 
0

>  <i_i_glide_confnum>  (1) 
1724

>  <i_i_glide_lignum>  (1) 
176

>  <i_i_glide_posenum>  (1) 
225

>  <i_i_glide_rotatable_bonds>  (1) 
18

>  <i_lp_mmshare_version>  (1) 
72125

>  <i_m_source_file_index>  (1) 
69

>  <i_f3d_flags>  (1) 
0

>  <num_sample>  (1) 
100

>  <b_lp_Chiralities_Consistent>  (1) 
1

>  <r_epik_Charging_Adjusted_Penalty>  (1) 
0

>  <r_epik_Ionization_Penalty>  (1) 
0.0034918609457469025

>  <r_epik_Ionization_Penalty_Charging>  (1) 
0

>  <r_epik_Ionization_Penalty_Neutral>  (1) 
0.0034918609457469025

>  <r_epik_State_Penalty>  (1) 
-0

>  <r_glide_ring_energy>  (1) 
1.2573811357100717

>  <r_i_docking_score>  (1) 
-8.2227397910017253

>  <r_i_glide_ecoul>  (1) 
0.0075215292455865779

>  <r_i_glide_eff_state_penalty>  (1) 
-0

>  <r_i_glide_einternal>  (1) 
12.982084576449324

>  <r_i_glide_emodel>  (1) 
-60.104708329526716

>  <r_i_glide_emodel_strain>  (1) 
0.64011009587139256

>  <r_i_glide_energy>  (1) 
-52.141062806155666

>  <r_i_glide_erotb>  (1) 
0.6701242194964161

>  <r_i_glide_esite>  (1) 
0

>  <r_i_glide_evdw>  (1) 
-52.148584335401253

>  <r_i_glide_gscore>  (1) 
-8.2227397910017253

>  <r_i_glide_gscore_strain>  (1) 
0

>  <r_i_glide_hbond>  (1) 
0

>  <r_i_glide_ligand_efficiency>  (1) 
-0.18688044979549376

>  <r_i_glide_ligand_efficiency_ln>  (1) 
-1.7187319943811015

>  <r_i_glide_ligand_efficiency_sa>  (1) 
-0.65975308484050743

>  <r_i_glide_lipo>  (1) 
-5.3386060143469383

>  <r_i_glide_metal>  (1) 
-0

>  <r_i_glide_rewards>  (1) 
-0.94795700876797817

>  <r_lp_Energy>  (1) 
28.073183999999998

>  <r_lp_tautomer_probability>  (1) 
1

>  <s_epik_Chemistry_Notes>  (1) 
This compound has an imine and may undergo hydrolysis.

>  <s_epik_cmdline>  (1) 
J2VwaWtfcHl0aG9uJywgJy1waHQnLCAnMS4wJywgJy1waCcsICc3LjQnLCAnLXRuJywgJzgnLCAnLW1hJywgJzUwMCcsICctaW1hZScsICc8aW5maWxlLm1hZT4nLCAnLW9tYWUnLCAnPG91dGZpbGUubWFlPic=

>  <s_epik_input>  (1) 
W0hdXE49W0NIXVxTW0NASF0oW0NAQEhdMVtPSF0pQyg9TylDKD1DKFtDQEBIXTEyKU9bQ0gyXVtDQEhdMltDSDNdKVtDQEBIXShbQ0gzXSlbQ0gyXVtDSDJdT1tDQEhdKFtDSDNdKVtDSDJdTihDKD1PKVtDSDJdYzNbY0hdW2NIXVtjSF1jKFtPSF0pW2NIXTMpW0NIMl1bQ0gyXVtDSDJdW0NASF00W0NIXT1bQ0hdW0NIMl1bQ0gyXVtDSDJdW0NIMl00

>  <s_glide_docking_method>  (1) 
confgen

>  <s_i_glide_gridfile>  (1) 
gpcr_5ht2c_6bqh_protein_autoprepared_prepared

>  <s_lp_Force_Field>  (1) 
S-OPLS

>  <s_lp_Variant>  (1) 
DiffSBDD_68_num_sample_100-1

>  <s_m_source_file>  (1) 
generated__ligand_DiffSBDD_2026-05-06_prepared.sdf

>  <GenAI_Model>  (1) 
DiffSBDD

>  <Protein>  (1) 
GPCR_5HT2C

$$$$
DiffSBDD_19_num_sample_100
     RDKit          3D

  0  0  0  0  0  0  0  0  0  0999 V3000
M  V30 BEGIN CTAB
M  V30 COUNTS 71 72 0 0 1
M  V30 BEGIN ATOM
M  V30 1 C 38.913351 30.631912 57.266140 0
M  V30 2 C 38.247102 32.258449 61.546789 0
M  V30 3 C 39.711891 30.120426 54.933038 0
M  V30 4 C 37.442599 28.201313 53.823596 0
M  V30 5 O 38.639569 33.028723 59.321405 0
M  V30 6 C 37.279991 26.555775 57.455869 0
M  V30 7 C 38.857460 28.316003 53.243918 0 CFG=1
M  V30 8 C 41.186454 35.236901 63.462027 0
M  V30 9 C 40.284634 34.231704 62.836004 0
M  V30 10 C 39.939577 30.460713 52.457556 0
M  V30 11 C 41.838550 35.153817 64.623208 0
M  V30 12 C 38.870010 27.820963 51.762919 0
M  V30 13 C 39.388899 28.824605 50.752709 0
M  V30 14 O 38.657525 33.127365 56.220407 0
M  V30 15 O 37.867462 32.469592 54.253514 0 CHG=-1
M  V30 16 O 41.237160 36.340090 62.702541 0
M  V30 17 C 39.867375 30.027694 51.086256 0
M  V30 18 N 37.727128 30.420941 58.134488 0 CFG=1 CHG=1
M  V30 19 C 37.871014 32.086238 60.052540 0 CFG=1
M  V30 20 C 41.853737 34.025842 65.547842 0
M  V30 21 C 39.729750 31.925150 61.890399 0 CFG=1
M  V30 22 C 41.414151 32.751562 65.354931 0
M  V30 23 C 37.054196 29.119128 57.878695 0
M  V30 24 C 38.582888 30.784382 55.755903 0 CFG=2
M  V30 25 C 38.350299 32.254392 55.375954 0
M  V30 26 C 38.059558 30.628196 59.565317 0
M  V30 27 C 39.498062 29.702326 53.475928 0
M  V30 28 C 40.805595 32.137715 64.163386 0
M  V30 29 C 38.109562 25.308994 57.783891 0
M  V30 30 C 40.325761 32.746334 63.052747 0
M  V30 31 C 37.945234 27.847211 57.978913 0
M  V30 32 O 39.838638 30.522325 62.087662 0
M  V30 33 H 39.467403 31.490914 57.616754 0
M  V30 34 H 39.646206 29.850217 57.445370 0
M  V30 35 H 37.580922 31.663676 62.172591 0
M  V30 36 H 38.016520 33.289771 61.804573 0
M  V30 37 H 40.582044 30.778035 54.963910 0
M  V30 38 H 40.047223 29.212433 55.433578 0
M  V30 39 H 37.467419 28.248029 54.906990 0
M  V30 40 H 36.795470 28.994703 53.453700 0
M  V30 41 H 36.982503 27.245940 53.567206 0
M  V30 42 H 38.339271 33.092839 58.418896 0
M  V30 43 H 36.273210 26.436823 57.853506 0
M  V30 44 H 37.154104 26.607413 56.376708 0
M  V30 45 H 39.467476 27.605243 53.800458 0
M  V30 46 H 39.273067 34.567163 63.053503 0
M  V30 47 H 40.392838 34.367079 61.757807 0
M  V30 48 H 40.402403 31.410325 52.677710 0
M  V30 49 H 42.412144 36.021483 64.917837 0
M  V30 50 H 37.867521 27.536757 51.442480 0
M  V30 51 H 39.470472 26.914030 51.681420 0
M  V30 52 H 39.354708 28.530894 49.715430 0
M  V30 53 H 41.727934 36.991097 63.186631 0
M  V30 54 H 40.220822 30.688250 50.307621 0
M  V30 55 H 36.823144 32.363990 59.926792 0
M  V30 56 H 42.300217 34.221647 66.511943 0
M  V30 57 H 40.357001 32.152065 61.028630 0
M  V30 58 H 41.565284 32.082379 66.189271 0
M  V30 59 H 36.175803 29.023441 58.517997 0
M  V30 60 H 36.667401 29.221445 56.880818 0
M  V30 61 H 37.652272 30.303026 55.489639 0
M  V30 62 H 39.076369 30.273219 59.729604 0
M  V30 63 H 37.423347 29.995646 60.184790 0
M  V30 64 H 40.734989 31.062559 64.189471 0
M  V30 65 H 37.610914 24.400699 57.444820 0
M  V30 66 H 39.088736 25.348202 57.305769 0
M  V30 67 H 38.267321 25.221426 58.858249 0
M  V30 68 H 38.858428 27.946434 57.398136 0
M  V30 69 H 38.267264 27.712913 59.012697 0
M  V30 70 H 39.358993 30.277572 62.866847 0
M  V30 71 H 37.037405 31.125788 57.875785 0
M  V30 END ATOM
M  V30 BEGIN BOND
M  V30 1 1 7 4
M  V30 2 1 9 8
M  V30 3 2 11 8
M  V30 4 1 12 7
M  V30 5 1 13 12
M  V30 6 1 16 8
M  V30 7 1 17 10
M  V30 8 2 17 13
M  V30 9 1 18 1
M  V30 10 1 19 2
M  V30 11 1 19 5
M  V30 12 1 20 11
M  V30 13 1 21 2
M  V30 14 2 22 20
M  V30 15 1 23 18
M  V30 16 1 24 1
M  V30 17 1 24 3
M  V30 18 2 25 14
M  V30 19 1 25 15
M  V30 20 1 25 24
M  V30 21 1 26 18
M  V30 22 1 26 19
M  V30 23 1 27 3
M  V30 24 1 27 7
M  V30 25 2 27 10
M  V30 26 1 28 22
M  V30 27 1 29 6
M  V30 28 1 30 9
M  V30 29 1 30 21
M  V30 30 2 30 28
M  V30 31 1 31 6
M  V30 32 1 31 23
M  V30 33 1 32 21
M  V30 34 1 33 1
M  V30 35 1 34 1
M  V30 36 1 35 2
M  V30 37 1 36 2
M  V30 38 1 37 3
M  V30 39 1 38 3
M  V30 40 1 39 4
M  V30 41 1 40 4
M  V30 42 1 41 4
M  V30 43 1 42 5
M  V30 44 1 43 6
M  V30 45 1 44 6
M  V30 46 1 7 45 CFG=1
M  V30 47 1 46 9
M  V30 48 1 47 9
M  V30 49 1 48 10
M  V30 50 1 49 11
M  V30 51 1 50 12
M  V30 52 1 51 12
M  V30 53 1 52 13
M  V30 54 1 53 16
M  V30 55 1 54 17
M  V30 56 1 19 55 CFG=1
M  V30 57 1 56 20
M  V30 58 1 21 57 CFG=3
M  V30 59 1 58 22
M  V30 60 1 59 23
M  V30 61 1 60 23
M  V30 62 1 24 61 CFG=1
M  V30 63 1 62 26
M  V30 64 1 63 26
M  V30 65 1 64 28
M  V30 66 1 65 29
M  V30 67 1 66 29
M  V30 68 1 67 29
M  V30 69 1 68 31
M  V30 70 1 69 31
M  V30 71 1 70 32
M  V30 72 1 18 71 CFG=3
M  V30 END BOND
M  V30 END CTAB
M  END
>  <i_epik_Tot_Q>  (1) 
0

>  <i_epik_Tot_abs_Q>  (1) 
2

>  <i_i_glide_confnum>  (1) 
4932

>  <i_i_glide_lignum>  (1) 
50

>  <i_i_glide_posenum>  (1) 
58

>  <i_i_glide_rotatable_bonds>  (1) 
16

>  <i_lp_mmshare_version>  (1) 
72125

>  <i_m_source_file_index>  (1) 
20

>  <i_f3d_flags>  (1) 
0

>  <num_sample>  (1) 
100

>  <b_lp_Chiralities_Consistent>  (1) 
1

>  <r_epik_Charging_Adjusted_Penalty>  (1) 
0.015037487925518506

>  <r_epik_Ionization_Penalty>  (1) 
0.015045499532085388

>  <r_epik_Ionization_Penalty_Charging>  (1) 
0.0012943130925640431

>  <r_epik_Ionization_Penalty_Neutral>  (1) 
0.013751186439521345

>  <r_epik_State_Penalty>  (1) 
0.013743174832954463

>  <r_glide_ring_energy>  (1) 
0

>  <r_i_docking_score>  (1) 
-8.2154253536701454

>  <r_i_glide_ecoul>  (1) 
-5.8897278317561748

>  <r_i_glide_eff_state_penalty>  (1) 
0.013743174832954463

>  <r_i_glide_einternal>  (1) 
13.366139745814145

>  <r_i_glide_emodel>  (1) 
-71.183888312412407

>  <r_i_glide_emodel_strain>  (1) 
3.7612756807695717

>  <r_i_glide_energy>  (1) 
-50.61087310925479

>  <r_i_glide_erotb>  (1) 
1.1084889849388277

>  <r_i_glide_esite>  (1) 
-0.12418134418973259

>  <r_i_glide_evdw>  (1) 
-44.721145277498614

>  <r_i_glide_gscore>  (1) 
-8.2291685285031004

>  <r_i_glide_gscore_strain>  (1) 
0

>  <r_i_glide_hbond>  (1) 
-0.4251206111288543

>  <r_i_glide_ligand_efficiency>  (1) 
-0.25673204230219204

>  <r_i_glide_ligand_efficiency_ln>  (1) 
-1.8396576807239331

>  <r_i_glide_ligand_efficiency_sa>  (1) 
-0.81507342804888805

>  <r_i_glide_lipo>  (1) 
-4.5837823726206217

>  <r_i_glide_metal>  (1) 
-0

>  <r_i_glide_rewards>  (1) 
-1.085056746864363

>  <r_lp_Energy>  (1) 
27.634533999999999

>  <s_epik_cmdline>  (1) 
J2VwaWtfcHl0aG9uJywgJy1waHQnLCAnMS4wJywgJy1waCcsICc3LjQnLCAnLXRuJywgJzgnLCAnLW1hJywgJzUwMCcsICctaW1hZScsICc8aW5maWxlLm1hZT4nLCAnLW9tYWUnLCAnPG91dGZpbGUubWFlPic=

>  <s_epik_input>  (1) 
W0NIM11bQ0BIXTFbQ0gyXVtDSF09W0NIXVtDSF09QzFbQ0gyXVtDQEhdKEMoPU8pW09IXSlbQ0gyXU4oW0NIMl1bQ0gyXVtDSDJdW0NIM10pW0NIMl1bQ0BIXShbT0hdKVtDSDJdW0NASF0oW09IXSlDKFtDSDJdMik9W0NIXVtDSF09W0NIXVtDSF09QzJbT0hd

>  <s_glide_docking_method>  (1) 
confgen

>  <s_i_glide_gridfile>  (1) 
gpcr_5ht2c_6bqh_protein_autoprepared_prepared

>  <s_lp_Force_Field>  (1) 
S-OPLS

>  <s_lp_Variant>  (1) 
DiffSBDD_19_num_sample_100-2

>  <s_m_source_file>  (1) 
generated__ligand_DiffSBDD_2026-05-06_prepared.sdf

>  <GenAI_Model>  (1) 
DiffSBDD

>  <Protein>  (1) 
GPCR_5HT2C

$$$$
DiffSBDD_69_num_sample_100
     RDKit          3D

  0  0  0  0  0  0  0  0  0  0999 V3000
M  V30 BEGIN CTAB
M  V30 COUNTS 67 72 0 0 1
M  V30 BEGIN ATOM
M  V30 1 C 39.867403 30.079179 52.685999 0
M  V30 2 C 42.487389 34.780410 65.319370 0 CFG=1
M  V30 3 C 37.633070 33.324488 60.270218 0
M  V30 4 C 41.518866 34.127707 64.357124 0 CFG=1
M  V30 5 C 38.075199 30.953437 60.626291 0
M  V30 6 C 37.748300 25.212825 57.250254 0
M  V30 7 C 37.325319 34.701012 60.832179 0
M  V30 8 C 38.545830 28.214322 56.955401 0
M  V30 9 N 38.423426 35.662181 60.773894 0
M  V30 10 C 39.657891 34.572839 62.612254 0
M  V30 11 C 38.041118 31.857730 58.356796 0
M  V30 12 O 40.518106 36.452520 61.643873 0
M  V30 13 C 37.684777 24.666159 55.822282 0
M  V30 14 C 38.139340 31.644518 56.842880 0 CFG=1
M  V30 15 C 37.778415 32.223963 61.140822 0
M  V30 16 C 39.639111 29.659410 51.361432 0
M  V30 17 O 42.267350 34.421431 66.692649 0
M  V30 18 C 39.387870 29.304285 53.768321 0
M  V30 19 C 41.141695 34.375178 65.800958 0 CFG=1
M  V30 20 C 39.693717 29.714599 55.217206 0 CFG=1
M  V30 21 C 38.207824 30.768531 59.240968 0
M  V30 22 N 36.572981 24.021448 55.474421 0
M  V30 23 C 40.138012 31.142229 55.445099 0
M  V30 24 C 38.423910 27.718928 52.182384 0
M  V30 25 C 40.873868 34.893443 63.236529 0
M  V30 26 O 38.624627 24.821426 55.053502 0
M  V30 27 C 38.922498 28.477996 51.112262 0
M  V30 28 C 39.449979 32.003141 56.192977 0
M  V30 29 O 40.111225 30.402124 50.319169 0
M  V30 30 C 38.608784 29.359308 56.245100 0
M  V30 31 C 39.117136 25.822447 57.641173 0
M  V30 32 C 37.763663 33.141271 58.875684 0
M  V30 33 O 37.666636 30.344495 56.431033 0
M  V30 34 C 38.655678 28.125193 53.506810 0
M  V30 35 C 39.556184 27.085863 56.865229 0
M  V30 36 C 39.496823 35.540002 61.667095 0
M  V30 37 C 41.364692 36.021428 62.647539 0
M  V30 38 H 40.426807 30.983405 52.869684 0
M  V30 39 H 42.667337 35.846060 65.185094 0
M  V30 40 H 41.723313 33.099900 64.064495 0
M  V30 41 H 38.196230 30.114810 61.295805 0
M  V30 42 H 37.525095 24.391450 57.932149 0
M  V30 43 H 36.948979 25.941869 57.382510 0
M  V30 44 H 36.491946 35.114225 60.262861 0
M  V30 45 H 36.960867 34.611600 61.853501 0
M  V30 46 H 37.739808 28.079179 57.661133 0
M  V30 47 H 38.362192 36.406168 60.094503 0
M  V30 48 H 39.000898 33.755747 62.824176 0
M  V30 49 H 37.467406 32.365872 56.388671 0
M  V30 50 H 37.663858 32.355347 62.204476 0
M  V30 51 H 40.420662 35.170238 65.982883 0
M  V30 52 H 40.576473 29.135044 55.484045 0
M  V30 53 H 38.426415 29.792740 58.859763 0
M  V30 54 H 35.823225 23.912759 56.139211 0
M  V30 55 H 36.484055 23.644581 54.542700 0
M  V30 56 H 41.067403 31.446298 54.988874 0
M  V30 57 H 37.867407 26.821428 51.987043 0
M  V30 58 H 38.745699 28.157256 50.097356 0
M  V30 59 H 39.813441 33.009349 56.337711 0
M  V30 60 H 39.716991 30.157274 49.495021 0
M  V30 61 H 39.890635 25.059584 57.536535 0
M  V30 62 H 39.091307 26.062403 58.704353 0
M  V30 63 H 37.638023 33.979801 58.205757 0
M  V30 64 H 38.280100 27.526046 54.320861 0
M  V30 65 H 39.792995 26.862829 55.827072 0
M  V30 66 H 40.488433 27.445307 57.302308 0
M  V30 67 H 42.247622 36.621417 62.799307 0
M  V30 END ATOM
M  V30 BEGIN BOND
M  V30 1 1 4 2
M  V30 2 1 7 3
M  V30 3 1 9 7
M  V30 4 1 13 6
M  V30 5 1 14 11
M  V30 6 1 15 3
M  V30 7 2 15 5
M  V30 8 2 16 1
M  V30 9 1 17 2
M  V30 10 1 18 1
M  V30 11 1 19 2
M  V30 12 1 19 4
M  V30 13 1 19 17
M  V30 14 1 20 18
M  V30 15 1 21 5
M  V30 16 2 21 11
M  V30 17 1 22 13
M  V30 18 1 23 20
M  V30 19 1 25 4
M  V30 20 1 25 10
M  V30 21 2 26 13
M  V30 22 1 27 16
M  V30 23 2 27 24
M  V30 24 1 28 14
M  V30 25 2 28 23
M  V30 26 1 29 16
M  V30 27 2 30 8
M  V30 28 1 30 20
M  V30 29 1 31 6
M  V30 30 2 32 3
M  V30 31 1 32 11
M  V30 32 1 33 14
M  V30 33 1 33 30
M  V30 34 2 34 18
M  V30 35 1 34 24
M  V30 36 1 35 8
M  V30 37 1 35 31
M  V30 38 1 36 9
M  V30 39 2 36 10
M  V30 40 1 36 12
M  V30 41 1 37 12
M  V30 42 2 37 25
M  V30 43 1 38 1
M  V30 44 1 2 39 CFG=3
M  V30 45 1 4 40 CFG=3
M  V30 46 1 41 5
M  V30 47 1 42 6
M  V30 48 1 43 6
M  V30 49 1 44 7
M  V30 50 1 45 7
M  V30 51 1 46 8
M  V30 52 1 47 9
M  V30 53 1 48 10
M  V30 54 1 14 49 CFG=3
M  V30 55 1 50 15
M  V30 56 1 19 51 CFG=1
M  V30 57 1 20 52 CFG=1
M  V30 58 1 53 21
M  V30 59 1 54 22
M  V30 60 1 55 22
M  V30 61 1 56 23
M  V30 62 1 57 24
M  V30 63 1 58 27
M  V30 64 1 59 28
M  V30 65 1 60 29
M  V30 66 1 61 31
M  V30 67 1 62 31
M  V30 68 1 63 32
M  V30 69 1 64 34
M  V30 70 1 65 35
M  V30 71 1 66 35
M  V30 72 1 67 37
M  V30 END BOND
M  V30 END CTAB
M  END
>  <i_epik_Tot_Q>  (1) 
0

>  <i_epik_Tot_abs_Q>  (1) 
0

>  <i_i_glide_confnum>  (1) 
400

>  <i_i_glide_lignum>  (1) 
178

>  <i_i_glide_posenum>  (1) 
255

>  <i_i_glide_rotatable_bonds>  (1) 
11

>  <i_lp_mmshare_version>  (1) 
72125

>  <i_m_source_file_index>  (1) 
70

>  <i_f3d_flags>  (1) 
0

>  <num_sample>  (1) 
100

>  <b_lp_Chiralities_Consistent>  (1) 
1

>  <r_epik_Charging_Adjusted_Penalty>  (1) 
0

>  <r_epik_Ionization_Penalty>  (1) 
0.0027858750297933624

>  <r_epik_Ionization_Penalty_Charging>  (1) 
0

>  <r_epik_Ionization_Penalty_Neutral>  (1) 
0.0027858750297933624

>  <r_epik_State_Penalty>  (1) 
-0

>  <r_glide_ring_energy>  (1) 
1.6699314456563878

>  <r_i_docking_score>  (1) 
-8.2024808921326144

>  <r_i_glide_ecoul>  (1) 
-1.6334498825218282

>  <r_i_glide_eff_state_penalty>  (1) 
-0

>  <r_i_glide_einternal>  (1) 
9.8336201568010786

>  <r_i_glide_emodel>  (1) 
-72.689379825028368

>  <r_i_glide_emodel_strain>  (1) 
1.0628660810174679

>  <r_i_glide_energy>  (1) 
-54.736821724379958

>  <r_i_glide_erotb>  (1) 
0.7388310729384443

>  <r_i_glide_esite>  (1) 
0

>  <r_i_glide_evdw>  (1) 
-53.103371841858127

>  <r_i_glide_gscore>  (1) 
-8.2024808921326144

>  <r_i_glide_gscore_strain>  (1) 
0

>  <r_i_glide_hbond>  (1) 
0

>  <r_i_glide_ligand_efficiency>  (1) 
-0.22168867276034093

>  <r_i_glide_ligand_efficiency_ln>  (1) 
-1.7789258120686726

>  <r_i_glide_ligand_efficiency_sa>  (1) 
-0.73871583963439713

>  <r_i_glide_lipo>  (1) 
-4.7935118109668933

>  <r_i_glide_metal>  (1) 
-0

>  <r_i_glide_rewards>  (1) 
-1.2476140796329851

>  <r_lp_Energy>  (1) 
41.231663999999995

>  <r_lp_tautomer_probability>  (1) 
1

>  <s_epik_cmdline>  (1) 
J2VwaWtfcHl0aG9uJywgJy1waHQnLCAnMS4wJywgJy1waCcsICc3LjQnLCAnLXRuJywgJzgnLCAnLW1hJywgJzUwMCcsICctaW1hZScsICc8aW5maWxlLm1hZT4nLCAnLW9tYWUnLCAnPG91dGZpbGUubWFlPic=

>  <s_epik_input>  (1) 
W05IMl1DKD1PKVtDSDJdW0NIMl1bQ0gyXS9bQ0hdPUMoTzEpXFtDQEBIXShjKFtjSF1jMltPSF0pW2NIXVtjSF1bY0hdMilbQ0hdPVtDSF1bQ0BASF0xYyhbY0hdMylbY0hdW2NIXVtjSF1jM1tDSDJdW05IXWMob1tjSF00KVtjSF1jNFtDQEBIXTVbQ0hdKE82KVtDSF01Ng==

>  <s_glide_docking_method>  (1) 
confgen

>  <s_i_glide_gridfile>  (1) 
gpcr_5ht2c_6bqh_protein_autoprepared_prepared

>  <s_lp_Force_Field>  (1) 
S-OPLS

>  <s_lp_Variant>  (1) 
DiffSBDD_69_num_sample_100-2

>  <s_m_source_file>  (1) 
generated__ligand_DiffSBDD_2026-05-06_prepared.sdf

>  <GenAI_Model>  (1) 
DiffSBDD

>  <Protein>  (1) 
GPCR_5HT2C

$$$$
DiffSBDD_87_num_sample_100
     RDKit          3D

  0  0  0  0  0  0  0  0  0  0999 V3000
M  V30 BEGIN CTAB
M  V30 COUNTS 53 56 0 0 1
M  V30 BEGIN ATOM
M  V30 1 C 37.946450 29.014388 58.805290 0 CFG=1
M  V30 2 C 38.820765 28.354292 59.896720 0
M  V30 3 C 37.580733 25.159471 55.012899 0
M  V30 4 C 37.963092 31.679887 59.132811 0 CFG=1
M  V30 5 C 40.761872 28.821292 56.113965 0
M  V30 6 C 38.903876 25.953860 55.012078 0
M  V30 7 C 37.533329 31.077967 60.448705 0
M  V30 8 C 37.270113 30.338528 59.150525 0 CFG=2
M  V30 9 C 38.159627 28.367352 54.210735 0 CFG=1
M  V30 10 N 37.067489 32.752879 58.653526 0 CHG=1
M  V30 11 O 37.175085 29.251342 54.693960 0
M  V30 12 C 37.685826 27.418250 52.652654 0
M  V30 13 C 38.287552 27.630478 56.750135 0
M  V30 14 C 40.267389 30.519064 51.843792 0
M  V30 15 C 38.624530 28.964903 57.427985 0 CFG=2
M  V30 16 C 38.605317 28.371492 52.143118 0
M  V30 17 F 40.441104 30.025257 49.476829 0
M  V30 18 C 39.939911 29.718317 50.694869 0
M  V30 19 C 39.067485 28.609456 50.855840 0
M  V30 20 C 39.728495 30.158182 53.115292 0
M  V30 21 C 38.911936 29.025375 53.140048 0
M  V30 22 C 38.867838 27.481354 55.330655 0 CFG=1
M  V30 23 C 40.152154 29.055409 57.482491 0
M  V30 24 O 40.267406 27.672516 55.453522 0
M  V30 25 F 37.075626 25.017789 56.238325 0
M  V30 26 H 37.067885 28.402399 58.653494 0
M  V30 27 H 39.637669 28.996711 60.223894 0
M  V30 28 H 38.267491 28.051661 60.761038 0
M  V30 29 H 39.254108 27.418277 59.546159 0
M  V30 30 H 36.811123 25.605724 54.389885 0
M  V30 31 H 37.755726 24.145846 54.652977 0
M  V30 32 H 39.013309 31.760172 58.861509 0
M  V30 33 H 41.828271 28.648264 56.253369 0
M  V30 34 H 40.666504 29.705407 55.507886 0
M  V30 35 H 39.419449 25.804335 54.065754 0
M  V30 36 H 39.558410 25.457289 55.731399 0
M  V30 37 H 36.668502 31.500264 60.957755 0
M  V30 38 H 38.320765 30.717792 61.108214 0
M  V30 39 H 36.235346 30.358119 58.807288 0
M  V30 40 H 36.541669 33.148538 59.417895 0
M  V30 41 H 37.602660 33.476728 58.198861 0
M  V30 42 H 36.667849 28.778014 55.334034 0
M  V30 43 H 38.058449 26.421426 52.509177 0
M  V30 44 H 36.670737 27.621435 52.327446 0
M  V30 45 H 37.222247 27.433728 56.745252 0
M  V30 46 H 38.692699 26.836371 57.379254 0
M  V30 47 H 40.910659 31.378783 51.744985 0
M  V30 48 H 38.250727 29.798796 56.836762 0
M  V30 49 H 38.767626 27.997485 50.020734 0
M  V30 50 H 39.931727 30.739460 53.996341 0
M  V30 51 H 40.600167 28.300109 58.125085 0
M  V30 52 H 40.447119 30.020956 57.880301 0
M  V30 53 H 36.407040 32.366848 57.965006 0
M  V30 END ATOM
M  V30 BEGIN BOND
M  V30 1 1 2 1
M  V30 2 1 6 3
M  V30 3 1 7 4
M  V30 4 1 8 1
M  V30 5 1 8 4
M  V30 6 1 8 7
M  V30 7 1 10 4
M  V30 8 1 9 11 CFG=1
M  V30 9 1 12 9
M  V30 10 1 15 1
M  V30 11 1 15 13
M  V30 12 1 16 12
M  V30 13 1 18 14
M  V30 14 1 18 17
M  V30 15 1 19 16
M  V30 16 2 19 18
M  V30 17 2 20 14
M  V30 18 1 21 9
M  V30 19 2 21 16
M  V30 20 1 21 20
M  V30 21 1 22 6 CFG=3
M  V30 22 1 22 9
M  V30 23 1 22 13
M  V30 24 1 23 5
M  V30 25 1 23 15
M  V30 26 1 24 5
M  V30 27 1 24 22
M  V30 28 1 25 3
M  V30 29 1 1 26 CFG=3
M  V30 30 1 27 2
M  V30 31 1 28 2
M  V30 32 1 29 2
M  V30 33 1 30 3
M  V30 34 1 31 3
M  V30 35 1 4 32 CFG=1
M  V30 36 1 33 5
M  V30 37 1 34 5
M  V30 38 1 35 6
M  V30 39 1 36 6
M  V30 40 1 37 7
M  V30 41 1 38 7
M  V30 42 1 8 39 CFG=3
M  V30 43 1 40 10
M  V30 44 1 41 10
M  V30 45 1 42 11
M  V30 46 1 43 12
M  V30 47 1 44 12
M  V30 48 1 45 13
M  V30 49 1 46 13
M  V30 50 1 47 14
M  V30 51 1 15 48 CFG=3
M  V30 52 1 49 19
M  V30 53 1 50 20
M  V30 54 1 51 23
M  V30 55 1 52 23
M  V30 56 1 53 10
M  V30 END BOND
M  V30 END CTAB
M  END
>  <i_epik_Tot_Q>  (1) 
1

>  <i_epik_Tot_abs_Q>  (1) 
1

>  <i_i_glide_confnum>  (1) 
133

>  <i_i_glide_lignum>  (1) 
225

>  <i_i_glide_posenum>  (1) 
54

>  <i_i_glide_rotatable_bonds>  (1) 
6

>  <i_lp_mmshare_version>  (1) 
72125

>  <i_m_source_file_index>  (1) 
88

>  <i_f3d_flags>  (1) 
0

>  <num_sample>  (1) 
100

>  <b_lp_Chiralities_Consistent>  (1) 
1

>  <r_epik_Charging_Adjusted_Penalty>  (1) 
0.053606202930604946

>  <r_epik_Ionization_Penalty>  (1) 
0.026803441766302651

>  <r_epik_Ionization_Penalty_Charging>  (1) 
0.026803101465302424

>  <r_epik_Ionization_Penalty_Neutral>  (1) 
3.4030100022513842e-07

>  <r_epik_State_Penalty>  (1) 
0.026803101465302525

>  <r_glide_ring_energy>  (1) 
0

>  <r_i_docking_score>  (1) 
-8.2010285358309165

>  <r_i_glide_ecoul>  (1) 
-6.5649177354871702

>  <r_i_glide_eff_state_penalty>  (1) 
0.026803101465302525

>  <r_i_glide_einternal>  (1) 
23.004844626043273

>  <r_i_glide_emodel>  (1) 
-34.03370743078635

>  <r_i_glide_emodel_strain>  (1) 
3.0209734419265146

>  <r_i_glide_energy>  (1) 
-26.738375784231394

>  <r_i_glide_erotb>  (1) 
0.61455583154011373

>  <r_i_glide_esite>  (1) 
-0.10000000000000001

>  <r_i_glide_evdw>  (1) 
-20.173458048744223

>  <r_i_glide_gscore>  (1) 
-8.2278316372962195

>  <r_i_glide_gscore_strain>  (1) 
0

>  <r_i_glide_hbond>  (1) 
-0.20000000000000001

>  <r_i_glide_ligand_efficiency>  (1) 
-0.32804114143323665

>  <r_i_glide_ligand_efficiency_ln>  (1) 
-1.9438895279851285

>  <r_i_glide_ligand_efficiency_sa>  (1) 
-0.95919811641437958

>  <r_i_glide_lipo>  (1) 
-3.8869119506970384

>  <r_i_glide_metal>  (1) 
-0

>  <r_i_glide_rewards>  (1) 
-2.6620649553790088

>  <r_lp_Energy>  (1) 
36.003222999999998

>  <s_epik_cmdline>  (1) 
J2VwaWtfcHl0aG9uJywgJy1waHQnLCAnMS4wJywgJy1waCcsICc3LjQnLCAnLXRuJywgJzgnLCAnLW1hJywgJzUwMCcsICctaW1hZScsICc8aW5maWxlLm1hZT4nLCAnLW9tYWUnLCAnPG91dGZpbGUubWFlPic=

>  <s_epik_input>  (1) 
W05IMl1bQ0BIXTFbQ0gyXVtDQEBIXTFbQ0BIXShbQ0gzXSlbQ0BASF0oW0NIMl1bQ0gyXU8yKVtDSDJdW0NAQF0yKFtDSDJdW0NIMl1GKVtDQF0oW09IXSkoW0NIMl0zKWMoYzM0KVtjSF1bY0hdYyhGKVtjSF00

>  <s_glide_docking_method>  (1) 
confgen

>  <s_i_glide_gridfile>  (1) 
gpcr_5ht2c_6bqh_protein_autoprepared_prepared

>  <s_lp_Force_Field>  (1) 
S-OPLS

>  <s_lp_Variant>  (1) 
DiffSBDD_87_num_sample_100-1

>  <s_m_source_file>  (1) 
generated__ligand_DiffSBDD_2026-05-06_prepared.sdf

>  <GenAI_Model>  (1) 
DiffSBDD

>  <Protein>  (1) 
GPCR_5HT2C

$$$$
DiffSBDD_38_num_sample_100
     RDKit          3D

  0  0  0  0  0  0  0  0  0  0999 V3000
M  V30 BEGIN CTAB
M  V30 COUNTS 81 83 0 0 1
M  V30 BEGIN ATOM
M  V30 1 C 36.996454 30.152959 59.484250 0
M  V30 2 C 39.447063 27.452868 56.114956 0
M  V30 3 C 37.874787 32.879407 55.078768 0
M  V30 4 C 39.408547 33.152959 60.096247 0
M  V30 5 C 39.931127 33.680914 61.410995 0
M  V30 6 F 40.361885 26.866313 58.245812 0
M  V30 7 C 40.829774 33.287965 63.646278 0
M  V30 8 C 37.887850 33.240181 59.830129 0 CFG=2
M  V30 9 O 35.684934 32.494725 60.653396 0
M  V30 10 N 38.691915 31.677722 55.302364 0 CFG=1 CHG=1
M  V30 11 C 40.034134 29.755318 50.138914 0
M  V30 12 C 41.113319 30.821428 50.221366 0
M  V30 13 C 40.049128 35.063866 61.606421 0
M  V30 14 C 37.341499 34.684092 60.023097 0
M  V30 15 C 38.440425 25.681677 57.457571 0
M  V30 16 C 40.946638 34.677990 63.838063 0
M  V30 17 C 37.399144 30.854374 60.782686 0
M  V30 18 C 39.169531 27.913010 51.321916 0
M  V30 19 C 39.291195 31.649133 56.663010 0
M  V30 20 C 38.954476 29.557746 54.017046 0
M  V30 21 C 37.085872 32.348315 60.816777 0 CFG=1
M  V30 22 C 37.973940 30.348297 58.355991 0
M  V30 23 C 37.484811 26.255338 55.289323 0
M  V30 24 C 40.547990 35.563323 62.814707 0
M  V30 25 C 39.428795 26.669088 57.285485 0
M  V30 26 C 37.710148 32.867248 58.334926 0
M  V30 27 C 40.667333 37.041727 63.009104 0
M  V30 28 C 38.468837 27.250579 55.112647 0
M  V30 29 C 38.476909 28.091998 53.832301 0 CFG=2
M  V30 30 C 38.299877 31.540384 57.824044 0
M  V30 31 C 38.022017 30.412458 54.895980 0
M  V30 32 C 37.470264 25.473949 56.459935 0
M  V30 33 C 39.204684 27.298722 52.724677 0
M  V30 34 O 40.192777 28.886471 51.240689 0
M  V30 35 C 40.319638 32.787697 62.432830 0
M  V30 36 O 41.446037 35.167165 65.012845 0
M  V30 37 H 35.992527 30.420331 59.152458 0
M  V30 38 H 36.975882 29.086284 59.672839 0
M  V30 39 H 40.209761 28.203874 55.988755 0
M  V30 40 H 37.067402 32.838624 55.790731 0
M  V30 41 H 38.444147 33.789722 55.267647 0
M  V30 42 H 37.469244 32.929268 54.070337 0
M  V30 43 H 39.891066 33.728653 59.310229 0
M  V30 44 H 39.767190 32.133377 59.986089 0
M  V30 45 H 41.132229 32.606496 64.427669 0
M  V30 46 H 35.469997 32.305759 59.749782 0
M  V30 47 H 40.082398 29.220498 49.189880 0
M  V30 48 H 39.067395 30.247981 50.211817 0
M  V30 49 H 40.957443 31.577810 49.453771 0
M  V30 50 H 41.067375 31.297199 51.198613 0
M  V30 51 H 42.114561 30.413381 50.096345 0
M  V30 52 H 39.757369 35.746127 60.822375 0
M  V30 53 H 36.303797 34.767964 59.698561 0
M  V30 54 H 37.363893 34.991397 61.068965 0
M  V30 55 H 37.879533 35.432274 59.453494 0
M  V30 56 H 38.427017 25.083031 58.354435 0
M  V30 57 H 36.832893 30.421435 61.595998 0
M  V30 58 H 38.442568 30.650815 61.020251 0
M  V30 59 H 39.350599 27.149284 50.564107 0
M  V30 60 H 38.183062 28.335958 51.127619 0
M  V30 61 H 39.882220 32.552186 56.795930 0
M  V30 62 H 39.966508 30.796881 56.705663 0
M  V30 63 H 38.998316 30.051871 53.047911 0
M  V30 64 H 39.975622 29.592193 54.391478 0
M  V30 65 H 37.300197 32.693491 61.829595 0
M  V30 66 H 38.421449 29.450658 57.955462 0
M  V30 67 H 36.742516 26.091567 54.525757 0
M  V30 68 H 36.667394 32.896433 58.107080 0
M  V30 69 H 38.131839 33.676152 57.738234 0
M  V30 70 H 40.246891 37.604967 62.175336 0
M  V30 71 H 40.178594 37.357049 63.930091 0
M  V30 72 H 41.737399 37.221416 63.053500 0
M  V30 73 H 37.434343 28.160718 53.515173 0
M  V30 74 H 37.676387 29.851498 55.760897 0
M  V30 75 H 37.116566 30.627987 54.325765 0
M  V30 76 H 36.713882 24.714148 56.592406 0
M  V30 77 H 40.226674 27.046501 53.004582 0
M  V30 78 H 38.683174 26.352853 52.653509 0
M  V30 79 H 40.232824 31.721426 62.283698 0
M  V30 80 H 41.523478 36.112753 65.020378 0
M  V30 81 H 39.467195 31.778395 54.662656 0
M  V30 END ATOM
M  V30 BEGIN BOND
M  V30 1 1 5 4
M  V30 2 1 8 4 CFG=1
M  V30 3 1 10 3
M  V30 4 1 12 11
M  V30 5 2 13 5
M  V30 6 1 14 8
M  V30 7 1 16 7
M  V30 8 1 17 1
M  V30 9 1 19 10
M  V30 10 1 21 8
M  V30 11 1 21 9
M  V30 12 1 21 17
M  V30 13 1 22 1
M  V30 14 1 24 13
M  V30 15 2 24 16
M  V30 16 2 25 2
M  V30 17 1 25 6
M  V30 18 1 25 15
M  V30 19 1 26 8
M  V30 20 1 27 24
M  V30 21 1 28 2
M  V30 22 2 28 23
M  V30 23 1 29 20
M  V30 24 1 29 28
M  V30 25 1 30 19
M  V30 26 2 30 22
M  V30 27 1 30 26
M  V30 28 1 31 10
M  V30 29 1 31 20
M  V30 30 2 32 15
M  V30 31 1 32 23
M  V30 32 1 33 18
M  V30 33 1 33 29
M  V30 34 1 34 11
M  V30 35 1 34 18
M  V30 36 1 35 5
M  V30 37 2 35 7
M  V30 38 1 36 16
M  V30 39 1 37 1
M  V30 40 1 38 1
M  V30 41 1 39 2
M  V30 42 1 40 3
M  V30 43 1 41 3
M  V30 44 1 42 3
M  V30 45 1 43 4
M  V30 46 1 44 4
M  V30 47 1 45 7
M  V30 48 1 46 9
M  V30 49 1 47 11
M  V30 50 1 48 11
M  V30 51 1 49 12
M  V30 52 1 50 12
M  V30 53 1 51 12
M  V30 54 1 52 13
M  V30 55 1 53 14
M  V30 56 1 54 14
M  V30 57 1 55 14
M  V30 58 1 56 15
M  V30 59 1 57 17
M  V30 60 1 58 17
M  V30 61 1 59 18
M  V30 62 1 60 18
M  V30 63 1 61 19
M  V30 64 1 62 19
M  V30 65 1 63 20
M  V30 66 1 64 20
M  V30 67 1 21 65 CFG=1
M  V30 68 1 66 22
M  V30 69 1 67 23
M  V30 70 1 68 26
M  V30 71 1 69 26
M  V30 72 1 70 27
M  V30 73 1 71 27
M  V30 74 1 72 27
M  V30 75 1 29 73 CFG=3
M  V30 76 1 74 31
M  V30 77 1 75 31
M  V30 78 1 76 32
M  V30 79 1 77 33
M  V30 80 1 78 33
M  V30 81 1 79 35
M  V30 82 1 80 36
M  V30 83 1 10 81 CFG=3
M  V30 END BOND
M  V30 END CTAB
M  END
>  <i_epik_Tot_Q>  (1) 
1

>  <i_epik_Tot_abs_Q>  (1) 
1

>  <i_i_glide_confnum>  (1) 
2587

>  <i_i_glide_lignum>  (1) 
93

>  <i_i_glide_posenum>  (1) 
158

>  <i_i_glide_rotatable_bonds>  (1) 
14

>  <i_lp_mmshare_version>  (1) 
72125

>  <i_m_source_file_index>  (1) 
39

>  <i_f3d_flags>  (1) 
0

>  <num_sample>  (1) 
100

>  <b_lp_Chiralities_Consistent>  (1) 
1

>  <r_epik_Charging_Adjusted_Penalty>  (1) 
0.028990441090162262

>  <r_epik_Ionization_Penalty>  (1) 
0.014915146811677001

>  <r_epik_Ionization_Penalty_Charging>  (1) 
0.014495220545081134

>  <r_epik_Ionization_Penalty_Neutral>  (1) 
0.00041992626659586555

>  <r_epik_State_Penalty>  (1) 
0.014495220545081127

>  <r_glide_ring_energy>  (1) 
0

>  <r_i_docking_score>  (1) 
-8.1863100841585208

>  <r_i_glide_ecoul>  (1) 
-4.5900729796676911

>  <r_i_glide_eff_state_penalty>  (1) 
0.014495220545081127

>  <r_i_glide_einternal>  (1) 
7.308810184563713

>  <r_i_glide_emodel>  (1) 
-73.711127303383677

>  <r_i_glide_emodel_strain>  (1) 
0.48041628473824005

>  <r_i_glide_energy>  (1) 
-52.747993087968879

>  <r_i_glide_erotb>  (1) 
0.82055052293910336

>  <r_i_glide_esite>  (1) 
-0.0027190164489166837

>  <r_i_glide_evdw>  (1) 
-48.157920108301191

>  <r_i_glide_gscore>  (1) 
-8.2008053047036018

>  <r_i_glide_gscore_strain>  (1) 
0

>  <r_i_glide_hbond>  (1) 
-0.080015158706256972

>  <r_i_glide_ligand_efficiency>  (1) 
-0.2273975023377367

>  <r_i_glide_ligand_efficiency_ln>  (1) 
-1.7860316918240895

>  <r_i_glide_ligand_efficiency_sa>  (1) 
-0.75085000929955248

>  <r_i_glide_lipo>  (1) 
-4.7513457209649435

>  <r_i_glide_metal>  (1) 
-0

>  <r_i_glide_rewards>  (1) 
-1.0908689791573747

>  <r_lp_Energy>  (1) 
37.150380999999996

>  <r_lp_tautomer_probability>  (1) 
0.99999999999736477

>  <s_epik_cmdline>  (1) 
J2VwaWtfcHl0aG9uJywgJy1waHQnLCAnMS4wJywgJy1waCcsICc3LjQnLCAnLXRuJywgJzgnLCAnLW1hJywgJzUwMCcsICctaW1hZScsICc8aW5maWxlLm1hZT4nLCAnLW9tYWUnLCAnPG91dGZpbGUubWFlPic=

>  <s_epik_input>  (1) 
W2NIXTFbY0hdYyhbT0hdKWMoW0NIM10pW2NIXWMxW0NIMl1bQ0BdMihbQ0gzXSlbQ0BASF0oW09IXSlbQ0gyXVtDSDJdW0NIXT1DKFtDSDJdMilbQ0gyXU4oW0NIM10pW0NIMl1bQ0gyXVtDQEhdKGMoW2NIXWMzRilbY0hdW2NIXVtjSF0zKVtDSDJdW0NIMl1PW0NIMl1bQ0gzXQ==

>  <s_glide_docking_method>  (1) 
confgen

>  <s_i_glide_gridfile>  (1) 
gpcr_5ht2c_6bqh_protein_autoprepared_prepared

>  <s_lp_Force_Field>  (1) 
S-OPLS

>  <s_lp_Variant>  (1) 
DiffSBDD_38_num_sample_100-2

>  <s_m_source_file>  (1) 
generated__ligand_DiffSBDD_2026-05-06_prepared.sdf

>  <GenAI_Model>  (1) 
DiffSBDD

>  <Protein>  (1) 
GPCR_5HT2C

$$$$
DiffSBDD_80_num_sample_100
     RDKit          3D

  0  0  0  0  0  0  0  0  0  0999 V3000
M  V30 BEGIN CTAB
M  V30 COUNTS 73 76 0 0 1
M  V30 BEGIN ATOM
M  V30 1 C 40.845934 27.568031 58.053626 0
M  V30 2 C 40.690229 29.400819 61.241330 0
M  V30 3 N 40.625956 30.188950 62.500721 0 CFG=2 CHG=1
M  V30 4 O 39.618530 28.851524 55.770726 0
M  V30 5 O 38.708505 30.932362 59.823165 0
M  V30 6 O 40.268023 26.291295 57.851423 0
M  V30 7 C 41.461639 31.887744 64.756560 0 CFG=2
M  V30 8 C 40.616723 32.446416 63.586914 0 CFG=1
M  V30 9 C 40.267409 30.554232 51.421210 0
M  V30 10 C 37.618815 30.034254 55.420788 0
M  V30 11 O 38.292755 27.512031 53.503293 0
M  V30 12 C 38.935969 28.509512 52.826863 0
M  V30 13 O 39.467394 34.241551 60.254141 0
M  V30 14 C 39.974424 30.718225 52.780788 0
M  V30 15 C 39.570608 34.610109 62.621251 0
M  V30 16 C 39.228508 28.351692 51.458057 0
M  V30 17 O 36.667388 29.621410 57.612622 0
M  V30 18 C 41.194787 30.377582 64.913050 0
M  V30 19 O 40.200927 29.221474 49.453513 0
M  V30 20 C 40.741171 33.959544 63.346316 0
M  V30 21 C 39.901072 29.374740 50.762117 0
M  V30 22 C 38.847654 28.711393 56.957856 0 CFG=1
M  V30 23 C 39.330182 28.828500 60.888626 0 CFG=2
M  V30 24 C 39.769338 28.663833 58.197570 0 CFG=1
M  V30 25 C 40.896327 31.638976 62.303047 0
M  V30 26 C 37.853502 29.881922 56.906351 0 CFG=1
M  V30 27 C 39.914278 34.929086 61.169918 0
M  V30 28 C 38.942153 28.471256 59.463456 0 CFG=2
M  V30 29 C 41.808681 34.675705 63.751861 0
M  V30 30 C 42.061759 32.572748 66.962850 0
M  V30 31 C 38.267658 29.634603 60.152017 0 CFG=2
M  V30 32 C 39.063489 29.885242 54.972889 0 CFG=2
M  V30 33 C 39.321747 29.700468 53.493348 0
M  V30 34 C 41.446414 29.620606 63.598875 0
M  V30 35 O 41.071481 32.562589 65.946308 0
M  V30 36 H 41.494138 27.790260 57.204758 0
M  V30 37 H 41.489848 27.540780 58.933655 0
M  V30 38 H 41.389440 28.568304 61.339709 0
M  V30 39 H 41.067021 30.004257 60.415832 0
M  V30 40 H 38.103757 31.296647 59.190576 0
M  V30 41 H 40.895177 25.756816 57.383791 0
M  V30 42 H 42.521506 32.041526 64.546033 0
M  V30 43 H 39.573483 32.280904 63.853366 0
M  V30 44 H 40.780308 31.336103 50.883373 0
M  V30 45 H 40.573008 30.000162 49.070746 0
M  V30 46 H 37.171291 30.990081 55.144054 0
M  V30 47 H 36.995757 29.227979 55.034526 0
M  V30 48 H 38.034371 26.794038 52.945472 0
M  V30 49 H 40.266906 31.621390 53.284921 0
M  V30 50 H 38.693425 33.963944 62.653307 0
M  V30 51 H 39.305745 35.541943 63.122851 0
M  V30 52 H 38.944900 27.443982 50.943342 0
M  V30 53 H 36.057124 30.335129 57.420328 0
M  V30 54 H 40.162922 30.216600 65.232085 0
M  V30 55 H 41.826182 29.958395 65.695758 0
M  V30 56 H 38.295292 27.774556 56.857873 0
M  V30 57 H 38.978434 28.127346 61.642613 0
M  V30 58 H 40.290938 29.617927 58.260710 0
M  V30 59 H 41.929978 31.786562 61.987421 0
M  V30 60 H 40.269994 32.011172 61.496204 0
M  V30 61 H 38.309517 30.797846 57.281348 0
M  V30 62 H 40.567255 35.788550 61.016926 0
M  V30 63 H 38.335247 27.570198 59.398614 0
M  V30 64 H 41.862853 35.740220 63.570684 0
M  V30 65 H 42.635710 34.212514 64.266521 0
M  V30 66 H 41.685945 33.113969 67.830808 0
M  V30 67 H 42.323069 31.565508 67.287436 0
M  V30 68 H 42.967580 33.076902 66.624114 0
M  V30 69 H 37.188986 29.554654 60.253515 0
M  V30 70 H 39.590120 30.792782 55.277411 0
M  V30 71 H 41.196906 28.567102 63.735301 0
M  V30 72 H 42.503932 29.667180 63.332688 0
M  V30 73 H 39.665899 30.120199 62.811450 0
M  V30 END ATOM
M  V30 BEGIN BOND
M  V30 1 1 3 2
M  V30 2 1 6 1
M  V30 3 1 8 7
M  V30 4 1 12 11
M  V30 5 2 14 9
M  V30 6 1 16 12
M  V30 7 1 18 7
M  V30 8 1 20 8
M  V30 9 1 20 15
M  V30 10 1 21 9
M  V30 11 2 21 16
M  V30 12 1 21 19
M  V30 13 1 22 4
M  V30 14 1 23 2
M  V30 15 1 24 1
M  V30 16 1 24 22
M  V30 17 1 25 3
M  V30 18 1 25 8
M  V30 19 1 26 10
M  V30 20 1 26 17
M  V30 21 1 26 22
M  V30 22 2 27 13
M  V30 23 1 27 15
M  V30 24 1 28 23
M  V30 25 1 28 24
M  V30 26 2 29 20
M  V30 27 1 31 5
M  V30 28 1 31 23
M  V30 29 1 31 28
M  V30 30 1 32 4
M  V30 31 1 32 10
M  V30 32 2 33 12
M  V30 33 1 33 14
M  V30 34 1 33 32
M  V30 35 1 34 3
M  V30 36 1 34 18
M  V30 37 1 35 7
M  V30 38 1 35 30
M  V30 39 1 36 1
M  V30 40 1 37 1
M  V30 41 1 38 2
M  V30 42 1 39 2
M  V30 43 1 40 5
M  V30 44 1 41 6
M  V30 45 1 7 42 CFG=3
M  V30 46 1 8 43 CFG=1
M  V30 47 1 44 9
M  V30 48 1 45 19
M  V30 49 1 46 10
M  V30 50 1 47 10
M  V30 51 1 48 11
M  V30 52 1 49 14
M  V30 53 1 50 15
M  V30 54 1 51 15
M  V30 55 1 52 16
M  V30 56 1 53 17
M  V30 57 1 54 18
M  V30 58 1 55 18
M  V30 59 1 22 56 CFG=3
M  V30 60 1 23 57 CFG=1
M  V30 61 1 24 58 CFG=1
M  V30 62 1 59 25
M  V30 63 1 60 25
M  V30 64 1 26 61 CFG=1
M  V30 65 1 62 27
M  V30 66 1 28 63 CFG=1
M  V30 67 1 64 29
M  V30 68 1 65 29
M  V30 69 1 66 30
M  V30 70 1 67 30
M  V30 71 1 68 30
M  V30 72 1 31 69 CFG=1
M  V30 73 1 32 70 CFG=1
M  V30 74 1 71 34
M  V30 75 1 72 34
M  V30 76 1 3 73 CFG=1
M  V30 END BOND
M  V30 END CTAB
M  END
>  <i_epik_Tot_Q>  (1) 
1

>  <i_epik_Tot_abs_Q>  (1) 
1

>  <i_i_glide_confnum>  (1) 
1253

>  <i_i_glide_lignum>  (1) 
207

>  <i_i_glide_posenum>  (1) 
345

>  <i_i_glide_rotatable_bonds>  (1) 
15

>  <i_lp_mmshare_version>  (1) 
72125

>  <i_m_source_file_index>  (1) 
81

>  <i_f3d_flags>  (1) 
0

>  <num_sample>  (1) 
100

>  <b_lp_Chiralities_Consistent>  (1) 
1

>  <r_epik_Charging_Adjusted_Penalty>  (1) 
0.034071705691259377

>  <r_epik_Ionization_Penalty>  (1) 
0.043305258844254187

>  <r_epik_Ionization_Penalty_Charging>  (1) 
0.034071705691259377

>  <r_epik_Ionization_Penalty_Neutral>  (1) 
0.009233553152994808

>  <r_epik_State_Penalty>  (1) 
-0

>  <r_glide_ring_energy>  (1) 
0

>  <r_i_docking_score>  (1) 
-8.1792570176748622

>  <r_i_glide_ecoul>  (1) 
-8.0856579319220039

>  <r_i_glide_eff_state_penalty>  (1) 
-0

>  <r_i_glide_einternal>  (1) 
5.8861209743404039

>  <r_i_glide_emodel>  (1) 
-80.923678706489525

>  <r_i_glide_emodel_strain>  (1) 
0.3631594033892469

>  <r_i_glide_energy>  (1) 
-50.950532386068431

>  <r_i_glide_erotb>  (1) 
0.67144220787932085

>  <r_i_glide_esite>  (1) 
-0.027109679483295446

>  <r_i_glide_evdw>  (1) 
-42.864874454146431

>  <r_i_glide_gscore>  (1) 
-8.1792570176748622

>  <r_i_glide_gscore_strain>  (1) 
0

>  <r_i_glide_hbond>  (1) 
-0.36544574725121548

>  <r_i_glide_ligand_efficiency>  (1) 
-0.2336930576478532

>  <r_i_glide_ligand_efficiency_ln>  (1) 
-1.7955284442086252

>  <r_i_glide_ligand_efficiency_sa>  (1) 
-0.76442548779685271

>  <r_i_glide_lipo>  (1) 
-4.0807176016060227

>  <r_i_glide_metal>  (1) 
-0

>  <r_i_glide_rewards>  (1) 
-1.0213337847180266

>  <r_lp_Energy>  (1) 
41.479424999999999

>  <r_lp_tautomer_probability>  (1) 
1

>  <s_epik_cmdline>  (1) 
J2VwaWtfcHl0aG9uJywgJy1waHQnLCAnMS4wJywgJy1waCcsICc3LjQnLCAnLXRuJywgJzgnLCAnLW1hJywgJzUwMCcsICctaW1hZScsICc8aW5maWxlLm1hZT4nLCAnLW9tYWUnLCAnPG91dGZpbGUubWFlPic=

>  <s_epik_input>  (1) 
Tz1bQ0hdW0NIMl1DKD1bQ0gyXSlbQ0BASF0oW0NASF0oW0NIMl1bQ0gyXTEpT1tDSDNdKVtDSDJdTjFbQ0gyXVtDQEBIXTJbQ0BASF0oW0NAQEhdMltPSF0pW0NAQEhdKFtDSDJdW09IXSlbQ0BASF0zT1tDQEhdKFtDSDJdW0NASF0zW09IXSlDND1bQ0hdW0NIMl1DKD1PKVtDSF09QzRbT0hd

>  <s_glide_docking_method>  (1) 
confgen

>  <s_i_glide_gridfile>  (1) 
gpcr_5ht2c_6bqh_protein_autoprepared_prepared

>  <s_lp_Force_Field>  (1) 
S-OPLS

>  <s_lp_Variant>  (1) 
DiffSBDD_80_num_sample_100-3

>  <s_m_source_file>  (1) 
generated__ligand_DiffSBDD_2026-05-06_prepared.sdf

>  <GenAI_Model>  (1) 
DiffSBDD

>  <Protein>  (1) 
GPCR_5HT2C

$$$$
DiffSBDD_69_num_sample_100
     RDKit          3D

  0  0  0  0  0  0  0  0  0  0999 V3000
M  V30 BEGIN CTAB
M  V30 COUNTS 67 72 0 0 1
M  V30 BEGIN ATOM
M  V30 1 C 39.867406 30.124090 52.727597 0
M  V30 2 C 43.064293 29.428114 68.189613 0 CFG=1
M  V30 3 C 39.237407 30.607162 60.987847 0
M  V30 4 C 42.297438 30.552059 67.525426 0 CFG=1
M  V30 5 C 37.105743 31.800707 60.969038 0
M  V30 6 C 37.910950 25.627343 56.998831 0
M  V30 7 C 40.499256 30.178443 61.716104 0
M  V30 8 C 40.252669 27.856603 56.519751 0
M  V30 9 N 40.267400 29.704352 63.072506 0
M  V30 10 C 40.953267 29.851383 65.413361 0
M  V30 11 C 37.870220 30.639610 58.962092 0
M  V30 12 O 42.160754 30.980093 63.831096 0
M  V30 13 C 37.294096 24.754385 55.909064 0
M  V30 14 C 37.656332 30.245162 57.509196 0 CFG=1
M  V30 15 C 38.270463 31.394994 61.648732 0
M  V30 16 C 39.717345 29.621424 51.420409 0
M  V30 17 O 44.058078 29.869533 69.132395 0
M  V30 18 C 39.304956 29.431264 53.821585 0
M  V30 19 C 43.695777 30.769138 68.071009 0 CFG=1
M  V30 20 C 39.516319 29.948948 55.243505 0 CFG=1
M  V30 21 C 36.905988 31.424514 59.627470 0
M  V30 22 N 37.467401 25.155202 54.653505 0
M  V30 23 C 38.788257 31.224622 55.531411 0
M  V30 24 C 38.421927 27.747515 52.288512 0
M  V30 25 C 42.005428 30.542454 66.045135 0
M  V30 26 O 36.667424 23.741659 56.200441 0
M  V30 27 C 38.999532 28.430581 51.202629 0
M  V30 28 C 37.962671 31.362811 56.554299 0
M  V30 29 O 40.267412 30.288900 50.365754 0
M  V30 30 C 39.394388 28.877719 56.354088 0
M  V30 31 C 39.449757 25.510509 57.078952 0
M  V30 32 C 39.036140 30.229331 59.644858 0
M  V30 33 O 38.296338 29.003511 57.192123 0
M  V30 34 C 38.571304 28.246670 53.596179 0
M  V30 35 C 40.117757 26.796113 57.599618 0
M  V30 36 C 41.096674 30.153056 64.096781 0
M  V30 37 C 42.710712 31.208849 65.079761 0
M  V30 38 H 40.426452 31.033608 52.893763 0
M  V30 39 H 43.425785 28.640261 67.531817 0
M  V30 40 H 41.473047 30.991400 68.084011 0
M  V30 41 H 36.367281 32.404883 61.475142 0
M  V30 42 H 37.467981 25.375383 57.963206 0
M  V30 43 H 37.606645 26.651445 56.790899 0
M  V30 44 H 40.983589 29.375852 61.158494 0
M  V30 45 H 41.177976 31.030758 61.697203 0
M  V30 46 H 41.092917 27.757698 55.853512 0
M  V30 47 H 39.450527 29.122892 63.244137 0
M  V30 48 H 40.192281 29.225209 65.856797 0
M  V30 49 H 36.595959 30.021419 57.399581 0
M  V30 50 H 38.425247 31.690342 62.674458 0
M  V30 51 H 44.489581 30.892295 67.336504 0
M  V30 52 H 40.566937 30.239332 55.270612 0
M  V30 53 H 36.013871 31.740890 59.104527 0
M  V30 54 H 37.991804 25.993827 54.460673 0
M  V30 55 H 37.074671 24.615968 53.896368 0
M  V30 56 H 38.970986 32.056980 54.867782 0
M  V30 57 H 37.867404 26.837184 52.118043 0
M  V30 58 H 38.884792 28.043693 50.201601 0
M  V30 59 H 37.467400 32.307087 56.724559 0
M  V30 60 H 39.957783 29.976293 49.529460 0
M  V30 61 H 39.883959 25.245817 56.113038 0
M  V30 62 H 39.699264 24.685726 57.746511 0
M  V30 63 H 39.777537 29.630366 59.136315 0
M  V30 64 H 38.132391 27.718189 54.426126 0
M  V30 65 H 41.121541 26.571096 57.961221 0
M  V30 66 H 39.566979 27.187215 58.455814 0
M  V30 67 H 43.575269 31.853378 65.093187 0
M  V30 END ATOM
M  V30 BEGIN BOND
M  V30 1 1 4 2
M  V30 2 1 7 3
M  V30 3 1 9 7
M  V30 4 1 13 6
M  V30 5 1 14 11
M  V30 6 1 15 3
M  V30 7 2 15 5
M  V30 8 2 16 1
M  V30 9 1 17 2
M  V30 10 1 18 1
M  V30 11 1 19 2
M  V30 12 1 19 4
M  V30 13 1 19 17
M  V30 14 1 20 18
M  V30 15 1 21 5
M  V30 16 2 21 11
M  V30 17 1 22 13
M  V30 18 1 23 20
M  V30 19 1 25 4
M  V30 20 1 25 10
M  V30 21 2 26 13
M  V30 22 1 27 16
M  V30 23 2 27 24
M  V30 24 1 28 14
M  V30 25 2 28 23
M  V30 26 1 29 16
M  V30 27 2 30 8
M  V30 28 1 30 20
M  V30 29 1 31 6
M  V30 30 2 32 3
M  V30 31 1 32 11
M  V30 32 1 33 14
M  V30 33 1 33 30
M  V30 34 2 34 18
M  V30 35 1 34 24
M  V30 36 1 35 8
M  V30 37 1 35 31
M  V30 38 1 36 9
M  V30 39 2 36 10
M  V30 40 1 36 12
M  V30 41 1 37 12
M  V30 42 2 37 25
M  V30 43 1 38 1
M  V30 44 1 2 39 CFG=3
M  V30 45 1 4 40 CFG=1
M  V30 46 1 41 5
M  V30 47 1 42 6
M  V30 48 1 43 6
M  V30 49 1 44 7
M  V30 50 1 45 7
M  V30 51 1 46 8
M  V30 52 1 47 9
M  V30 53 1 48 10
M  V30 54 1 14 49 CFG=1
M  V30 55 1 50 15
M  V30 56 1 19 51 CFG=3
M  V30 57 1 20 52 CFG=3
M  V30 58 1 53 21
M  V30 59 1 54 22
M  V30 60 1 55 22
M  V30 61 1 56 23
M  V30 62 1 57 24
M  V30 63 1 58 27
M  V30 64 1 59 28
M  V30 65 1 60 29
M  V30 66 1 61 31
M  V30 67 1 62 31
M  V30 68 1 63 32
M  V30 69 1 64 34
M  V30 70 1 65 35
M  V30 71 1 66 35
M  V30 72 1 67 37
M  V30 END BOND
M  V30 END CTAB
M  END
>  <i_epik_Tot_Q>  (1) 
0

>  <i_epik_Tot_abs_Q>  (1) 
0

>  <i_i_glide_confnum>  (1) 
63

>  <i_i_glide_lignum>  (1) 
177

>  <i_i_glide_posenum>  (1) 
133

>  <i_i_glide_rotatable_bonds>  (1) 
11

>  <i_lp_mmshare_version>  (1) 
72125

>  <i_m_source_file_index>  (1) 
70

>  <i_f3d_flags>  (1) 
0

>  <num_sample>  (1) 
100

>  <b_lp_Chiralities_Consistent>  (1) 
1

>  <r_epik_Charging_Adjusted_Penalty>  (1) 
0

>  <r_epik_Ionization_Penalty>  (1) 
0.0027858750297933624

>  <r_epik_Ionization_Penalty_Charging>  (1) 
0

>  <r_epik_Ionization_Penalty_Neutral>  (1) 
0.0027858750297933624

>  <r_epik_State_Penalty>  (1) 
-0

>  <r_glide_ring_energy>  (1) 
1.6699314456563892

>  <r_i_docking_score>  (1) 
-8.1666204155126394

>  <r_i_glide_ecoul>  (1) 
-5.3607474066654097

>  <r_i_glide_eff_state_penalty>  (1) 
-0

>  <r_i_glide_einternal>  (1) 
9.473543278823751

>  <r_i_glide_emodel>  (1) 
-77.137275882687462

>  <r_i_glide_emodel_strain>  (1) 
2.3864675939153273

>  <r_i_glide_energy>  (1) 
-56.716045995017275

>  <r_i_glide_erotb>  (1) 
0.7388310729384443

>  <r_i_glide_esite>  (1) 
-0.043193412472494891

>  <r_i_glide_evdw>  (1) 
-51.355298588351864

>  <r_i_glide_gscore>  (1) 
-8.1666204155126394

>  <r_i_glide_gscore_strain>  (1) 
0

>  <r_i_glide_hbond>  (1) 
-0.32000000000000001

>  <r_i_glide_ligand_efficiency>  (1) 
-0.22071947068953079

>  <r_i_glide_ligand_efficiency_ln>  (1) 
-1.7711485153786497

>  <r_i_glide_ligand_efficiency_sa>  (1) 
-0.73548624331538315

>  <r_i_glide_lipo>  (1) 
-3.9630791981896047

>  <r_i_glide_metal>  (1) 
-0

>  <r_i_glide_rewards>  (1) 
-1.2073018373715798

>  <r_lp_Energy>  (1) 
39.698884999999997

>  <r_lp_tautomer_probability>  (1) 
1

>  <s_epik_cmdline>  (1) 
J2VwaWtfcHl0aG9uJywgJy1waHQnLCAnMS4wJywgJy1waCcsICc3LjQnLCAnLXRuJywgJzgnLCAnLW1hJywgJzUwMCcsICctaW1hZScsICc8aW5maWxlLm1hZT4nLCAnLW9tYWUnLCAnPG91dGZpbGUubWFlPic=

>  <s_epik_input>  (1) 
W05IMl1DKD1PKVtDSDJdW0NIMl1bQ0gyXS9bQ0hdPUMoTzEpL1tDQEBIXShjKFtjSF1jMltPSF0pW2NIXVtjSF1bY0hdMilbQ0hdPVtDSF1bQ0BASF0xYyhbY0hdMylbY0hdW2NIXVtjSF1jM1tDSDJdW05IXWMob1tjSF00KVtjSF1jNFtDQEBIXTVbQ0hdKE82KVtDSF01Ng==

>  <s_glide_docking_method>  (1) 
confgen

>  <s_i_glide_gridfile>  (1) 
gpcr_5ht2c_6bqh_protein_autoprepared_prepared

>  <s_lp_Force_Field>  (1) 
S-OPLS

>  <s_lp_Variant>  (1) 
DiffSBDD_69_num_sample_100-1

>  <s_m_source_file>  (1) 
generated__ligand_DiffSBDD_2026-05-06_prepared.sdf

>  <GenAI_Model>  (1) 
DiffSBDD

>  <Protein>  (1) 
GPCR_5HT2C

$$$$
DiffSBDD_18_num_sample_100
     RDKit          3D

  0  0  0  0  0  0  0  0  0  0999 V3000
M  V30 BEGIN CTAB
M  V30 COUNTS 70 72 0 0 1
M  V30 BEGIN ATOM
M  V30 1 O 36.689676 35.413545 61.199551 0
M  V30 2 C 39.947066 26.038847 57.560885 0
M  V30 3 C 36.525439 30.247739 59.317723 0
M  V30 4 C 39.414955 24.995204 57.019185 0
M  V30 5 O 36.555829 31.911748 61.580436 0
M  V30 6 C 39.640788 28.546083 57.731904 0 CFG=2
M  V30 7 C 41.410450 33.197898 62.325582 0
M  V30 8 N 39.365189 27.213717 57.181820 0
M  V30 9 N 40.942250 28.601341 58.398777 0
M  V30 10 C 38.792124 36.609500 61.731017 0
M  V30 11 C 41.586989 35.254804 63.757037 0
M  V30 12 O 42.354422 32.782842 61.660289 0
M  V30 13 O 37.626290 24.736629 55.492311 0
M  V30 14 C 41.186655 33.732804 66.250886 0
M  V30 15 C 37.998207 31.073247 57.420315 0
M  V30 16 C 38.354952 25.448000 56.181976 0
M  V30 17 C 41.465330 31.577281 65.011344 0
M  V30 18 C 40.715592 36.050257 63.110536 0
M  V30 19 C 35.937592 32.269568 60.578391 0
M  V30 20 N 40.108679 33.175998 61.950464 0
M  V30 21 C 37.970015 30.353147 58.781458 0 CFG=2
M  V30 22 C 37.617571 36.408622 60.780180 0 CFG=2
M  V30 23 C 38.577539 28.924662 58.779534 0 CFG=2
M  V30 24 C 39.312686 28.627682 60.086706 0
M  V30 25 O 40.611993 30.665920 64.967793 0 CHG=-1
M  V30 26 C 38.209258 27.023153 56.236063 0
M  V30 27 C 39.358403 34.189614 61.768217 0
M  V30 28 C 35.183748 33.600660 60.568309 0
M  V30 29 C 36.049324 34.777140 60.093045 0
M  V30 30 C 36.848743 37.728900 60.647168 0
M  V30 31 C 39.620442 35.640676 62.200448 0
M  V30 32 C 41.638336 33.765919 63.701312 0 CFG=1
M  V30 33 C 40.952015 33.024867 64.894680 0 CFG=2
M  V30 34 N 35.876810 31.537859 59.456849 0
M  V30 35 N 40.743548 28.681625 59.804497 0
M  V30 36 O 42.699618 31.419845 65.145668 0
M  V30 37 H 40.771355 26.077952 58.251826 0
M  V30 38 H 36.494758 29.704284 60.257415 0
M  V30 39 H 35.915748 29.670710 58.620487 0
M  V30 40 H 39.691734 23.960790 57.155345 0
M  V30 41 H 39.674046 29.212339 56.875442 0
M  V30 42 H 41.497397 27.781508 58.167182 0
M  V30 43 H 38.972982 37.629722 62.034994 0
M  V30 44 H 42.329419 35.721344 64.390291 0
M  V30 45 H 37.268515 27.313555 56.699563 0
M  V30 46 H 40.816742 33.136456 67.085169 0
M  V30 47 H 42.249509 33.917367 66.420426 0
M  V30 48 H 40.672105 34.692720 66.294736 0
M  V30 49 H 37.494330 30.487290 56.652912 0
M  V30 50 H 37.504864 32.044564 57.466577 0
M  V30 51 H 39.017687 31.274247 57.094248 0
M  V30 52 H 40.825132 37.111015 63.281956 0
M  V30 53 H 38.544022 30.976678 59.469231 0
M  V30 54 H 38.058991 36.160739 59.818458 0
M  V30 55 H 37.746435 28.231892 58.666111 0
M  V30 56 H 39.054660 29.285923 60.917470 0
M  V30 57 H 39.068747 27.622585 60.405677 0
M  V30 58 H 38.353914 27.504053 55.267669 0
M  V30 59 H 38.426557 34.057885 61.234311 0
M  V30 60 H 34.795501 33.796986 61.567289 0
M  V30 61 H 34.310246 33.507572 59.922078 0
M  V30 62 H 35.437906 35.498995 59.552621 0
M  V30 63 H 36.784895 34.418924 59.368875 0
M  V30 64 H 37.473956 38.507611 60.209733 0
M  V30 65 H 35.976193 37.622247 60.007516 0
M  V30 66 H 36.506114 38.086518 61.619242 0
M  V30 67 H 42.698900 33.608122 63.852666 0
M  V30 68 H 39.876412 32.949859 64.713106 0
M  V30 69 H 35.365687 31.892570 58.653539 0
M  V30 70 H 41.236038 27.922388 60.273180 0
M  V30 END ATOM
M  V30 BEGIN BOND
M  V30 1 2 4 2
M  V30 2 1 8 2
M  V30 3 1 8 6
M  V30 4 1 9 6
M  V30 5 2 12 7
M  V30 6 1 16 4
M  V30 7 2 16 13
M  V30 8 2 18 11
M  V30 9 2 19 5
M  V30 10 1 20 7
M  V30 11 1 21 3
M  V30 12 1 21 15
M  V30 13 1 22 1
M  V30 14 1 22 10
M  V30 15 1 23 6
M  V30 16 1 23 21
M  V30 17 1 24 23
M  V30 18 1 25 17
M  V30 19 1 26 8
M  V30 20 1 26 16
M  V30 21 2 27 20
M  V30 22 1 28 19
M  V30 23 1 29 1
M  V30 24 1 29 28
M  V30 25 1 30 22
M  V30 26 2 31 10
M  V30 27 1 31 18
M  V30 28 1 31 27
M  V30 29 1 32 7
M  V30 30 1 32 11
M  V30 31 1 33 14
M  V30 32 1 33 17
M  V30 33 1 33 32
M  V30 34 1 34 3
M  V30 35 1 34 19
M  V30 36 1 35 9
M  V30 37 1 35 24
M  V30 38 2 36 17
M  V30 39 1 37 2
M  V30 40 1 38 3
M  V30 41 1 39 3
M  V30 42 1 40 4
M  V30 43 1 6 41 CFG=3
M  V30 44 1 42 9
M  V30 45 1 43 10
M  V30 46 1 44 11
M  V30 47 1 45 26
M  V30 48 1 46 14
M  V30 49 1 47 14
M  V30 50 1 48 14
M  V30 51 1 49 15
M  V30 52 1 50 15
M  V30 53 1 51 15
M  V30 54 1 52 18
M  V30 55 1 21 53 CFG=1
M  V30 56 1 22 54 CFG=3
M  V30 57 1 23 55 CFG=3
M  V30 58 1 56 24
M  V30 59 1 57 24
M  V30 60 1 58 26
M  V30 61 1 59 27
M  V30 62 1 60 28
M  V30 63 1 61 28
M  V30 64 1 62 29
M  V30 65 1 63 29
M  V30 66 1 64 30
M  V30 67 1 65 30
M  V30 68 1 66 30
M  V30 69 1 32 67 CFG=1
M  V30 70 1 33 68 CFG=3
M  V30 71 1 69 34
M  V30 72 1 70 35
M  V30 END BOND
M  V30 END CTAB
M  END
>  <i_epik_Tot_Q>  (1) 
-1

>  <i_epik_Tot_abs_Q>  (1) 
1

>  <i_i_glide_confnum>  (1) 
1399

>  <i_i_glide_lignum>  (1) 
44

>  <i_i_glide_posenum>  (1) 
225

>  <i_i_glide_rotatable_bonds>  (1) 
12

>  <i_lp_mmshare_version>  (1) 
72125

>  <i_m_source_file_index>  (1) 
19

>  <i_f3d_flags>  (1) 
0

>  <num_sample>  (1) 
100

>  <b_lp_Chiralities_Consistent>  (1) 
1

>  <r_epik_Charging_Adjusted_Penalty>  (1) 
0.37971815023500188

>  <r_epik_Ionization_Penalty>  (1) 
0.19445293645399606

>  <r_epik_Ionization_Penalty_Charging>  (1) 
0.18991606969001057

>  <r_epik_Ionization_Penalty_Neutral>  (1) 
0.004536866763985496

>  <r_epik_State_Penalty>  (1) 
0.18980208054499129

>  <r_glide_ring_energy>  (1) 
1.7561163794185886

>  <r_i_docking_score>  (1) 
-8.1579946708971356

>  <r_i_glide_ecoul>  (1) 
-6.8233774108894751

>  <r_i_glide_eff_state_penalty>  (1) 
0.18980208054499129

>  <r_i_glide_einternal>  (1) 
20.637716450885556

>  <r_i_glide_emodel>  (1) 
-69.291579904840461

>  <r_i_glide_emodel_strain>  (1) 
4.5832657775767416

>  <r_i_glide_energy>  (1) 
-57.864388986411555

>  <r_i_glide_erotb>  (1) 
0.89642714384868305

>  <r_i_glide_esite>  (1) 
-0.14404378055573999

>  <r_i_glide_evdw>  (1) 
-51.041011575522077

>  <r_i_glide_gscore>  (1) 
-8.347796751442127

>  <r_i_glide_gscore_strain>  (1) 
0.1458164443941854

>  <r_i_glide_hbond>  (1) 
-0.43981403253089674

>  <r_i_glide_ligand_efficiency>  (1) 
-0.22661096308047599

>  <r_i_glide_ligand_efficiency_ln>  (1) 
-1.7798540336445157

>  <r_i_glide_ligand_efficiency_sa>  (1) 
-0.7482529138936781

>  <r_i_glide_lipo>  (1) 
-3.2482285327202138

>  <r_i_glide_metal>  (1) 
-0

>  <r_i_glide_rewards>  (1) 
-1.9823968034686186

>  <r_lp_Energy>  (1) 
18.74419

>  <r_lp_tautomer_probability>  (1) 
0.98846045845713826

>  <s_epik_Chemistry_Notes>  (1) 
This compound has an imine and may undergo hydrolysis. This compound contains an acetal/aminal-like group ( X-CH(R)-Y where X, Y are N, S, or O) that may be acid/base labile, releasing an aldehyde.

>  <s_epik_cmdline>  (1) 
J2VwaWtfcHl0aG9uJywgJy1waHQnLCAnMS4wJywgJy1waCcsICc3LjQnLCAnLXRuJywgJzgnLCAnLW1hJywgJzUwMCcsICctaW1hZScsICc8aW5maWxlLm1hZT4nLCAnLW9tYWUnLCAnPG91dGZpbGUubWFlPic=

>  <s_epik_input>  (1) 
W09IXUMoPU8pW0NASF0oW0NIM10pW0NAQEhdMVtDSF09W0NIXVxDKFtDSF09TkMxPU8pPVtDSF1cW0NASF0oW0NIM10pT1tDSDJdW0NIMl1DKD1PKVtOSF1bQ0gyXVtDQEhdKFtDSDNdKVtDQEBIXTJbQ0gyXVtOSF1bTkhdW0NASF0ybjNbY0hdW2NIXWMoW09IXSlbY0hdMw==

>  <s_glide_docking_method>  (1) 
confgen

>  <s_i_glide_gridfile>  (1) 
gpcr_5ht2c_6bqh_protein_autoprepared_prepared

>  <s_lp_Force_Field>  (1) 
S-OPLS

>  <s_lp_Variant>  (1) 
DiffSBDD_18_num_sample_100-4

>  <s_m_source_file>  (1) 
generated__ligand_DiffSBDD_2026-05-06_prepared.sdf

>  <GenAI_Model>  (1) 
DiffSBDD

>  <Protein>  (1) 
GPCR_5HT2C

$$$$
DiffSBDD_16_num_sample_100
     RDKit          3D

  0  0  0  0  0  0  0  0  0  0999 V3000
M  V30 BEGIN CTAB
M  V30 COUNTS 58 60 0 0 1
M  V30 BEGIN ATOM
M  V30 1 C 39.141335 29.078615 54.644769 0
M  V30 2 O 40.267389 29.621388 49.453536 0
M  V30 3 C 37.702736 27.170905 53.747986 0
M  V30 4 C 38.796081 31.408523 60.564987 0
M  V30 5 C 38.830345 26.529549 54.902368 0 CFG=2
M  V30 6 C 38.685448 29.051270 59.938807 0
M  V30 7 C 40.267430 29.383224 55.620308 0
M  V30 8 C 40.071964 30.583420 51.611412 0
M  V30 9 C 38.534014 26.113163 56.350171 0 CFG=1
M  V30 10 C 37.898830 30.766218 58.390279 0
M  V30 11 C 38.382368 31.560508 54.640056 0
M  V30 12 C 39.022587 30.054285 60.873374 0
M  V30 13 C 40.679297 30.683033 50.280317 0
M  V30 14 C 39.467400 30.463835 52.664568 0
M  V30 15 C 38.128466 29.407118 58.688243 0
M  V30 16 C 40.314167 27.601108 57.527992 0
M  V30 17 C 38.650525 27.837082 54.471526 0
M  V30 18 C 38.818082 27.182199 57.470301 0 CFG=1
M  V30 19 C 40.958591 28.159335 56.255700 0
M  V30 20 O 39.567755 29.714890 62.078047 0
M  V30 21 C 37.774060 28.326826 57.656605 0
M  V30 22 C 37.217850 25.300958 56.485982 0
M  V30 23 C 38.614844 30.262816 53.850247 0 CFG=1
M  V30 24 C 38.232363 31.763755 59.326092 0
M  V30 25 C 37.150756 24.520323 57.813026 0
M  V30 26 C 36.979442 24.305431 55.327162 0
M  V30 27 H 39.360007 29.759428 49.206944 0
M  V30 28 H 37.871178 26.925559 52.701183 0
M  V30 29 H 36.666833 27.238291 54.046472 0
M  V30 30 H 39.052838 32.175947 61.280643 0
M  V30 31 H 39.609918 25.921418 54.446333 0
M  V30 32 H 38.860042 28.013653 60.177714 0
M  V30 33 H 41.008942 29.951335 55.053544 0
M  V30 34 H 39.902064 30.048716 56.401897 0
M  V30 35 H 39.302647 25.360422 56.535139 0
M  V30 36 H 37.467382 31.044798 57.445189 0
M  V30 37 H 38.029406 32.358536 53.985112 0
M  V30 38 H 39.285025 31.922827 55.131749 0
M  V30 39 H 37.608404 31.418253 55.389447 0
M  V30 40 H 41.764639 30.683198 50.384192 0
M  V30 41 H 40.375966 31.621407 49.823719 0
M  V30 42 H 40.892640 26.720207 57.811108 0
M  V30 43 H 40.506563 28.306991 58.330817 0
M  V30 44 H 38.719754 26.644290 58.409159 0
M  V30 45 H 41.980307 28.421493 56.525509 0
M  V30 46 H 41.067391 27.363197 55.528074 0
M  V30 47 H 39.414249 28.821274 62.349858 0
M  V30 48 H 36.810835 27.899807 57.926438 0
M  V30 49 H 37.580330 28.828705 56.713202 0
M  V30 50 H 36.391512 26.010727 56.466767 0
M  V30 51 H 37.647563 29.961205 53.453531 0
M  V30 52 H 38.055805 32.803485 59.091388 0
M  V30 53 H 37.082963 23.443706 57.655427 0
M  V30 54 H 36.267398 24.821380 58.358644 0
M  V30 55 H 37.997223 24.675372 58.477479 0
M  V30 56 H 37.820260 23.621365 55.212714 0
M  V30 57 H 36.828057 24.798187 54.369385 0
M  V30 58 H 36.084869 23.706241 55.500620 0
M  V30 END ATOM
M  V30 BEGIN BOND
M  V30 1 1 5 3
M  V30 2 1 7 1
M  V30 3 1 9 5
M  V30 4 1 12 4
M  V30 5 2 12 6
M  V30 6 1 13 2
M  V30 7 1 13 8
M  V30 8 3 14 8
M  V30 9 1 15 6
M  V30 10 2 15 10
M  V30 11 2 17 1
M  V30 12 1 17 3
M  V30 13 1 17 5
M  V30 14 1 18 9
M  V30 15 1 18 16
M  V30 16 1 19 7
M  V30 17 1 19 16
M  V30 18 1 20 12
M  V30 19 1 21 15
M  V30 20 1 21 18
M  V30 21 1 22 9
M  V30 22 1 23 1
M  V30 23 1 23 11
M  V30 24 1 23 14
M  V30 25 2 24 4
M  V30 26 1 24 10
M  V30 27 1 25 22
M  V30 28 1 26 22
M  V30 29 1 27 2
M  V30 30 1 28 3
M  V30 31 1 29 3
M  V30 32 1 30 4
M  V30 33 1 5 31 CFG=3
M  V30 34 1 32 6
M  V30 35 1 33 7
M  V30 36 1 34 7
M  V30 37 1 9 35 CFG=1
M  V30 38 1 36 10
M  V30 39 1 37 11
M  V30 40 1 38 11
M  V30 41 1 39 11
M  V30 42 1 40 13
M  V30 43 1 41 13
M  V30 44 1 42 16
M  V30 45 1 43 16
M  V30 46 1 18 44 CFG=1
M  V30 47 1 45 19
M  V30 48 1 46 19
M  V30 49 1 47 20
M  V30 50 1 48 21
M  V30 51 1 49 21
M  V30 52 1 50 22
M  V30 53 1 23 51 CFG=3
M  V30 54 1 52 24
M  V30 55 1 53 25
M  V30 56 1 54 25
M  V30 57 1 55 25
M  V30 58 1 56 26
M  V30 59 1 57 26
M  V30 60 1 58 26
M  V30 END BOND
M  V30 END CTAB
M  END
>  <i_epik_Tot_Q>  (1) 
0

>  <i_epik_Tot_abs_Q>  (1) 
0

>  <i_i_glide_confnum>  (1) 
3

>  <i_i_glide_lignum>  (1) 
38

>  <i_i_glide_posenum>  (1) 
85

>  <i_i_glide_rotatable_bonds>  (1) 
8

>  <i_lp_mmshare_version>  (1) 
72125

>  <i_m_source_file_index>  (1) 
17

>  <i_f3d_flags>  (1) 
0

>  <num_sample>  (1) 
100

>  <b_lp_Chiralities_Consistent>  (1) 
1

>  <r_epik_Charging_Adjusted_Penalty>  (1) 
0

>  <r_epik_Ionization_Penalty>  (1) 
0.00099862310418953213

>  <r_epik_Ionization_Penalty_Charging>  (1) 
0

>  <r_epik_Ionization_Penalty_Neutral>  (1) 
0.00099862310418953213

>  <r_epik_State_Penalty>  (1) 
-0

>  <r_glide_ring_energy>  (1) 
0

>  <r_i_docking_score>  (1) 
-8.1570001445365126

>  <r_i_glide_ecoul>  (1) 
-4.9696266420461095

>  <r_i_glide_eff_state_penalty>  (1) 
-0

>  <r_i_glide_einternal>  (1) 
3.3974893724960022

>  <r_i_glide_emodel>  (1) 
-50.702935833847597

>  <r_i_glide_emodel_strain>  (1) 
5.0790970070518142

>  <r_i_glide_energy>  (1) 
-43.273753313898609

>  <r_i_glide_erotb>  (1) 
0.76791189123998571

>  <r_i_glide_esite>  (1) 
0

>  <r_i_glide_evdw>  (1) 
-38.304126671852501

>  <r_i_glide_gscore>  (1) 
-8.1570001445365126

>  <r_i_glide_gscore_strain>  (1) 
0.26977425176295355

>  <r_i_glide_hbond>  (1) 
-0.33638384430956564

>  <r_i_glide_ligand_efficiency>  (1) 
-0.31373077478986588

>  <r_i_glide_ligand_efficiency_ln>  (1) 
-1.9156447186438499

>  <r_i_glide_ligand_efficiency_sa>  (1) 
-0.92942618685337597

>  <r_i_glide_lipo>  (1) 
-4.4646914313378305

>  <r_i_glide_metal>  (1) 
-0

>  <r_i_glide_rewards>  (1) 
-1.7329606819925139

>  <r_lp_Energy>  (1) 
30.586513999999998

>  <r_lp_tautomer_probability>  (1) 
1

>  <s_epik_cmdline>  (1) 
J2VwaWtfcHl0aG9uJywgJy1waHQnLCAnMS4wJywgJy1waCcsICc3LjQnLCAnLXRuJywgJzgnLCAnLW1hJywgJzUwMCcsICctaW1hZScsICc8aW5maWxlLm1hZT4nLCAnLW9tYWUnLCAnPG91dGZpbGUubWFlPic=

>  <s_epik_input>  (1) 
W09IXVtDSDJdQyNDW0NASF0oW0NIM10pQyg9QygvW0NIMl0xKVtDQEhdMTIpXFtDSDJdW0NIMl1bQ0gyXVtDQEhdKFtDQEhdMltDSF0oW0NIM10pW0NIM10pW0NIMl1jKFtjSF0zKVtjSF1bY0hdW2NIXWMzW09IXQ==

>  <s_glide_docking_method>  (1) 
confgen

>  <s_i_glide_gridfile>  (1) 
gpcr_5ht2c_6bqh_protein_autoprepared_prepared

>  <s_lp_Force_Field>  (1) 
S-OPLS

>  <s_lp_Variant>  (1) 
DiffSBDD_16_num_sample_100-1

>  <s_m_source_file>  (1) 
generated__ligand_DiffSBDD_2026-05-06_prepared.sdf

>  <GenAI_Model>  (1) 
DiffSBDD

>  <Protein>  (1) 
GPCR_5HT2C

$$$$
DiffSBDD_80_num_sample_100
     RDKit          3D

  0  0  0  0  0  0  0  0  0  0999 V3000
M  V30 BEGIN CTAB
M  V30 COUNTS 73 76 0 0 1
M  V30 BEGIN ATOM
M  V30 1 C 40.437737 27.934797 59.698755 0
M  V30 2 C 39.176058 31.193544 60.840097 0
M  V30 3 N 39.071684 32.670516 60.827463 0 CFG=1 CHG=1
M  V30 4 O 39.259025 29.093346 56.283813 0
M  V30 5 O 38.667398 31.563434 57.980771 0
M  V30 6 O 40.667386 28.554600 60.946830 0
M  V30 7 C 39.156067 35.495532 61.666578 0 CFG=2
M  V30 8 C 37.799312 34.762900 61.427590 0 CFG=1
M  V30 9 C 38.907509 28.245543 51.451335 0
M  V30 10 C 38.684616 26.925582 55.596757 0
M  V30 11 O 39.831284 30.887181 54.560909 0
M  V30 12 C 39.526921 30.021439 53.552585 0
M  V30 13 O 34.974973 32.568640 60.246580 0
M  V30 14 C 38.567600 27.908852 52.774566 0
M  V30 15 C 36.571572 34.045871 59.232121 0
M  V30 16 C 39.867404 30.349892 52.225455 0
M  V30 17 O 39.536498 25.747354 57.512485 0
M  V30 18 C 40.297449 34.813552 60.894704 0
M  V30 19 O 39.873981 29.794343 49.891017 0
M  V30 20 C 37.095982 35.174855 60.112766 0
M  V30 21 C 39.556052 29.464740 51.176142 0
M  V30 22 C 39.746140 28.191067 57.272385 0 CFG=1
M  V30 23 C 38.059225 30.488733 60.081744 0 CFG=2
M  V30 24 C 39.754996 28.858438 58.671068 0 CFG=1
M  V30 25 C 37.986208 33.231450 61.665958 0
M  V30 26 C 38.885365 26.931363 57.096255 0 CFG=1
M  V30 27 C 35.162144 33.621431 59.639383 0
M  V30 28 C 38.363026 29.350975 59.103906 0 CFG=2
M  V30 29 C 36.943044 36.464757 59.759397 0
M  V30 30 C 40.285441 36.517575 63.511836 0
M  V30 31 C 37.781140 30.652242 58.598536 0 CFG=2
M  V30 32 C 38.507083 28.413843 55.274382 0 CFG=2
M  V30 33 C 38.877817 28.790993 53.834100 0
M  V30 34 C 40.353504 33.308267 61.194930 0
M  V30 35 O 39.466321 35.452759 63.053494 0
M  V30 36 H 39.855548 27.031461 59.853431 0
M  V30 37 H 41.408367 27.621424 59.313149 0
M  V30 38 H 39.214171 30.819118 61.864168 0
M  V30 39 H 40.122069 30.928462 60.378816 0
M  V30 40 H 38.373178 31.684925 57.087202 0
M  V30 41 H 41.149201 27.949660 61.493602 0
M  V30 42 H 39.086472 36.539773 61.364274 0
M  V30 43 H 37.109593 35.132209 62.187745 0
M  V30 44 H 38.667541 27.566816 50.645702 0
M  V30 45 H 39.186290 29.575997 49.274388 0
M  V30 46 H 37.843437 26.311762 55.273360 0
M  V30 47 H 39.586971 26.547145 55.111886 0
M  V30 48 H 39.676553 30.466823 55.401111 0
M  V30 49 H 38.068838 26.972381 52.976871 0
M  V30 50 H 36.507542 34.412476 58.208964 0
M  V30 51 H 37.236623 33.192705 59.200681 0
M  V30 52 H 40.363004 31.285827 52.011570 0
M  V30 53 H 38.996853 25.007117 57.279074 0
M  V30 54 H 41.257054 35.279009 61.119164 0
M  V30 55 H 40.141367 34.957904 59.832194 0
M  V30 56 H 40.772524 27.956027 56.981797 0
M  V30 57 H 37.153971 30.389361 60.676830 0
M  V30 58 H 40.403954 29.720658 58.562785 0
M  V30 59 H 37.059840 32.683166 61.532212 0
M  V30 60 H 38.267422 33.046501 62.698288 0
M  V30 61 H 37.918450 27.022539 57.590244 0
M  V30 62 H 34.362848 34.306215 59.356872 0
M  V30 63 H 37.653793 28.535473 59.167810 0
M  V30 64 H 36.447435 36.731791 58.836890 0
M  V30 65 H 37.307403 37.265696 60.384533 0
M  V30 66 H 40.464573 36.403083 64.580708 0
M  V30 67 H 41.255217 36.530412 63.014737 0
M  V30 68 H 39.802482 37.484024 63.359844 0
M  V30 69 H 36.750226 30.701321 58.253525 0
M  V30 70 H 37.467398 28.693802 55.430477 0
M  V30 71 H 40.567282 33.141087 62.252231 0
M  V30 72 H 41.160482 32.821428 60.653553 0
M  V30 73 H 38.879343 32.910239 59.862475 0
M  V30 END ATOM
M  V30 BEGIN BOND
M  V30 1 1 3 2
M  V30 2 1 6 1
M  V30 3 1 8 7
M  V30 4 1 12 11
M  V30 5 2 14 9
M  V30 6 1 16 12
M  V30 7 1 18 7
M  V30 8 1 20 8
M  V30 9 1 20 15
M  V30 10 1 21 9
M  V30 11 2 21 16
M  V30 12 1 21 19
M  V30 13 1 22 4
M  V30 14 1 23 2
M  V30 15 1 24 1
M  V30 16 1 24 22
M  V30 17 1 25 3
M  V30 18 1 25 8
M  V30 19 1 26 10
M  V30 20 1 26 17
M  V30 21 1 26 22
M  V30 22 2 27 13
M  V30 23 1 27 15
M  V30 24 1 28 23
M  V30 25 1 28 24
M  V30 26 2 29 20
M  V30 27 1 31 5
M  V30 28 1 31 23
M  V30 29 1 31 28
M  V30 30 1 32 4
M  V30 31 1 32 10
M  V30 32 2 33 12
M  V30 33 1 33 14
M  V30 34 1 33 32
M  V30 35 1 34 3
M  V30 36 1 34 18
M  V30 37 1 35 7
M  V30 38 1 35 30
M  V30 39 1 36 1
M  V30 40 1 37 1
M  V30 41 1 38 2
M  V30 42 1 39 2
M  V30 43 1 40 5
M  V30 44 1 41 6
M  V30 45 1 7 42 CFG=3
M  V30 46 1 8 43 CFG=1
M  V30 47 1 44 9
M  V30 48 1 45 19
M  V30 49 1 46 10
M  V30 50 1 47 10
M  V30 51 1 48 11
M  V30 52 1 49 14
M  V30 53 1 50 15
M  V30 54 1 51 15
M  V30 55 1 52 16
M  V30 56 1 53 17
M  V30 57 1 54 18
M  V30 58 1 55 18
M  V30 59 1 22 56 CFG=3
M  V30 60 1 23 57 CFG=1
M  V30 61 1 24 58 CFG=3
M  V30 62 1 59 25
M  V30 63 1 60 25
M  V30 64 1 26 61 CFG=1
M  V30 65 1 62 27
M  V30 66 1 28 63 CFG=1
M  V30 67 1 64 29
M  V30 68 1 65 29
M  V30 69 1 66 30
M  V30 70 1 67 30
M  V30 71 1 68 30
M  V30 72 1 31 69 CFG=1
M  V30 73 1 32 70 CFG=1
M  V30 74 1 71 34
M  V30 75 1 72 34
M  V30 76 1 3 73 CFG=3
M  V30 END BOND
M  V30 END CTAB
M  END
>  <i_epik_Tot_Q>  (1) 
1

>  <i_epik_Tot_abs_Q>  (1) 
1

>  <i_i_glide_confnum>  (1) 
1840

>  <i_i_glide_lignum>  (1) 
208

>  <i_i_glide_posenum>  (1) 
169

>  <i_i_glide_rotatable_bonds>  (1) 
15

>  <i_lp_mmshare_version>  (1) 
72125

>  <i_m_source_file_index>  (1) 
81

>  <i_f3d_flags>  (1) 
0

>  <num_sample>  (1) 
100

>  <b_lp_Chiralities_Consistent>  (1) 
1

>  <r_epik_Charging_Adjusted_Penalty>  (1) 
0.034071705691259377

>  <r_epik_Ionization_Penalty>  (1) 
0.043305258844254187

>  <r_epik_Ionization_Penalty_Charging>  (1) 
0.034071705691259377

>  <r_epik_Ionization_Penalty_Neutral>  (1) 
0.009233553152994808

>  <r_epik_State_Penalty>  (1) 
-0

>  <r_glide_ring_energy>  (1) 
0

>  <r_i_docking_score>  (1) 
-8.1515294264981275

>  <r_i_glide_ecoul>  (1) 
-5.6580566894941366

>  <r_i_glide_eff_state_penalty>  (1) 
-0

>  <r_i_glide_einternal>  (1) 
14.893960995350806

>  <r_i_glide_emodel>  (1) 
-66.585318510400697

>  <r_i_glide_emodel_strain>  (1) 
3.3946975582223757

>  <r_i_glide_energy>  (1) 
-52.917507774358882

>  <r_i_glide_erotb>  (1) 
0.67144220787932085

>  <r_i_glide_esite>  (1) 
-0.016056301276763552

>  <r_i_glide_evdw>  (1) 
-47.259451084864743

>  <r_i_glide_gscore>  (1) 
-8.1515294264981275

>  <r_i_glide_gscore_strain>  (1) 
0

>  <r_i_glide_hbond>  (1) 
-0.29277175631037716

>  <r_i_glide_ligand_efficiency>  (1) 
-0.23290084075708936

>  <r_i_glide_ligand_efficiency_ln>  (1) 
-1.7894416225646015

>  <r_i_glide_ligand_efficiency_sa>  (1) 
-0.76183409381511269

>  <r_i_glide_lipo>  (1) 
-4.4879508133146073

>  <r_i_glide_metal>  (1) 
-0

>  <r_i_glide_rewards>  (1) 
-0.81451170580834231

>  <r_lp_Energy>  (1) 
34.743352000000002

>  <r_lp_tautomer_probability>  (1) 
1

>  <s_epik_cmdline>  (1) 
J2VwaWtfcHl0aG9uJywgJy1waHQnLCAnMS4wJywgJy1waCcsICc3LjQnLCAnLXRuJywgJzgnLCAnLW1hJywgJzUwMCcsICctaW1hZScsICc8aW5maWxlLm1hZT4nLCAnLW9tYWUnLCAnPG91dGZpbGUubWFlPic=

>  <s_epik_input>  (1) 
Tz1bQ0hdW0NIMl1DKD1bQ0gyXSlbQ0BASF0oW0NASF0oW0NIMl1bQ0gyXTEpT1tDSDNdKVtDSDJdTjFbQ0gyXVtDQEBIXTJbQ0BASF0oW0NAQEhdMltPSF0pW0NAQEhdKFtDSDJdW09IXSlbQ0BASF0zT1tDQEhdKFtDSDJdW0NASF0zW09IXSlDND1bQ0hdW0NIMl1DKD1PKVtDSF09QzRbT0hd

>  <s_glide_docking_method>  (1) 
confgen

>  <s_i_glide_gridfile>  (1) 
gpcr_5ht2c_6bqh_protein_autoprepared_prepared

>  <s_lp_Force_Field>  (1) 
S-OPLS

>  <s_lp_Variant>  (1) 
DiffSBDD_80_num_sample_100-4

>  <s_m_source_file>  (1) 
generated__ligand_DiffSBDD_2026-05-06_prepared.sdf

>  <GenAI_Model>  (1) 
DiffSBDD

>  <Protein>  (1) 
GPCR_5HT2C

$$$$
DiffSBDD_23_num_sample_100
     RDKit          3D

  0  0  0  0  0  0  0  0  0  0999 V3000
M  V30 BEGIN CTAB
M  V30 COUNTS 83 87 0 0 1
M  V30 BEGIN ATOM
M  V30 1 C 38.211523 26.655640 55.204014 0
M  V30 2 C 39.439620 31.127500 62.658473 0
M  V30 3 C 40.504477 34.610722 61.691370 0
M  V30 4 O 42.069047 34.545121 65.596187 0
M  V30 5 N 37.892372 35.245886 61.819276 0
M  V30 6 C 40.203419 30.357182 60.302068 0
M  V30 7 C 40.361429 27.139872 58.368179 0
M  V30 8 N 39.179841 32.515123 62.159449 0
M  V30 9 C 40.667229 33.527221 63.881206 0
M  V30 10 C 41.364071 35.627381 62.136119 0
M  V30 11 C 36.386605 33.523175 58.911645 0
M  V30 12 C 36.851866 34.536809 59.942746 0
M  V30 13 C 39.744785 27.487515 57.010739 0 CFG=1
M  V30 14 C 36.664608 35.799228 59.955053 0
M  V30 15 N 39.034073 26.331512 56.399263 0 CFG=2 CHG=1
M  V30 16 C 40.181172 28.728830 62.214551 0
M  V30 17 C 41.737146 33.490721 66.487595 0
M  V30 18 C 41.539081 34.554756 64.321225 0
M  V30 19 C 39.501073 29.968872 61.611004 0 CFG=1
M  V30 20 C 39.541359 30.037460 53.455661 0
M  V30 21 C 37.619825 34.209016 61.079527 0
M  V30 22 C 38.922243 29.626950 58.335848 0
M  V30 23 C 36.877581 28.324946 53.054710 0
M  V30 24 O 38.065582 30.482788 58.529344 0
M  V30 25 C 37.251708 29.361248 54.142923 0
M  V30 26 C 40.113119 33.571267 62.577804 0
M  V30 27 C 38.032719 32.717602 61.366011 0
M  V30 28 C 39.926742 25.191140 56.125774 0
M  V30 29 C 37.280714 36.498778 61.136761 0
M  V30 30 C 39.119194 29.651030 55.855381 0
M  V30 31 C 38.880401 27.606120 54.164257 0 CFG=2
M  V30 32 C 41.867383 35.607819 63.451551 0
M  V30 33 C 40.985128 28.407235 58.947847 0
M  V30 34 C 38.736213 29.139347 54.444762 0 CFG=2
M  V30 35 C 38.107928 27.451182 52.854088 0
M  V30 36 O 37.344471 31.791859 60.941913 0
M  V30 37 N 39.973105 29.441897 59.176234 0
M  V30 38 C 38.839810 28.744051 57.074232 0 CFG=1
M  V30 39 H 37.929294 25.717084 54.724652 0
M  V30 40 H 37.251832 27.042012 55.530456 0
M  V30 41 H 38.713463 30.856368 63.425626 0
M  V30 42 H 40.407933 31.101923 63.154373 0
M  V30 43 H 40.130852 34.636670 60.678698 0
M  V30 44 H 41.268576 30.481588 60.473038 0
M  V30 45 H 39.867293 31.342463 59.995007 0
M  V30 46 H 39.615178 26.732740 59.052233 0
M  V30 47 H 41.143906 26.389777 58.252682 0
M  V30 48 H 40.395985 32.726295 64.549165 0
M  V30 49 H 41.639426 36.427934 61.466228 0
M  V30 50 H 37.223961 32.957158 58.502792 0
M  V30 51 H 35.910802 34.024711 58.070646 0
M  V30 52 H 35.650932 32.829074 59.319674 0
M  V30 53 H 40.591911 27.716749 56.359981 0
M  V30 54 H 36.115798 36.343766 59.200568 0
M  V30 55 H 41.264901 28.840340 62.240553 0
M  V30 56 H 39.948977 27.829024 61.646078 0
M  V30 57 H 39.867910 28.562397 63.237763 0
M  V30 58 H 42.238515 33.653403 67.441108 0
M  V30 59 H 42.068013 32.525367 66.102133 0
M  V30 60 H 40.665651 33.457874 66.686922 0
M  V30 61 H 38.481574 29.683493 61.368073 0
M  V30 62 H 40.615659 30.021483 53.628951 0
M  V30 63 H 39.260417 31.085464 53.573361 0
M  V30 64 H 39.374324 29.800402 52.407211 0
M  V30 65 H 36.568052 28.784915 52.121452 0
M  V30 66 H 36.082310 27.654651 53.384385 0
M  V30 67 H 36.667282 29.221902 55.047442 0
M  V30 68 H 37.066860 30.392582 53.853891 0
M  V30 69 H 40.783830 25.519178 55.539305 0
M  V30 70 H 39.411259 24.421427 55.559771 0
M  V30 71 H 40.266800 24.722592 57.047892 0
M  V30 72 H 36.536758 36.982169 61.772273 0
M  V30 73 H 38.044729 37.215503 60.834335 0
M  V30 74 H 40.183467 29.891813 55.872505 0
M  V30 75 H 38.626137 30.617211 55.985521 0
M  V30 76 H 39.899029 27.283267 54.007145 0
M  V30 77 H 42.527091 36.397842 63.786744 0
M  V30 78 H 41.499197 28.156541 59.876285 0
M  V30 79 H 41.750394 28.801912 58.277295 0
M  V30 80 H 37.830029 26.421522 52.649157 0
M  V30 81 H 38.693842 27.787484 51.998687 0
M  V30 82 H 37.790503 28.454130 57.076978 0
M  V30 83 H 38.373379 26.001021 57.088515 0
M  V30 END ATOM
M  V30 BEGIN BOND
M  V30 1 1 8 2
M  V30 2 1 10 3
M  V30 3 1 12 11
M  V30 4 1 13 7
M  V30 5 2 14 12
M  V30 6 1 15 1
M  V30 7 1 15 13
M  V30 8 1 17 4
M  V30 9 1 18 4
M  V30 10 2 18 9
M  V30 11 1 19 2
M  V30 12 1 19 6
M  V30 13 1 19 16
M  V30 14 2 21 5
M  V30 15 1 21 12
M  V30 16 2 24 22
M  V30 17 1 25 23
M  V30 18 2 26 3
M  V30 19 1 26 8
M  V30 20 1 26 9
M  V30 21 1 27 8
M  V30 22 1 27 21
M  V30 23 1 28 15
M  V30 24 1 29 5
M  V30 25 1 29 14
M  V30 26 1 31 1
M  V30 27 2 32 10
M  V30 28 1 32 18
M  V30 29 1 33 7
M  V30 30 1 34 20 CFG=3
M  V30 31 1 34 25
M  V30 32 1 34 30
M  V30 33 1 34 31
M  V30 34 1 35 23
M  V30 35 1 35 31
M  V30 36 2 36 27
M  V30 37 1 37 6
M  V30 38 1 37 22
M  V30 39 1 37 33
M  V30 40 1 38 13
M  V30 41 1 38 22
M  V30 42 1 38 30
M  V30 43 1 39 1
M  V30 44 1 40 1
M  V30 45 1 41 2
M  V30 46 1 42 2
M  V30 47 1 43 3
M  V30 48 1 44 6
M  V30 49 1 45 6
M  V30 50 1 46 7
M  V30 51 1 47 7
M  V30 52 1 48 9
M  V30 53 1 49 10
M  V30 54 1 50 11
M  V30 55 1 51 11
M  V30 56 1 52 11
M  V30 57 1 13 53 CFG=3
M  V30 58 1 54 14
M  V30 59 1 55 16
M  V30 60 1 56 16
M  V30 61 1 57 16
M  V30 62 1 58 17
M  V30 63 1 59 17
M  V30 64 1 60 17
M  V30 65 1 19 61 CFG=3
M  V30 66 1 62 20
M  V30 67 1 63 20
M  V30 68 1 64 20
M  V30 69 1 65 23
M  V30 70 1 66 23
M  V30 71 1 67 25
M  V30 72 1 68 25
M  V30 73 1 69 28
M  V30 74 1 70 28
M  V30 75 1 71 28
M  V30 76 1 72 29
M  V30 77 1 73 29
M  V30 78 1 74 30
M  V30 79 1 75 30
M  V30 80 1 31 76 CFG=3
M  V30 81 1 77 32
M  V30 82 1 78 33
M  V30 83 1 79 33
M  V30 84 1 80 35
M  V30 85 1 81 35
M  V30 86 1 38 82 CFG=3
M  V30 87 1 15 83 CFG=1
M  V30 END BOND
M  V30 END CTAB
M  END
>  <i_epik_Tot_Q>  (1) 
1

>  <i_epik_Tot_abs_Q>  (1) 
1

>  <i_i_glide_confnum>  (1) 
352

>  <i_i_glide_lignum>  (1) 
59

>  <i_i_glide_posenum>  (1) 
72

>  <i_i_glide_rotatable_bonds>  (1) 
8

>  <i_lp_mmshare_version>  (1) 
72125

>  <i_m_source_file_index>  (1) 
24

>  <i_f3d_flags>  (1) 
0

>  <num_sample>  (1) 
100

>  <b_lp_Chiralities_Consistent>  (1) 
1

>  <r_epik_Charging_Adjusted_Penalty>  (1) 
0.0029773975431382485

>  <r_epik_Ionization_Penalty>  (1) 
0.013183626931022738

>  <r_epik_Ionization_Penalty_Charging>  (1) 
0.0029773975431382485

>  <r_epik_Ionization_Penalty_Neutral>  (1) 
0.010206229387884489

>  <r_epik_State_Penalty>  (1) 
-0

>  <r_glide_ring_energy>  (1) 
0

>  <r_i_docking_score>  (1) 
-8.1344703529416584

>  <r_i_glide_ecoul>  (1) 
-0.7269170435715846

>  <r_i_glide_eff_state_penalty>  (1) 
-0

>  <r_i_glide_einternal>  (1) 
9.1284425665816187

>  <r_i_glide_emodel>  (1) 
-57.191385544629028

>  <r_i_glide_emodel_strain>  (1) 
1.9480159580460565

>  <r_i_glide_energy>  (1) 
-45.452655808593775

>  <r_i_glide_erotb>  (1) 
0.5287100460970352

>  <r_i_glide_esite>  (1) 
0

>  <r_i_glide_evdw>  (1) 
-44.725738765022193

>  <r_i_glide_gscore>  (1) 
-8.1344703529416584

>  <r_i_glide_gscore_strain>  (1) 
0

>  <r_i_glide_hbond>  (1) 
0

>  <r_i_glide_ligand_efficiency>  (1) 
-0.21406500928793837

>  <r_i_glide_ligand_efficiency_ln>  (1) 
-1.754031099968089

>  <r_i_glide_ligand_efficiency_sa>  (1) 
-0.71968129668224068

>  <r_i_glide_lipo>  (1) 
-4.8012929310731058

>  <r_i_glide_metal>  (1) 
-0

>  <r_i_glide_rewards>  (1) 
-1.5165629731787416

>  <r_lp_Energy>  (1) 
98.080461999999997

>  <r_lp_tautomer_probability>  (1) 
1

>  <s_epik_Chemistry_Notes>  (1) 
This compound has an imine and may undergo hydrolysis.

>  <s_epik_cmdline>  (1) 
J2VwaWtfcHl0aG9uJywgJy1waHQnLCAnMS4wJywgJy1waCcsICc3LjQnLCAnLXRuJywgJzgnLCAnLW1hJywgJzUwMCcsICctaW1hZScsICc8aW5maWxlLm1hZT4nLCAnLW9tYWUnLCAnPG91dGZpbGUubWFlPic=

>  <s_epik_input>  (1) 
W0NIMl0xW0NIMl1bQ0gyXVtDQEBIXShbQ0BAXTEyW0NIM10pW0NIMl1OKFtDSDNdKVtDQEhdM1tDQEhdKFtDSDJdMilDKD1PKU4oW0NIMl1bQ0gyXTMpW0NIMl1bQ0BASF0oW0NIM10pW0NIMl1OKGMoW2NIXVtjSF1bY0hdNClbY0hdYzRPW0NIM10pQyg9TylDNT1OW0NIMl1bQ0hdPUM1W0NIM10=

>  <s_glide_docking_method>  (1) 
confgen

>  <s_i_glide_gridfile>  (1) 
gpcr_5ht2c_6bqh_protein_autoprepared_prepared

>  <s_lp_Force_Field>  (1) 
S-OPLS

>  <s_lp_Variant>  (1) 
DiffSBDD_23_num_sample_100-2

>  <s_m_source_file>  (1) 
generated__ligand_DiffSBDD_2026-05-06_prepared.sdf

>  <GenAI_Model>  (1) 
DiffSBDD

>  <Protein>  (1) 
GPCR_5HT2C

$$$$
DiffSBDD_15_num_sample_100
     RDKit          3D

  0  0  0  0  0  0  0  0  0  0999 V3000
M  V30 BEGIN CTAB
M  V30 COUNTS 74 79 0 0 1
M  V30 BEGIN ATOM
M  V30 1 C 38.463411 29.210381 58.435285 0
M  V30 2 S 38.063684 26.770472 55.082673 0
M  V30 3 N 41.045899 34.746895 62.514898 0
M  V30 4 C 39.944781 30.165463 49.906275 0
M  V30 5 C 38.996236 37.079511 62.026383 0
M  V30 6 C 42.482498 34.484480 65.094171 0
M  V30 7 S 40.353946 30.684381 62.526693 0
M  V30 8 S 38.796790 35.559842 61.053895 0
M  V30 9 O 39.340178 30.426321 63.547573 0
M  V30 10 C 39.420871 29.540479 52.799757 0
M  V30 11 C 39.262622 28.518645 51.943704 0
M  V30 12 C 38.767936 27.579114 56.552310 0 CFG=1
M  V30 13 C 41.605899 33.387661 64.520238 0 CFG=1
M  V30 14 N 39.039572 29.162105 54.055893 0
M  V30 15 C 38.252976 36.970836 63.370990 0
M  V30 16 C 39.166664 37.096362 64.595344 0
M  V30 17 C 41.512250 33.388698 62.978137 0 CFG=1
M  V30 18 C 41.175393 27.640151 58.657046 0
M  V30 19 S 39.596030 28.421424 50.269438 0
M  V30 20 C 39.929713 30.898414 52.505841 0
M  V30 21 N 39.639482 33.175799 61.775580 0
M  V30 22 C 39.001734 28.165120 59.433499 0 CFG=2
M  V30 23 N 42.054329 32.097497 65.010443 0
M  V30 24 O 37.467404 29.647789 56.365134 0
M  V30 25 C 40.500986 31.011530 51.064916 0
M  V30 26 C 39.586035 30.219607 60.916652 0
M  V30 27 C 37.796972 28.577431 57.223510 0 CFG=2
M  V30 28 N 40.534545 32.399651 62.362786 0
M  V30 29 C 39.928872 28.784704 60.467538 0 CFG=2
M  V30 30 C 40.756617 32.574999 65.455563 0
M  V30 31 C 39.975793 34.454795 61.875657 0
M  V30 32 C 41.305416 28.597260 59.842110 0
M  V30 33 O 41.688190 30.083132 62.653335 0
M  V30 34 C 38.652965 27.895012 53.868814 0
M  V30 35 N 39.809035 27.115957 58.773907 0 CFG=1 CHG=1
M  V30 36 O 38.762123 27.427519 52.589386 0
M  V30 37 C 39.223764 26.512707 57.554900 0
M  V30 38 H 39.282219 29.845416 58.091902 0
M  V30 39 H 37.747362 29.868316 58.928531 0
M  V30 40 H 40.648566 30.175363 49.076165 0
M  V30 41 H 39.067412 30.684182 49.552526 0
M  V30 42 H 40.056369 37.300638 62.162305 0
M  V30 43 H 38.583180 37.907681 61.448968 0
M  V30 44 H 42.066177 35.469239 64.885126 0
M  V30 45 H 42.577780 34.384917 66.174841 0
M  V30 46 H 43.468924 34.432482 64.653548 0
M  V30 47 H 39.662999 28.113572 56.242198 0
M  V30 48 H 37.457570 37.711846 63.412846 0
M  V30 49 H 37.729113 36.021650 63.432108 0
M  V30 50 H 38.583453 37.083355 65.517397 0
M  V30 51 H 39.875224 36.270291 64.637863 0
M  V30 52 H 39.739011 38.021299 64.574272 0
M  V30 53 H 42.503815 33.182183 62.570921 0
M  V30 54 H 41.302006 28.194936 57.727964 0
M  V30 55 H 41.922156 26.845463 58.653641 0
M  V30 56 H 39.126911 31.620262 52.653455 0
M  V30 57 H 40.688645 31.187813 53.232452 0
M  V30 58 H 38.818077 32.812194 61.314262 0
M  V30 59 H 38.219833 27.665006 59.974354 0
M  V30 60 H 42.801827 32.089196 65.688386 0
M  V30 61 H 36.789259 30.198803 56.744014 0
M  V30 62 H 41.581956 30.883838 51.053763 0
M  V30 63 H 40.267501 32.021431 50.759041 0
M  V30 64 H 39.867824 30.953247 60.166408 0
M  V30 65 H 38.511321 30.322585 61.070937 0
M  V30 66 H 36.893125 28.066028 57.546068 0
M  V30 67 H 39.871378 28.148243 61.354597 0
M  V30 68 H 40.677513 32.893836 66.492574 0
M  V30 69 H 39.867339 32.109236 65.061797 0
M  V30 70 H 41.749201 29.526226 59.486528 0
M  V30 71 H 41.867433 28.145413 60.643638 0
M  V30 72 H 39.955417 25.843454 57.097353 0
M  V30 73 H 38.374155 25.894742 57.849158 0
M  V30 74 H 39.880503 26.368819 59.450375 0
M  V30 END ATOM
M  V30 BEGIN BOND
M  V30 1 1 8 5
M  V30 2 2 9 7
M  V30 3 2 11 10
M  V30 4 1 12 2
M  V30 5 1 13 6 CFG=1
M  V30 6 1 14 10
M  V30 7 1 15 5
M  V30 8 1 16 15
M  V30 9 1 17 3
M  V30 10 1 17 13
M  V30 11 1 19 4
M  V30 12 1 19 11
M  V30 13 1 20 10
M  V30 14 1 22 1
M  V30 15 1 23 13
M  V30 16 1 25 4
M  V30 17 1 25 20
M  V30 18 1 26 7
M  V30 19 1 27 1
M  V30 20 1 27 12
M  V30 21 1 27 24
M  V30 22 1 28 7
M  V30 23 1 28 17
M  V30 24 1 28 21
M  V30 25 1 29 22
M  V30 26 1 29 26
M  V30 27 1 30 13
M  V30 28 1 30 23
M  V30 29 2 31 3
M  V30 30 1 31 8
M  V30 31 1 31 21
M  V30 32 1 32 18
M  V30 33 1 32 29
M  V30 34 2 33 7
M  V30 35 1 34 2
M  V30 36 2 34 14
M  V30 37 1 35 18
M  V30 38 1 35 22
M  V30 39 1 36 11
M  V30 40 1 36 34
M  V30 41 1 37 12
M  V30 42 1 37 35
M  V30 43 1 38 1
M  V30 44 1 39 1
M  V30 45 1 40 4
M  V30 46 1 41 4
M  V30 47 1 42 5
M  V30 48 1 43 5
M  V30 49 1 44 6
M  V30 50 1 45 6
M  V30 51 1 46 6
M  V30 52 1 12 47 CFG=3
M  V30 53 1 48 15
M  V30 54 1 49 15
M  V30 55 1 50 16
M  V30 56 1 51 16
M  V30 57 1 52 16
M  V30 58 1 17 53 CFG=3
M  V30 59 1 54 18
M  V30 60 1 55 18
M  V30 61 1 56 20
M  V30 62 1 57 20
M  V30 63 1 58 21
M  V30 64 1 22 59 CFG=1
M  V30 65 1 60 23
M  V30 66 1 61 24
M  V30 67 1 62 25
M  V30 68 1 63 25
M  V30 69 1 64 26
M  V30 70 1 65 26
M  V30 71 1 27 66 CFG=1
M  V30 72 1 29 67 CFG=1
M  V30 73 1 68 30
M  V30 74 1 69 30
M  V30 75 1 70 32
M  V30 76 1 71 32
M  V30 77 1 72 37
M  V30 78 1 73 37
M  V30 79 1 35 74 CFG=1
M  V30 END BOND
M  V30 END CTAB
M  END
>  <i_epik_Tot_Q>  (1) 
1

>  <i_epik_Tot_abs_Q>  (1) 
1

>  <i_i_glide_confnum>  (1) 
43

>  <i_i_glide_lignum>  (1) 
36

>  <i_i_glide_posenum>  (1) 
375

>  <i_i_glide_rotatable_bonds>  (1) 
10

>  <i_lp_mmshare_version>  (1) 
72125

>  <i_m_source_file_index>  (1) 
16

>  <i_f3d_flags>  (1) 
0

>  <num_sample>  (1) 
100

>  <b_lp_Chiralities_Consistent>  (1) 
1

>  <r_epik_Charging_Adjusted_Penalty>  (1) 
0.0082019649409003706

>  <r_epik_Ionization_Penalty>  (1) 
0.015626865898487191

>  <r_epik_Ionization_Penalty_Charging>  (1) 
0.0082019649409003706

>  <r_epik_Ionization_Penalty_Neutral>  (1) 
0.0074249009575868222

>  <r_epik_State_Penalty>  (1) 
-0

>  <r_glide_ring_energy>  (1) 
0

>  <r_i_docking_score>  (1) 
-8.1304682702370705

>  <r_i_glide_ecoul>  (1) 
-2.3109187468808141

>  <r_i_glide_eff_state_penalty>  (1) 
-0

>  <r_i_glide_einternal>  (1) 
9.9096318465854765

>  <r_i_glide_emodel>  (1) 
-58.847726710525833

>  <r_i_glide_emodel_strain>  (1) 
8.3528728690427698

>  <r_i_glide_energy>  (1) 
-46.921752447294459

>  <r_i_glide_erotb>  (1) 
0.37349522713264072

>  <r_i_glide_esite>  (1) 
-0.076091775003172782

>  <r_i_glide_evdw>  (1) 
-44.610833700413643

>  <r_i_glide_gscore>  (1) 
-8.1304682702370705

>  <r_i_glide_gscore_strain>  (1) 
1.0882182172606925

>  <r_i_glide_hbond>  (1) 
-0.10262593759288241

>  <r_i_glide_ligand_efficiency>  (1) 
-0.21974238568208299

>  <r_i_glide_ligand_efficiency_ln>  (1) 
-1.763307962594912

>  <r_i_glide_ligand_efficiency_sa>  (1) 
-0.73223037930264989

>  <r_i_glide_lipo>  (1) 
-5.2052161951858462

>  <r_i_glide_metal>  (1) 
-0

>  <r_i_glide_rewards>  (1) 
-1.6310683097956986

>  <r_lp_Energy>  (1) 
12.858018

>  <r_lp_tautomer_probability>  (1) 
1

>  <s_epik_Chemistry_Notes>  (1) 
This compound has an imine and may undergo hydrolysis. This compound contains an acetal/aminal-like group ( X-CH(R)-Y where X, Y are N, S, or O) that may be acid/base labile, releasing an aldehyde.

>  <s_epik_cmdline>  (1) 
J2VwaWtfcHl0aG9uJywgJy1waHQnLCAnMS4wJywgJy1waCcsICc3LjQnLCAnLXRuJywgJzgnLCAnLW1hJywgJzUwMCcsICctaW1hZScsICc8aW5maWxlLm1hZT4nLCAnLW9tYWUnLCAnPG91dGZpbGUubWFlPic=

>  <s_epik_input>  (1) 
W0NIMl0xW0NIMl1bQ0gyXVNjKGMxMilvYyhuMilTW0NAQEhdKFtDQEBIXShbQ0gyXTMpW09IXSlbQ0gyXU4oW0NASF0zNClbQ0gyXVtDSDJdW0NASF00W0NIMl1TKD1PKSg9TylONVtOSF1DKFNbQ0gyXVtDSDJdW0NIM10pPU5bQ0BASF01W0NAXTYoW0NIM10pW05IXVtDSDJdNg==

>  <s_glide_docking_method>  (1) 
confgen

>  <s_i_glide_gridfile>  (1) 
gpcr_5ht2c_6bqh_protein_autoprepared_prepared

>  <s_lp_Force_Field>  (1) 
S-OPLS

>  <s_lp_Variant>  (1) 
DiffSBDD_15_num_sample_100-3

>  <s_m_source_file>  (1) 
generated__ligand_DiffSBDD_2026-05-06_prepared.sdf

>  <GenAI_Model>  (1) 
DiffSBDD

>  <Protein>  (1) 
GPCR_5HT2C

$$$$
DiffSBDD_80_num_sample_100
     RDKit          3D

  0  0  0  0  0  0  0  0  0  0999 V3000
M  V30 BEGIN CTAB
M  V30 COUNTS 73 76 0 0 1
M  V30 BEGIN ATOM
M  V30 1 C 39.440030 27.867296 59.599304 0
M  V30 2 C 37.407456 30.743798 60.054229 0
M  V30 3 N 37.339892 32.215608 59.864448 0 CFG=2 CHG=1
M  V30 4 O 39.446202 28.736735 55.877200 0
M  V30 5 O 37.879704 31.138632 57.198726 0
M  V30 6 O 40.667008 28.347697 60.102215 0
M  V30 7 C 36.911830 35.122249 60.194659 0 CFG=2
M  V30 8 C 38.281337 34.456792 60.570718 0 CFG=1
M  V30 9 C 39.449134 27.978637 51.076801 0
M  V30 10 C 38.975175 26.616244 55.138595 0
M  V30 11 O 39.475028 30.808489 54.163596 0
M  V30 12 C 39.467299 29.875934 53.166264 0
M  V30 13 O 41.476205 32.782860 62.089452 0
M  V30 14 C 39.049333 27.596755 52.371633 0
M  V30 15 C 40.591344 34.971244 61.654760 0
M  V30 16 C 39.867446 30.246468 51.866385 0
M  V30 17 O 39.867390 25.466924 57.057519 0
M  V30 18 C 36.091098 34.223974 59.246530 0
M  V30 19 O 40.267230 29.660298 49.575842 0
M  V30 20 C 39.081123 35.156986 61.693231 0
M  V30 21 C 39.866781 29.298262 50.827067 0
M  V30 22 C 39.645553 27.915976 57.028915 0 CFG=1
M  V30 23 C 36.762785 29.916157 58.938802 0 CFG=2
M  V30 24 C 39.074659 28.605996 58.298754 0 CFG=1
M  V30 25 C 38.118635 32.951037 60.895643 0
M  V30 26 C 39.052345 26.546540 56.649442 0 CFG=1
M  V30 27 C 41.046571 33.832784 62.565221 0
M  V30 28 C 37.572682 28.845396 58.207883 0 CFG=2
M  V30 29 C 38.491569 35.893140 62.653499 0
M  V30 30 C 37.339182 37.523124 60.123740 0
M  V30 31 C 37.056303 30.023362 57.449428 0 CFG=2
M  V30 32 C 38.679326 28.095719 54.853923 0 CFG=2
M  V30 33 C 39.067382 28.536041 53.429907 0
M  V30 34 C 35.977769 32.780601 59.750591 0
M  V30 35 O 37.084324 36.313524 59.429431 0
M  V30 36 H 38.686198 28.023559 60.371282 0
M  V30 37 H 39.502454 26.792394 59.443318 0
M  V30 38 H 36.938822 30.475152 61.001383 0
M  V30 39 H 38.455997 30.467379 60.143430 0
M  V30 40 H 37.311186 31.753338 56.742422 0
M  V30 41 H 40.572299 29.260955 60.319430 0
M  V30 42 H 36.288705 35.300802 61.069842 0
M  V30 43 H 38.896493 34.496876 59.674026 0
M  V30 44 H 39.441916 27.252806 50.275880 0
M  V30 45 H 39.989061 29.048395 48.911865 0
M  V30 46 H 38.230239 25.937554 54.721177 0
M  V30 47 H 39.948329 26.351202 54.719417 0
M  V30 48 H 39.752690 31.665678 53.879089 0
M  V30 49 H 38.740326 26.579806 52.555565 0
M  V30 50 H 40.942317 34.821450 60.641355 0
M  V30 51 H 41.065056 35.886827 62.010425 0
M  V30 52 H 40.181298 31.261666 51.667218 0
M  V30 53 H 40.745396 25.603886 56.724574 0
M  V30 54 H 36.554640 34.212724 58.257804 0
M  V30 55 H 35.096374 34.648486 59.104080 0
M  V30 56 H 40.728121 27.824197 57.137862 0
M  V30 57 H 35.724330 29.673269 59.153869 0
M  V30 58 H 39.546375 29.588153 58.340698 0
M  V30 59 H 37.640936 32.825973 61.869008 0
M  V30 60 H 39.103474 32.492891 60.969200 0
M  V30 61 H 38.051217 26.397134 57.046027 0
M  V30 62 H 40.963477 34.021751 63.635801 0
M  V30 63 H 37.009565 27.930298 58.066167 0
M  V30 64 H 39.079407 36.371797 63.424244 0
M  V30 65 H 37.422319 36.027125 62.684275 0
M  V30 66 H 37.467409 38.327569 59.400934 0
M  V30 67 H 36.518897 37.780240 60.794905 0
M  V30 68 H 38.267722 37.497325 60.682425 0
M  V30 69 H 36.268291 29.879690 56.716247 0
M  V30 70 H 37.623370 28.308577 55.025153 0
M  V30 71 H 35.374472 32.201656 59.053670 0
M  V30 72 H 35.466784 32.742288 60.714114 0
M  V30 73 H 37.782336 32.371662 58.965565 0
M  V30 END ATOM
M  V30 BEGIN BOND
M  V30 1 1 3 2
M  V30 2 1 6 1
M  V30 3 1 8 7
M  V30 4 1 12 11
M  V30 5 2 14 9
M  V30 6 1 16 12
M  V30 7 1 18 7
M  V30 8 1 20 8
M  V30 9 1 20 15
M  V30 10 1 21 9
M  V30 11 2 21 16
M  V30 12 1 21 19
M  V30 13 1 22 4
M  V30 14 1 23 2
M  V30 15 1 24 1
M  V30 16 1 24 22
M  V30 17 1 25 3
M  V30 18 1 25 8
M  V30 19 1 26 10
M  V30 20 1 26 17
M  V30 21 1 26 22
M  V30 22 2 27 13
M  V30 23 1 27 15
M  V30 24 1 28 23
M  V30 25 1 28 24
M  V30 26 2 29 20
M  V30 27 1 31 5
M  V30 28 1 31 23
M  V30 29 1 31 28
M  V30 30 1 32 4
M  V30 31 1 32 10
M  V30 32 2 33 12
M  V30 33 1 33 14
M  V30 34 1 33 32
M  V30 35 1 34 3
M  V30 36 1 34 18
M  V30 37 1 35 7
M  V30 38 1 35 30
M  V30 39 1 36 1
M  V30 40 1 37 1
M  V30 41 1 38 2
M  V30 42 1 39 2
M  V30 43 1 40 5
M  V30 44 1 41 6
M  V30 45 1 7 42 CFG=1
M  V30 46 1 8 43 CFG=3
M  V30 47 1 44 9
M  V30 48 1 45 19
M  V30 49 1 46 10
M  V30 50 1 47 10
M  V30 51 1 48 11
M  V30 52 1 49 14
M  V30 53 1 50 15
M  V30 54 1 51 15
M  V30 55 1 52 16
M  V30 56 1 53 17
M  V30 57 1 54 18
M  V30 58 1 55 18
M  V30 59 1 22 56 CFG=1
M  V30 60 1 23 57 CFG=3
M  V30 61 1 24 58 CFG=1
M  V30 62 1 59 25
M  V30 63 1 60 25
M  V30 64 1 26 61 CFG=1
M  V30 65 1 62 27
M  V30 66 1 28 63 CFG=3
M  V30 67 1 64 29
M  V30 68 1 65 29
M  V30 69 1 66 30
M  V30 70 1 67 30
M  V30 71 1 68 30
M  V30 72 1 31 69 CFG=3
M  V30 73 1 32 70 CFG=1
M  V30 74 1 71 34
M  V30 75 1 72 34
M  V30 76 1 3 73 CFG=3
M  V30 END BOND
M  V30 END CTAB
M  END
>  <i_epik_Tot_Q>  (1) 
1

>  <i_epik_Tot_abs_Q>  (1) 
1

>  <i_i_glide_confnum>  (1) 
1269

>  <i_i_glide_lignum>  (1) 
207

>  <i_i_glide_posenum>  (1) 
327

>  <i_i_glide_rotatable_bonds>  (1) 
15

>  <i_lp_mmshare_version>  (1) 
72125

>  <i_m_source_file_index>  (1) 
81

>  <i_f3d_flags>  (1) 
0

>  <num_sample>  (1) 
100

>  <b_lp_Chiralities_Consistent>  (1) 
1

>  <r_epik_Charging_Adjusted_Penalty>  (1) 
0.034071705691259377

>  <r_epik_Ionization_Penalty>  (1) 
0.043305258844254187

>  <r_epik_Ionization_Penalty_Charging>  (1) 
0.034071705691259377

>  <r_epik_Ionization_Penalty_Neutral>  (1) 
0.009233553152994808

>  <r_epik_State_Penalty>  (1) 
-0

>  <r_glide_ring_energy>  (1) 
0

>  <r_i_docking_score>  (1) 
-8.1152691159448285

>  <r_i_glide_ecoul>  (1) 
-4.9799578752044109

>  <r_i_glide_eff_state_penalty>  (1) 
-0

>  <r_i_glide_einternal>  (1) 
20.486811172692281

>  <r_i_glide_emodel>  (1) 
-74.967827550366195

>  <r_i_glide_emodel_strain>  (1) 
2.6301122102020571

>  <r_i_glide_energy>  (1) 
-54.822330022346193

>  <r_i_glide_erotb>  (1) 
0.67144220787932085

>  <r_i_glide_esite>  (1) 
-0.042136240753080055

>  <r_i_glide_evdw>  (1) 
-49.842372147141781

>  <r_i_glide_gscore>  (1) 
-8.1152691159448285

>  <r_i_glide_gscore_strain>  (1) 
0

>  <r_i_glide_hbond>  (1) 
-0.25512254342360835

>  <r_i_glide_ligand_efficiency>  (1) 
-0.23186483188413795

>  <r_i_glide_ligand_efficiency_ln>  (1) 
-1.7814816796439186

>  <r_i_glide_ligand_efficiency_sa>  (1) 
-0.75844524009374492

>  <r_i_glide_lipo>  (1) 
-4.2937236212549958

>  <r_i_glide_metal>  (1) 
-0

>  <r_i_glide_rewards>  (1) 
-0.95661662975471351

>  <r_lp_Energy>  (1) 
41.479424999999999

>  <r_lp_tautomer_probability>  (1) 
1

>  <s_epik_cmdline>  (1) 
J2VwaWtfcHl0aG9uJywgJy1waHQnLCAnMS4wJywgJy1waCcsICc3LjQnLCAnLXRuJywgJzgnLCAnLW1hJywgJzUwMCcsICctaW1hZScsICc8aW5maWxlLm1hZT4nLCAnLW9tYWUnLCAnPG91dGZpbGUubWFlPic=

>  <s_epik_input>  (1) 
Tz1bQ0hdW0NIMl1DKD1bQ0gyXSlbQ0BASF0oW0NASF0oW0NIMl1bQ0gyXTEpT1tDSDNdKVtDSDJdTjFbQ0gyXVtDQEBIXTJbQ0BASF0oW0NAQEhdMltPSF0pW0NAQEhdKFtDSDJdW09IXSlbQ0BASF0zT1tDQEhdKFtDSDJdW0NASF0zW09IXSlDND1bQ0hdW0NIMl1DKD1PKVtDSF09QzRbT0hd

>  <s_glide_docking_method>  (1) 
confgen

>  <s_i_glide_gridfile>  (1) 
gpcr_5ht2c_6bqh_protein_autoprepared_prepared

>  <s_lp_Force_Field>  (1) 
S-OPLS

>  <s_lp_Variant>  (1) 
DiffSBDD_80_num_sample_100-3

>  <s_m_source_file>  (1) 
generated__ligand_DiffSBDD_2026-05-06_prepared.sdf

>  <GenAI_Model>  (1) 
DiffSBDD

>  <Protein>  (1) 
GPCR_5HT2C

$$$$
DiffSBDD_77_num_sample_100
     RDKit          3D

  0  0  0  0  0  0  0  0  0  0999 V3000
M  V30 BEGIN CTAB
M  V30 COUNTS 77 79 0 0 1
M  V30 BEGIN ATOM
M  V30 1 C 38.531397 28.030924 52.231753 0
M  V30 2 F 40.830458 30.869712 51.853436 0
M  V30 3 C 41.289416 34.395484 62.337061 0
M  V30 4 C 37.801609 28.435746 53.365938 0
M  V30 5 C 42.602398 29.999061 64.296290 0
M  V30 6 C 38.357197 31.273255 57.264215 0
M  V30 7 C 38.206212 31.904410 61.778380 0
M  V30 8 C 38.852241 30.547236 59.745076 0 CFG=2
M  V30 9 O 40.513168 30.302757 62.681676 0
M  V30 10 C 43.760471 29.364020 65.099751 0
M  V30 11 N 39.071149 26.385727 56.361452 0
M  V30 12 C 37.287328 30.115967 55.213849 0
M  V30 13 C 39.861026 30.072977 52.355926 0
M  V30 14 O 39.117221 36.097214 61.830948 0
M  V30 15 C 38.943751 34.783042 61.342347 0
M  V30 16 C 38.105500 29.659537 54.005711 0
M  V30 17 F 40.251229 28.462771 50.627119 0
M  V30 18 C 39.692217 28.862963 57.970546 0
M  V30 19 O 37.417321 24.838640 56.309696 0
M  V30 20 O 36.667391 31.298302 59.053506 0
M  V30 21 C 39.558124 28.849149 51.725132 0
M  V30 22 C 44.044605 31.560377 66.299949 0
M  V30 23 N 41.326333 32.130156 63.784344 0
M  V30 24 C 38.198824 27.512132 56.657312 0
M  V30 25 C 39.141157 30.474827 53.501573 0
M  V30 26 C 39.920062 33.791917 61.989884 0
M  V30 27 C 38.605605 25.140477 56.208108 0
M  V30 28 C 43.002683 32.205698 65.514486 0
M  V30 29 C 38.933122 29.075677 59.297889 0
M  V30 30 F 44.687145 32.278862 67.236629 0
M  V30 31 C 42.668480 33.675389 65.747637 0
M  V30 32 C 37.865093 29.928893 56.655912 0 CFG=1
M  V30 33 C 40.510205 31.515675 62.882648 0
M  V30 34 N 38.266547 30.588892 61.101075 0 CHG=1
M  V30 35 C 39.569263 32.466425 62.212204 0
M  V30 36 C 42.333751 31.491764 64.577994 0
M  V30 37 C 44.396614 30.278540 66.122957 0
M  V30 38 C 38.051866 31.453380 58.772592 0 CFG=2
M  V30 39 N 38.840829 28.825170 56.772573 0
M  V30 40 H 38.295472 27.096391 51.742636 0
M  V30 41 H 41.498392 35.243157 61.684449 0
M  V30 42 H 41.320313 34.769922 63.360793 0
M  V30 43 H 42.114165 33.710102 62.135799 0
M  V30 44 H 37.002899 27.812610 53.739768 0
M  V30 45 H 41.710170 29.425411 64.549485 0
M  V30 46 H 42.827816 29.849838 63.240195 0
M  V30 47 H 39.414741 31.433838 57.053368 0
M  V30 48 H 37.861328 32.103890 56.762234 0
M  V30 49 H 37.595144 31.770211 62.663469 0
M  V30 50 H 37.631380 32.572880 61.149566 0
M  V30 51 H 39.867312 30.917541 59.853517 0
M  V30 52 H 44.544151 29.027608 64.418848 0
M  V30 53 H 43.404291 28.472682 65.617716 0
M  V30 54 H 40.059686 26.562217 56.262597 0
M  V30 55 H 36.320707 29.621611 55.162064 0
M  V30 56 H 37.022092 31.159716 55.041060 0
M  V30 57 H 39.939896 36.436519 61.510753 0
M  V30 58 H 37.903153 34.551652 61.557315 0
M  V30 59 H 39.077560 34.782124 60.259760 0
M  V30 60 H 40.458376 29.626489 57.853514 0
M  V30 61 H 40.257138 27.932414 58.030280 0
M  V30 62 H 36.152416 31.621390 58.305312 0
M  V30 63 H 41.211020 33.122819 63.927343 0
M  V30 64 H 37.619645 27.289616 57.554064 0
M  V30 65 H 37.467585 27.532475 55.857143 0
M  V30 66 H 39.370201 31.416611 53.979652 0
M  V30 67 H 39.419505 24.435371 55.981460 0
M  V30 68 H 39.473690 28.522101 60.066947 0
M  V30 69 H 37.937081 28.635809 59.272169 0
M  V30 70 H 43.067321 34.026289 66.697611 0
M  V30 71 H 43.077744 34.299304 64.953225 0
M  V30 72 H 41.590039 33.831533 65.794522 0
M  V30 73 H 37.002079 29.641087 57.257123 0
M  V30 74 H 38.782212 29.952186 61.698636 0
M  V30 75 H 45.180836 29.851259 66.730949 0
M  V30 76 H 38.294765 32.491325 59.002044 0
M  V30 77 H 37.317795 30.260968 60.982400 0
M  V30 END ATOM
M  V30 BEGIN BOND
M  V30 1 2 4 1
M  V30 2 1 10 5
M  V30 3 1 13 2
M  V30 4 1 15 14
M  V30 5 1 16 4
M  V30 6 1 16 12
M  V30 7 1 21 1
M  V30 8 2 21 13
M  V30 9 1 21 17
M  V30 10 1 24 11
M  V30 11 1 25 13
M  V30 12 2 25 16
M  V30 13 1 26 3
M  V30 14 1 26 15
M  V30 15 1 27 11
M  V30 16 2 27 19
M  V30 17 1 28 22
M  V30 18 1 29 8
M  V30 19 1 29 18
M  V30 20 1 30 22
M  V30 21 1 31 28
M  V30 22 1 32 6
M  V30 23 1 32 12
M  V30 24 2 33 9
M  V30 25 1 33 23
M  V30 26 1 34 7
M  V30 27 1 34 8
M  V30 28 1 35 7
M  V30 29 2 35 26
M  V30 30 1 35 33
M  V30 31 1 36 5
M  V30 32 1 36 23
M  V30 33 2 36 28
M  V30 34 1 37 10
M  V30 35 2 37 22
M  V30 36 1 38 6
M  V30 37 1 38 8
M  V30 38 1 38 20
M  V30 39 1 39 18
M  V30 40 1 39 24
M  V30 41 1 39 32
M  V30 42 1 40 1
M  V30 43 1 41 3
M  V30 44 1 42 3
M  V30 45 1 43 3
M  V30 46 1 44 4
M  V30 47 1 45 5
M  V30 48 1 46 5
M  V30 49 1 47 6
M  V30 50 1 48 6
M  V30 51 1 49 7
M  V30 52 1 50 7
M  V30 53 1 8 51 CFG=1
M  V30 54 1 52 10
M  V30 55 1 53 10
M  V30 56 1 54 11
M  V30 57 1 55 12
M  V30 58 1 56 12
M  V30 59 1 57 14
M  V30 60 1 58 15
M  V30 61 1 59 15
M  V30 62 1 60 18
M  V30 63 1 61 18
M  V30 64 1 62 20
M  V30 65 1 63 23
M  V30 66 1 64 24
M  V30 67 1 65 24
M  V30 68 1 66 25
M  V30 69 1 67 27
M  V30 70 1 68 29
M  V30 71 1 69 29
M  V30 72 1 70 31
M  V30 73 1 71 31
M  V30 74 1 72 31
M  V30 75 1 32 73 CFG=1
M  V30 76 1 74 34
M  V30 77 1 75 37
M  V30 78 1 38 76 CFG=1
M  V30 79 1 77 34
M  V30 END BOND
M  V30 END CTAB
M  END
>  <i_epik_Tot_Q>  (1) 
1

>  <i_epik_Tot_abs_Q>  (1) 
1

>  <i_i_glide_confnum>  (1) 
711

>  <i_i_glide_lignum>  (1) 
193

>  <i_i_glide_posenum>  (1) 
61

>  <i_i_glide_rotatable_bonds>  (1) 
14

>  <i_lp_mmshare_version>  (1) 
72125

>  <i_m_source_file_index>  (1) 
78

>  <i_f3d_flags>  (1) 
0

>  <num_sample>  (1) 
100

>  <b_lp_Chiralities_Consistent>  (1) 
1

>  <r_epik_Charging_Adjusted_Penalty>  (1) 
1.1871079539409661

>  <r_epik_Ionization_Penalty>  (1) 
0.55718335861310397

>  <r_epik_Ionization_Penalty_Charging>  (1) 
0.49341796909107616

>  <r_epik_Ionization_Penalty_Neutral>  (1) 
0.063765389522027774

>  <r_epik_State_Penalty>  (1) 
0.69368998484988997

>  <r_glide_ring_energy>  (1) 
0

>  <r_i_docking_score>  (1) 
-8.1068213996153453

>  <r_i_glide_ecoul>  (1) 
-5.3276060169069517

>  <r_i_glide_eff_state_penalty>  (1) 
0.69368998484988997

>  <r_i_glide_einternal>  (1) 
19.307942174397489

>  <r_i_glide_emodel>  (1) 
-76.183289336963426

>  <r_i_glide_emodel_strain>  (1) 
1.4016498299906175

>  <r_i_glide_energy>  (1) 
-55.140992911056046

>  <r_i_glide_erotb>  (1) 
0.67934156738045093

>  <r_i_glide_esite>  (1) 
-0.002222228892766763

>  <r_i_glide_evdw>  (1) 
-49.813386894149097

>  <r_i_glide_gscore>  (1) 
-8.800511384465235

>  <r_i_glide_gscore_strain>  (1) 
0

>  <r_i_glide_hbond>  (1) 
-0.16

>  <r_i_glide_ligand_efficiency>  (1) 
-0.20786721537475245

>  <r_i_glide_ligand_efficiency_ln>  (1) 
-1.7383326338879443

>  <r_i_glide_ligand_efficiency_sa>  (1) 
-0.70492167940635087

>  <r_i_glide_lipo>  (1) 
-4.0059651180651246

>  <r_i_glide_metal>  (1) 
-0

>  <r_i_glide_rewards>  (1) 
-2.0218553576442964

>  <r_lp_Energy>  (1) 
42.462567

>  <s_epik_Chemistry_Notes>  (1) 
This compound contains an acetal/aminal-like group ( X-CH(R)-Y where X, Y are N, S, or O) that may be acid/base labile, releasing an aldehyde.

>  <s_epik_cmdline>  (1) 
J2VwaWtfcHl0aG9uJywgJy1waHQnLCAnMS4wJywgJy1waCcsICc3LjQnLCAnLXRuJywgJzgnLCAnLW1hJywgJzUwMCcsICctaW1hZScsICc8aW5maWxlLm1hZT4nLCAnLW9tYWUnLCAnPG91dGZpbGUubWFlPic=

>  <s_epik_input>  (1) 
RmMxYyhGKVtjSF1bY0hdYyhbY0hdMSlbQ0gyXVtDQEhdKFtDSDJdW0NASF0yW09IXSlOKFtDSDJdW05IXVtDSF09TylbQ0gyXVtDSDJdW0NAQEhdMltOSF1bQ0gyXVxDKD1DKFxbQ0gzXSlbQ0gyXVtPSF0pQyg9TylbTkhdQyg9QzNbQ0gzXSlbQ0gyXVtDSDJdW0NIXT1DM0Y=

>  <s_glide_docking_method>  (1) 
confgen

>  <s_i_glide_gridfile>  (1) 
gpcr_5ht2c_6bqh_protein_autoprepared_prepared

>  <s_lp_Force_Field>  (1) 
S-OPLS

>  <s_lp_Variant>  (1) 
DiffSBDD_77_num_sample_100-4

>  <s_m_source_file>  (1) 
generated__ligand_DiffSBDD_2026-05-06_prepared.sdf

>  <GenAI_Model>  (1) 
DiffSBDD

>  <Protein>  (1) 
GPCR_5HT2C

$$$$
DiffSBDD_19_num_sample_100
     RDKit          3D

  0  0  0  0  0  0  0  0  0  0999 V3000
M  V30 BEGIN CTAB
M  V30 COUNTS 71 72 0 0 1
M  V30 BEGIN ATOM
M  V30 1 C 38.949605 29.954671 56.567799 0
M  V30 2 C 38.181108 32.332356 60.038723 0
M  V30 3 C 39.938235 30.033941 54.254599 0
M  V30 4 C 39.555450 27.203418 53.112507 0
M  V30 5 O 38.424960 30.021423 60.461643 0
M  V30 6 C 37.870536 25.725626 57.642799 0
M  V30 7 C 39.233077 28.457628 52.274650 0 CFG=2
M  V30 8 C 40.332966 36.114989 62.770718 0
M  V30 9 C 40.335327 35.216351 61.587563 0
M  V30 10 C 40.267440 30.722351 51.868676 0
M  V30 11 C 39.373188 36.963977 63.140489 0
M  V30 12 C 39.474676 28.148139 50.764719 0
M  V30 13 C 39.868425 29.346125 49.927371 0
M  V30 14 O 36.435220 30.421628 54.653495 0
M  V30 15 O 37.975316 32.008261 54.407146 0 CHG=-1
M  V30 16 O 41.497799 36.021371 63.427292 0
M  V30 17 C 40.232205 30.514352 50.451298 0
M  V30 18 N 37.741302 29.613987 57.358738 0 CFG=1 CHG=1
M  V30 19 C 38.462807 30.961662 59.415304 0 CFG=1
M  V30 20 C 38.074288 37.135159 62.490915 0
M  V30 21 C 39.385824 33.024023 60.707639 0 CFG=1
M  V30 22 C 37.433281 36.281816 61.655261 0
M  V30 23 C 37.693344 28.239421 57.922102 0
M  V30 24 C 38.667395 29.846103 55.064259 0 CFG=2
M  V30 25 C 37.603684 30.844141 54.669639 0
M  V30 26 C 37.384636 30.652241 58.352478 0
M  V30 27 C 39.844417 29.799068 52.742120 0
M  V30 28 C 37.859013 34.958454 61.201097 0
M  V30 29 C 38.412297 24.566780 56.805505 0
M  V30 30 C 39.111241 34.447544 61.197261 0
M  V30 31 C 38.068565 27.090446 56.969175 0
M  V30 32 O 39.828811 32.234736 61.793015 0
M  V30 33 H 39.272218 30.978793 56.761705 0
M  V30 34 H 39.789264 29.325630 56.867335 0
M  V30 35 H 37.344375 32.230764 60.732176 0
M  V30 36 H 37.842287 32.997909 59.243748 0
M  V30 37 H 40.334491 31.036621 54.428421 0
M  V30 38 H 40.667296 29.399410 54.727754 0
M  V30 39 H 39.464379 27.336635 54.185754 0
M  V30 40 H 38.853088 26.421140 52.839551 0
M  V30 41 H 40.557574 26.820571 52.936152 0
M  V30 42 H 38.973864 30.353476 61.161192 0
M  V30 43 H 38.367416 25.718815 58.613670 0
M  V30 44 H 36.809024 25.561604 57.837207 0
M  V30 45 H 38.160970 28.632357 52.384772 0
M  V30 46 H 40.624342 35.818588 60.725317 0
M  V30 47 H 41.151341 34.502497 61.711349 0
M  V30 48 H 40.667503 31.641468 52.245757 0
M  V30 49 H 39.576057 37.590550 63.998914 0
M  V30 50 H 38.600365 27.685534 50.330444 0
M  V30 51 H 40.267404 27.416523 50.648053 0
M  V30 52 H 39.861722 29.221425 48.855810 0
M  V30 53 H 41.526191 36.716888 64.074582 0
M  V30 54 H 40.517975 31.321194 49.794523 0
M  V30 55 H 39.461893 30.938121 58.988613 0
M  V30 56 H 37.531865 38.021421 62.741322 0
M  V30 57 H 40.189056 33.080890 59.973789 0
M  V30 58 H 36.451570 36.595262 61.333334 0
M  V30 59 H 38.338671 28.176408 58.795848 0
M  V30 60 H 36.669628 28.086005 58.252602 0
M  V30 61 H 38.239309 28.872126 54.860991 0
M  V30 62 H 36.418631 30.436590 58.811517 0
M  V30 63 H 37.237612 31.553803 57.768161 0
M  V30 64 H 37.071457 34.325600 60.836203 0
M  V30 65 H 38.261747 23.624029 57.328247 0
M  V30 66 H 37.910761 24.504358 55.839500 0
M  V30 67 H 39.481966 24.677160 56.625584 0
M  V30 68 H 37.467844 27.126221 56.061511 0
M  V30 69 H 39.111145 27.179719 56.666207 0
M  V30 70 H 39.528128 32.645093 62.591323 0
M  V30 71 H 36.984232 29.683719 56.684235 0
M  V30 END ATOM
M  V30 BEGIN BOND
M  V30 1 1 7 4
M  V30 2 1 9 8
M  V30 3 2 11 8
M  V30 4 1 12 7
M  V30 5 1 13 12
M  V30 6 1 16 8
M  V30 7 1 17 10
M  V30 8 2 17 13
M  V30 9 1 18 1
M  V30 10 1 19 2
M  V30 11 1 19 5
M  V30 12 1 20 11
M  V30 13 1 21 2
M  V30 14 2 22 20
M  V30 15 1 23 18
M  V30 16 1 24 1
M  V30 17 1 24 3
M  V30 18 2 25 14
M  V30 19 1 25 15
M  V30 20 1 25 24
M  V30 21 1 26 18
M  V30 22 1 26 19
M  V30 23 1 27 3
M  V30 24 1 27 7
M  V30 25 2 27 10
M  V30 26 1 28 22
M  V30 27 1 29 6
M  V30 28 1 30 9
M  V30 29 1 30 21
M  V30 30 2 30 28
M  V30 31 1 31 6
M  V30 32 1 31 23
M  V30 33 1 32 21
M  V30 34 1 33 1
M  V30 35 1 34 1
M  V30 36 1 35 2
M  V30 37 1 36 2
M  V30 38 1 37 3
M  V30 39 1 38 3
M  V30 40 1 39 4
M  V30 41 1 40 4
M  V30 42 1 41 4
M  V30 43 1 42 5
M  V30 44 1 43 6
M  V30 45 1 44 6
M  V30 46 1 7 45 CFG=3
M  V30 47 1 46 9
M  V30 48 1 47 9
M  V30 49 1 48 10
M  V30 50 1 49 11
M  V30 51 1 50 12
M  V30 52 1 51 12
M  V30 53 1 52 13
M  V30 54 1 53 16
M  V30 55 1 54 17
M  V30 56 1 19 55 CFG=3
M  V30 57 1 56 20
M  V30 58 1 21 57 CFG=3
M  V30 59 1 58 22
M  V30 60 1 59 23
M  V30 61 1 60 23
M  V30 62 1 24 61 CFG=1
M  V30 63 1 62 26
M  V30 64 1 63 26
M  V30 65 1 64 28
M  V30 66 1 65 29
M  V30 67 1 66 29
M  V30 68 1 67 29
M  V30 69 1 68 31
M  V30 70 1 69 31
M  V30 71 1 70 32
M  V30 72 1 18 71 CFG=3
M  V30 END BOND
M  V30 END CTAB
M  END
>  <i_epik_Tot_Q>  (1) 
0

>  <i_epik_Tot_abs_Q>  (1) 
2

>  <i_i_glide_confnum>  (1) 
5469

>  <i_i_glide_lignum>  (1) 
52

>  <i_i_glide_posenum>  (1) 
48

>  <i_i_glide_rotatable_bonds>  (1) 
16

>  <i_lp_mmshare_version>  (1) 
72125

>  <i_m_source_file_index>  (1) 
20

>  <i_f3d_flags>  (1) 
0

>  <num_sample>  (1) 
100

>  <b_lp_Chiralities_Consistent>  (1) 
1

>  <r_epik_Charging_Adjusted_Penalty>  (1) 
0.015037487925518506

>  <r_epik_Ionization_Penalty>  (1) 
0.015045499532085388

>  <r_epik_Ionization_Penalty_Charging>  (1) 
0.0012943130925640431

>  <r_epik_Ionization_Penalty_Neutral>  (1) 
0.013751186439521345

>  <r_epik_State_Penalty>  (1) 
0.013743174832954463

>  <r_glide_ring_energy>  (1) 
0

>  <r_i_docking_score>  (1) 
-8.1003755859345379

>  <r_i_glide_ecoul>  (1) 
-5.349466931517024

>  <r_i_glide_eff_state_penalty>  (1) 
0.013743174832954463

>  <r_i_glide_einternal>  (1) 
7.7636565505362771

>  <r_i_glide_emodel>  (1) 
-63.117027681978527

>  <r_i_glide_emodel_strain>  (1) 
1.4328594435395559

>  <r_i_glide_energy>  (1) 
-40.640079922176433

>  <r_i_glide_erotb>  (1) 
1.1084889849388277

>  <r_i_glide_esite>  (1) 
-0.10888864373308108

>  <r_i_glide_evdw>  (1) 
-35.290612990659412

>  <r_i_glide_gscore>  (1) 
-8.1141187607674929

>  <r_i_glide_gscore_strain>  (1) 
0

>  <r_i_glide_hbond>  (1) 
-0.32000000000000001

>  <r_i_glide_ligand_efficiency>  (1) 
-0.25313673706045431

>  <r_i_glide_ligand_efficiency_ln>  (1) 
-1.8138949015897083

>  <r_i_glide_ligand_efficiency_sa>  (1) 
-0.80365904540312549

>  <r_i_glide_lipo>  (1) 
-4.9558895263490781

>  <r_i_glide_metal>  (1) 
-0

>  <r_i_glide_rewards>  (1) 
-1.2708788863636373

>  <r_lp_Energy>  (1) 
25.908189

>  <s_epik_cmdline>  (1) 
J2VwaWtfcHl0aG9uJywgJy1waHQnLCAnMS4wJywgJy1waCcsICc3LjQnLCAnLXRuJywgJzgnLCAnLW1hJywgJzUwMCcsICctaW1hZScsICc8aW5maWxlLm1hZT4nLCAnLW9tYWUnLCAnPG91dGZpbGUubWFlPic=

>  <s_epik_input>  (1) 
W0NIM11bQ0BIXTFbQ0gyXVtDSF09W0NIXVtDSF09QzFbQ0gyXVtDQEhdKEMoPU8pW09IXSlbQ0gyXU4oW0NIMl1bQ0gyXVtDSDJdW0NIM10pW0NIMl1bQ0BIXShbT0hdKVtDSDJdW0NASF0oW09IXSlDKFtDSDJdMik9W0NIXVtDSF09W0NIXVtDSF09QzJbT0hd

>  <s_glide_docking_method>  (1) 
confgen

>  <s_i_glide_gridfile>  (1) 
gpcr_5ht2c_6bqh_protein_autoprepared_prepared

>  <s_lp_Force_Field>  (1) 
S-OPLS

>  <s_lp_Variant>  (1) 
DiffSBDD_19_num_sample_100-4

>  <s_m_source_file>  (1) 
generated__ligand_DiffSBDD_2026-05-06_prepared.sdf

>  <GenAI_Model>  (1) 
DiffSBDD

>  <Protein>  (1) 
GPCR_5HT2C

$$$$
DiffSBDD_77_num_sample_100
     RDKit          3D

  0  0  0  0  0  0  0  0  0  0999 V3000
M  V30 BEGIN CTAB
M  V30 COUNTS 77 79 0 0 1
M  V30 BEGIN ATOM
M  V30 1 C 36.988655 38.618205 61.145504 0
M  V30 2 F 34.856015 38.224962 64.100382 0
M  V30 3 C 40.538614 27.828230 57.007012 0
M  V30 4 C 37.916600 37.611128 61.361086 0
M  V30 5 C 39.414006 30.904430 53.434946 0
M  V30 6 C 37.262683 34.066287 61.481118 0
M  V30 7 C 37.530688 30.021158 58.483764 0
M  V30 8 C 37.633046 31.987096 59.971727 0 CFG=2
M  V30 9 O 38.552425 31.275398 55.943518 0
M  V30 10 C 39.941348 31.116247 51.995327 0
M  V30 11 N 41.599483 34.444157 63.498747 0
M  V30 12 C 38.880320 35.765189 62.733044 0
M  V30 13 C 35.856851 38.024623 63.211365 0
M  V30 14 O 40.164733 28.321833 60.189131 0
M  V30 15 C 39.293795 27.722133 59.248344 0
M  V30 16 C 37.845738 36.821519 62.505430 0
M  V30 17 F 35.066628 39.803941 61.853523 0
M  V30 18 C 39.291692 32.029606 61.924591 0
M  V30 19 O 42.238140 34.438065 65.664205 0
M  V30 20 O 37.489236 34.241746 59.070265 0
M  V30 21 C 35.954493 38.828916 62.065885 0
M  V30 22 C 39.492814 28.692679 51.537986 0
M  V30 23 N 39.002394 29.157529 55.214880 0
M  V30 24 C 41.062413 33.729172 62.346105 0
M  V30 25 C 36.810135 37.024044 63.439463 0
M  V30 26 C 39.421348 28.404683 57.892896 0
M  V30 27 C 41.789205 33.854090 64.683957 0
M  V30 28 C 39.245236 28.411607 52.941700 0
M  V30 29 C 39.108869 31.891866 60.405759 0
M  V30 30 F 39.421674 27.685871 50.653528 0
M  V30 31 C 39.022492 26.984339 53.401573 0
M  V30 32 C 38.735111 34.500725 61.830328 0 CFG=1
M  V30 33 C 38.726244 30.081184 56.178151 0
M  V30 34 N 37.467410 31.476781 58.608732 0
M  V30 35 C 38.598505 29.457871 57.527576 0
M  V30 36 C 39.213181 29.430776 53.829931 0
M  V30 37 C 39.798641 29.915767 51.093099 0
M  V30 38 C 37.034723 33.399367 60.103861 0 CFG=2
M  V30 39 N 39.603282 33.410488 62.377281 0 CFG=1 CHG=1
M  V30 40 H 37.067719 39.235905 60.269820 0
M  V30 41 H 41.313869 27.387400 57.635775 0
M  V30 42 H 40.176616 27.033444 56.353632 0
M  V30 43 H 41.065902 28.581251 56.422322 0
M  V30 44 H 38.684973 37.445052 60.653287 0
M  V30 45 H 38.454105 31.415042 53.508438 0
M  V30 46 H 40.114220 31.396259 54.109062 0
M  V30 47 H 36.856851 33.416990 62.253202 0
M  V30 48 H 36.599398 34.927906 61.475559 0
M  V30 49 H 36.566445 29.668743 58.111132 0
M  V30 50 H 37.625611 29.594419 59.477355 0
M  V30 51 H 37.050528 31.353903 60.642175 0
M  V30 52 H 41.008865 31.323560 52.024029 0
M  V30 53 H 39.467862 31.981236 51.537164 0
M  V30 54 H 41.840945 35.419856 63.388993 0
M  V30 55 H 38.934867 35.617292 63.806966 0
M  V30 56 H 39.840027 36.230552 62.504096 0
M  V30 57 H 40.496539 27.652300 60.769820 0
M  V30 58 H 39.587382 26.680005 59.122331 0
M  V30 59 H 38.270306 27.678805 59.619706 0
M  V30 60 H 38.398257 31.682216 62.444566 0
M  V30 61 H 40.071936 31.347613 62.264784 0
M  V30 62 H 37.387418 33.771544 58.252418 0
M  V30 63 H 39.025548 28.185643 55.485843 0
M  V30 64 H 41.659757 32.820755 62.235389 0
M  V30 65 H 41.292858 34.311117 61.454497 0
M  V30 66 H 36.749967 36.421378 64.327010 0
M  V30 67 H 41.493068 32.794401 64.659084 0
M  V30 68 H 39.493679 30.910575 60.133335 0
M  V30 69 H 39.721943 32.605213 59.853987 0
M  V30 70 H 38.672933 26.421432 52.544093 0
M  V30 71 H 39.944186 26.536544 53.775288 0
M  V30 72 H 38.247748 26.906090 54.165713 0
M  V30 73 H 39.164940 34.799892 60.874675 0
M  V30 74 H 36.599598 31.797116 58.152905 0
M  V30 75 H 39.978679 30.073445 50.038968 0
M  V30 76 H 35.956443 33.305124 59.957744 0
M  V30 77 H 39.384574 33.381981 63.362957 0
M  V30 END ATOM
M  V30 BEGIN BOND
M  V30 1 2 4 1
M  V30 2 1 10 5
M  V30 3 1 13 2
M  V30 4 1 15 14
M  V30 5 1 16 4
M  V30 6 1 16 12
M  V30 7 1 21 1
M  V30 8 2 21 13
M  V30 9 1 21 17
M  V30 10 1 24 11
M  V30 11 1 25 13
M  V30 12 2 25 16
M  V30 13 1 26 3
M  V30 14 1 26 15
M  V30 15 1 27 11
M  V30 16 2 27 19
M  V30 17 1 28 22
M  V30 18 1 29 8
M  V30 19 1 29 18
M  V30 20 1 30 22
M  V30 21 1 31 28
M  V30 22 1 32 6
M  V30 23 1 32 12
M  V30 24 2 33 9
M  V30 25 1 33 23
M  V30 26 1 34 7
M  V30 27 1 34 8
M  V30 28 1 35 7
M  V30 29 2 35 26
M  V30 30 1 35 33
M  V30 31 1 36 5
M  V30 32 1 36 23
M  V30 33 2 36 28
M  V30 34 1 37 10
M  V30 35 2 37 22
M  V30 36 1 38 6
M  V30 37 1 38 8
M  V30 38 1 38 20
M  V30 39 1 39 18
M  V30 40 1 39 24
M  V30 41 1 39 32
M  V30 42 1 40 1
M  V30 43 1 41 3
M  V30 44 1 42 3
M  V30 45 1 43 3
M  V30 46 1 44 4
M  V30 47 1 45 5
M  V30 48 1 46 5
M  V30 49 1 47 6
M  V30 50 1 48 6
M  V30 51 1 49 7
M  V30 52 1 50 7
M  V30 53 1 8 51 CFG=1
M  V30 54 1 52 10
M  V30 55 1 53 10
M  V30 56 1 54 11
M  V30 57 1 55 12
M  V30 58 1 56 12
M  V30 59 1 57 14
M  V30 60 1 58 15
M  V30 61 1 59 15
M  V30 62 1 60 18
M  V30 63 1 61 18
M  V30 64 1 62 20
M  V30 65 1 63 23
M  V30 66 1 64 24
M  V30 67 1 65 24
M  V30 68 1 66 25
M  V30 69 1 67 27
M  V30 70 1 68 29
M  V30 71 1 69 29
M  V30 72 1 70 31
M  V30 73 1 71 31
M  V30 74 1 72 31
M  V30 75 1 32 73 CFG=3
M  V30 76 1 74 34
M  V30 77 1 75 37
M  V30 78 1 38 76 CFG=3
M  V30 79 1 39 77 CFG=1
M  V30 END BOND
M  V30 END CTAB
M  END
>  <i_epik_Tot_Q>  (1) 
1

>  <i_epik_Tot_abs_Q>  (1) 
1

>  <i_i_glide_confnum>  (1) 
3479

>  <i_i_glide_lignum>  (1) 
196

>  <i_i_glide_posenum>  (1) 
152

>  <i_i_glide_rotatable_bonds>  (1) 
14

>  <i_lp_mmshare_version>  (1) 
72125

>  <i_m_source_file_index>  (1) 
78

>  <i_f3d_flags>  (1) 
0

>  <num_sample>  (1) 
100

>  <b_lp_Chiralities_Consistent>  (1) 
1

>  <r_epik_Charging_Adjusted_Penalty>  (1) 
1.2599673287133732

>  <r_epik_Ionization_Penalty>  (1) 
0.56885031527891383

>  <r_epik_Ionization_Penalty_Charging>  (1) 
0.52000942162343

>  <r_epik_Ionization_Penalty_Neutral>  (1) 
0.048840893655483872

>  <r_epik_State_Penalty>  (1) 
0.73995790708994325

>  <r_glide_ring_energy>  (1) 
0

>  <r_i_docking_score>  (1) 
-8.0952776564973306

>  <r_i_glide_ecoul>  (1) 
-2.8955247230001859

>  <r_i_glide_eff_state_penalty>  (1) 
0.73995790708994325

>  <r_i_glide_einternal>  (1) 
16.840545339548434

>  <r_i_glide_emodel>  (1) 
-69.240241513952611

>  <r_i_glide_emodel_strain>  (1) 
1.959393740513832

>  <r_i_glide_energy>  (1) 
-44.636217634732283

>  <r_i_glide_erotb>  (1) 
0.67934156738045093

>  <r_i_glide_esite>  (1) 
-0.01049972604080705

>  <r_i_glide_evdw>  (1) 
-41.740692911732097

>  <r_i_glide_gscore>  (1) 
-8.8352355635872737

>  <r_i_glide_gscore_strain>  (1) 
0

>  <r_i_glide_hbond>  (1) 
-0.16

>  <r_i_glide_ligand_efficiency>  (1) 
-0.20757122196147001

>  <r_i_glide_ligand_efficiency_ln>  (1) 
-1.7358573276748068

>  <r_i_glide_ligand_efficiency_sa>  (1) 
-0.70391790315617075

>  <r_i_glide_lipo>  (1) 
-4.4983095342408914

>  <r_i_glide_metal>  (1) 
-0

>  <r_i_glide_rewards>  (1) 
-2.3244045166493938

>  <r_lp_Energy>  (1) 
52.110675999999998

>  <s_epik_Chemistry_Notes>  (1) 
This compound contains an acetal/aminal-like group ( X-CH(R)-Y where X, Y are N, S, or O) that may be acid/base labile, releasing an aldehyde.

>  <s_epik_cmdline>  (1) 
J2VwaWtfcHl0aG9uJywgJy1waHQnLCAnMS4wJywgJy1waCcsICc3LjQnLCAnLXRuJywgJzgnLCAnLW1hJywgJzUwMCcsICctaW1hZScsICc8aW5maWxlLm1hZT4nLCAnLW9tYWUnLCAnPG91dGZpbGUubWFlPic=

>  <s_epik_input>  (1) 
RmMxYyhGKVtjSF1bY0hdYyhbY0hdMSlbQ0gyXVtDQEhdKFtDSDJdW0NASF0yW09IXSlOKFtDSDJdW05IXVtDSF09TylbQ0gyXVtDSDJdW0NAQEhdMltOSF1bQ0gyXVxDKD1DKFxbQ0gzXSlbQ0gyXVtPSF0pQyg9TylbTkhdQyg9QzNbQ0gzXSlbQ0gyXVtDSDJdW0NIXT1DM0Y=

>  <s_glide_docking_method>  (1) 
confgen

>  <s_i_glide_gridfile>  (1) 
gpcr_5ht2c_6bqh_protein_autoprepared_prepared

>  <s_lp_Force_Field>  (1) 
S-OPLS

>  <s_lp_Variant>  (1) 
DiffSBDD_77_num_sample_100-7

>  <s_m_source_file>  (1) 
generated__ligand_DiffSBDD_2026-05-06_prepared.sdf

>  <GenAI_Model>  (1) 
DiffSBDD

>  <Protein>  (1) 
GPCR_5HT2C

$$$$
DiffSBDD_80_num_sample_100
     RDKit          3D

  0  0  0  0  0  0  0  0  0  0999 V3000
M  V30 BEGIN CTAB
M  V30 COUNTS 73 76 0 0 1
M  V30 BEGIN ATOM
M  V30 1 C 37.067376 29.776828 57.914918 0
M  V30 2 C 38.850783 30.733424 61.090292 0
M  V30 3 N 38.914315 32.214237 61.012504 0 CFG=2 CHG=1
M  V30 4 O 38.224992 28.558078 55.742327 0
M  V30 5 O 40.682531 28.421442 60.975797 0
M  V30 6 O 36.218531 30.021575 59.019175 0
M  V30 7 C 38.194849 35.048954 61.276504 0 CFG=2
M  V30 8 C 39.187053 34.359887 62.253501 0 CFG=2
M  V30 9 C 39.467442 28.119113 51.007973 0
M  V30 10 C 39.658156 26.740709 55.325666 0
M  V30 11 O 39.441139 30.419521 54.498766 0
M  V30 12 C 39.445623 29.662654 53.364721 0
M  V30 13 O 41.790671 31.498846 62.653462 0
M  V30 14 C 39.047530 27.539118 52.217249 0
M  V30 15 C 41.594496 33.855438 63.049961 0
M  V30 16 C 39.867399 30.234598 52.151587 0
M  V30 17 O 40.404815 26.421446 57.608382 0
M  V30 18 C 38.204540 34.320403 59.914103 0
M  V30 19 O 40.292691 30.021425 49.802971 0
M  V30 20 C 40.696474 34.562891 62.045710 0
M  V30 21 C 39.879541 29.464583 50.975017 0
M  V30 22 C 38.914967 28.272772 56.954757 0 CFG=1
M  V30 23 C 39.343764 30.064071 59.811064 0 CFG=2
M  V30 24 C 37.999736 28.563781 58.161023 0 CFG=1
M  V30 25 C 38.783833 32.865168 62.336427 0
M  V30 26 C 39.313012 26.800325 56.798301 0 CFG=1
M  V30 27 C 42.226336 32.621557 62.414000 0
M  V30 28 C 38.752264 28.694243 59.490218 0 CFG=1
M  V30 29 C 41.203163 35.320345 61.053721 0
M  V30 30 C 37.457517 37.224124 60.571646 0
M  V30 31 C 40.240173 28.861593 59.712570 0 CFG=2
M  V30 32 C 38.588464 27.647305 54.709616 0 CFG=2
M  V30 33 C 39.033381 28.301454 53.400811 0
M  V30 34 C 37.939583 32.817239 60.063955 0
M  V30 35 O 38.466789 36.443002 61.194105 0
M  V30 36 H 37.633662 30.673873 57.674337 0
M  V30 37 H 36.420671 29.621433 57.053416 0
M  V30 38 H 37.824751 30.424217 61.292348 0
M  V30 39 H 39.447139 30.382778 61.932128 0
M  V30 40 H 40.980066 27.526348 60.898519 0
M  V30 41 H 35.573549 30.652377 58.715715 0
M  V30 42 H 37.195807 34.944609 61.705387 0
M  V30 43 H 39.067403 34.825521 63.226754 0
M  V30 44 H 39.476118 27.529774 50.105164 0
M  V30 45 H 40.523036 30.935625 49.881106 0
M  V30 46 H 39.659646 25.730813 54.913582 0
M  V30 47 H 40.647989 27.169688 55.168014 0
M  V30 48 H 38.972841 29.958002 55.186918 0
M  V30 49 H 38.737540 26.505678 52.238870 0
M  V30 50 H 42.375814 34.532075 63.393472 0
M  V30 51 H 41.031824 33.575248 63.940778 0
M  V30 52 H 40.183301 31.267331 52.125009 0
M  V30 53 H 41.212856 26.662107 57.177615 0
M  V30 54 H 39.180997 34.421430 59.453504 0
M  V30 55 H 37.472069 34.746430 59.228152 0
M  V30 56 H 39.795999 28.915742 56.958524 0
M  V30 57 H 39.467391 30.740526 58.972120 0
M  V30 58 H 37.343057 27.701353 58.253500 0
M  V30 59 H 37.745574 32.769573 62.653519 0
M  V30 60 H 39.369468 32.341362 63.089082 0
M  V30 61 H 38.464777 26.145633 57.003888 0
M  V30 62 H 43.067416 32.813074 61.747727 0
M  V30 63 H 38.267403 28.157885 60.297551 0
M  V30 64 H 42.267360 35.445451 60.939952 0
M  V30 65 H 40.566149 35.823463 60.348195 0
M  V30 66 H 37.738996 38.276094 60.618861 0
M  V30 67 H 37.332039 36.967913 59.519709 0
M  V30 68 H 36.499091 37.115648 61.078997 0
M  V30 69 H 40.968163 28.788891 58.907483 0
M  V30 70 H 37.697355 27.050768 54.505512 0
M  V30 71 H 38.013039 32.364906 59.078731 0
M  V30 72 H 36.919760 32.640247 60.409610 0
M  V30 73 H 39.842019 32.434217 60.680259 0
M  V30 END ATOM
M  V30 BEGIN BOND
M  V30 1 1 3 2
M  V30 2 1 6 1
M  V30 3 1 8 7
M  V30 4 1 12 11
M  V30 5 2 14 9
M  V30 6 1 16 12
M  V30 7 1 18 7
M  V30 8 1 20 8
M  V30 9 1 20 15
M  V30 10 1 21 9
M  V30 11 2 21 16
M  V30 12 1 21 19
M  V30 13 1 22 4
M  V30 14 1 23 2
M  V30 15 1 24 1
M  V30 16 1 24 22
M  V30 17 1 25 3
M  V30 18 1 25 8
M  V30 19 1 26 10
M  V30 20 1 26 17
M  V30 21 1 26 22
M  V30 22 2 27 13
M  V30 23 1 27 15
M  V30 24 1 28 23
M  V30 25 1 28 24
M  V30 26 2 29 20
M  V30 27 1 31 5
M  V30 28 1 31 23
M  V30 29 1 31 28
M  V30 30 1 32 4
M  V30 31 1 32 10
M  V30 32 2 33 12
M  V30 33 1 33 14
M  V30 34 1 33 32
M  V30 35 1 34 3
M  V30 36 1 34 18
M  V30 37 1 35 7
M  V30 38 1 35 30
M  V30 39 1 36 1
M  V30 40 1 37 1
M  V30 41 1 38 2
M  V30 42 1 39 2
M  V30 43 1 40 5
M  V30 44 1 41 6
M  V30 45 1 7 42 CFG=1
M  V30 46 1 8 43 CFG=1
M  V30 47 1 44 9
M  V30 48 1 45 19
M  V30 49 1 46 10
M  V30 50 1 47 10
M  V30 51 1 48 11
M  V30 52 1 49 14
M  V30 53 1 50 15
M  V30 54 1 51 15
M  V30 55 1 52 16
M  V30 56 1 53 17
M  V30 57 1 54 18
M  V30 58 1 55 18
M  V30 59 1 22 56 CFG=1
M  V30 60 1 23 57 CFG=3
M  V30 61 1 24 58 CFG=1
M  V30 62 1 59 25
M  V30 63 1 60 25
M  V30 64 1 26 61 CFG=3
M  V30 65 1 62 27
M  V30 66 1 28 63 CFG=1
M  V30 67 1 64 29
M  V30 68 1 65 29
M  V30 69 1 66 30
M  V30 70 1 67 30
M  V30 71 1 68 30
M  V30 72 1 31 69 CFG=3
M  V30 73 1 32 70 CFG=3
M  V30 74 1 71 34
M  V30 75 1 72 34
M  V30 76 1 3 73 CFG=3
M  V30 END BOND
M  V30 END CTAB
M  END
>  <i_epik_Tot_Q>  (1) 
1

>  <i_epik_Tot_abs_Q>  (1) 
1

>  <i_i_glide_confnum>  (1) 
1143

>  <i_i_glide_lignum>  (1) 
209

>  <i_i_glide_posenum>  (1) 
36

>  <i_i_glide_rotatable_bonds>  (1) 
15

>  <i_lp_mmshare_version>  (1) 
72125

>  <i_m_source_file_index>  (1) 
81

>  <i_f3d_flags>  (1) 
0

>  <num_sample>  (1) 
100

>  <b_lp_Chiralities_Consistent>  (1) 
1

>  <r_epik_Charging_Adjusted_Penalty>  (1) 
0.034071705691259377

>  <r_epik_Ionization_Penalty>  (1) 
0.043305258844254187

>  <r_epik_Ionization_Penalty_Charging>  (1) 
0.034071705691259377

>  <r_epik_Ionization_Penalty_Neutral>  (1) 
0.009233553152994808

>  <r_epik_State_Penalty>  (1) 
-0

>  <r_glide_ring_energy>  (1) 
0

>  <r_i_docking_score>  (1) 
-8.0893551809897986

>  <r_i_glide_ecoul>  (1) 
-5.2052838932033296

>  <r_i_glide_eff_state_penalty>  (1) 
-0

>  <r_i_glide_einternal>  (1) 
13.205803976317213

>  <r_i_glide_emodel>  (1) 
-65.761099305471191

>  <r_i_glide_emodel_strain>  (1) 
0.99788512755927172

>  <r_i_glide_energy>  (1) 
-50.860971288142231

>  <r_i_glide_erotb>  (1) 
0.67144220787932085

>  <r_i_glide_esite>  (1) 
0

>  <r_i_glide_evdw>  (1) 
-45.655687394938901

>  <r_i_glide_gscore>  (1) 
-8.0893551809897986

>  <r_i_glide_gscore_strain>  (1) 
0

>  <r_i_glide_hbond>  (1) 
-0.14515800139297586

>  <r_i_glide_ligand_efficiency>  (1) 
-0.23112443374256567

>  <r_i_glide_ligand_efficiency_ln>  (1) 
-1.7757929957924903

>  <r_i_glide_ligand_efficiency_sa>  (1) 
-0.75602334867672161

>  <r_i_glide_lipo>  (1) 
-4.6835559779309435

>  <r_i_glide_metal>  (1) 
-0

>  <r_i_glide_rewards>  (1) 
-0.86850645581775587

>  <r_lp_Energy>  (1) 
30.626286999999998

>  <r_lp_tautomer_probability>  (1) 
1

>  <s_epik_cmdline>  (1) 
J2VwaWtfcHl0aG9uJywgJy1waHQnLCAnMS4wJywgJy1waCcsICc3LjQnLCAnLXRuJywgJzgnLCAnLW1hJywgJzUwMCcsICctaW1hZScsICc8aW5maWxlLm1hZT4nLCAnLW9tYWUnLCAnPG91dGZpbGUubWFlPic=

>  <s_epik_input>  (1) 
Tz1bQ0hdW0NIMl1DKD1bQ0gyXSlbQ0BASF0oW0NASF0oW0NIMl1bQ0gyXTEpT1tDSDNdKVtDSDJdTjFbQ0gyXVtDQEBIXTJbQ0BASF0oW0NAQEhdMltPSF0pW0NAQEhdKFtDSDJdW09IXSlbQ0BASF0zT1tDQEhdKFtDSDJdW0NASF0zW09IXSlDND1bQ0hdW0NIMl1DKD1PKVtDSF09QzRbT0hd

>  <s_glide_docking_method>  (1) 
confgen

>  <s_i_glide_gridfile>  (1) 
gpcr_5ht2c_6bqh_protein_autoprepared_prepared

>  <s_lp_Force_Field>  (1) 
S-OPLS

>  <s_lp_Variant>  (1) 
DiffSBDD_80_num_sample_100-5

>  <s_m_source_file>  (1) 
generated__ligand_DiffSBDD_2026-05-06_prepared.sdf

>  <GenAI_Model>  (1) 
DiffSBDD

>  <Protein>  (1) 
GPCR_5HT2C

$$$$
DiffSBDD_77_num_sample_100
     RDKit          3D

  0  0  0  0  0  0  0  0  0  0999 V3000
M  V30 BEGIN CTAB
M  V30 COUNTS 76 78 0 0 1
M  V30 BEGIN ATOM
M  V30 1 C 37.109397 37.988048 60.720922 0
M  V30 2 F 35.467359 38.290643 63.987535 0
M  V30 3 C 40.583715 27.636619 56.782906 0
M  V30 4 C 38.022821 36.966687 60.978772 0
M  V30 5 C 39.466085 30.853988 53.319185 0
M  V30 6 C 37.301232 33.689880 61.413294 0
M  V30 7 C 37.478923 29.709456 58.255477 0
M  V30 8 C 37.522046 31.563251 59.912064 0 CFG=2
M  V30 9 O 38.600293 31.094164 55.832969 0
M  V30 10 C 39.975850 31.156262 51.890019 0
M  V30 11 N 41.560009 32.447738 63.696454 0
M  V30 12 C 39.101530 35.301684 62.515728 0
M  V30 13 C 36.303304 37.863305 63.012766 0
M  V30 14 O 39.059943 26.021433 58.653415 0
M  V30 15 C 39.275371 27.375628 58.966662 0
M  V30 16 C 38.102075 36.401095 62.253483 0
M  V30 17 F 35.373713 39.434701 61.483762 0
M  V30 18 C 38.966591 31.497353 62.048007 0
M  V30 19 O 41.965946 30.310450 63.053498 0
M  V30 20 O 37.707340 33.809316 59.028350 0
M  V30 21 C 36.249094 38.441741 61.736402 0
M  V30 22 C 39.593324 28.749386 51.306679 0
M  V30 23 N 39.063063 29.012313 55.003816 0
M  V30 24 C 40.919201 32.867548 62.454462 0
M  V30 25 C 37.239226 36.849401 63.279329 0
M  V30 26 C 39.427940 28.142907 57.660847 0
M  V30 27 C 42.025594 31.205444 63.894472 0
M  V30 28 C 39.354817 28.385427 52.691438 0
M  V30 29 C 38.914814 31.286102 60.519577 0
M  V30 30 F 39.539950 27.793114 50.369083 0
M  V30 31 C 39.172984 26.925681 53.070803 0
M  V30 32 C 38.810601 33.961534 61.757919 0 CFG=1
M  V30 33 C 38.765316 29.889437 56.009350 0
M  V30 34 N 37.467407 31.150440 58.500728 0
M  V30 35 C 38.598681 29.201377 57.321033 0
M  V30 36 C 39.290719 29.357505 53.634616 0
M  V30 37 C 39.865071 30.002127 50.927793 0
M  V30 38 C 37.076960 33.036516 60.029932 0 CFG=2
M  V30 39 N 39.451030 32.826469 62.451835 0
M  V30 40 H 37.067428 38.421428 59.742409 0
M  V30 41 H 41.342060 27.174721 57.416510 0
M  V30 42 H 40.249311 26.864370 56.092696 0
M  V30 43 H 41.119065 28.423441 56.253260 0
M  V30 44 H 38.667414 36.613249 60.193345 0
M  V30 45 H 38.508030 31.357636 53.453505 0
M  V30 46 H 40.181456 31.302081 54.009844 0
M  V30 47 H 36.808162 33.119926 62.200073 0
M  V30 48 H 36.715956 34.603198 61.371814 0
M  V30 49 H 36.544758 29.457711 57.751856 0
M  V30 50 H 37.394912 29.192537 59.201291 0
M  V30 51 H 36.796674 30.974806 60.475432 0
M  V30 52 H 41.034957 31.403571 51.922825 0
M  V30 53 H 39.467406 32.021052 51.473463 0
M  V30 54 H 41.645165 33.128725 64.436089 0
M  V30 55 H 39.239301 35.210162 63.584331 0
M  V30 56 H 40.059826 35.691623 62.171054 0
M  V30 57 H 39.793684 25.715910 58.141390 0
M  V30 58 H 38.491189 27.680088 59.646836 0
M  V30 59 H 40.203126 27.463645 59.532796 0
M  V30 60 H 37.984571 31.312871 62.481364 0
M  V30 61 H 39.594327 30.730474 62.497408 0
M  V30 62 H 37.715410 33.279060 58.240853 0
M  V30 63 H 39.083244 28.028790 55.226009 0
M  V30 64 H 41.325341 32.328473 61.596368 0
M  V30 65 H 41.276444 33.884180 62.304510 0
M  V30 66 H 37.294288 36.421430 64.264486 0
M  V30 67 H 42.461967 31.099069 64.899700 0
M  V30 68 H 39.189425 30.249335 60.325946 0
M  V30 69 H 39.664837 31.890068 60.014939 0
M  V30 70 H 39.455954 26.291858 52.233015 0
M  V30 71 H 39.811200 26.643096 53.905343 0
M  V30 72 H 38.133717 26.717476 53.325926 0
M  V30 73 H 39.325900 34.072837 60.804075 0
M  V30 74 H 36.631677 31.536950 58.031376 0
M  V30 75 H 40.036378 30.221533 49.883357 0
M  V30 76 H 36.008715 33.070717 59.808037 0
M  V30 END ATOM
M  V30 BEGIN BOND
M  V30 1 2 4 1
M  V30 2 1 10 5
M  V30 3 1 13 2
M  V30 4 1 15 14
M  V30 5 1 16 4
M  V30 6 1 16 12
M  V30 7 1 21 1
M  V30 8 2 21 13
M  V30 9 1 21 17
M  V30 10 1 24 11
M  V30 11 1 25 13
M  V30 12 2 25 16
M  V30 13 1 26 3
M  V30 14 1 26 15
M  V30 15 1 27 11
M  V30 16 2 27 19
M  V30 17 1 28 22
M  V30 18 1 29 8
M  V30 19 1 29 18
M  V30 20 1 30 22
M  V30 21 1 31 28
M  V30 22 1 32 6
M  V30 23 1 32 12
M  V30 24 2 33 9
M  V30 25 1 33 23
M  V30 26 1 34 7
M  V30 27 1 34 8
M  V30 28 1 35 7
M  V30 29 2 35 26
M  V30 30 1 35 33
M  V30 31 1 36 5
M  V30 32 1 36 23
M  V30 33 2 36 28
M  V30 34 1 37 10
M  V30 35 2 37 22
M  V30 36 1 38 6
M  V30 37 1 38 8
M  V30 38 1 38 20
M  V30 39 1 39 18
M  V30 40 1 39 24
M  V30 41 1 39 32
M  V30 42 1 40 1
M  V30 43 1 41 3
M  V30 44 1 42 3
M  V30 45 1 43 3
M  V30 46 1 44 4
M  V30 47 1 45 5
M  V30 48 1 46 5
M  V30 49 1 47 6
M  V30 50 1 48 6
M  V30 51 1 49 7
M  V30 52 1 50 7
M  V30 53 1 8 51 CFG=1
M  V30 54 1 52 10
M  V30 55 1 53 10
M  V30 56 1 54 11
M  V30 57 1 55 12
M  V30 58 1 56 12
M  V30 59 1 57 14
M  V30 60 1 58 15
M  V30 61 1 59 15
M  V30 62 1 60 18
M  V30 63 1 61 18
M  V30 64 1 62 20
M  V30 65 1 63 23
M  V30 66 1 64 24
M  V30 67 1 65 24
M  V30 68 1 66 25
M  V30 69 1 67 27
M  V30 70 1 68 29
M  V30 71 1 69 29
M  V30 72 1 70 31
M  V30 73 1 71 31
M  V30 74 1 72 31
M  V30 75 1 32 73 CFG=3
M  V30 76 1 74 34
M  V30 77 1 75 37
M  V30 78 1 38 76 CFG=3
M  V30 END BOND
M  V30 END CTAB
M  END
>  <i_epik_Tot_Q>  (1) 
0

>  <i_epik_Tot_abs_Q>  (1) 
0

>  <i_i_glide_confnum>  (1) 
2321

>  <i_i_glide_lignum>  (1) 
191

>  <i_i_glide_posenum>  (1) 
303

>  <i_i_glide_rotatable_bonds>  (1) 
14

>  <i_lp_mmshare_version>  (1) 
72125

>  <i_m_source_file_index>  (1) 
78

>  <i_f3d_flags>  (1) 
0

>  <num_sample>  (1) 
100

>  <b_lp_Chiralities_Consistent>  (1) 
1

>  <r_epik_Charging_Adjusted_Penalty>  (1) 
0.53836467660946008

>  <r_epik_Ionization_Penalty>  (1) 
0.66160028736033039

>  <r_epik_Ionization_Penalty_Charging>  (1) 
0

>  <r_epik_Ionization_Penalty_Neutral>  (1) 
0.66160028736033039

>  <r_epik_State_Penalty>  (1) 
0.53836467660946008

>  <r_glide_ring_energy>  (1) 
0

>  <r_i_docking_score>  (1) 
-8.0840333076235531

>  <r_i_glide_ecoul>  (1) 
-4.2261028732887436

>  <r_i_glide_eff_state_penalty>  (1) 
0.53836467660946008

>  <r_i_glide_einternal>  (1) 
10.77762056016287

>  <r_i_glide_emodel>  (1) 
-63.311352499182377

>  <r_i_glide_emodel_strain>  (1) 
4.6095681964943793

>  <r_i_glide_energy>  (1) 
-46.416477658146739

>  <r_i_glide_erotb>  (1) 
0.6830181953671759

>  <r_i_glide_esite>  (1) 
0

>  <r_i_glide_evdw>  (1) 
-42.190374784857994

>  <r_i_glide_gscore>  (1) 
-8.6223979842330127

>  <r_i_glide_gscore_strain>  (1) 
0.15239204912359483

>  <r_i_glide_hbond>  (1) 
-0.36772990542080436

>  <r_i_glide_ligand_efficiency>  (1) 
-0.20728290532368085

>  <r_i_glide_ligand_efficiency_ln>  (1) 
-1.7334462200864447

>  <r_i_glide_ligand_efficiency_sa>  (1) 
-0.70294016047488872

>  <r_i_glide_lipo>  (1) 
-4.4354365666526041

>  <r_i_glide_metal>  (1) 
-0

>  <r_i_glide_rewards>  (1) 
-1.9112075864141644

>  <r_lp_Energy>  (1) 
35.999558999999998

>  <s_epik_Chemistry_Notes>  (1) 
This compound contains an acetal/aminal-like group ( X-CH(R)-Y where X, Y are N, S, or O) that may be acid/base labile, releasing an aldehyde.

>  <s_epik_cmdline>  (1) 
J2VwaWtfcHl0aG9uJywgJy1waHQnLCAnMS4wJywgJy1waCcsICc3LjQnLCAnLXRuJywgJzgnLCAnLW1hJywgJzUwMCcsICctaW1hZScsICc8aW5maWxlLm1hZT4nLCAnLW9tYWUnLCAnPG91dGZpbGUubWFlPic=

>  <s_epik_input>  (1) 
RmMxYyhGKVtjSF1bY0hdYyhbY0hdMSlbQ0gyXVtDQEhdKFtDSDJdW0NASF0yW09IXSlOKFtDSDJdW05IXVtDSF09TylbQ0gyXVtDSDJdW0NAQEhdMltOSF1bQ0gyXVxDKD1DKFxbQ0gzXSlbQ0gyXVtPSF0pQyg9TylbTkhdQyg9QzNbQ0gzXSlbQ0gyXVtDSDJdW0NIXT1DM0Y=

>  <s_glide_docking_method>  (1) 
confgen

>  <s_i_glide_gridfile>  (1) 
gpcr_5ht2c_6bqh_protein_autoprepared_prepared

>  <s_lp_Force_Field>  (1) 
S-OPLS

>  <s_lp_Variant>  (1) 
DiffSBDD_77_num_sample_100-2

>  <s_m_source_file>  (1) 
generated__ligand_DiffSBDD_2026-05-06_prepared.sdf

>  <GenAI_Model>  (1) 
DiffSBDD

>  <Protein>  (1) 
GPCR_5HT2C

$$$$
DiffSBDD_0_num_sample_100
     RDKit          3D

  0  0  0  0  0  0  0  0  0  0999 V3000
M  V30 BEGIN CTAB
M  V30 COUNTS 60 62 0 0 1
M  V30 BEGIN ATOM
M  V30 1 C 37.433840 25.646095 55.935668 0
M  V30 2 C 39.295609 28.930591 54.219705 0 CFG=1
M  V30 3 C 39.204702 35.199935 61.408965 0
M  V30 4 C 38.437565 32.542654 58.787802 0
M  V30 5 C 38.193119 25.282332 57.086347 0
M  V30 6 C 40.216766 26.463456 56.005723 0
M  V30 7 C 37.342886 35.040433 59.837448 0
M  V30 8 C 38.856305 36.538497 61.679327 0
M  V30 9 C 38.450244 34.448516 60.483609 0
M  V30 10 C 39.949017 29.512049 51.789684 0 CFG=2
M  V30 11 N 38.897499 30.102896 56.361227 0
M  V30 12 C 37.846575 30.805510 57.070502 0
M  V30 13 C 38.270932 31.257723 58.443902 0
M  V30 14 C 37.760101 37.128052 61.018543 0
M  V30 15 F 35.959112 36.943084 59.460694 0
M  V30 16 C 37.006752 36.376993 60.098303 0
M  V30 17 C 38.832822 33.007190 60.181684 0 CFG=1
M  V30 18 C 39.506373 25.648912 57.147441 0
M  V30 19 N 37.870379 31.393802 62.016408 0
M  V30 20 C 38.258891 29.374982 55.274078 0
M  V30 21 C 38.053197 26.169981 54.912992 0
M  V30 22 C 39.222928 27.446896 53.805282 0 CFG=1
M  V30 23 N 39.161966 29.809065 53.026606 0 CHG=1
M  V30 24 O 37.430888 38.427552 61.265562 0
M  V30 25 C 40.253234 30.824208 51.049388 0
M  V30 26 C 39.216426 28.527787 50.844048 0
M  V30 27 C 41.317261 30.681590 49.957364 0
M  V30 28 N 39.381080 26.377018 54.801618 0
M  V30 29 S 37.507476 26.835982 53.453442 0
M  V30 30 C 38.295785 32.105946 61.212351 0
M  V30 31 Cl 37.467428 24.421626 58.355845 0
M  V30 32 H 36.360741 25.527624 55.925325 0
M  V30 33 H 40.267362 29.141936 54.653638 0
M  V30 34 H 40.051245 34.751167 61.908975 0
M  V30 35 H 38.282006 33.312728 58.045991 0
M  V30 36 H 40.377347 27.492884 56.324335 0
M  V30 37 H 41.182485 26.021281 55.781206 0
M  V30 38 H 36.756882 34.472453 59.131319 0
M  V30 39 H 39.434960 37.114975 62.386353 0
M  V30 40 H 40.914021 29.095515 52.053253 0
M  V30 41 H 39.321670 29.432821 56.988240 0
M  V30 42 H 36.977648 30.157917 57.209207 0
M  V30 43 H 37.517412 31.662002 56.479207 0
M  V30 44 H 38.433698 30.481762 59.177218 0
M  V30 45 H 39.918964 32.940404 60.243040 0
M  V30 46 H 40.101580 25.391375 58.009892 0
M  V30 47 H 37.736927 28.535199 55.724972 0
M  V30 48 H 37.486211 29.987866 54.804428 0
M  V30 49 H 39.916206 27.171508 53.016830 0
M  V30 50 H 38.187133 29.831476 52.769882 0
M  V30 51 H 36.713739 38.728013 60.721799 0
M  V30 52 H 39.354140 31.234501 50.593505 0
M  V30 53 H 40.597712 31.573009 51.762557 0
M  V30 54 H 39.657663 28.489027 49.851186 0
M  V30 55 H 39.205042 27.491220 51.166698 0
M  V30 56 H 38.185036 28.820596 50.717181 0
M  V30 57 H 41.422798 31.621500 49.426813 0
M  V30 58 H 42.284373 30.422828 50.383840 0
M  V30 59 H 41.065880 29.939704 49.202905 0
M  V30 60 H 39.417337 30.735812 53.339367 0
M  V30 END ATOM
M  V30 BEGIN BOND
M  V30 1 1 5 1
M  V30 2 2 8 3
M  V30 3 1 9 3
M  V30 4 2 9 7
M  V30 5 1 12 11
M  V30 6 2 13 4
M  V30 7 1 13 12
M  V30 8 1 14 8
M  V30 9 1 16 7
M  V30 10 2 16 14
M  V30 11 1 16 15
M  V30 12 1 17 4
M  V30 13 1 17 9
M  V30 14 2 18 5
M  V30 15 1 18 6
M  V30 16 1 20 2
M  V30 17 1 20 11
M  V30 18 2 21 1
M  V30 19 1 22 2
M  V30 20 1 23 2
M  V30 21 1 23 10
M  V30 22 1 24 14
M  V30 23 1 25 10
M  V30 24 1 26 10
M  V30 25 1 27 25
M  V30 26 1 28 6
M  V30 27 1 28 21
M  V30 28 1 28 22
M  V30 29 1 29 21
M  V30 30 1 29 22
M  V30 31 1 30 17
M  V30 32 3 30 19
M  V30 33 1 31 5
M  V30 34 1 32 1
M  V30 35 1 2 33 CFG=1
M  V30 36 1 34 3
M  V30 37 1 35 4
M  V30 38 1 36 6
M  V30 39 1 37 6
M  V30 40 1 38 7
M  V30 41 1 39 8
M  V30 42 1 10 40 CFG=1
M  V30 43 1 41 11
M  V30 44 1 42 12
M  V30 45 1 43 12
M  V30 46 1 44 13
M  V30 47 1 17 45 CFG=3
M  V30 48 1 46 18
M  V30 49 1 47 20
M  V30 50 1 48 20
M  V30 51 1 22 49 CFG=3
M  V30 52 1 50 23
M  V30 53 1 51 24
M  V30 54 1 52 25
M  V30 55 1 53 25
M  V30 56 1 54 26
M  V30 57 1 55 26
M  V30 58 1 56 26
M  V30 59 1 57 27
M  V30 60 1 58 27
M  V30 61 1 59 27
M  V30 62 1 60 23
M  V30 END BOND
M  V30 END CTAB
M  END
>  <i_epik_Tot_Q>  (1) 
1

>  <i_epik_Tot_abs_Q>  (1) 
1

>  <i_i_glide_confnum>  (1) 
268

>  <i_i_glide_lignum>  (1) 
3

>  <i_i_glide_posenum>  (1) 
235

>  <i_i_glide_rotatable_bonds>  (1) 
11

>  <i_lp_mmshare_version>  (1) 
72125

>  <i_m_source_file_index>  (1) 
1

>  <i_f3d_flags>  (1) 
0

>  <num_sample>  (1) 
100

>  <b_lp_Chiralities_Consistent>  (1) 
1

>  <r_epik_Charging_Adjusted_Penalty>  (1) 
1.026714880071514

>  <r_epik_Ionization_Penalty>  (1) 
0.57488375576365369

>  <r_epik_Ionization_Penalty_Charging>  (1) 
0.45778339447339428

>  <r_epik_Ionization_Penalty_Neutral>  (1) 
0.11710036129025943

>  <r_epik_State_Penalty>  (1) 
0.56893148559811979

>  <r_glide_ring_energy>  (1) 
0

>  <r_i_docking_score>  (1) 
-8.0689147665060936

>  <r_i_glide_ecoul>  (1) 
-4.7176650688401924

>  <r_i_glide_eff_state_penalty>  (1) 
0.56893148559811979

>  <r_i_glide_einternal>  (1) 
8.1311072399696744

>  <r_i_glide_emodel>  (1) 
-66.623768690645704

>  <r_i_glide_emodel_strain>  (1) 
1.2350458941973699

>  <r_i_glide_energy>  (1) 
-42.079011466581456

>  <r_i_glide_erotb>  (1) 
0.74887478347211667

>  <r_i_glide_esite>  (1) 
-0.02157949349919154

>  <r_i_glide_evdw>  (1) 
-37.361346397741265

>  <r_i_glide_gscore>  (1) 
-8.6378462521042128

>  <r_i_glide_gscore_strain>  (1) 
0

>  <r_i_glide_hbond>  (1) 
-0.33927560167324822

>  <r_i_glide_ligand_efficiency>  (1) 
-0.2602875731130998

>  <r_i_glide_ligand_efficiency_ln>  (1) 
-1.8197875623872077

>  <r_i_glide_ligand_efficiency_sa>  (1) 
-0.81766234623540202

>  <r_i_glide_lipo>  (1) 
-4.7317025610784933

>  <r_i_glide_metal>  (1) 
-0

>  <r_i_glide_rewards>  (1) 
-1.7184462991123028

>  <r_lp_Energy>  (1) 
39.675871999999998

>  <r_lp_tautomer_probability>  (1) 
0.99999999999736477

>  <s_epik_Chemistry_Notes>  (1) 
This compound contains an acetal/aminal-like group ( X-CH(R)-Y where X, Y are N, S, or O) that may be acid/base labile, releasing an aldehyde.

>  <s_epik_cmdline>  (1) 
J2VwaWtfcHl0aG9uJywgJy1waHQnLCAnMS4wJywgJy1waCcsICc3LjQnLCAnLXRuJywgJzgnLCAnLW1hJywgJzUwMCcsICctaW1hZScsICc8aW5maWxlLm1hZT4nLCAnLW9tYWUnLCAnPG91dGZpbGUubWFlPic=

>  <s_epik_input>  (1) 
W0NIXT0xQyhDbCk9W0NIXVtDSDJdTihDMTIpW0NAQEhdKFMyKVtDQEBIXShbTkhdW0NAQEhdKFtDSDNdKVtDSDJdW0NIM10pW0NIMl1bTkhdW0NIMl1cW0NIXT1bQ0hdXFtDQEhdKEMjTiljM1tjSF1bY0hdYyhbT0hdKWMoRilbY0hdMw==

>  <s_glide_docking_method>  (1) 
confgen

>  <s_i_glide_gridfile>  (1) 
gpcr_5ht2c_6bqh_protein_autoprepared_prepared

>  <s_lp_Force_Field>  (1) 
S-OPLS

>  <s_lp_Variant>  (1) 
DiffSBDD_0_num_sample_100-3

>  <s_m_source_file>  (1) 
generated__ligand_DiffSBDD_2026-05-06_prepared.sdf

>  <GenAI_Model>  (1) 
DiffSBDD

>  <Protein>  (1) 
GPCR_5HT2C

$$$$
DiffSBDD_30_num_sample_100
     RDKit          3D

  0  0  0  0  0  0  0  0  0  0999 V3000
M  V30 BEGIN CTAB
M  V30 COUNTS 69 72 0 0 1
M  V30 BEGIN ATOM
M  V30 1 C 35.213937 33.335739 61.431637 0
M  V30 2 C 39.235267 33.878580 60.480001 0 CFG=2
M  V30 3 O 34.635237 33.621510 59.053501 0
M  V30 4 C 39.867418 30.061571 51.527128 0
M  V30 5 C 39.867256 29.084901 50.519012 0
M  V30 6 N 37.236439 32.258544 59.053493 0
M  V30 7 C 39.074081 27.431037 52.120427 0
M  V30 8 C 37.047268 33.604505 59.624608 0 CFG=1
M  V30 9 O 40.129516 30.955590 62.360034 0
M  V30 10 O 41.075298 35.133075 61.453440 0
M  V30 11 C 37.507421 26.165237 55.693766 0
M  V30 12 C 39.867239 35.073421 61.236425 0
M  V30 13 C 38.928418 36.180628 61.704109 0
M  V30 14 C 36.971327 24.821741 55.247124 0
M  V30 15 C 37.467321 28.633978 55.114864 0 CFG=2
M  V30 16 C 38.898364 29.765510 59.409797 0
M  V30 17 N 37.425881 29.883926 59.395069 0 CHG=1
M  V30 18 C 38.441584 24.983627 55.507923 0
M  V30 19 C 39.115051 29.048724 56.949857 0 CFG=1
M  V30 20 C 39.466761 27.771470 50.816050 0
M  V30 21 C 37.628178 29.027769 56.571449 0
M  V30 22 N 37.467494 27.222867 54.679553 0
M  V30 23 C 39.470039 29.726171 52.836433 0
M  V30 24 C 36.879114 31.139447 59.924119 0
M  V30 25 C 39.074401 28.399113 53.143041 0
M  V30 26 C 39.380108 28.691359 58.425103 0
M  V30 27 C 39.768876 32.301735 62.164208 0
M  V30 28 C 35.589872 33.924491 60.051524 0 CFG=2
M  V30 29 C 38.671751 28.019996 54.528507 0 CFG=1
M  V30 30 O 39.478776 30.685007 53.809271 0
M  V30 31 S 39.937866 27.890675 55.842925 0
M  V30 32 O 37.861313 33.867676 60.732053 0
M  V30 33 O 39.856903 32.660635 60.813805 0
M  V30 34 H 35.874304 33.710036 62.213962 0
M  V30 35 H 34.209967 33.621477 61.712128 0
M  V30 36 H 35.213821 32.254176 61.486023 0
M  V30 37 H 39.411000 34.029082 59.414001 0
M  V30 38 H 34.947969 32.917224 58.495884 0
M  V30 39 H 40.172540 31.072988 51.297992 0
M  V30 40 H 40.169446 29.344191 49.515034 0
M  V30 41 H 36.717117 32.189426 58.171706 0
M  V30 42 H 38.773309 26.421523 52.342061 0
M  V30 43 H 37.326857 34.321469 58.849949 0
M  V30 44 H 40.105214 30.773288 63.288785 0
M  V30 45 H 37.266738 26.410258 56.722451 0
M  V30 46 H 38.320112 36.539711 60.874319 0
M  V30 47 H 38.267393 35.807353 62.486453 0
M  V30 48 H 39.501463 37.017027 62.106494 0
M  V30 49 H 36.389318 24.249276 55.965631 0
M  V30 50 H 36.668136 24.710500 54.207593 0
M  V30 51 H 36.893419 29.326615 54.501477 0
M  V30 52 H 39.215286 29.509060 60.419486 0
M  V30 53 H 39.370762 30.713970 59.159499 0
M  V30 54 H 37.110113 29.808955 58.438794 0
M  V30 55 H 39.112392 24.992593 54.653538 0
M  V30 56 H 38.847673 24.524465 56.406691 0
M  V30 57 H 39.524472 30.034520 56.726344 0
M  V30 58 H 39.460621 27.020099 50.043501 0
M  V30 59 H 37.067506 28.366189 57.224305 0
M  V30 60 H 37.192752 30.020342 56.695075 0
M  V30 61 H 35.797366 31.014016 59.946583 0
M  V30 62 H 37.237896 31.292503 60.942221 0
M  V30 63 H 38.932560 27.726016 58.667975 0
M  V30 64 H 40.454806 28.561550 58.564236 0
M  V30 65 H 40.448264 32.902802 62.769941 0
M  V30 66 H 38.752290 32.420505 62.542160 0
M  V30 67 H 35.550571 35.007917 60.159279 0
M  V30 68 H 39.222078 30.369187 54.659186 0
M  V30 69 H 37.037783 29.112371 59.917497 0
M  V30 END ATOM
M  V30 BEGIN BOND
M  V30 1 1 5 4
M  V30 2 1 8 6
M  V30 3 1 12 2
M  V30 4 2 12 10
M  V30 5 1 13 12
M  V30 6 1 14 11
M  V30 7 1 17 16
M  V30 8 1 18 11
M  V30 9 1 18 14
M  V30 10 2 20 5
M  V30 11 1 20 7
M  V30 12 1 21 15
M  V30 13 1 21 19
M  V30 14 1 22 11
M  V30 15 1 22 15
M  V30 16 2 23 4
M  V30 17 1 24 6
M  V30 18 1 24 17
M  V30 19 2 25 7
M  V30 20 1 25 23
M  V30 21 1 26 16
M  V30 22 1 26 19
M  V30 23 1 27 9
M  V30 24 1 28 1
M  V30 25 1 28 3
M  V30 26 1 28 8
M  V30 27 1 29 15
M  V30 28 1 29 22
M  V30 29 1 29 25 CFG=3
M  V30 30 1 30 23
M  V30 31 1 31 19
M  V30 32 1 31 29
M  V30 33 1 32 2
M  V30 34 1 32 8
M  V30 35 1 33 2
M  V30 36 1 33 27
M  V30 37 1 34 1
M  V30 38 1 35 1
M  V30 39 1 36 1
M  V30 40 1 2 37 CFG=3
M  V30 41 1 38 3
M  V30 42 1 39 4
M  V30 43 1 40 5
M  V30 44 1 41 6
M  V30 45 1 42 7
M  V30 46 1 8 43 CFG=3
M  V30 47 1 44 9
M  V30 48 1 45 11
M  V30 49 1 46 13
M  V30 50 1 47 13
M  V30 51 1 48 13
M  V30 52 1 49 14
M  V30 53 1 50 14
M  V30 54 1 15 51 CFG=3
M  V30 55 1 52 16
M  V30 56 1 53 16
M  V30 57 1 54 17
M  V30 58 1 55 18
M  V30 59 1 56 18
M  V30 60 1 19 57 CFG=3
M  V30 61 1 58 20
M  V30 62 1 59 21
M  V30 63 1 60 21
M  V30 64 1 61 24
M  V30 65 1 62 24
M  V30 66 1 63 26
M  V30 67 1 64 26
M  V30 68 1 65 27
M  V30 69 1 66 27
M  V30 70 1 28 67 CFG=1
M  V30 71 1 68 30
M  V30 72 1 69 17
M  V30 END BOND
M  V30 END CTAB
M  END
>  <i_epik_Tot_Q>  (1) 
1

>  <i_epik_Tot_abs_Q>  (1) 
1

>  <i_i_glide_confnum>  (1) 
5117

>  <i_i_glide_lignum>  (1) 
80

>  <i_i_glide_posenum>  (1) 
30

>  <i_i_glide_rotatable_bonds>  (1) 
17

>  <i_lp_mmshare_version>  (1) 
72125

>  <i_m_source_file_index>  (1) 
31

>  <i_f3d_flags>  (1) 
0

>  <num_sample>  (1) 
100

>  <b_lp_Chiralities_Consistent>  (1) 
1

>  <r_epik_Charging_Adjusted_Penalty>  (1) 
0.074635642036716146

>  <r_epik_Ionization_Penalty>  (1) 
0.2367700207343624

>  <r_epik_Ionization_Penalty_Charging>  (1) 
0.00051329390614008978

>  <r_epik_Ionization_Penalty_Neutral>  (1) 
0.23625672682822232

>  <r_epik_State_Penalty>  (1) 
0.074122348130576055

>  <r_glide_ring_energy>  (1) 
0

>  <r_i_docking_score>  (1) 
-8.0661615271098732

>  <r_i_glide_ecoul>  (1) 
-6.3452672653950248

>  <r_i_glide_eff_state_penalty>  (1) 
0.074122348130576055

>  <r_i_glide_einternal>  (1) 
17.764124024823417

>  <r_i_glide_emodel>  (1) 
-75.644646104595935

>  <r_i_glide_emodel_strain>  (1) 
1.1193513350219604

>  <r_i_glide_energy>  (1) 
-52.747511210849026

>  <r_i_glide_erotb>  (1) 
1.1326933877215775

>  <r_i_glide_esite>  (1) 
-0.11163508234250966

>  <r_i_glide_evdw>  (1) 
-46.402243945454003

>  <r_i_glide_gscore>  (1) 
-8.1402838752404492

>  <r_i_glide_gscore_strain>  (1) 
0

>  <r_i_glide_hbond>  (1) 
-0.30399999999999999

>  <r_i_glide_ligand_efficiency>  (1) 
-0.24442913718514767

>  <r_i_glide_ligand_efficiency_ln>  (1) 
-1.7938725592800282

>  <r_i_glide_ligand_efficiency_sa>  (1) 
-0.78401484877262062

>  <r_i_glide_lipo>  (1) 
-4.0834224024237225

>  <r_i_glide_metal>  (1) 
-0

>  <r_i_glide_rewards>  (1) 
-1.5020174911138402

>  <r_lp_Energy>  (1) 
27.490511999999999

>  <r_lp_tautomer_probability>  (1) 
0.99999996999736518

>  <s_epik_Chemistry_Notes>  (1) 
This compound contains an acetal/aminal-like group ( X-CH(R)-Y where X, Y are N, S, or O) that may be acid/base labile, releasing an aldehyde.

>  <s_epik_cmdline>  (1) 
J2VwaWtfcHl0aG9uJywgJy1waHQnLCAnMS4wJywgJy1waCcsICc3LjQnLCAnLXRuJywgJzgnLCAnLW1hJywgJzUwMCcsICctaW1hZScsICc8aW5maWxlLm1hZT4nLCAnLW9tYWUnLCAnPG91dGZpbGUubWFlPic=

>  <s_epik_input>  (1) 
W09IXVtDSDJdT1tDQEBIXShDKD1PKVtDSDNdKU9bQ0BIXShbQ0BIXShbQ0gzXSlbT0hdKVtOSF1bQ0gyXVtOSF1bQ0gyXVtDSDJdW0NAQEhdKFMxKVtDSDJdW0NASF0oTjJbQ0hdM1tDSDJdW0NIMl0zKVtDQEBdMTJjNFtjSF1bY0hdW2NIXVtjSF1jNFtPSF0=

>  <s_glide_docking_method>  (1) 
confgen

>  <s_i_glide_gridfile>  (1) 
gpcr_5ht2c_6bqh_protein_autoprepared_prepared

>  <s_lp_Force_Field>  (1) 
S-OPLS

>  <s_lp_Variant>  (1) 
DiffSBDD_30_num_sample_100-2

>  <s_m_source_file>  (1) 
generated__ligand_DiffSBDD_2026-05-06_prepared.sdf

>  <GenAI_Model>  (1) 
DiffSBDD

>  <Protein>  (1) 
GPCR_5HT2C

$$$$
DiffSBDD_19_num_sample_100
     RDKit          3D

  0  0  0  0  0  0  0  0  0  0999 V3000
M  V30 BEGIN CTAB
M  V30 COUNTS 71 72 0 0 1
M  V30 BEGIN ATOM
M  V30 1 C 38.938098 30.050120 56.787577 0
M  V30 2 C 38.211202 31.947992 60.343686 0
M  V30 3 C 39.959029 30.048670 54.459041 0
M  V30 4 C 39.570066 27.193918 53.306532 0
M  V30 5 O 38.668831 29.636556 60.722846 0
M  V30 6 C 39.258813 25.634932 57.419870 0
M  V30 7 C 39.180035 28.456952 52.516931 0 CFG=2
M  V30 8 C 40.653141 35.746701 62.905095 0
M  V30 9 C 40.599580 34.649504 61.901368 0
M  V30 10 C 40.267580 30.690653 52.048628 0
M  V30 11 C 39.827845 36.786015 63.014744 0
M  V30 12 C 39.260138 28.153407 50.994035 0
M  V30 13 C 39.768988 29.295553 50.137854 0
M  V30 14 O 38.000045 32.059239 54.647630 0
M  V30 15 O 36.495102 30.421861 54.653441 0 CHG=-1
M  V30 16 O 41.729350 35.606530 63.692879 0
M  V30 17 C 40.214979 30.448784 50.635535 0
M  V30 18 N 37.900444 29.335202 57.577706 0 CFG=1 CHG=1
M  V30 19 C 38.510924 30.588788 59.703837 0 CFG=1
M  V30 20 C 38.635907 37.034766 62.209318 0
M  V30 21 C 39.382791 32.534420 61.171708 0 CFG=1
M  V30 22 C 37.928131 36.158168 61.451696 0
M  V30 23 C 38.239950 27.935365 57.981924 0
M  V30 24 C 38.689649 29.891967 55.280754 0 CFG=2
M  V30 25 C 37.639695 30.875145 54.821150 0
M  V30 26 C 37.399143 30.143672 58.719375 0
M  V30 27 C 39.830974 29.794535 52.947999 0
M  V30 28 C 38.163311 34.728407 61.241034 0
M  V30 29 C 38.055989 24.684914 57.507115 0
M  V30 30 C 39.303715 34.035256 61.456603 0
M  V30 31 C 38.900593 27.044025 56.915238 0
M  V30 32 O 39.508006 31.813513 62.381356 0
M  V30 33 H 38.933211 31.116093 57.022223 0
M  V30 34 H 39.929543 29.705992 57.081694 0
M  V30 35 H 37.297173 31.895409 60.936239 0
M  V30 36 H 38.007118 32.628604 59.517118 0
M  V30 37 H 40.388887 31.039429 54.618543 0
M  V30 38 H 40.666436 29.369352 54.918125 0
M  V30 39 H 39.632059 27.359421 54.370878 0
M  V30 40 H 38.827016 26.415555 53.147201 0
M  V30 41 H 40.535048 26.789666 53.013457 0
M  V30 42 H 39.058167 30.080777 61.470153 0
M  V30 43 H 39.987142 25.197786 56.735397 0
M  V30 44 H 39.761580 25.698689 58.384568 0
M  V30 45 H 38.124137 28.622642 52.730578 0
M  V30 46 H 41.096777 35.020280 61.005814 0
M  V30 47 H 41.234396 33.840070 62.266169 0
M  V30 48 H 40.697474 31.613016 52.399499 0
M  V30 49 H 40.066308 37.522519 63.769858 0
M  V30 50 H 38.265005 27.874304 50.654331 0
M  V30 51 H 39.888920 27.289111 50.789400 0
M  V30 52 H 39.750845 29.148581 49.069545 0
M  V30 53 H 41.770519 36.367387 64.257945 0
M  V30 54 H 40.558389 31.216258 49.958521 0
M  V30 55 H 39.467325 30.670079 59.201866 0
M  V30 56 H 38.238288 38.023348 62.252292 0
M  V30 57 H 40.304449 32.390171 60.608396 0
M  V30 58 H 37.042685 36.560361 60.979716 0
M  V30 59 H 38.884233 27.941576 58.860235 0
M  V30 60 H 37.305528 27.456677 58.252707 0
M  V30 61 H 38.282120 28.905800 55.093406 0
M  V30 62 H 36.597898 29.616392 59.240687 0
M  V30 63 H 36.929041 31.026665 58.288096 0
M  V30 64 H 37.320259 34.173445 60.865742 0
M  V30 65 H 38.367498 23.694132 57.835743 0
M  V30 66 H 37.305995 25.044821 58.210682 0
M  V30 67 H 37.574457 24.568626 56.535122 0
M  V30 68 H 38.244413 26.948624 56.051998 0
M  V30 69 H 39.828564 27.505461 56.580516 0
M  V30 70 H 40.138602 32.258200 62.929340 0
M  V30 71 H 37.107783 29.279675 56.948092 0
M  V30 END ATOM
M  V30 BEGIN BOND
M  V30 1 1 7 4
M  V30 2 1 9 8
M  V30 3 2 11 8
M  V30 4 1 12 7
M  V30 5 1 13 12
M  V30 6 1 16 8
M  V30 7 1 17 10
M  V30 8 2 17 13
M  V30 9 1 18 1
M  V30 10 1 19 2
M  V30 11 1 19 5
M  V30 12 1 20 11
M  V30 13 1 21 2
M  V30 14 2 22 20
M  V30 15 1 23 18
M  V30 16 1 24 1
M  V30 17 1 24 3
M  V30 18 2 25 14
M  V30 19 1 25 15
M  V30 20 1 25 24
M  V30 21 1 26 18
M  V30 22 1 26 19
M  V30 23 1 27 3
M  V30 24 1 27 7
M  V30 25 2 27 10
M  V30 26 1 28 22
M  V30 27 1 29 6
M  V30 28 1 30 9
M  V30 29 1 30 21
M  V30 30 2 30 28
M  V30 31 1 31 6
M  V30 32 1 31 23
M  V30 33 1 32 21
M  V30 34 1 33 1
M  V30 35 1 34 1
M  V30 36 1 35 2
M  V30 37 1 36 2
M  V30 38 1 37 3
M  V30 39 1 38 3
M  V30 40 1 39 4
M  V30 41 1 40 4
M  V30 42 1 41 4
M  V30 43 1 42 5
M  V30 44 1 43 6
M  V30 45 1 44 6
M  V30 46 1 7 45 CFG=1
M  V30 47 1 46 9
M  V30 48 1 47 9
M  V30 49 1 48 10
M  V30 50 1 49 11
M  V30 51 1 50 12
M  V30 52 1 51 12
M  V30 53 1 52 13
M  V30 54 1 53 16
M  V30 55 1 54 17
M  V30 56 1 19 55 CFG=3
M  V30 57 1 56 20
M  V30 58 1 21 57 CFG=3
M  V30 59 1 58 22
M  V30 60 1 59 23
M  V30 61 1 60 23
M  V30 62 1 24 61 CFG=1
M  V30 63 1 62 26
M  V30 64 1 63 26
M  V30 65 1 64 28
M  V30 66 1 65 29
M  V30 67 1 66 29
M  V30 68 1 67 29
M  V30 69 1 68 31
M  V30 70 1 69 31
M  V30 71 1 70 32
M  V30 72 1 18 71 CFG=3
M  V30 END BOND
M  V30 END CTAB
M  END
>  <i_epik_Tot_Q>  (1) 
0

>  <i_epik_Tot_abs_Q>  (1) 
2

>  <i_i_glide_confnum>  (1) 
5469

>  <i_i_glide_lignum>  (1) 
52

>  <i_i_glide_posenum>  (1) 
78

>  <i_i_glide_rotatable_bonds>  (1) 
16

>  <i_lp_mmshare_version>  (1) 
72125

>  <i_m_source_file_index>  (1) 
20

>  <i_f3d_flags>  (1) 
0

>  <num_sample>  (1) 
100

>  <b_lp_Chiralities_Consistent>  (1) 
1

>  <r_epik_Charging_Adjusted_Penalty>  (1) 
0.015037487925518506

>  <r_epik_Ionization_Penalty>  (1) 
0.015045499532085388

>  <r_epik_Ionization_Penalty_Charging>  (1) 
0.0012943130925640431

>  <r_epik_Ionization_Penalty_Neutral>  (1) 
0.013751186439521345

>  <r_epik_State_Penalty>  (1) 
0.013743174832954463

>  <r_glide_ring_energy>  (1) 
0

>  <r_i_docking_score>  (1) 
-8.0524020671224807

>  <r_i_glide_ecoul>  (1) 
-4.1960295042865772

>  <r_i_glide_eff_state_penalty>  (1) 
0.013743174832954463

>  <r_i_glide_einternal>  (1) 
13.208513360341987

>  <r_i_glide_emodel>  (1) 
-62.241519721204256

>  <r_i_glide_emodel_strain>  (1) 
1.5541985979257049

>  <r_i_glide_energy>  (1) 
-42.772653426706114

>  <r_i_glide_erotb>  (1) 
1.1084889849388277

>  <r_i_glide_esite>  (1) 
-0.09698823512781285

>  <r_i_glide_evdw>  (1) 
-38.576623922419536

>  <r_i_glide_gscore>  (1) 
-8.0661452419554358

>  <r_i_glide_gscore_strain>  (1) 
0

>  <r_i_glide_hbond>  (1) 
-0.26761609179224349

>  <r_i_glide_ligand_efficiency>  (1) 
-0.25163756459757752

>  <r_i_glide_ligand_efficiency_ln>  (1) 
-1.8031523230189557

>  <r_i_glide_ligand_efficiency_sa>  (1) 
-0.79889946951382074

>  <r_i_glide_lipo>  (1) 
-4.9809153918466063

>  <r_i_glide_metal>  (1) 
-0

>  <r_i_glide_rewards>  (1) 
-1.2708788863636373

>  <r_lp_Energy>  (1) 
25.908189

>  <s_epik_cmdline>  (1) 
J2VwaWtfcHl0aG9uJywgJy1waHQnLCAnMS4wJywgJy1waCcsICc3LjQnLCAnLXRuJywgJzgnLCAnLW1hJywgJzUwMCcsICctaW1hZScsICc8aW5maWxlLm1hZT4nLCAnLW9tYWUnLCAnPG91dGZpbGUubWFlPic=

>  <s_epik_input>  (1) 
W0NIM11bQ0BIXTFbQ0gyXVtDSF09W0NIXVtDSF09QzFbQ0gyXVtDQEhdKEMoPU8pW09IXSlbQ0gyXU4oW0NIMl1bQ0gyXVtDSDJdW0NIM10pW0NIMl1bQ0BIXShbT0hdKVtDSDJdW0NASF0oW09IXSlDKFtDSDJdMik9W0NIXVtDSF09W0NIXVtDSF09QzJbT0hd

>  <s_glide_docking_method>  (1) 
confgen

>  <s_i_glide_gridfile>  (1) 
gpcr_5ht2c_6bqh_protein_autoprepared_prepared

>  <s_lp_Force_Field>  (1) 
S-OPLS

>  <s_lp_Variant>  (1) 
DiffSBDD_19_num_sample_100-4

>  <s_m_source_file>  (1) 
generated__ligand_DiffSBDD_2026-05-06_prepared.sdf

>  <GenAI_Model>  (1) 
DiffSBDD

>  <Protein>  (1) 
GPCR_5HT2C

$$$$
DiffSBDD_53_num_sample_100
     RDKit          3D

  0  0  0  0  0  0  0  0  0  0999 V3000
M  V30 BEGIN CTAB
M  V30 COUNTS 69 72 0 0 1
M  V30 BEGIN ATOM
M  V30 1 C 39.345537 29.162468 58.792582 0
M  V30 2 C 38.497069 33.533219 59.683593 0
M  V30 3 C 39.215867 30.875655 60.674501 0
M  V30 4 O 34.267668 32.024920 59.453514 0
M  V30 5 N 36.204875 33.946469 58.671447 0 CFG=1 CHG=1
M  V30 6 C 38.911794 28.759007 51.787367 0
M  V30 7 C 39.867313 31.024517 51.143607 0
M  V30 8 N 38.860735 27.752547 52.841657 0
M  V30 9 C 37.752743 27.498991 53.553104 0
M  V30 10 C 40.678391 28.936931 60.932214 0
M  V30 11 C 38.731517 27.161057 55.850866 0 CFG=1
M  V30 12 C 35.080417 34.864704 58.725940 0
M  V30 13 C 37.606857 34.392212 58.735195 0
M  V30 14 C 35.504022 34.070733 59.932529 0 CFG=1
M  V30 15 O 37.890129 28.055691 56.572872 0
M  V30 16 C 37.543274 27.483796 57.823212 0 CFG=1
M  V30 17 C 39.250323 26.178052 56.904220 0 CFG=1
M  V30 18 C 38.071925 26.048533 57.831043 0
M  V30 19 C 35.063653 32.706700 60.379267 0 CFG=2
M  V30 20 C 39.761414 29.676276 60.159680 0
M  V30 21 O 36.667403 28.021391 53.317698 0
M  V30 22 C 41.062435 29.395360 62.208019 0
M  V30 23 C 39.514828 30.535222 53.594507 0
M  V30 24 O 40.491523 30.811101 54.328323 0
M  V30 25 S 36.435214 31.743212 61.054178 0
M  V30 26 C 40.530499 30.596542 62.716160 0
M  V30 27 C 39.827276 29.944155 52.200246 0 CFG=1
M  V30 28 C 40.218731 30.808644 49.869493 0
M  V30 29 O 38.311776 30.700934 53.888738 0 CHG=-1
M  V30 30 C 37.902911 26.520448 54.708942 0
M  V30 31 S 38.004097 31.779539 59.736848 0 CHG=1
M  V30 32 C 39.605581 31.337335 61.953140 0
M  V30 33 C 39.832635 24.889614 56.354098 0
M  V30 34 C 38.059173 28.360514 58.983250 0
M  V30 35 H 39.228007 29.959908 58.056827 0
M  V30 36 H 40.149125 28.539242 58.410632 0
M  V30 37 H 38.463143 33.921302 60.702471 0
M  V30 38 H 39.537549 33.604572 59.366261 0
M  V30 39 H 34.666503 31.954491 58.584628 0
M  V30 40 H 39.309287 28.271304 50.896394 0
M  V30 41 H 37.920505 29.127326 51.518117 0
M  V30 42 H 39.590102 32.021401 51.461351 0
M  V30 43 H 39.717883 27.279346 53.083035 0
M  V30 44 H 41.092001 28.014590 60.545722 0
M  V30 45 H 39.582490 27.717481 55.453058 0
M  V30 46 H 35.386183 35.903809 58.654781 0
M  V30 47 H 34.255047 34.520691 58.110669 0
M  V30 48 H 37.627628 35.430505 59.065306 0
M  V30 49 H 37.986076 34.338535 57.713428 0
M  V30 50 H 36.049940 34.634984 60.686006 0
M  V30 51 H 36.458636 27.434145 57.853470 0
M  V30 52 H 40.062477 26.648782 57.455493 0
M  V30 53 H 38.336606 25.680469 58.822577 0
M  V30 54 H 37.315718 25.378543 57.418441 0
M  V30 55 H 34.413506 32.882882 61.233851 0
M  V30 56 H 41.766432 28.822234 62.796843 0
M  V30 57 H 40.823756 30.943652 63.696355 0
M  V30 58 H 40.832365 29.538555 52.249650 0
M  V30 59 H 40.231406 31.615886 49.155596 0
M  V30 60 H 40.496899 29.821763 49.527971 0
M  V30 61 H 38.383402 25.634583 54.294056 0
M  V30 62 H 36.925278 26.209523 55.083173 0
M  V30 63 H 39.187025 32.246546 62.355616 0
M  V30 64 H 39.084062 24.270361 55.866021 0
M  V30 65 H 40.608016 25.172844 55.639626 0
M  V30 66 H 40.266490 24.291612 57.150495 0
M  V30 67 H 38.266017 27.705064 59.832630 0
M  V30 68 H 37.252468 29.029244 59.285180 0
M  V30 69 H 35.982451 33.126962 58.103657 0
M  V30 END ATOM
M  V30 BEGIN BOND
M  V30 1 1 8 6
M  V30 2 1 9 8
M  V30 3 1 12 5
M  V30 4 1 13 2
M  V30 5 1 13 5
M  V30 6 1 14 5
M  V30 7 1 14 12
M  V30 8 1 15 11
M  V30 9 1 16 15
M  V30 10 1 17 11
M  V30 11 1 18 16
M  V30 12 1 18 17
M  V30 13 1 19 4
M  V30 14 1 19 14
M  V30 15 1 20 1
M  V30 16 1 20 3
M  V30 17 2 20 10
M  V30 18 2 21 9
M  V30 19 1 22 10
M  V30 20 2 24 23
M  V30 21 1 25 19
M  V30 22 2 26 22
M  V30 23 1 27 6
M  V30 24 1 27 7
M  V30 25 1 27 23
M  V30 26 2 28 7
M  V30 27 1 29 23
M  V30 28 1 30 9
M  V30 29 1 30 11
M  V30 30 1 31 2
M  V30 31 1 31 3 CFG=1
M  V30 32 1 31 25
M  V30 33 2 32 3
M  V30 34 1 32 26
M  V30 35 1 33 17
M  V30 36 1 34 1
M  V30 37 1 34 16
M  V30 38 1 35 1
M  V30 39 1 36 1
M  V30 40 1 37 2
M  V30 41 1 38 2
M  V30 42 1 39 4
M  V30 43 1 40 6
M  V30 44 1 41 6
M  V30 45 1 42 7
M  V30 46 1 43 8
M  V30 47 1 44 10
M  V30 48 1 11 45 CFG=3
M  V30 49 1 46 12
M  V30 50 1 47 12
M  V30 51 1 48 13
M  V30 52 1 49 13
M  V30 53 1 14 50 CFG=1
M  V30 54 1 16 51 CFG=3
M  V30 55 1 17 52 CFG=1
M  V30 56 1 53 18
M  V30 57 1 54 18
M  V30 58 1 19 55 CFG=1
M  V30 59 1 56 22
M  V30 60 1 57 26
M  V30 61 1 27 58 CFG=1
M  V30 62 1 59 28
M  V30 63 1 60 28
M  V30 64 1 61 30
M  V30 65 1 62 30
M  V30 66 1 63 32
M  V30 67 1 64 33
M  V30 68 1 65 33
M  V30 69 1 66 33
M  V30 70 1 67 34
M  V30 71 1 68 34
M  V30 72 1 5 69 CFG=3
M  V30 END BOND
M  V30 END CTAB
M  END
>  <i_epik_Tot_Q>  (1) 
1

>  <i_epik_Tot_abs_Q>  (1) 
3

>  <i_i_glide_confnum>  (1) 
2689

>  <i_i_glide_lignum>  (1) 
141

>  <i_i_glide_posenum>  (1) 
370

>  <i_i_glide_rotatable_bonds>  (1) 
12

>  <i_lp_mmshare_version>  (1) 
72125

>  <i_m_source_file_index>  (1) 
54

>  <i_f3d_flags>  (1) 
0

>  <num_sample>  (1) 
100

>  <b_lp_Chiralities_Consistent>  (1) 
1

>  <r_epik_Charging_Adjusted_Penalty>  (1) 
0.046453037766825911

>  <r_epik_Ionization_Penalty>  (1) 
0.023481310305084564

>  <r_epik_Ionization_Penalty_Charging>  (1) 
0.023340632071334463

>  <r_epik_Ionization_Penalty_Neutral>  (1) 
0.0001406782337501018

>  <r_epik_State_Penalty>  (1) 
0.023112405695491445

>  <r_glide_ring_energy>  (1) 
0.17236391819081889

>  <r_i_docking_score>  (1) 
-8.0500193487846072

>  <r_i_glide_ecoul>  (1) 
-8.6406326991166083

>  <r_i_glide_eff_state_penalty>  (1) 
0.023112405695491445

>  <r_i_glide_einternal>  (1) 
14.215534578055644

>  <r_i_glide_emodel>  (1) 
-64.939403211431994

>  <r_i_glide_emodel_strain>  (1) 
3.82638263298103

>  <r_i_glide_energy>  (1) 
-46.509892017850937

>  <r_i_glide_erotb>  (1) 
0.79410111881252765

>  <r_i_glide_esite>  (1) 
-0.094396751788945119

>  <r_i_glide_evdw>  (1) 
-37.869259318734329

>  <r_i_glide_gscore>  (1) 
-8.073131754480098

>  <r_i_glide_gscore_strain>  (1) 
0

>  <r_i_glide_hbond>  (1) 
-0.35999999999999999

>  <r_i_glide_ligand_efficiency>  (1) 
-0.23676527496425315

>  <r_i_glide_ligand_efficiency_ln>  (1) 
-1.7784750695410534

>  <r_i_glide_ligand_efficiency_sa>  (1) 
-0.76702757890690287

>  <r_i_glide_lipo>  (1) 
-3.7099872145390504

>  <r_i_glide_metal>  (1) 
-0

>  <r_i_glide_rewards>  (1) 
-1.5132910361604217

>  <r_lp_Energy>  (1) 
5.0238719999999999

>  <s_epik_Chemistry_Notes>  (1) 
This compound contains an acetal/aminal-like group ( X-CH(R)-Y where X, Y are N, S, or O) that may be acid/base labile, releasing an aldehyde.

>  <s_epik_cmdline>  (1) 
J2VwaWtfcHl0aG9uJywgJy1waHQnLCAnMS4wJywgJy1waCcsICc3LjQnLCAnLXRuJywgJzgnLCAnLW1hJywgJzUwMCcsICctaW1hZScsICc8aW5maWxlLm1hZT4nLCAnLW9tYWUnLCAnPG91dGZpbGUubWFlPic=

>  <s_epik_input>  (1) 
TjEyW0NAQEhdKFtDSDJdMSlbQ0BASF0oW09IXSlTW1MrXShbQ0gyXVtDSDJdMiljM2MoW2NIXVtjSF1bY0hdW2NIXTMpW0NIMl1bQ0gyXVtDQEhdKFtDSDJdW0NASF00W0NIM10pT1tDQEBIXTRbQ0gyXUMoPU8pW05IXVtDSDJdW0NAQEhdKFtDSF09W0NIMl0pQyg9TylbT0hd

>  <s_glide_docking_method>  (1) 
confgen

>  <s_i_glide_gridfile>  (1) 
gpcr_5ht2c_6bqh_protein_autoprepared_prepared

>  <s_lp_Force_Field>  (1) 
S-OPLS

>  <s_lp_Variant>  (1) 
DiffSBDD_53_num_sample_100-2

>  <s_m_source_file>  (1) 
generated__ligand_DiffSBDD_2026-05-06_prepared.sdf

>  <GenAI_Model>  (1) 
DiffSBDD

>  <Protein>  (1) 
GPCR_5HT2C

$$$$
DiffSBDD_6_num_sample_100
     RDKit          3D

  0  0  0  0  0  0  0  0  0  0999 V3000
M  V30 BEGIN CTAB
M  V30 COUNTS 67 70 0 0 1
M  V30 BEGIN ATOM
M  V30 1 C 39.156238 32.938605 61.418470 0 CFG=1
M  V30 2 C 40.691708 30.405320 50.582531 0
M  V30 3 O 39.067402 31.022804 58.075516 0
M  V30 4 C 38.642344 27.244586 57.160287 0 CFG=2
M  V30 5 N 38.918692 31.715327 60.683304 0
M  V30 6 N 38.500864 29.236124 54.807816 0
M  V30 7 O 39.699578 25.221427 57.853492 0
M  V30 8 C 38.075564 28.631804 57.552167 0 CFG=1
M  V30 9 O 37.547791 26.438772 56.727065 0
M  V30 10 O 38.732448 31.419548 54.215963 0
M  V30 11 S 36.203284 34.371662 60.115105 0
M  V30 12 S 39.284956 29.592274 58.571654 0
M  V30 13 O 40.707624 28.309905 56.253178 0
M  V30 14 C 39.168434 26.423547 58.355807 0
M  V30 15 C 40.591836 32.930836 61.988721 0
M  V30 16 C 40.267353 29.222186 49.961424 0
M  V30 17 C 38.729195 35.410060 61.085761 0
M  V30 18 S 37.067396 36.053141 61.027455 0
M  V30 19 C 41.789059 27.865318 57.059114 0
M  V30 20 O 35.824320 33.399157 61.153558 0
M  V30 21 C 39.104034 30.403316 61.262932 0
M  V30 22 C 40.267370 30.705750 51.885770 0
M  V30 23 C 40.999655 34.220251 62.720060 0
M  V30 24 S 37.467418 29.621445 56.150008 0
M  V30 25 C 37.774052 33.872389 59.354616 0
M  V30 26 C 39.415927 29.822117 52.579872 0
M  V30 27 C 38.950897 34.075581 60.371737 0 CFG=2
M  V30 28 C 40.988488 35.483560 61.834786 0
M  V30 29 O 35.270106 34.782805 59.055468 0
M  V30 30 C 38.978672 27.842254 54.707322 0
M  V30 31 C 38.873138 30.226709 53.947129 0
M  V30 32 C 39.425211 28.329330 50.643185 0
M  V30 33 C 38.987594 28.626971 51.939426 0
M  V30 34 C 39.657712 27.374865 55.999252 0 CFG=2
M  V30 35 N 39.652914 36.035271 61.701996 0
M  V30 36 C 38.501463 29.403018 60.253456 0
M  V30 37 H 38.422616 33.014185 62.223081 0
M  V30 38 H 41.339569 31.089838 50.054843 0
M  V30 39 H 38.022916 31.767475 60.218086 0
M  V30 40 H 39.034369 24.842605 57.294854 0
M  V30 41 H 37.199187 28.477883 58.181816 0
M  V30 42 H 37.071533 26.910857 56.059426 0
M  V30 43 H 38.362417 26.195189 59.053135 0
M  V30 44 H 39.938136 26.925599 58.934060 0
M  V30 45 H 40.699858 32.106083 62.691913 0
M  V30 46 H 41.304641 32.735199 61.187775 0
M  V30 47 H 40.590158 28.998142 48.956617 0
M  V30 48 H 42.689608 28.423300 56.817385 0
M  V30 49 H 41.604828 28.012992 58.120245 0
M  V30 50 H 42.012495 26.821429 56.893080 0
M  V30 51 H 38.585210 30.333451 62.220175 0
M  V30 52 H 40.161029 30.201542 61.432257 0
M  V30 53 H 40.582320 31.621424 52.351499 0
M  V30 54 H 40.373309 34.370225 63.600716 0
M  V30 55 H 42.011193 34.078140 63.099875 0
M  V30 56 H 37.662735 32.885060 58.909623 0
M  V30 57 H 37.867426 34.526851 58.492101 0
M  V30 58 H 41.610573 36.241037 62.312551 0
M  V30 59 H 41.454568 35.304408 60.865075 0
M  V30 60 H 38.164256 27.179043 54.416184 0
M  V30 61 H 39.780526 27.687924 53.994217 0
M  V30 62 H 39.093638 27.421267 50.158974 0
M  V30 63 H 38.299151 27.957633 52.423803 0
M  V30 64 H 40.100404 26.409059 55.753152 0
M  V30 65 H 39.850272 34.142623 59.759857 0
M  V30 66 H 37.430367 29.588715 60.163890 0
M  V30 67 H 38.647314 28.379602 60.600076 0
M  V30 END ATOM
M  V30 BEGIN BOND
M  V30 1 1 5 1
M  V30 2 1 8 4
M  V30 3 1 4 9 CFG=3
M  V30 4 2 12 3
M  V30 5 1 12 8
M  V30 6 1 14 4
M  V30 7 1 14 7
M  V30 8 1 15 1
M  V30 9 2 16 2
M  V30 10 1 18 11
M  V30 11 1 18 17
M  V30 12 1 19 13
M  V30 13 2 20 11
M  V30 14 1 21 5
M  V30 15 1 22 2
M  V30 16 1 23 15
M  V30 17 1 24 6
M  V30 18 1 24 8
M  V30 19 1 25 11
M  V30 20 2 26 22
M  V30 21 1 27 1
M  V30 22 1 27 17
M  V30 23 1 27 25
M  V30 24 1 28 23
M  V30 25 2 29 11
M  V30 26 1 30 6
M  V30 27 1 31 6
M  V30 28 2 31 10
M  V30 29 1 31 26
M  V30 30 1 32 16
M  V30 31 1 33 26
M  V30 32 2 33 32
M  V30 33 1 34 4
M  V30 34 1 34 13
M  V30 35 1 34 30
M  V30 36 2 35 17
M  V30 37 1 35 28
M  V30 38 1 12 36 CFG=1
M  V30 39 1 36 21
M  V30 40 1 1 37 CFG=1
M  V30 41 1 38 2
M  V30 42 1 39 5
M  V30 43 1 40 7
M  V30 44 1 8 41 CFG=1
M  V30 45 1 42 9
M  V30 46 1 43 14
M  V30 47 1 44 14
M  V30 48 1 45 15
M  V30 49 1 46 15
M  V30 50 1 47 16
M  V30 51 1 48 19
M  V30 52 1 49 19
M  V30 53 1 50 19
M  V30 54 1 51 21
M  V30 55 1 52 21
M  V30 56 1 53 22
M  V30 57 1 54 23
M  V30 58 1 55 23
M  V30 59 1 56 25
M  V30 60 1 57 25
M  V30 61 1 58 28
M  V30 62 1 59 28
M  V30 63 1 60 30
M  V30 64 1 61 30
M  V30 65 1 62 32
M  V30 66 1 63 33
M  V30 67 1 34 64 CFG=3
M  V30 68 1 27 65 CFG=3
M  V30 69 1 66 36
M  V30 70 1 67 36
M  V30 END BOND
M  V30 END CTAB
M  END
>  <i_epik_Tot_Q>  (1) 
0

>  <i_epik_Tot_abs_Q>  (1) 
0

>  <i_i_glide_confnum>  (1) 
73

>  <i_i_glide_lignum>  (1) 
26

>  <i_i_glide_posenum>  (1) 
187

>  <i_i_glide_rotatable_bonds>  (1) 
11

>  <i_lp_mmshare_version>  (1) 
72125

>  <i_m_source_file_index>  (1) 
7

>  <i_f3d_flags>  (1) 
0

>  <num_sample>  (1) 
100

>  <b_lp_Chiralities_Consistent>  (1) 
1

>  <r_epik_Charging_Adjusted_Penalty>  (1) 
0.04024977574551479

>  <r_epik_Ionization_Penalty>  (1) 
0.04050266925573108

>  <r_epik_Ionization_Penalty_Charging>  (1) 
0

>  <r_epik_Ionization_Penalty_Neutral>  (1) 
0.04050266925573108

>  <r_epik_State_Penalty>  (1) 
0.04024977574551479

>  <r_glide_ring_energy>  (1) 
1.1347446578081875

>  <r_i_docking_score>  (1) 
-8.0415110840708337

>  <r_i_glide_ecoul>  (1) 
-0.49225224783570776

>  <r_i_glide_eff_state_penalty>  (1) 
0.04024977574551479

>  <r_i_glide_einternal>  (1) 
8.8067287067716435

>  <r_i_glide_emodel>  (1) 
-69.64409320053133

>  <r_i_glide_emodel_strain>  (1) 
4.983343023801595

>  <r_i_glide_energy>  (1) 
-52.988664800461308

>  <r_i_glide_erotb>  (1) 
0.34065271397431773

>  <r_i_glide_esite>  (1) 
-0.026510067914640292

>  <r_i_glide_evdw>  (1) 
-52.4964125526256

>  <r_i_glide_gscore>  (1) 
-8.0817608598163488

>  <r_i_glide_gscore_strain>  (1) 
0.24583575595039875

>  <r_i_glide_hbond>  (1) 
0

>  <r_i_glide_ligand_efficiency>  (1) 
-0.22337530789085649

>  <r_i_glide_ligand_efficiency_ln>  (1) 
-1.7544404620218492

>  <r_i_glide_ligand_efficiency_sa>  (1) 
-0.73756901585504608

>  <r_i_glide_lipo>  (1) 
-4.2348385518854332

>  <r_i_glide_metal>  (1) 
-0

>  <r_i_glide_rewards>  (1) 
-1.7082422451343562

>  <r_lp_Energy>  (1) 
36.868558999999998

>  <r_lp_tautomer_probability>  (1) 
0.99960115913750414

>  <s_epik_Chemistry_Notes>  (1) 
This compound has an imine and may undergo hydrolysis. This compound contains an acetal/aminal-like group ( X-CH(R)-Y where X, Y are N, S, or O) that may be acid/base labile, releasing an aldehyde. This compound has a N-S or N-O group and may undergo hydrolysis at high or low pH.

>  <s_epik_cmdline>  (1) 
J2VwaWtfcHl0aG9uJywgJy1waHQnLCAnMS4wJywgJy1waCcsICc3LjQnLCAnLXRuJywgJzgnLCAnLW1hJywgJzUwMCcsICctaW1hZScsICc8aW5maWxlLm1hZT4nLCAnLW9tYWUnLCAnPG91dGZpbGUubWFlPic=

>  <s_epik_input>  (1) 
UzFTKD1PKSg9TylbQ0gyXUMoPUMxMilbQ0BIXShbQ0gyXVtDSDJdW0NIMl1bTkhdMilbTkhdW0NIMl1bQ0gyXVtTQF0oPU8pW0NASF0oW0NAXTMoW09IXSlbQ0gyXVtPSF0pU04oW0NIMl1bQ0BIXTNPW0NIM10pQyg9TyljNFtjSF1bY0hdW2NIXVtjSF1bY0hdNA==

>  <s_glide_docking_method>  (1) 
confgen

>  <s_i_glide_gridfile>  (1) 
gpcr_5ht2c_6bqh_protein_autoprepared_prepared

>  <s_lp_Force_Field>  (1) 
S-OPLS

>  <s_lp_Variant>  (1) 
DiffSBDD_6_num_sample_100-2

>  <s_m_source_file>  (1) 
generated__ligand_DiffSBDD_2026-05-06_prepared.sdf

>  <GenAI_Model>  (1) 
DiffSBDD

>  <Protein>  (1) 
GPCR_5HT2C

$$$$
DiffSBDD_77_num_sample_100
     RDKit          3D

  0  0  0  0  0  0  0  0  0  0999 V3000
M  V30 BEGIN CTAB
M  V30 COUNTS 77 79 0 0 1
M  V30 BEGIN ATOM
M  V30 1 C 40.510265 29.369557 66.261578 0
M  V30 2 F 43.060802 27.536270 64.351477 0
M  V30 3 C 38.997368 27.698158 59.268692 0
M  V30 4 C 40.447314 30.569875 65.525549 0
M  V30 5 C 39.464168 30.813107 53.409060 0
M  V30 6 C 39.496028 30.990665 61.966983 0
M  V30 7 C 37.280894 30.007515 58.289403 0
M  V30 8 C 38.463053 31.719950 59.748781 0 CFG=2
M  V30 9 O 38.584647 31.231430 55.907616 0
M  V30 10 C 39.968616 31.010541 51.958730 0
M  V30 11 N 40.239120 35.984495 62.263998 0
M  V30 12 C 41.196593 32.042175 63.594729 0
M  V30 13 C 42.211771 28.520519 64.732407 0
M  V30 14 O 40.087756 26.611456 56.487831 0
M  V30 15 C 40.437689 27.806170 57.151428 0
M  V30 16 C 41.265207 30.746279 64.390323 0
M  V30 17 F 41.449411 27.191122 66.571951 0
M  V30 18 C 40.008959 33.538352 60.579560 0
M  V30 19 O 38.369762 37.221400 62.590748 0
M  V30 20 O 37.133563 31.627177 61.833204 0
M  V30 21 C 41.390935 28.344736 65.864986 0
M  V30 22 C 39.505518 28.583293 51.528722 0
M  V30 23 N 38.979737 29.091040 55.198744 0
M  V30 24 C 39.650489 34.721895 62.689299 0
M  V30 25 C 42.149931 29.719003 63.995809 0
M  V30 26 C 39.237917 28.378723 57.926092 0
M  V30 27 C 39.548497 37.131531 62.253139 0
M  V30 28 C 39.239730 28.317819 52.932005 0
M  V30 29 C 38.662060 33.230753 59.918476 0
M  V30 30 F 39.433748 27.567430 50.653518 0
M  V30 31 C 38.970435 26.895872 53.393444 0
M  V30 32 C 39.896400 32.260111 62.772320 0 CFG=1
M  V30 33 C 38.694380 30.030415 56.144672 0
M  V30 34 N 37.460767 31.424521 58.693260 0 CHG=1
M  V30 35 C 38.445851 29.424064 57.472346 0
M  V30 36 C 39.224384 29.345727 53.814426 0
M  V30 37 C 39.827307 29.798590 51.073312 0
M  V30 38 C 38.208070 31.047378 61.114079 0 CFG=2
M  V30 39 N 40.114777 33.510088 62.027535 0
M  V30 40 H 39.881167 29.233942 67.129195 0
M  V30 41 H 39.930496 27.662448 59.833642 0
M  V30 42 H 38.267346 28.140317 59.930229 0
M  V30 43 H 38.687737 26.669127 59.082539 0
M  V30 44 H 39.772924 31.354044 65.831888 0
M  V30 45 H 38.520382 31.352778 53.487053 0
M  V30 46 H 40.188256 31.284209 54.074963 0
M  V30 47 H 40.334131 30.658541 61.353276 0
M  V30 48 H 39.340075 30.183703 62.684525 0
M  V30 49 H 36.428517 30.002229 57.610113 0
M  V30 50 H 36.924947 29.401157 59.113599 0
M  V30 51 H 39.382742 31.292787 59.357729 0
M  V30 52 H 41.032430 31.239495 51.964221 0
M  V30 53 H 39.467661 31.858891 51.493299 0
M  V30 54 H 41.205844 35.985020 61.975602 0
M  V30 55 H 42.056807 32.070674 62.921873 0
M  V30 56 H 41.346072 32.866727 64.292395 0
M  V30 57 H 40.856402 26.056832 56.441304 0
M  V30 58 H 41.200495 27.545723 57.886981 0
M  V30 59 H 40.957171 28.501657 56.493559 0
M  V30 60 H 40.740192 32.817834 60.253530 0
M  V30 61 H 40.328395 34.517576 60.230784 0
M  V30 62 H 36.448850 31.877916 61.230420 0
M  V30 63 H 38.962240 28.116521 55.477688 0
M  V30 64 H 38.571396 34.751026 62.574059 0
M  V30 65 H 39.867490 34.649633 63.753887 0
M  V30 66 H 42.780828 29.849293 63.130638 0
M  V30 67 H 40.172261 37.970192 61.904552 0
M  V30 68 H 38.685626 33.677838 58.924052 0
M  V30 69 H 37.833867 33.714713 60.436519 0
M  V30 70 H 38.356346 26.421460 52.635950 0
M  V30 71 H 39.900186 26.337283 53.504170 0
M  V30 72 H 38.401843 26.823528 54.319001 0
M  V30 73 H 39.073509 32.440612 63.454005 0
M  V30 74 H 37.723250 31.915426 57.845955 0
M  V30 75 H 40.018805 29.941803 50.019512 0
M  V30 76 H 37.915702 30.021042 60.945867 0
M  V30 77 H 36.551487 31.787870 58.944406 0
M  V30 END ATOM
M  V30 BEGIN BOND
M  V30 1 2 4 1
M  V30 2 1 10 5
M  V30 3 1 13 2
M  V30 4 1 15 14
M  V30 5 1 16 4
M  V30 6 1 16 12
M  V30 7 1 21 1
M  V30 8 2 21 13
M  V30 9 1 21 17
M  V30 10 1 24 11
M  V30 11 1 25 13
M  V30 12 2 25 16
M  V30 13 1 26 3
M  V30 14 1 26 15
M  V30 15 1 27 11
M  V30 16 2 27 19
M  V30 17 1 28 22
M  V30 18 1 29 8
M  V30 19 1 29 18
M  V30 20 1 30 22
M  V30 21 1 31 28
M  V30 22 1 32 6
M  V30 23 1 32 12
M  V30 24 2 33 9
M  V30 25 1 33 23
M  V30 26 1 34 7
M  V30 27 1 34 8
M  V30 28 1 35 7
M  V30 29 2 35 26
M  V30 30 1 35 33
M  V30 31 1 36 5
M  V30 32 1 36 23
M  V30 33 2 36 28
M  V30 34 1 37 10
M  V30 35 2 37 22
M  V30 36 1 38 6
M  V30 37 1 38 8
M  V30 38 1 38 20
M  V30 39 1 39 18
M  V30 40 1 39 24
M  V30 41 1 39 32
M  V30 42 1 40 1
M  V30 43 1 41 3
M  V30 44 1 42 3
M  V30 45 1 43 3
M  V30 46 1 44 4
M  V30 47 1 45 5
M  V30 48 1 46 5
M  V30 49 1 47 6
M  V30 50 1 48 6
M  V30 51 1 49 7
M  V30 52 1 50 7
M  V30 53 1 8 51 CFG=3
M  V30 54 1 52 10
M  V30 55 1 53 10
M  V30 56 1 54 11
M  V30 57 1 55 12
M  V30 58 1 56 12
M  V30 59 1 57 14
M  V30 60 1 58 15
M  V30 61 1 59 15
M  V30 62 1 60 18
M  V30 63 1 61 18
M  V30 64 1 62 20
M  V30 65 1 63 23
M  V30 66 1 64 24
M  V30 67 1 65 24
M  V30 68 1 66 25
M  V30 69 1 67 27
M  V30 70 1 68 29
M  V30 71 1 69 29
M  V30 72 1 70 31
M  V30 73 1 71 31
M  V30 74 1 72 31
M  V30 75 1 32 73 CFG=1
M  V30 76 1 74 34
M  V30 77 1 75 37
M  V30 78 1 38 76 CFG=3
M  V30 79 1 77 34
M  V30 END BOND
M  V30 END CTAB
M  END
>  <i_epik_Tot_Q>  (1) 
1

>  <i_epik_Tot_abs_Q>  (1) 
1

>  <i_i_glide_confnum>  (1) 
775

>  <i_i_glide_lignum>  (1) 
192

>  <i_i_glide_posenum>  (1) 
258

>  <i_i_glide_rotatable_bonds>  (1) 
14

>  <i_lp_mmshare_version>  (1) 
72125

>  <i_m_source_file_index>  (1) 
78

>  <i_f3d_flags>  (1) 
0

>  <num_sample>  (1) 
100

>  <b_lp_Chiralities_Consistent>  (1) 
1

>  <r_epik_Charging_Adjusted_Penalty>  (1) 
1.1871079539409661

>  <r_epik_Ionization_Penalty>  (1) 
0.55718335861310397

>  <r_epik_Ionization_Penalty_Charging>  (1) 
0.49341796909107616

>  <r_epik_Ionization_Penalty_Neutral>  (1) 
0.063765389522027774

>  <r_epik_State_Penalty>  (1) 
0.69368998484988997

>  <r_glide_ring_energy>  (1) 
0

>  <r_i_docking_score>  (1) 
-8.0376657334112416

>  <r_i_glide_ecoul>  (1) 
-5.3494433559852661

>  <r_i_glide_eff_state_penalty>  (1) 
0.69368998484988997

>  <r_i_glide_einternal>  (1) 
14.137739452695918

>  <r_i_glide_emodel>  (1) 
-71.98648229573422

>  <r_i_glide_emodel_strain>  (1) 
3.744693542190447

>  <r_i_glide_energy>  (1) 
-52.253107132035908

>  <r_i_glide_erotb>  (1) 
0.67934156738045093

>  <r_i_glide_esite>  (1) 
-0.098223766932331688

>  <r_i_glide_evdw>  (1) 
-46.903663776050642

>  <r_i_glide_gscore>  (1) 
-8.7313557182611312

>  <r_i_glide_gscore_strain>  (1) 
0

>  <r_i_glide_hbond>  (1) 
-0.40784390800955478

>  <r_i_glide_ligand_efficiency>  (1) 
-0.20609399316439081

>  <r_i_glide_ligand_efficiency_ln>  (1) 
-1.7235036959534589

>  <r_i_glide_ligand_efficiency_sa>  (1) 
-0.69890830795556569

>  <r_i_glide_lipo>  (1) 
-3.9439908693510981

>  <r_i_glide_metal>  (1) 
-0

>  <r_i_glide_rewards>  (1) 
-1.8130390491482762

>  <r_lp_Energy>  (1) 
45.510686999999997

>  <s_epik_Chemistry_Notes>  (1) 
This compound contains an acetal/aminal-like group ( X-CH(R)-Y where X, Y are N, S, or O) that may be acid/base labile, releasing an aldehyde.

>  <s_epik_cmdline>  (1) 
J2VwaWtfcHl0aG9uJywgJy1waHQnLCAnMS4wJywgJy1waCcsICc3LjQnLCAnLXRuJywgJzgnLCAnLW1hJywgJzUwMCcsICctaW1hZScsICc8aW5maWxlLm1hZT4nLCAnLW9tYWUnLCAnPG91dGZpbGUubWFlPic=

>  <s_epik_input>  (1) 
RmMxYyhGKVtjSF1bY0hdYyhbY0hdMSlbQ0gyXVtDQEhdKFtDSDJdW0NASF0yW09IXSlOKFtDSDJdW05IXVtDSF09TylbQ0gyXVtDSDJdW0NAQEhdMltOSF1bQ0gyXS9DKD1DKFxbQ0gzXSlbQ0gyXVtPSF0pQyg9TylbTkhdQyg9QzNbQ0gzXSlbQ0gyXVtDSDJdW0NIXT1DM0Y=

>  <s_glide_docking_method>  (1) 
confgen

>  <s_i_glide_gridfile>  (1) 
gpcr_5ht2c_6bqh_protein_autoprepared_prepared

>  <s_lp_Force_Field>  (1) 
S-OPLS

>  <s_lp_Variant>  (1) 
DiffSBDD_77_num_sample_100-3

>  <s_m_source_file>  (1) 
generated__ligand_DiffSBDD_2026-05-06_prepared.sdf

>  <GenAI_Model>  (1) 
DiffSBDD

>  <Protein>  (1) 
GPCR_5HT2C

$$$$
DiffSBDD_80_num_sample_100
     RDKit          3D

  0  0  0  0  0  0  0  0  0  0999 V3000
M  V30 BEGIN CTAB
M  V30 COUNTS 73 76 0 0 1
M  V30 BEGIN ATOM
M  V30 1 C 37.049607 29.769852 57.888691 0
M  V30 2 C 38.838356 30.723491 61.066002 0
M  V30 3 N 38.905410 32.204694 61.000424 0 CFG=2 CHG=1
M  V30 4 O 38.114441 28.425178 55.717871 0
M  V30 5 O 40.695253 28.421764 60.906790 0
M  V30 6 O 36.205683 30.021396 58.995588 0
M  V30 7 C 38.195547 35.041506 61.282323 0 CFG=2
M  V30 8 C 39.186721 34.344884 62.253469 0 CFG=2
M  V30 9 C 39.467887 28.217889 50.991249 0
M  V30 10 C 39.689074 26.719372 55.326426 0
M  V30 11 O 39.472465 30.379065 54.575168 0
M  V30 12 C 39.459587 29.665198 53.411259 0
M  V30 13 O 41.778737 31.482299 62.653309 0
M  V30 14 C 39.056880 27.587862 52.180014 0
M  V30 15 C 41.593443 33.840352 63.050681 0
M  V30 16 C 39.867412 30.287011 52.215078 0
M  V30 17 O 40.388568 26.426415 57.627914 0
M  V30 18 C 38.199624 34.321391 59.915809 0
M  V30 19 O 40.277406 30.167948 49.853751 0
M  V30 20 C 40.695994 34.547256 62.046193 0
M  V30 21 C 39.873643 29.564168 51.008232 0
M  V30 22 C 38.860321 28.238240 56.916872 0 CFG=1
M  V30 23 C 39.321033 30.063255 59.776169 0 CFG=2
M  V30 24 C 37.970103 28.549571 58.137518 0 CFG=1
M  V30 25 C 38.781863 32.849596 62.329231 0
M  V30 26 C 39.306781 26.777462 56.791789 0 CFG=1
M  V30 27 C 42.221750 32.603114 62.416908 0
M  V30 28 C 38.739148 28.688144 59.456735 0 CFG=1
M  V30 29 C 41.203046 35.303805 61.054227 0
M  V30 30 C 37.460133 37.224166 60.599456 0
M  V30 31 C 40.227532 28.871390 59.656221 0 CFG=2
M  V30 32 C 38.604668 27.587184 54.678942 0 CFG=2
M  V30 33 C 39.047969 28.300338 53.395419 0
M  V30 34 C 37.930042 32.817985 60.058172 0
M  V30 35 O 38.470948 36.435824 61.210418 0
M  V30 36 H 37.621296 30.663347 57.645353 0
M  V30 37 H 36.401132 29.621511 57.028107 0
M  V30 38 H 37.810828 30.421370 61.272174 0
M  V30 39 H 39.437765 30.362815 61.901516 0
M  V30 40 H 40.990440 27.527032 60.814549 0
M  V30 41 H 35.572926 30.666144 58.695862 0
M  V30 42 H 37.197051 34.935957 61.711181 0
M  V30 43 H 39.067404 34.809689 63.228227 0
M  V30 44 H 39.472506 27.665648 50.064707 0
M  V30 45 H 40.529796 31.072971 49.962986 0
M  V30 46 H 39.730132 25.707857 54.921002 0
M  V30 47 H 40.667441 27.178942 55.189390 0
M  V30 48 H 39.662770 31.295930 54.451727 0
M  V30 49 H 38.749839 26.553435 52.161438 0
M  V30 50 H 42.377059 34.517212 63.388803 0
M  V30 51 H 41.029627 33.564346 63.942030 0
M  V30 52 H 40.182038 31.321014 52.225370 0
M  V30 53 H 41.196816 26.713978 57.227980 0
M  V30 54 H 39.175435 34.421468 59.453354 0
M  V30 55 H 37.467541 34.756059 59.234738 0
M  V30 56 H 39.716719 28.912391 56.870627 0
M  V30 57 H 39.435779 30.744663 58.939838 0
M  V30 58 H 37.309120 27.693626 58.253422 0
M  V30 59 H 37.745665 32.754885 62.653489 0
M  V30 60 H 39.368131 32.320850 63.077402 0
M  V30 61 H 38.468887 26.105721 56.985108 0
M  V30 62 H 43.067138 32.790696 61.755087 0
M  V30 63 H 38.267456 28.149197 60.270607 0
M  V30 64 H 42.267338 35.428356 60.940903 0
M  V30 65 H 40.566305 35.806821 60.347996 0
M  V30 66 H 37.733202 38.276946 60.669620 0
M  V30 67 H 37.342262 36.988310 59.542076 0
M  V30 68 H 36.499290 37.099401 61.099082 0
M  V30 69 H 40.941108 28.811331 58.836931 0
M  V30 70 H 37.764347 26.941628 54.417206 0
M  V30 71 H 37.995014 32.369813 59.069805 0
M  V30 72 H 36.911208 32.643809 60.408135 0
M  V30 73 H 39.833381 32.420613 60.666307 0
M  V30 END ATOM
M  V30 BEGIN BOND
M  V30 1 1 3 2
M  V30 2 1 6 1
M  V30 3 1 8 7
M  V30 4 1 12 11
M  V30 5 2 14 9
M  V30 6 1 16 12
M  V30 7 1 18 7
M  V30 8 1 20 8
M  V30 9 1 20 15
M  V30 10 1 21 9
M  V30 11 2 21 16
M  V30 12 1 21 19
M  V30 13 1 22 4
M  V30 14 1 23 2
M  V30 15 1 24 1
M  V30 16 1 24 22
M  V30 17 1 25 3
M  V30 18 1 25 8
M  V30 19 1 26 10
M  V30 20 1 26 17
M  V30 21 1 26 22
M  V30 22 2 27 13
M  V30 23 1 27 15
M  V30 24 1 28 23
M  V30 25 1 28 24
M  V30 26 2 29 20
M  V30 27 1 31 5
M  V30 28 1 31 23
M  V30 29 1 31 28
M  V30 30 1 32 4
M  V30 31 1 32 10
M  V30 32 2 33 12
M  V30 33 1 33 14
M  V30 34 1 33 32
M  V30 35 1 34 3
M  V30 36 1 34 18
M  V30 37 1 35 7
M  V30 38 1 35 30
M  V30 39 1 36 1
M  V30 40 1 37 1
M  V30 41 1 38 2
M  V30 42 1 39 2
M  V30 43 1 40 5
M  V30 44 1 41 6
M  V30 45 1 7 42 CFG=1
M  V30 46 1 8 43 CFG=1
M  V30 47 1 44 9
M  V30 48 1 45 19
M  V30 49 1 46 10
M  V30 50 1 47 10
M  V30 51 1 48 11
M  V30 52 1 49 14
M  V30 53 1 50 15
M  V30 54 1 51 15
M  V30 55 1 52 16
M  V30 56 1 53 17
M  V30 57 1 54 18
M  V30 58 1 55 18
M  V30 59 1 22 56 CFG=3
M  V30 60 1 23 57 CFG=3
M  V30 61 1 24 58 CFG=1
M  V30 62 1 59 25
M  V30 63 1 60 25
M  V30 64 1 26 61 CFG=3
M  V30 65 1 62 27
M  V30 66 1 28 63 CFG=1
M  V30 67 1 64 29
M  V30 68 1 65 29
M  V30 69 1 66 30
M  V30 70 1 67 30
M  V30 71 1 68 30
M  V30 72 1 31 69 CFG=3
M  V30 73 1 32 70 CFG=3
M  V30 74 1 71 34
M  V30 75 1 72 34
M  V30 76 1 3 73 CFG=3
M  V30 END BOND
M  V30 END CTAB
M  END
>  <i_epik_Tot_Q>  (1) 
1

>  <i_epik_Tot_abs_Q>  (1) 
1

>  <i_i_glide_confnum>  (1) 
1143

>  <i_i_glide_lignum>  (1) 
209

>  <i_i_glide_posenum>  (1) 
36

>  <i_i_glide_rotatable_bonds>  (1) 
15

>  <i_lp_mmshare_version>  (1) 
72125

>  <i_m_source_file_index>  (1) 
81

>  <i_f3d_flags>  (1) 
0

>  <num_sample>  (1) 
100

>  <b_lp_Chiralities_Consistent>  (1) 
1

>  <r_epik_Charging_Adjusted_Penalty>  (1) 
0.034071705691259377

>  <r_epik_Ionization_Penalty>  (1) 
0.043305258844254187

>  <r_epik_Ionization_Penalty_Charging>  (1) 
0.034071705691259377

>  <r_epik_Ionization_Penalty_Neutral>  (1) 
0.009233553152994808

>  <r_epik_State_Penalty>  (1) 
-0

>  <r_glide_ring_energy>  (1) 
0

>  <r_i_docking_score>  (1) 
-8.0367206608696247

>  <r_i_glide_ecoul>  (1) 
-5.5208647504803512

>  <r_i_glide_eff_state_penalty>  (1) 
-0

>  <r_i_glide_einternal>  (1) 
16.093005027967408

>  <r_i_glide_emodel>  (1) 
-64.421762451184648

>  <r_i_glide_emodel_strain>  (1) 
0.78206914285321716

>  <r_i_glide_energy>  (1) 
-50.895824324201548

>  <r_i_glide_erotb>  (1) 
0.67144220787932085

>  <r_i_glide_esite>  (1) 
0

>  <r_i_glide_evdw>  (1) 
-45.374959573721199

>  <r_i_glide_gscore>  (1) 
-8.0367206608696247

>  <r_i_glide_gscore_strain>  (1) 
0

>  <r_i_glide_hbond>  (1) 
-0.15632566478848706

>  <r_i_glide_ligand_efficiency>  (1) 
-0.2296205903105607

>  <r_i_glide_ligand_efficiency_ln>  (1) 
-1.7642385504658769

>  <r_i_glide_ligand_efficiency_sa>  (1) 
-0.75110417709049171

>  <r_i_glide_lipo>  (1) 
-4.6792537435495909

>  <r_i_glide_metal>  (1) 
-0

>  <r_i_glide_rewards>  (1) 
-0.77570576915275435

>  <r_lp_Energy>  (1) 
30.626286999999998

>  <r_lp_tautomer_probability>  (1) 
1

>  <s_epik_cmdline>  (1) 
J2VwaWtfcHl0aG9uJywgJy1waHQnLCAnMS4wJywgJy1waCcsICc3LjQnLCAnLXRuJywgJzgnLCAnLW1hJywgJzUwMCcsICctaW1hZScsICc8aW5maWxlLm1hZT4nLCAnLW9tYWUnLCAnPG91dGZpbGUubWFlPic=

>  <s_epik_input>  (1) 
Tz1bQ0hdW0NIMl1DKD1bQ0gyXSlbQ0BASF0oW0NASF0oW0NIMl1bQ0gyXTEpT1tDSDNdKVtDSDJdTjFbQ0gyXVtDQEBIXTJbQ0BASF0oW0NAQEhdMltPSF0pW0NAQEhdKFtDSDJdW09IXSlbQ0BASF0zT1tDQEhdKFtDSDJdW0NASF0zW09IXSlDND1bQ0hdW0NIMl1DKD1PKVtDSF09QzRbT0hd

>  <s_glide_docking_method>  (1) 
confgen

>  <s_i_glide_gridfile>  (1) 
gpcr_5ht2c_6bqh_protein_autoprepared_prepared

>  <s_lp_Force_Field>  (1) 
S-OPLS

>  <s_lp_Variant>  (1) 
DiffSBDD_80_num_sample_100-5

>  <s_m_source_file>  (1) 
generated__ligand_DiffSBDD_2026-05-06_prepared.sdf

>  <GenAI_Model>  (1) 
DiffSBDD

>  <Protein>  (1) 
GPCR_5HT2C

$$$$
DiffSBDD_80_num_sample_100
     RDKit          3D

  0  0  0  0  0  0  0  0  0  0999 V3000
M  V30 BEGIN CTAB
M  V30 COUNTS 73 76 0 0 1
M  V30 BEGIN ATOM
M  V30 1 C 40.452264 27.901033 59.608108 0
M  V30 2 C 39.170727 31.138269 60.799890 0
M  V30 3 N 39.027290 32.614190 60.786096 0 CFG=1 CHG=1
M  V30 4 O 39.115230 29.023407 56.225346 0
M  V30 5 O 38.638603 31.519379 57.944702 0
M  V30 6 O 40.667411 28.507636 60.864515 0
M  V30 7 C 39.003107 35.481553 61.455149 0 CFG=2
M  V30 8 C 37.674108 34.670187 61.322844 0 CFG=1
M  V30 9 C 39.396265 28.182692 51.397824 0
M  V30 10 C 38.867222 26.801875 55.498615 0
M  V30 11 O 39.476302 30.933316 54.551686 0
M  V30 12 C 39.446968 30.030765 53.529092 0
M  V30 13 O 35.067396 32.084363 60.321605 0
M  V30 14 C 38.968981 27.785134 52.679877 0
M  V30 15 C 36.348435 33.803231 59.246286 0
M  V30 16 C 39.867448 30.421424 52.243782 0
M  V30 17 O 39.867406 25.733321 57.403942 0
M  V30 18 C 40.178986 34.781077 60.738263 0
M  V30 19 O 40.267400 29.878631 49.938434 0
M  V30 20 C 36.872151 34.990752 60.041146 0
M  V30 21 C 39.848943 29.497944 51.180549 0
M  V30 22 C 39.778144 28.190939 57.171062 0 CFG=1
M  V30 23 C 38.068483 30.400644 60.043270 0 CFG=2
M  V30 24 C 39.767992 28.828063 58.587335 0 CFG=1
M  V30 25 C 37.944276 33.162751 61.633139 0
M  V30 26 C 39.078016 26.835810 56.998620 0 CFG=1
M  V30 27 C 35.073085 33.221432 59.853497 0
M  V30 28 C 38.372513 29.289585 59.030469 0 CFG=2
M  V30 29 C 36.636802 36.255038 59.644518 0
M  V30 30 C 40.112154 36.730770 63.176682 0
M  V30 31 C 37.768349 30.594496 58.568360 0 CFG=2
M  V30 32 C 38.543675 28.262512 55.154548 0 CFG=2
M  V30 33 C 38.999283 28.703654 53.755750 0
M  V30 34 C 40.284772 33.305178 61.140447 0
M  V30 35 O 39.302417 35.611494 62.839707 0
M  V30 36 H 39.867398 26.994461 59.751531 0
M  V30 37 H 41.430060 27.612487 59.221706 0
M  V30 38 H 39.220820 30.767146 61.824448 0
M  V30 39 H 40.121734 30.897305 60.335117 0
M  V30 40 H 38.227254 31.781145 57.130002 0
M  V30 41 H 41.160870 27.904351 61.402885 0
M  V30 42 H 38.884353 36.483040 61.045168 0
M  V30 43 H 37.002115 35.039209 62.098754 0
M  V30 44 H 39.377028 27.476257 50.580170 0
M  V30 45 H 40.527988 30.786503 49.893046 0
M  V30 46 H 38.090021 26.103699 55.184123 0
M  V30 47 H 39.800222 26.504843 55.015671 0
M  V30 48 H 39.305965 30.492030 55.378244 0
M  V30 49 H 38.622487 26.775079 52.838697 0
M  V30 50 H 36.102406 34.130983 58.237001 0
M  V30 51 H 37.104774 33.037679 59.138343 0
M  V30 52 H 40.211476 31.431904 52.075609 0
M  V30 53 H 40.697679 25.759124 56.946994 0
M  V30 54 H 41.120065 35.295597 60.932456 0
M  V30 55 H 40.032564 34.821443 59.662572 0
M  V30 56 H 40.810981 28.096916 56.830061 0
M  V30 57 H 37.178154 30.259573 60.651890 0
M  V30 58 H 40.398173 29.706657 58.500800 0
M  V30 59 H 37.051760 32.553674 61.582055 0
M  V30 60 H 38.267372 33.056976 62.663795 0
M  V30 61 H 38.115175 26.816820 57.509944 0
M  V30 62 H 34.198959 33.872773 59.834608 0
M  V30 63 H 37.672698 28.461210 59.053540 0
M  V30 64 H 36.072470 36.458369 58.745452 0
M  V30 65 H 37.001391 37.098361 60.210713 0
M  V30 66 H 40.267408 36.753505 64.255098 0
M  V30 67 H 41.093764 36.689073 62.705795 0
M  V30 68 H 39.630583 37.667000 62.893982 0
M  V30 69 H 36.728363 30.644273 58.253562 0
M  V30 70 H 37.467398 28.412154 55.208913 0
M  V30 71 H 40.484319 33.213262 62.209510 0
M  V30 72 H 41.124541 32.821444 60.653503 0
M  V30 73 H 38.819414 32.838860 59.820576 0
M  V30 END ATOM
M  V30 BEGIN BOND
M  V30 1 1 3 2
M  V30 2 1 6 1
M  V30 3 1 8 7
M  V30 4 1 12 11
M  V30 5 2 14 9
M  V30 6 1 16 12
M  V30 7 1 18 7
M  V30 8 1 20 8
M  V30 9 1 20 15
M  V30 10 1 21 9
M  V30 11 2 21 16
M  V30 12 1 21 19
M  V30 13 1 22 4
M  V30 14 1 23 2
M  V30 15 1 24 1
M  V30 16 1 24 22
M  V30 17 1 25 3
M  V30 18 1 25 8
M  V30 19 1 26 10
M  V30 20 1 26 17
M  V30 21 1 26 22
M  V30 22 2 27 13
M  V30 23 1 27 15
M  V30 24 1 28 23
M  V30 25 1 28 24
M  V30 26 2 29 20
M  V30 27 1 31 5
M  V30 28 1 31 23
M  V30 29 1 31 28
M  V30 30 1 32 4
M  V30 31 1 32 10
M  V30 32 2 33 12
M  V30 33 1 33 14
M  V30 34 1 33 32
M  V30 35 1 34 3
M  V30 36 1 34 18
M  V30 37 1 35 7
M  V30 38 1 35 30
M  V30 39 1 36 1
M  V30 40 1 37 1
M  V30 41 1 38 2
M  V30 42 1 39 2
M  V30 43 1 40 5
M  V30 44 1 41 6
M  V30 45 1 7 42 CFG=3
M  V30 46 1 8 43 CFG=1
M  V30 47 1 44 9
M  V30 48 1 45 19
M  V30 49 1 46 10
M  V30 50 1 47 10
M  V30 51 1 48 11
M  V30 52 1 49 14
M  V30 53 1 50 15
M  V30 54 1 51 15
M  V30 55 1 52 16
M  V30 56 1 53 17
M  V30 57 1 54 18
M  V30 58 1 55 18
M  V30 59 1 22 56 CFG=3
M  V30 60 1 23 57 CFG=1
M  V30 61 1 24 58 CFG=3
M  V30 62 1 59 25
M  V30 63 1 60 25
M  V30 64 1 26 61 CFG=1
M  V30 65 1 62 27
M  V30 66 1 28 63 CFG=1
M  V30 67 1 64 29
M  V30 68 1 65 29
M  V30 69 1 66 30
M  V30 70 1 67 30
M  V30 71 1 68 30
M  V30 72 1 31 69 CFG=1
M  V30 73 1 32 70 CFG=3
M  V30 74 1 71 34
M  V30 75 1 72 34
M  V30 76 1 3 73 CFG=3
M  V30 END BOND
M  V30 END CTAB
M  END
>  <i_epik_Tot_Q>  (1) 
1

>  <i_epik_Tot_abs_Q>  (1) 
1

>  <i_i_glide_confnum>  (1) 
847

>  <i_i_glide_lignum>  (1) 
208

>  <i_i_glide_posenum>  (1) 
28

>  <i_i_glide_rotatable_bonds>  (1) 
15

>  <i_lp_mmshare_version>  (1) 
72125

>  <i_m_source_file_index>  (1) 
81

>  <i_f3d_flags>  (1) 
0

>  <num_sample>  (1) 
100

>  <b_lp_Chiralities_Consistent>  (1) 
1

>  <r_epik_Charging_Adjusted_Penalty>  (1) 
0.034071705691259377

>  <r_epik_Ionization_Penalty>  (1) 
0.043305258844254187

>  <r_epik_Ionization_Penalty_Charging>  (1) 
0.034071705691259377

>  <r_epik_Ionization_Penalty_Neutral>  (1) 
0.009233553152994808

>  <r_epik_State_Penalty>  (1) 
-0

>  <r_glide_ring_energy>  (1) 
0

>  <r_i_docking_score>  (1) 
-8.0073494422867366

>  <r_i_glide_ecoul>  (1) 
-5.3322308427942655

>  <r_i_glide_eff_state_penalty>  (1) 
-0

>  <r_i_glide_einternal>  (1) 
13.138252193776143

>  <r_i_glide_emodel>  (1) 
-71.364232576677878

>  <r_i_glide_emodel_strain>  (1) 
1.202477336447231

>  <r_i_glide_energy>  (1) 
-55.05985822222501

>  <r_i_glide_erotb>  (1) 
0.67144220787932085

>  <r_i_glide_esite>  (1) 
-0.039728142713794184

>  <r_i_glide_evdw>  (1) 
-49.727627379430743

>  <r_i_glide_gscore>  (1) 
-8.0073494422867366

>  <r_i_glide_gscore_strain>  (1) 
0

>  <r_i_glide_hbond>  (1) 
-0.10726136246774233

>  <r_i_glide_ligand_efficiency>  (1) 
-0.22878141263676391

>  <r_i_glide_ligand_efficiency_ln>  (1) 
-1.7577909161278578

>  <r_i_glide_ligand_efficiency_sa>  (1) 
-0.74835917127347262

>  <r_i_glide_lipo>  (1) 
-4.454955805440588

>  <r_i_glide_metal>  (1) 
-0

>  <r_i_glide_rewards>  (1) 
-0.79063034415325617

>  <r_lp_Energy>  (1) 
34.743352000000002

>  <r_lp_tautomer_probability>  (1) 
1

>  <s_epik_cmdline>  (1) 
J2VwaWtfcHl0aG9uJywgJy1waHQnLCAnMS4wJywgJy1waCcsICc3LjQnLCAnLXRuJywgJzgnLCAnLW1hJywgJzUwMCcsICctaW1hZScsICc8aW5maWxlLm1hZT4nLCAnLW9tYWUnLCAnPG91dGZpbGUubWFlPic=

>  <s_epik_input>  (1) 
Tz1bQ0hdW0NIMl1DKD1bQ0gyXSlbQ0BASF0oW0NASF0oW0NIMl1bQ0gyXTEpT1tDSDNdKVtDSDJdTjFbQ0gyXVtDQEBIXTJbQ0BASF0oW0NAQEhdMltPSF0pW0NAQEhdKFtDSDJdW09IXSlbQ0BASF0zT1tDQEhdKFtDSDJdW0NASF0zW09IXSlDND1bQ0hdW0NIMl1DKD1PKVtDSF09QzRbT0hd

>  <s_glide_docking_method>  (1) 
confgen

>  <s_i_glide_gridfile>  (1) 
gpcr_5ht2c_6bqh_protein_autoprepared_prepared

>  <s_lp_Force_Field>  (1) 
S-OPLS

>  <s_lp_Variant>  (1) 
DiffSBDD_80_num_sample_100-4

>  <s_m_source_file>  (1) 
generated__ligand_DiffSBDD_2026-05-06_prepared.sdf

>  <GenAI_Model>  (1) 
DiffSBDD

>  <Protein>  (1) 
GPCR_5HT2C

$$$$
DiffSBDD_30_num_sample_100
     RDKit          3D

  0  0  0  0  0  0  0  0  0  0999 V3000
M  V30 BEGIN CTAB
M  V30 COUNTS 69 72 0 0 1
M  V30 BEGIN ATOM
M  V30 1 C 40.306083 30.388478 65.832249 0
M  V30 2 C 42.213406 27.218084 64.502506 0 CFG=1
M  V30 3 O 41.796902 31.604317 64.370627 0
M  V30 4 C 39.867697 30.408540 51.572392 0
M  V30 5 C 39.867334 29.356546 50.641875 0
M  V30 6 N 40.266228 29.650709 62.917931 0
M  V30 7 C 39.182887 27.806356 52.389765 0
M  V30 8 C 41.372542 29.273206 63.788228 0 CFG=1
M  V30 9 O 44.666458 28.774042 63.853589 0
M  V30 10 O 40.573331 25.517129 65.054472 0
M  V30 11 C 38.346291 26.633594 56.215594 0
M  V30 12 C 41.750462 25.872126 65.094722 0
M  V30 13 C 42.815317 24.988209 65.733298 0
M  V30 14 C 37.670061 25.293115 56.384617 0
M  V30 15 C 37.460948 28.800284 55.225954 0 CFG=2
M  V30 16 C 39.421547 29.404024 59.298191 0
M  V30 17 N 39.409199 29.802381 60.721332 0 CHG=1
M  V30 18 C 39.106589 25.357485 55.929396 0
M  V30 19 C 38.521575 30.149247 56.939225 0 CFG=1
M  V30 20 C 39.519806 28.058385 51.049395 0
M  V30 21 C 37.274881 29.361533 56.621381 0
M  V30 22 N 37.954944 27.432660 55.055602 0
M  V30 23 C 39.520757 30.166471 52.917386 0
M  V30 24 C 40.233791 28.975987 61.624382 0
M  V30 25 C 39.184153 28.855642 53.341199 0
M  V30 26 C 38.651197 30.437593 58.451902 0
M  V30 27 C 44.462957 27.761453 64.811060 0
M  V30 28 C 41.539225 30.326270 64.912629 0 CFG=2
M  V30 29 C 38.836978 28.567913 54.779408 0 CFG=1
M  V30 30 O 39.507782 31.202478 53.806424 0
M  V30 31 S 39.867962 29.221361 56.141597 0
M  V30 32 O 41.099068 28.043889 64.379456 0
M  V30 33 O 43.181079 27.758438 65.352717 0
M  V30 34 H 40.106863 29.423659 66.300825 0
M  V30 35 H 40.454144 31.112371 66.633432 0
M  V30 36 H 39.411700 30.683233 65.289601 0
M  V30 37 H 42.613700 27.046911 63.501861 0
M  V30 38 H 41.069195 31.830952 63.812467 0
M  V30 39 H 40.128016 31.406831 51.253610 0
M  V30 40 H 40.129084 29.547449 49.610879 0
M  V30 41 H 39.412843 29.415059 63.431167 0
M  V30 42 H 38.923826 26.803384 52.694911 0
M  V30 43 H 42.283195 29.226747 63.190778 0
M  V30 44 H 44.471058 28.420467 62.994760 0
M  V30 45 H 38.609287 27.123717 57.148631 0
M  V30 46 H 43.466362 24.584432 64.961037 0
M  V30 47 H 43.411779 25.548342 66.453816 0
M  V30 48 H 42.352139 24.153156 66.253523 0
M  V30 49 H 37.480958 24.947673 57.398933 0
M  V30 50 H 36.923899 25.001312 55.647497 0
M  V30 51 H 36.751562 29.163175 54.486155 0
M  V30 52 H 38.977468 28.412809 59.195647 0
M  V30 53 H 40.455706 29.334446 58.959069 0
M  V30 54 H 39.751242 30.750976 60.779875 0
M  V30 55 H 39.313363 25.107138 54.889835 0
M  V30 56 H 39.878140 25.063643 56.638229 0
M  V30 57 H 38.443989 31.100422 56.409366 0
M  V30 58 H 39.515446 27.250248 50.331745 0
M  V30 59 H 37.068268 28.585584 57.357914 0
M  V30 60 H 36.409461 30.021428 56.620573 0
M  V30 61 H 39.812880 27.974308 61.717877 0
M  V30 62 H 41.237674 28.876907 61.210348 0
M  V30 63 H 39.067542 31.432686 58.581485 0
M  V30 64 H 37.644226 30.541270 58.859281 0
M  V30 65 H 45.178391 27.926890 65.618481 0
M  V30 66 H 44.667407 26.806531 64.336787 0
M  V30 67 H 42.407965 30.061668 65.513631 0
M  V30 68 H 39.735062 32.035084 53.417155 0
M  V30 69 H 38.455064 29.790542 61.049091 0
M  V30 END ATOM
M  V30 BEGIN BOND
M  V30 1 1 5 4
M  V30 2 1 8 6
M  V30 3 1 12 2
M  V30 4 2 12 10
M  V30 5 1 13 12
M  V30 6 1 14 11
M  V30 7 1 17 16
M  V30 8 1 18 11
M  V30 9 1 18 14
M  V30 10 2 20 5
M  V30 11 1 20 7
M  V30 12 1 21 15
M  V30 13 1 21 19
M  V30 14 1 22 11
M  V30 15 1 22 15
M  V30 16 2 23 4
M  V30 17 1 24 6
M  V30 18 1 24 17
M  V30 19 2 25 7
M  V30 20 1 25 23
M  V30 21 1 26 16
M  V30 22 1 26 19
M  V30 23 1 27 9
M  V30 24 1 28 1
M  V30 25 1 28 3
M  V30 26 1 28 8
M  V30 27 1 29 15
M  V30 28 1 29 22
M  V30 29 1 29 25 CFG=3
M  V30 30 1 30 23
M  V30 31 1 31 19
M  V30 32 1 31 29
M  V30 33 1 32 2
M  V30 34 1 32 8
M  V30 35 1 33 2
M  V30 36 1 33 27
M  V30 37 1 34 1
M  V30 38 1 35 1
M  V30 39 1 36 1
M  V30 40 1 2 37 CFG=3
M  V30 41 1 38 3
M  V30 42 1 39 4
M  V30 43 1 40 5
M  V30 44 1 41 6
M  V30 45 1 42 7
M  V30 46 1 8 43 CFG=3
M  V30 47 1 44 9
M  V30 48 1 45 11
M  V30 49 1 46 13
M  V30 50 1 47 13
M  V30 51 1 48 13
M  V30 52 1 49 14
M  V30 53 1 50 14
M  V30 54 1 15 51 CFG=3
M  V30 55 1 52 16
M  V30 56 1 53 16
M  V30 57 1 54 17
M  V30 58 1 55 18
M  V30 59 1 56 18
M  V30 60 1 19 57 CFG=3
M  V30 61 1 58 20
M  V30 62 1 59 21
M  V30 63 1 60 21
M  V30 64 1 61 24
M  V30 65 1 62 24
M  V30 66 1 63 26
M  V30 67 1 64 26
M  V30 68 1 65 27
M  V30 69 1 66 27
M  V30 70 1 28 67 CFG=1
M  V30 71 1 68 30
M  V30 72 1 69 17
M  V30 END BOND
M  V30 END CTAB
M  END
>  <i_epik_Tot_Q>  (1) 
1

>  <i_epik_Tot_abs_Q>  (1) 
1

>  <i_i_glide_confnum>  (1) 
382

>  <i_i_glide_lignum>  (1) 
79

>  <i_i_glide_posenum>  (1) 
206

>  <i_i_glide_rotatable_bonds>  (1) 
17

>  <i_lp_mmshare_version>  (1) 
72125

>  <i_m_source_file_index>  (1) 
31

>  <i_f3d_flags>  (1) 
0

>  <num_sample>  (1) 
100

>  <b_lp_Chiralities_Consistent>  (1) 
1

>  <r_epik_Charging_Adjusted_Penalty>  (1) 
0.074635642036716146

>  <r_epik_Ionization_Penalty>  (1) 
0.2367700207343624

>  <r_epik_Ionization_Penalty_Charging>  (1) 
0.00051329390614008978

>  <r_epik_Ionization_Penalty_Neutral>  (1) 
0.23625672682822232

>  <r_epik_State_Penalty>  (1) 
0.074122348130576055

>  <r_glide_ring_energy>  (1) 
0

>  <r_i_docking_score>  (1) 
-7.9998868826320564

>  <r_i_glide_ecoul>  (1) 
-7.1991710759244363

>  <r_i_glide_eff_state_penalty>  (1) 
0.074122348130576055

>  <r_i_glide_einternal>  (1) 
17.901785226727846

>  <r_i_glide_emodel>  (1) 
-71.432120756919289

>  <r_i_glide_emodel_strain>  (1) 
2.1710004799830074

>  <r_i_glide_energy>  (1) 
-50.91323772856893

>  <r_i_glide_erotb>  (1) 
1.1326933877215775

>  <r_i_glide_esite>  (1) 
-0.00347598839746478

>  <r_i_glide_evdw>  (1) 
-43.71406665264449

>  <r_i_glide_gscore>  (1) 
-8.0740092307626323

>  <r_i_glide_gscore_strain>  (1) 
0

>  <r_i_glide_hbond>  (1) 
-0.56911112570167

>  <r_i_glide_ligand_efficiency>  (1) 
-0.24242081462521384

>  <r_i_glide_ligand_efficiency_ln>  (1) 
-1.7791334214999059

>  <r_i_glide_ligand_efficiency_sa>  (1) 
-0.77757308521592772

>  <r_i_glide_lipo>  (1) 
-3.6503230092012311

>  <r_i_glide_metal>  (1) 
-0

>  <r_i_glide_rewards>  (1) 
-1.7182135011629538

>  <r_lp_Energy>  (1) 
25.467389999999998

>  <r_lp_tautomer_probability>  (1) 
0.99999996999736518

>  <s_epik_Chemistry_Notes>  (1) 
This compound contains an acetal/aminal-like group ( X-CH(R)-Y where X, Y are N, S, or O) that may be acid/base labile, releasing an aldehyde.

>  <s_epik_cmdline>  (1) 
J2VwaWtfcHl0aG9uJywgJy1waHQnLCAnMS4wJywgJy1waCcsICc3LjQnLCAnLXRuJywgJzgnLCAnLW1hJywgJzUwMCcsICctaW1hZScsICc8aW5maWxlLm1hZT4nLCAnLW9tYWUnLCAnPG91dGZpbGUubWFlPic=

>  <s_epik_input>  (1) 
W09IXVtDSDJdT1tDQEBIXShDKD1PKVtDSDNdKU9bQ0BIXShbQ0BIXShbQ0gzXSlbT0hdKVtOSF1bQ0gyXVtOSF1bQ0gyXVtDSDJdW0NAQEhdKFMxKVtDSDJdW0NASF0oTjJbQ0hdM1tDSDJdW0NIMl0zKVtDQEBdMTJjNFtjSF1bY0hdW2NIXVtjSF1jNFtPSF0=

>  <s_glide_docking_method>  (1) 
confgen

>  <s_i_glide_gridfile>  (1) 
gpcr_5ht2c_6bqh_protein_autoprepared_prepared

>  <s_lp_Force_Field>  (1) 
S-OPLS

>  <s_lp_Variant>  (1) 
DiffSBDD_30_num_sample_100-1

>  <s_m_source_file>  (1) 
generated__ligand_DiffSBDD_2026-05-06_prepared.sdf

>  <GenAI_Model>  (1) 
DiffSBDD

>  <Protein>  (1) 
GPCR_5HT2C

$$$$
DiffSBDD_43_num_sample_100
     RDKit          3D

  0  0  0  0  0  0  0  0  0  0999 V3000
M  V30 BEGIN CTAB
M  V30 COUNTS 72 75 0 0 1
M  V30 BEGIN ATOM
M  V30 1 C 37.084090 25.235169 55.333532 0 CFG=2
M  V30 2 N 37.048852 32.097997 59.053504 0
M  V30 3 O 39.422836 32.712902 56.397872 0
M  V30 4 C 37.713073 23.784612 57.372730 0
M  V30 5 C 39.574999 28.364362 55.932673 0
M  V30 6 C 39.508997 25.621462 54.543945 0
M  V30 7 C 40.267367 26.042617 53.515585 0
M  V30 8 C 38.488905 27.290353 56.226518 0 CFG=1
M  V30 9 C 38.210002 26.299206 55.014373 0 CFG=2
M  V30 10 F 36.267405 25.754188 56.219938 0
M  V30 11 C 39.067389 30.767725 59.022974 0 CFG=2
M  V30 12 C 39.166782 24.149958 57.469110 0
M  V30 13 O 35.310253 32.484515 60.912328 0
M  V30 14 C 39.612688 29.714922 58.103928 0 CFG=2
M  V30 15 C 37.414348 34.077089 60.929749 0
M  V30 16 C 39.426265 29.762242 56.599550 0 CFG=2
M  V30 17 C 38.276201 36.653108 61.271672 0
M  V30 18 O 38.414273 29.498277 58.859434 0
M  V30 19 C 36.656910 35.180648 60.514161 0
M  V30 20 C 37.918793 38.999227 60.817682 0
M  V30 21 C 37.272700 23.822034 55.900822 0
M  V30 22 C 40.454392 35.880283 62.349352 0
M  V30 23 C 38.721847 26.620880 57.610072 0
M  V30 24 O 37.573295 31.500570 61.529140 0
M  V30 25 C 38.377388 31.995065 58.464029 0 CFG=1
M  V30 26 C 38.189447 30.636169 56.233891 0 CFG=1
M  V30 27 S 36.765869 32.426034 60.720130 0
M  V30 28 C 37.586477 27.138546 53.859434 0
M  V30 29 C 38.294342 32.031140 56.911890 0 CFG=2
M  V30 30 C 39.616076 25.407032 57.581906 0
M  V30 31 C 38.667401 34.271475 61.523821 0
M  V30 32 N 37.068261 36.462183 60.670360 0
M  V30 33 C 39.111285 35.593746 61.701715 0
M  V30 34 C 37.959369 30.802205 54.720812 0
M  V30 35 O 38.667374 37.966698 61.453503 0
M  V30 36 H 36.513633 25.049079 54.427102 0
M  V30 37 H 36.250003 32.148615 58.402979 0
M  V30 38 H 39.324167 33.630734 56.599534 0
M  V30 39 H 37.548720 22.821465 57.853501 0
M  V30 40 H 37.095794 24.436802 57.985016 0
M  V30 41 H 39.664295 28.547086 54.867081 0
M  V30 42 H 40.547330 27.950523 56.203129 0
M  V30 43 H 39.817498 24.746255 55.086613 0
M  V30 44 H 41.165886 25.516148 53.242789 0
M  V30 45 H 40.001792 26.911686 52.938247 0
M  V30 46 H 37.571002 27.861687 56.355789 0
M  V30 47 H 39.536486 30.886429 59.997194 0
M  V30 48 H 39.867355 23.334585 57.453492 0
M  V30 49 H 40.488267 29.175298 58.460575 0
M  V30 50 H 40.267403 30.323372 56.211843 0
M  V30 51 H 35.688694 35.039246 60.056389 0
M  V30 52 H 38.410407 39.958284 60.980697 0
M  V30 53 H 37.867364 38.840467 59.739504 0
M  V30 54 H 36.908362 39.072763 61.222984 0
M  V30 55 H 37.872518 23.221480 55.228151 0
M  V30 56 H 36.295335 23.338100 55.867470 0
M  V30 57 H 40.982728 34.960251 62.601697 0
M  V30 58 H 41.087381 36.455628 61.672392 0
M  V30 59 H 40.320941 36.456016 63.266453 0
M  V30 60 H 39.183521 27.280746 58.330415 0
M  V30 61 H 37.763002 26.397728 58.068396 0
M  V30 62 H 38.938276 32.868125 58.796928 0
M  V30 63 H 37.293459 30.157408 56.633052 0
M  V30 64 H 36.660358 27.619254 54.173090 0
M  V30 65 H 38.223534 27.929679 53.476481 0
M  V30 66 H 37.351709 26.512038 53.000540 0
M  V30 67 H 37.467340 32.662607 56.606379 0
M  V30 68 H 40.674310 25.590728 57.646911 0
M  V30 69 H 39.267338 33.433602 61.847781 0
M  V30 70 H 38.855295 31.153033 54.207739 0
M  V30 71 H 37.645220 29.872148 54.260110 0
M  V30 72 H 37.165666 31.525728 54.530401 0
M  V30 END ATOM
M  V30 BEGIN BOND
M  V30 1 2 7 6
M  V30 2 1 8 5
M  V30 3 1 9 1
M  V30 4 1 9 6
M  V30 5 1 9 8
M  V30 6 1 10 1
M  V30 7 1 12 4
M  V30 8 1 14 11
M  V30 9 1 16 5
M  V30 10 1 16 14
M  V30 11 1 18 11
M  V30 12 1 18 14
M  V30 13 1 19 15
M  V30 14 1 21 1
M  V30 15 1 21 4
M  V30 16 1 23 8
M  V30 17 1 25 2
M  V30 18 1 25 11
M  V30 19 1 26 16
M  V30 20 1 27 2
M  V30 21 2 27 13
M  V30 22 1 27 15
M  V30 23 2 27 24
M  V30 24 1 9 28 CFG=3
M  V30 25 1 29 3
M  V30 26 1 29 25
M  V30 27 1 29 26
M  V30 28 2 30 12
M  V30 29 1 30 23
M  V30 30 2 31 15
M  V30 31 1 32 17
M  V30 32 2 32 19
M  V30 33 2 33 17
M  V30 34 1 33 22
M  V30 35 1 33 31
M  V30 36 1 34 26
M  V30 37 1 35 17
M  V30 38 1 35 20
M  V30 39 1 1 36 CFG=3
M  V30 40 1 37 2
M  V30 41 1 38 3
M  V30 42 1 39 4
M  V30 43 1 40 4
M  V30 44 1 41 5
M  V30 45 1 42 5
M  V30 46 1 43 6
M  V30 47 1 44 7
M  V30 48 1 45 7
M  V30 49 1 8 46 CFG=1
M  V30 50 1 11 47 CFG=1
M  V30 51 1 48 12
M  V30 52 1 14 49 CFG=3
M  V30 53 1 16 50 CFG=3
M  V30 54 1 51 19
M  V30 55 1 52 20
M  V30 56 1 53 20
M  V30 57 1 54 20
M  V30 58 1 55 21
M  V30 59 1 56 21
M  V30 60 1 57 22
M  V30 61 1 58 22
M  V30 62 1 59 22
M  V30 63 1 60 23
M  V30 64 1 61 23
M  V30 65 1 25 62 CFG=1
M  V30 66 1 26 63 CFG=1
M  V30 67 1 64 28
M  V30 68 1 65 28
M  V30 69 1 66 28
M  V30 70 1 29 67 CFG=1
M  V30 71 1 68 30
M  V30 72 1 69 31
M  V30 73 1 70 34
M  V30 74 1 71 34
M  V30 75 1 72 34
M  V30 END BOND
M  V30 END CTAB
M  END
>  <i_epik_Tot_Q>  (1) 
0

>  <i_epik_Tot_abs_Q>  (1) 
0

>  <i_i_glide_confnum>  (1) 
207

>  <i_i_glide_lignum>  (1) 
107

>  <i_i_glide_posenum>  (1) 
216

>  <i_i_glide_rotatable_bonds>  (1) 
8

>  <i_lp_mmshare_version>  (1) 
72125

>  <i_m_source_file_index>  (1) 
44

>  <i_f3d_flags>  (1) 
0

>  <num_sample>  (1) 
100

>  <b_lp_Chiralities_Consistent>  (1) 
1

>  <r_epik_Charging_Adjusted_Penalty>  (1) 
0

>  <r_epik_Ionization_Penalty>  (1) 
0.00039719250782603149

>  <r_epik_Ionization_Penalty_Charging>  (1) 
0

>  <r_epik_Ionization_Penalty_Neutral>  (1) 
0.00039719250782603149

>  <r_epik_State_Penalty>  (1) 
-0

>  <r_glide_ring_energy>  (1) 
0

>  <r_i_docking_score>  (1) 
-7.9811762423818173

>  <r_i_glide_ecoul>  (1) 
-5.5417683888656839

>  <r_i_glide_eff_state_penalty>  (1) 
-0

>  <r_i_glide_einternal>  (1) 
28.570832343749487

>  <r_i_glide_emodel>  (1) 
-47.301246812843836

>  <r_i_glide_emodel_strain>  (1) 
2.0423276634828227

>  <r_i_glide_energy>  (1) 
-46.521579412740032

>  <r_i_glide_erotb>  (1) 
0.47480880431145434

>  <r_i_glide_esite>  (1) 
-0.11761568884202477

>  <r_i_glide_evdw>  (1) 
-40.979811023874348

>  <r_i_glide_gscore>  (1) 
-7.9811762423818173

>  <r_i_glide_gscore_strain>  (1) 
0

>  <r_i_glide_hbond>  (1) 
-0.16

>  <r_i_glide_ligand_efficiency>  (1) 
-0.22803360692519478

>  <r_i_glide_ligand_efficiency_ln>  (1) 
-1.7520453178658533

>  <r_i_glide_ligand_efficiency_sa>  (1) 
-0.7459130492037922

>  <r_i_glide_lipo>  (1) 
-4.5320426825669351

>  <r_i_glide_metal>  (1) 
-0

>  <r_i_glide_rewards>  (1) 
-0.76607086576074013

>  <r_lp_Energy>  (1) 
35.002376999999996

>  <r_lp_tautomer_probability>  (1) 
1

>  <s_epik_cmdline>  (1) 
J2VwaWtfcHl0aG9uJywgJy1waHQnLCAnMS4wJywgJy1waCcsICc3LjQnLCAnLXRuJywgJzgnLCAnLW1hJywgJzUwMCcsICctaW1hZScsICc8aW5maWxlLm1hZT4nLCAnLW9tYWUnLCAnPG91dGZpbGUubWFlPic=

>  <s_epik_input>  (1) 
W0NIMl09W0NIXVtDQEBdMShbQ0gzXSlbQ0BIXShGKVtDSDJdW0NIMl0vW0NIXT1bQ0hdXFtDSDJdW0NASF0xW0NIMl1bQ0BIXShbQ0BIXShPMilbQ0BIXTIzKVtDQEhdKFtDSDNdKVtDQEhdKFtPSF0pW0NASF0zW05IXVMoPU8pKD1PKWM0W2NIXW5jKGMoW0NIM10pW2NIXTQpT1tDSDNd

>  <s_glide_docking_method>  (1) 
confgen

>  <s_i_glide_gridfile>  (1) 
gpcr_5ht2c_6bqh_protein_autoprepared_prepared

>  <s_lp_Force_Field>  (1) 
S-OPLS

>  <s_lp_Variant>  (1) 
DiffSBDD_43_num_sample_100-1

>  <s_m_source_file>  (1) 
generated__ligand_DiffSBDD_2026-05-06_prepared.sdf

>  <GenAI_Model>  (1) 
DiffSBDD

>  <Protein>  (1) 
GPCR_5HT2C

$$$$
DiffSBDD_19_num_sample_100
     RDKit          3D

  0  0  0  0  0  0  0  0  0  0999 V3000
M  V30 BEGIN CTAB
M  V30 COUNTS 71 72 0 0 1
M  V30 BEGIN ATOM
M  V30 1 C 37.847146 31.086116 60.019146 0
M  V30 2 C 38.691105 31.782153 55.084456 0
M  V30 3 C 38.981564 33.421580 60.187129 0
M  V30 4 C 36.866040 35.413451 61.160041 0
M  V30 5 O 38.267442 33.555407 56.553244 0
M  V30 6 C 39.096851 27.087254 58.221689 0
M  V30 7 C 38.346222 35.802905 61.023136 0 CFG=1
M  V30 8 C 39.145954 27.850047 52.067343 0
M  V30 9 C 38.372242 28.831740 52.851438 0
M  V30 10 C 40.440210 34.645786 61.831484 0
M  V30 11 C 39.813480 28.077416 50.935423 0
M  V30 12 C 38.671691 36.977498 61.996124 0
M  V30 13 C 39.983704 36.849695 62.739978 0
M  V30 14 O 40.700469 31.199734 61.053641 0
M  V30 15 O 39.476670 31.221358 62.911781 0 CHG=-1
M  V30 16 O 39.051170 26.650376 52.615253 0
M  V30 17 C 40.777433 35.777099 62.656453 0
M  V30 18 N 38.599350 30.920006 58.742796 0 CFG=1 CHG=1
M  V30 19 C 38.744366 32.223869 56.559923 0 CFG=1
M  V30 20 C 40.006330 29.385480 50.335703 0
M  V30 21 C 39.059971 30.316753 54.785729 0 CFG=1
M  V30 22 C 40.037277 30.570132 51.000414 0
M  V30 23 C 39.281122 29.602506 58.595622 0
M  V30 24 C 38.514691 32.138081 60.940282 0 CFG=2
M  V30 25 C 39.663810 31.462789 61.702976 0
M  V30 26 C 37.867306 31.419130 57.545181 0
M  V30 27 C 39.325808 34.616671 61.074501 0
M  V30 28 C 39.867421 30.776172 52.452634 0
M  V30 29 C 38.250475 25.930707 57.679328 0
M  V30 30 C 39.159772 30.000172 53.297708 0
M  V30 31 C 38.371822 28.440118 58.150722 0
M  V30 32 O 40.267480 29.953228 55.398454 0
M  V30 33 H 36.809150 31.371293 59.844392 0
M  V30 34 H 37.770239 30.127949 60.537216 0
M  V30 35 H 39.362118 32.440246 54.544416 0
M  V30 36 H 37.694914 31.973093 54.681054 0
M  V30 37 H 39.867199 33.212787 59.590607 0
M  V30 38 H 38.238145 33.722250 59.450957 0
M  V30 39 H 36.540035 34.672955 60.431410 0
M  V30 40 H 36.628050 35.040519 62.155433 0
M  V30 41 H 36.267403 36.303311 60.983331 0
M  V30 42 H 37.365490 33.544869 56.252138 0
M  V30 43 H 40.023470 27.141879 57.648123 0
M  V30 44 H 39.389215 26.875189 59.250411 0
M  V30 45 H 38.461724 36.199977 60.014702 0
M  V30 46 H 37.549938 29.183581 52.230816 0
M  V30 47 H 37.894341 28.330332 53.695024 0
M  V30 48 H 41.106886 33.796561 61.817874 0
M  V30 49 H 40.265391 27.231701 50.436276 0
M  V30 50 H 37.896671 37.067000 62.757862 0
M  V30 51 H 38.670640 37.922443 61.451885 0
M  V30 52 H 40.267403 37.679414 63.371065 0
M  V30 53 H 39.504417 26.044241 52.051067 0
M  V30 54 H 41.696449 35.757993 63.223897 0
M  V30 55 H 39.782365 32.243838 56.889968 0
M  V30 56 H 40.218161 29.413861 49.276943 0
M  V30 57 H 38.281359 29.702591 55.229346 0
M  V30 58 H 40.271901 31.445997 50.411885 0
M  V30 59 H 40.109617 29.707050 57.898585 0
M  V30 60 H 39.748698 29.342537 59.545948 0
M  V30 61 H 37.772206 32.436617 61.682135 0
M  V30 62 H 37.092216 32.098554 57.903419 0
M  V30 63 H 37.316094 30.625524 57.047349 0
M  V30 64 H 40.352985 31.621456 52.872032 0
M  V30 65 H 38.801490 24.991016 57.722062 0
M  V30 66 H 37.333986 25.804651 58.253472 0
M  V30 67 H 37.972549 26.102612 56.639071 0
M  V30 68 H 37.469812 28.421988 58.759448 0
M  V30 69 H 38.041794 28.585078 57.124555 0
M  V30 70 H 40.979840 30.315234 54.891767 0
M  V30 71 H 39.358222 31.574661 58.870185 0
M  V30 END ATOM
M  V30 BEGIN BOND
M  V30 1 1 7 4
M  V30 2 1 9 8
M  V30 3 2 11 8
M  V30 4 1 12 7
M  V30 5 1 13 12
M  V30 6 1 16 8
M  V30 7 1 17 10
M  V30 8 2 17 13
M  V30 9 1 18 1
M  V30 10 1 19 2
M  V30 11 1 19 5
M  V30 12 1 20 11
M  V30 13 1 21 2
M  V30 14 2 22 20
M  V30 15 1 23 18
M  V30 16 1 24 1
M  V30 17 1 24 3
M  V30 18 2 25 14
M  V30 19 1 25 15
M  V30 20 1 25 24
M  V30 21 1 26 18
M  V30 22 1 26 19
M  V30 23 1 27 3
M  V30 24 1 27 7
M  V30 25 2 27 10
M  V30 26 1 28 22
M  V30 27 1 29 6
M  V30 28 1 30 9
M  V30 29 1 30 21
M  V30 30 2 30 28
M  V30 31 1 31 6
M  V30 32 1 31 23
M  V30 33 1 32 21
M  V30 34 1 33 1
M  V30 35 1 34 1
M  V30 36 1 35 2
M  V30 37 1 36 2
M  V30 38 1 37 3
M  V30 39 1 38 3
M  V30 40 1 39 4
M  V30 41 1 40 4
M  V30 42 1 41 4
M  V30 43 1 42 5
M  V30 44 1 43 6
M  V30 45 1 44 6
M  V30 46 1 7 45 CFG=3
M  V30 47 1 46 9
M  V30 48 1 47 9
M  V30 49 1 48 10
M  V30 50 1 49 11
M  V30 51 1 50 12
M  V30 52 1 51 12
M  V30 53 1 52 13
M  V30 54 1 53 16
M  V30 55 1 54 17
M  V30 56 1 19 55 CFG=1
M  V30 57 1 56 20
M  V30 58 1 21 57 CFG=1
M  V30 59 1 58 22
M  V30 60 1 59 23
M  V30 61 1 60 23
M  V30 62 1 24 61 CFG=1
M  V30 63 1 62 26
M  V30 64 1 63 26
M  V30 65 1 64 28
M  V30 66 1 65 29
M  V30 67 1 66 29
M  V30 68 1 67 29
M  V30 69 1 68 31
M  V30 70 1 69 31
M  V30 71 1 70 32
M  V30 72 1 18 71 CFG=1
M  V30 END BOND
M  V30 END CTAB
M  END
>  <i_epik_Tot_Q>  (1) 
0

>  <i_epik_Tot_abs_Q>  (1) 
2

>  <i_i_glide_confnum>  (1) 
4783

>  <i_i_glide_lignum>  (1) 
50

>  <i_i_glide_posenum>  (1) 
297

>  <i_i_glide_rotatable_bonds>  (1) 
16

>  <i_lp_mmshare_version>  (1) 
72125

>  <i_m_source_file_index>  (1) 
20

>  <i_f3d_flags>  (1) 
0

>  <num_sample>  (1) 
100

>  <b_lp_Chiralities_Consistent>  (1) 
1

>  <r_epik_Charging_Adjusted_Penalty>  (1) 
0.015037487925518506

>  <r_epik_Ionization_Penalty>  (1) 
0.015045499532085388

>  <r_epik_Ionization_Penalty_Charging>  (1) 
0.0012943130925640431

>  <r_epik_Ionization_Penalty_Neutral>  (1) 
0.013751186439521345

>  <r_epik_State_Penalty>  (1) 
0.013743174832954463

>  <r_glide_ring_energy>  (1) 
0

>  <r_i_docking_score>  (1) 
-7.9720280959706571

>  <r_i_glide_ecoul>  (1) 
-3.4348684157012013

>  <r_i_glide_eff_state_penalty>  (1) 
0.013743174832954463

>  <r_i_glide_einternal>  (1) 
24.041217344181586

>  <r_i_glide_emodel>  (1) 
-57.216350411702471

>  <r_i_glide_emodel_strain>  (1) 
2.5626271452741918

>  <r_i_glide_energy>  (1) 
-41.699637787115336

>  <r_i_glide_erotb>  (1) 
1.1084889849388277

>  <r_i_glide_esite>  (1) 
-0.033009839723789673

>  <r_i_glide_evdw>  (1) 
-38.264769371414133

>  <r_i_glide_gscore>  (1) 
-7.9857712708036113

>  <r_i_glide_gscore_strain>  (1) 
0

>  <r_i_glide_hbond>  (1) 
-0.11441566029744696

>  <r_i_glide_ligand_efficiency>  (1) 
-0.24912587799908303

>  <r_i_glide_ligand_efficiency_ln>  (1) 
-1.7851543999663555

>  <r_i_glide_ligand_efficiency_sa>  (1) 
-0.79092536161649163

>  <r_i_glide_lipo>  (1) 
-5.0320658494914774

>  <r_i_glide_metal>  (1) 
-0

>  <r_i_glide_rewards>  (1) 
-1.4863001753038381

>  <r_lp_Energy>  (1) 
27.634533999999999

>  <s_epik_cmdline>  (1) 
J2VwaWtfcHl0aG9uJywgJy1waHQnLCAnMS4wJywgJy1waCcsICc3LjQnLCAnLXRuJywgJzgnLCAnLW1hJywgJzUwMCcsICctaW1hZScsICc8aW5maWxlLm1hZT4nLCAnLW9tYWUnLCAnPG91dGZpbGUubWFlPic=

>  <s_epik_input>  (1) 
W0NIM11bQ0BIXTFbQ0gyXVtDSF09W0NIXVtDSF09QzFbQ0gyXVtDQEhdKEMoPU8pW09IXSlbQ0gyXU4oW0NIMl1bQ0gyXVtDSDJdW0NIM10pW0NIMl1bQ0BIXShbT0hdKVtDSDJdW0NASF0oW09IXSlDKFtDSDJdMik9W0NIXVtDSF09W0NIXVtDSF09QzJbT0hd

>  <s_glide_docking_method>  (1) 
confgen

>  <s_i_glide_gridfile>  (1) 
gpcr_5ht2c_6bqh_protein_autoprepared_prepared

>  <s_lp_Force_Field>  (1) 
S-OPLS

>  <s_lp_Variant>  (1) 
DiffSBDD_19_num_sample_100-2

>  <s_m_source_file>  (1) 
generated__ligand_DiffSBDD_2026-05-06_prepared.sdf

>  <GenAI_Model>  (1) 
DiffSBDD

>  <Protein>  (1) 
GPCR_5HT2C

$$$$
DiffSBDD_80_num_sample_100
     RDKit          3D

  0  0  0  0  0  0  0  0  0  0999 V3000
M  V30 BEGIN CTAB
M  V30 COUNTS 73 76 0 0 1
M  V30 BEGIN ATOM
M  V30 1 C 37.132373 29.824870 57.856370 0
M  V30 2 C 38.999569 30.858923 61.154621 0
M  V30 3 N 38.994451 32.338081 61.012613 0 CFG=1 CHG=1
M  V30 4 O 38.414965 28.726419 55.739558 0
M  V30 5 O 40.712658 28.479152 60.992747 0
M  V30 6 O 36.215183 30.021416 58.904112 0
M  V30 7 C 39.183896 35.232642 61.586989 0 CFG=2
M  V30 8 C 37.813405 34.520869 61.442376 0 CFG=1
M  V30 9 C 39.453000 27.919954 50.986515 0
M  V30 10 C 39.660593 26.786591 55.318990 0
M  V30 11 O 39.480664 30.501115 54.273872 0
M  V30 12 C 39.466373 29.653418 53.206182 0
M  V30 13 O 35.067401 32.227382 60.561776 0
M  V30 14 C 39.048362 27.445662 52.244711 0
M  V30 15 C 36.573389 33.615030 59.321634 0
M  V30 16 C 39.870313 30.121884 51.941914 0
M  V30 17 O 40.430761 26.423078 57.587616 0
M  V30 18 C 40.267421 34.453409 60.825450 0
M  V30 19 O 40.267401 29.709983 49.613526 0
M  V30 20 C 37.121799 34.813344 60.087732 0
M  V30 21 C 39.867406 29.255480 50.834343 0
M  V30 22 C 39.030093 28.351417 56.970747 0 CFG=1
M  V30 23 C 39.403331 30.177943 59.848243 0 CFG=2
M  V30 24 C 38.087461 28.650281 58.156970 0 CFG=1
M  V30 25 C 37.988114 33.024570 61.853492 0
M  V30 26 C 39.347663 26.861229 56.795762 0 CFG=1
M  V30 27 C 35.199535 33.221434 59.853499 0
M  V30 28 C 38.793391 28.819054 59.509484 0 CFG=1
M  V30 29 C 36.998360 36.064885 59.606614 0
M  V30 30 C 40.402873 36.365294 63.309891 0
M  V30 31 C 40.284271 28.959906 59.738860 0 CFG=2
M  V30 32 C 38.631973 27.751960 54.725176 0 CFG=2
M  V30 33 C 39.054339 28.300718 53.360745 0
M  V30 34 C 40.319494 32.963802 61.222053 0
M  V30 35 O 39.520835 35.303369 62.966701 0
M  V30 36 H 37.666490 30.753681 57.658484 0
M  V30 37 H 36.540631 29.621448 56.965132 0
M  V30 38 H 37.996162 30.510008 61.401955 0
M  V30 39 H 39.641745 30.556230 61.982509 0
M  V30 40 H 41.096068 27.621288 60.872314 0
M  V30 41 H 35.586016 30.657431 58.573772 0
M  V30 42 H 39.132331 36.249881 61.200881 0
M  V30 43 H 37.140362 34.988867 62.160646 0
M  V30 44 H 39.448235 27.254712 50.138859 0
M  V30 45 H 39.976519 29.155986 48.905479 0
M  V30 46 H 39.596731 25.779279 54.906008 0
M  V30 47 H 40.667370 27.162925 55.141272 0
M  V30 48 H 39.068556 30.080487 55.022072 0
M  V30 49 H 38.736020 26.421434 52.356591 0
M  V30 50 H 36.439773 33.901699 58.277276 0
M  V30 51 H 37.245030 32.761833 59.307961 0
M  V30 52 H 40.187710 31.148317 51.823025 0
M  V30 53 H 41.243331 26.604295 57.135927 0
M  V30 54 H 41.240682 34.911714 61.000542 0
M  V30 55 H 40.071990 34.535301 59.756836 0
M  V30 56 H 39.943756 28.943900 57.017181 0
M  V30 57 H 39.467338 30.858419 59.006870 0
M  V30 58 H 37.443480 27.778020 58.253503 0
M  V30 59 H 37.043538 32.495188 61.854283 0
M  V30 60 H 38.339384 32.942410 62.880593 0
M  V30 61 H 38.471773 26.246077 57.008349 0
M  V30 62 H 34.374353 33.872432 59.563279 0
M  V30 63 H 38.267400 28.309361 60.309284 0
M  V30 64 H 36.510545 36.250025 58.660013 0
M  V30 65 H 37.379579 36.915758 60.150192 0
M  V30 66 H 40.613947 36.332531 64.378456 0
M  V30 67 H 41.355084 36.297236 62.783899 0
M  V30 68 H 39.955533 37.336080 63.092400 0
M  V30 69 H 41.019670 28.892701 58.940427 0
M  V30 70 H 37.685396 27.223167 54.598540 0
M  V30 71 H 40.612785 32.866974 62.268819 0
M  V30 72 H 41.079084 32.430285 60.653497 0
M  V30 73 H 38.719475 32.517483 60.057698 0
M  V30 END ATOM
M  V30 BEGIN BOND
M  V30 1 1 3 2
M  V30 2 1 6 1
M  V30 3 1 8 7
M  V30 4 1 12 11
M  V30 5 2 14 9
M  V30 6 1 16 12
M  V30 7 1 18 7
M  V30 8 1 20 8
M  V30 9 1 20 15
M  V30 10 1 21 9
M  V30 11 2 21 16
M  V30 12 1 21 19
M  V30 13 1 22 4
M  V30 14 1 23 2
M  V30 15 1 24 1
M  V30 16 1 24 22
M  V30 17 1 25 3
M  V30 18 1 25 8
M  V30 19 1 26 10
M  V30 20 1 26 17
M  V30 21 1 26 22
M  V30 22 2 27 13
M  V30 23 1 27 15
M  V30 24 1 28 23
M  V30 25 1 28 24
M  V30 26 2 29 20
M  V30 27 1 31 5
M  V30 28 1 31 23
M  V30 29 1 31 28
M  V30 30 1 32 4
M  V30 31 1 32 10
M  V30 32 2 33 12
M  V30 33 1 33 14
M  V30 34 1 33 32
M  V30 35 1 34 3
M  V30 36 1 34 18
M  V30 37 1 35 7
M  V30 38 1 35 30
M  V30 39 1 36 1
M  V30 40 1 37 1
M  V30 41 1 38 2
M  V30 42 1 39 2
M  V30 43 1 40 5
M  V30 44 1 41 6
M  V30 45 1 7 42 CFG=3
M  V30 46 1 8 43 CFG=1
M  V30 47 1 44 9
M  V30 48 1 45 19
M  V30 49 1 46 10
M  V30 50 1 47 10
M  V30 51 1 48 11
M  V30 52 1 49 14
M  V30 53 1 50 15
M  V30 54 1 51 15
M  V30 55 1 52 16
M  V30 56 1 53 17
M  V30 57 1 54 18
M  V30 58 1 55 18
M  V30 59 1 22 56 CFG=1
M  V30 60 1 23 57 CFG=3
M  V30 61 1 24 58 CFG=1
M  V30 62 1 59 25
M  V30 63 1 60 25
M  V30 64 1 26 61 CFG=3
M  V30 65 1 62 27
M  V30 66 1 28 63 CFG=1
M  V30 67 1 64 29
M  V30 68 1 65 29
M  V30 69 1 66 30
M  V30 70 1 67 30
M  V30 71 1 68 30
M  V30 72 1 31 69 CFG=3
M  V30 73 1 32 70 CFG=3
M  V30 74 1 71 34
M  V30 75 1 72 34
M  V30 76 1 3 73 CFG=3
M  V30 END BOND
M  V30 END CTAB
M  END
>  <i_epik_Tot_Q>  (1) 
1

>  <i_epik_Tot_abs_Q>  (1) 
1

>  <i_i_glide_confnum>  (1) 
1438

>  <i_i_glide_lignum>  (1) 
212

>  <i_i_glide_posenum>  (1) 
9

>  <i_i_glide_rotatable_bonds>  (1) 
15

>  <i_lp_mmshare_version>  (1) 
72125

>  <i_m_source_file_index>  (1) 
81

>  <i_f3d_flags>  (1) 
0

>  <num_sample>  (1) 
100

>  <b_lp_Chiralities_Consistent>  (1) 
1

>  <r_epik_Charging_Adjusted_Penalty>  (1) 
0.034071705691259377

>  <r_epik_Ionization_Penalty>  (1) 
0.043305258844254187

>  <r_epik_Ionization_Penalty_Charging>  (1) 
0.034071705691259377

>  <r_epik_Ionization_Penalty_Neutral>  (1) 
0.009233553152994808

>  <r_epik_State_Penalty>  (1) 
-0

>  <r_glide_ring_energy>  (1) 
0

>  <r_i_docking_score>  (1) 
-7.960081327273393

>  <r_i_glide_ecoul>  (1) 
-6.4145116770846302

>  <r_i_glide_eff_state_penalty>  (1) 
-0

>  <r_i_glide_einternal>  (1) 
25.588367056048668

>  <r_i_glide_emodel>  (1) 
-65.19441897722308

>  <r_i_glide_emodel_strain>  (1) 
1.1930969703484067

>  <r_i_glide_energy>  (1) 
-54.433694936084919

>  <r_i_glide_erotb>  (1) 
0.67144220787932085

>  <r_i_glide_esite>  (1) 
-0.040051681874998912

>  <r_i_glide_evdw>  (1) 
-48.019183259000286

>  <r_i_glide_gscore>  (1) 
-7.960081327273393

>  <r_i_glide_gscore_strain>  (1) 
0

>  <r_i_glide_hbond>  (1) 
-0.12872961369373687

>  <r_i_glide_ligand_efficiency>  (1) 
-0.22743089506495409

>  <r_i_glide_ligand_efficiency_ln>  (1) 
-1.747414515823138

>  <r_i_glide_ligand_efficiency_sa>  (1) 
-0.74394153874300784

>  <r_i_glide_lipo>  (1) 
-4.3944194183585381

>  <r_i_glide_metal>  (1) 
-0

>  <r_i_glide_rewards>  (1) 
-0.70518690671273043

>  <r_lp_Energy>  (1) 
34.886631000000001

>  <r_lp_tautomer_probability>  (1) 
1

>  <s_epik_cmdline>  (1) 
J2VwaWtfcHl0aG9uJywgJy1waHQnLCAnMS4wJywgJy1waCcsICc3LjQnLCAnLXRuJywgJzgnLCAnLW1hJywgJzUwMCcsICctaW1hZScsICc8aW5maWxlLm1hZT4nLCAnLW9tYWUnLCAnPG91dGZpbGUubWFlPic=

>  <s_epik_input>  (1) 
Tz1bQ0hdW0NIMl1DKD1bQ0gyXSlbQ0BASF0oW0NASF0oW0NIMl1bQ0gyXTEpT1tDSDNdKVtDSDJdTjFbQ0gyXVtDQEBIXTJbQ0BASF0oW0NAQEhdMltPSF0pW0NAQEhdKFtDSDJdW09IXSlbQ0BASF0zT1tDQEhdKFtDSDJdW0NASF0zW09IXSlDND1bQ0hdW0NIMl1DKD1PKVtDSF09QzRbT0hd

>  <s_glide_docking_method>  (1) 
confgen

>  <s_i_glide_gridfile>  (1) 
gpcr_5ht2c_6bqh_protein_autoprepared_prepared

>  <s_lp_Force_Field>  (1) 
S-OPLS

>  <s_lp_Variant>  (1) 
DiffSBDD_80_num_sample_100-8

>  <s_m_source_file>  (1) 
generated__ligand_DiffSBDD_2026-05-06_prepared.sdf

>  <GenAI_Model>  (1) 
DiffSBDD

>  <Protein>  (1) 
GPCR_5HT2C

$$$$
DiffSBDD_40_num_sample_100
     RDKit          3D

  0  0  0  0  0  0  0  0  0  0999 V3000
M  V30 BEGIN CTAB
M  V30 COUNTS 73 75 0 0 1
M  V30 BEGIN ATOM
M  V30 1 C 43.072172 27.621473 57.857932 0
M  V30 2 C 40.702090 35.373872 62.192212 0 CFG=1
M  V30 3 N 40.667565 30.509457 51.053500 0
M  V30 4 C 40.170664 32.808212 61.950789 0
M  V30 5 C 38.353422 25.494703 54.817739 0
M  V30 6 C 38.983211 31.540963 57.134137 0
M  V30 7 N 39.221958 29.698564 52.737355 0 CHG=1
M  V30 8 C 38.164374 33.358312 59.952257 0
M  V30 9 O 36.667402 31.730283 59.053499 0
M  V30 10 C 38.149548 32.807826 57.384129 0
M  V30 11 C 40.019386 36.701172 61.853497 0
M  V30 12 C 41.641572 35.573022 63.403140 0
M  V30 13 N 39.532885 28.449285 51.020777 0
M  V30 14 C 39.793827 28.630483 57.434766 0 CFG=2
M  V30 15 C 39.709443 34.190614 62.400210 0
M  V30 16 C 38.298771 27.987087 55.454485 0 CFG=1
M  V30 17 C 39.177804 26.716675 55.263592 0 CFG=1
M  V30 18 S 41.466109 32.040510 62.653496 0
M  V30 19 C 38.442388 28.582001 52.940417 0
M  V30 20 N 40.691755 27.496498 57.095340 0 CFG=1 CHG=1
M  V30 21 S 39.235385 32.056198 60.653568 0
M  V30 22 C 41.655753 27.133177 58.164380 0
M  V30 23 C 38.658631 27.779082 51.831773 0
M  V30 24 C 37.370167 32.905377 58.722048 0 CFG=2
M  V30 25 C 39.954457 26.338985 56.538705 0
M  V30 26 O 39.867399 37.634741 62.837472 0
M  V30 27 C 38.796397 28.313107 58.584331 0
M  V30 28 N 38.805027 36.876379 62.117435 0
M  V30 29 C 39.856254 29.599815 51.576307 0
M  V30 30 C 39.098664 29.142782 56.138471 0 CFG=1
M  V30 31 C 37.569269 28.403938 54.146985 0
M  V30 32 C 38.239089 30.413846 56.396778 0
M  V30 33 H 43.751607 27.326011 58.653498 0
M  V30 34 H 43.468062 27.154681 56.966461 0
M  V30 35 H 43.121521 28.705314 57.748373 0
M  V30 36 H 41.326363 35.155659 61.324259 0
M  V30 37 H 40.868762 31.387141 51.514574 0
M  V30 38 H 41.116684 30.383794 50.157028 0
M  V30 39 H 37.569292 25.261130 55.538836 0
M  V30 40 H 37.872447 25.645493 53.853224 0
M  V30 41 H 38.984259 24.610441 54.724063 0
M  V30 42 H 39.865847 31.810454 56.552382 0
M  V30 43 H 39.337642 31.179464 58.088454 0
M  V30 44 H 38.748951 34.249325 59.720947 0
M  V30 45 H 37.413871 33.625179 60.696046 0
M  V30 46 H 36.024334 31.621421 58.346297 0
M  V30 47 H 37.467398 32.947198 56.546152 0
M  V30 48 H 38.820863 33.658643 57.334818 0
M  V30 49 H 42.308587 36.421104 63.250665 0
M  V30 50 H 41.077491 35.773736 64.315651 0
M  V30 51 H 42.267433 34.705458 63.595318 0
M  V30 52 H 39.870652 28.121426 50.124244 0
M  V30 53 H 40.470843 29.403739 57.797143 0
M  V30 54 H 38.724021 34.421185 62.036996 0
M  V30 55 H 39.513505 34.105651 63.453528 0
M  V30 56 H 37.504774 27.718056 56.149904 0
M  V30 57 H 39.917019 26.921152 54.489551 0
M  V30 58 H 41.357384 27.524040 59.135440 0
M  V30 59 H 41.683945 26.049307 58.253516 0
M  V30 60 H 38.255923 26.821432 51.567375 0
M  V30 61 H 36.607054 33.669349 58.563053 0
M  V30 62 H 39.292012 25.915437 57.295121 0
M  V30 63 H 40.667343 25.555502 56.280203 0
M  V30 64 H 38.223843 29.196564 58.866447 0
M  V30 65 H 38.072831 27.545323 58.316255 0
M  V30 66 H 39.290412 27.984386 59.496011 0
M  V30 67 H 39.895697 29.440095 55.455114 0
M  V30 68 H 36.826617 27.644449 53.900033 0
M  V30 69 H 36.973280 29.303170 54.286377 0
M  V30 70 H 37.332619 30.148404 56.941874 0
M  V30 71 H 37.900938 30.834188 55.451510 0
M  V30 72 H 41.272926 27.824474 56.336817 0
M  V30 73 H 39.288024 30.488237 53.366824 0
M  V30 END ATOM
M  V30 BEGIN BOND
M  V30 1 1 10 6
M  V30 2 1 11 2
M  V30 3 1 12 2
M  V30 4 1 15 2
M  V30 5 1 15 4
M  V30 6 1 17 5
M  V30 7 1 17 16
M  V30 8 2 18 4
M  V30 9 1 19 7
M  V30 10 1 20 14
M  V30 11 1 21 4
M  V30 12 1 21 8
M  V30 13 1 22 1
M  V30 14 1 22 20
M  V30 15 1 23 13
M  V30 16 2 23 19
M  V30 17 1 24 8
M  V30 18 1 24 9
M  V30 19 1 24 10
M  V30 20 1 25 17
M  V30 21 1 25 20
M  V30 22 1 26 11
M  V30 23 1 27 14
M  V30 24 2 28 11
M  V30 25 1 28 26
M  V30 26 1 29 3
M  V30 27 2 29 7
M  V30 28 1 29 13
M  V30 29 1 30 14
M  V30 30 1 30 16
M  V30 31 1 31 16
M  V30 32 1 31 19
M  V30 33 1 32 6
M  V30 34 1 32 30
M  V30 35 1 33 1
M  V30 36 1 34 1
M  V30 37 1 35 1
M  V30 38 1 2 36 CFG=3
M  V30 39 1 37 3
M  V30 40 1 38 3
M  V30 41 1 39 5
M  V30 42 1 40 5
M  V30 43 1 41 5
M  V30 44 1 42 6
M  V30 45 1 43 6
M  V30 46 1 44 8
M  V30 47 1 45 8
M  V30 48 1 46 9
M  V30 49 1 47 10
M  V30 50 1 48 10
M  V30 51 1 49 12
M  V30 52 1 50 12
M  V30 53 1 51 12
M  V30 54 1 52 13
M  V30 55 1 14 53 CFG=1
M  V30 56 1 54 15
M  V30 57 1 55 15
M  V30 58 1 16 56 CFG=1
M  V30 59 1 17 57 CFG=3
M  V30 60 1 58 22
M  V30 61 1 59 22
M  V30 62 1 60 23
M  V30 63 1 24 61 CFG=3
M  V30 64 1 62 25
M  V30 65 1 63 25
M  V30 66 1 64 27
M  V30 67 1 65 27
M  V30 68 1 66 27
M  V30 69 1 30 67 CFG=3
M  V30 70 1 68 31
M  V30 71 1 69 31
M  V30 72 1 70 32
M  V30 73 1 71 32
M  V30 74 1 20 72 CFG=3
M  V30 75 1 73 7
M  V30 END BOND
M  V30 END CTAB
M  END
>  <i_epik_Tot_Q>  (1) 
2

>  <i_epik_Tot_abs_Q>  (1) 
2

>  <i_i_glide_confnum>  (1) 
1061

>  <i_i_glide_lignum>  (1) 
102

>  <i_i_glide_posenum>  (1) 
175

>  <i_i_glide_rotatable_bonds>  (1) 
14

>  <i_lp_mmshare_version>  (1) 
72125

>  <i_m_source_file_index>  (1) 
41

>  <i_f3d_flags>  (1) 
0

>  <num_sample>  (1) 
100

>  <b_lp_Chiralities_Consistent>  (1) 
1

>  <r_epik_Charging_Adjusted_Penalty>  (1) 
0.0037096170623772918

>  <r_epik_Ionization_Penalty>  (1) 
0.054330814931534903

>  <r_epik_Ionization_Penalty_Charging>  (1) 
0.0037096170623772918

>  <r_epik_Ionization_Penalty_Neutral>  (1) 
0.050621197869157614

>  <r_epik_State_Penalty>  (1) 
-0

>  <r_glide_ring_energy>  (1) 
0

>  <r_i_docking_score>  (1) 
-7.9539896671476082

>  <r_i_glide_ecoul>  (1) 
-8.5713648289651907

>  <r_i_glide_eff_state_penalty>  (1) 
-0

>  <r_i_glide_einternal>  (1) 
10.443253008531769

>  <r_i_glide_emodel>  (1) 
-67.403594976861243

>  <r_i_glide_emodel_strain>  (1) 
3.9215086600105735

>  <r_i_glide_energy>  (1) 
-52.354908062412633

>  <r_i_glide_erotb>  (1) 
0.95438045441749597

>  <r_i_glide_esite>  (1) 
0

>  <r_i_glide_evdw>  (1) 
-43.783543233447446

>  <r_i_glide_gscore>  (1) 
-7.9539896671476082

>  <r_i_glide_gscore_strain>  (1) 
0

>  <r_i_glide_hbond>  (1) 
-0.16

>  <r_i_glide_ligand_efficiency>  (1) 
-0.24856217709836276

>  <r_i_glide_ligand_efficiency_ln>  (1) 
-1.781115104043876

>  <r_i_glide_ligand_efficiency_sa>  (1) 
-0.78913572281089406

>  <r_i_glide_lipo>  (1) 
-3.1935239225650753

>  <r_i_glide_metal>  (1) 
-0

>  <r_i_glide_rewards>  (1) 
-2.0799643129828791

>  <r_lp_Energy>  (1) 
37.242804999999997

>  <r_lp_tautomer_probability>  (1) 
1

>  <s_epik_Chemistry_Notes>  (1) 
This compound has an imine and may undergo hydrolysis.

>  <s_epik_cmdline>  (1) 
J2VwaWtfcHl0aG9uJywgJy1waHQnLCAnMS4wJywgJy1waCcsICc3LjQnLCAnLXRuJywgJzgnLCAnLW1hJywgJzUwMCcsICctaW1hZScsICc8aW5maWxlLm1hZT4nLCAnLW9tYWUnLCAnPG91dGZpbGUubWFlPic=

>  <s_epik_input>  (1) 
W2NIXTFbbkhdYyhbTkgyXSluYzFbQ0gyXVtDQEBIXShbQ0BIXShbQ0gzXSlbQ0gyXU4oW0NAQEhdMltDSDNdKVtDSDJdW0NIM10pW0NAQEhdMltDSDJdW0NIMl1bQ0gyXVtDQEBIXShbT0hdKVtDSDJdU0MoPVMpW0NIMl1bQ0BIXShbQ0gzXSlDMz1OTzM=

>  <s_glide_docking_method>  (1) 
confgen

>  <s_i_glide_gridfile>  (1) 
gpcr_5ht2c_6bqh_protein_autoprepared_prepared

>  <s_lp_Force_Field>  (1) 
S-OPLS

>  <s_lp_Variant>  (1) 
DiffSBDD_40_num_sample_100-3

>  <s_m_source_file>  (1) 
generated__ligand_DiffSBDD_2026-05-06_prepared.sdf

>  <GenAI_Model>  (1) 
DiffSBDD

>  <Protein>  (1) 
GPCR_5HT2C

$$$$
DiffSBDD_15_num_sample_100
     RDKit          3D

  0  0  0  0  0  0  0  0  0  0999 V3000
M  V30 BEGIN CTAB
M  V30 COUNTS 74 79 0 0 1
M  V30 BEGIN ATOM
M  V30 1 C 38.113451 28.289687 58.761861 0
M  V30 2 S 38.917136 26.193755 55.270611 0
M  V30 3 N 41.288443 33.097082 61.853504 0
M  V30 4 C 40.603968 30.554151 50.996299 0
M  V30 5 C 40.351966 30.105535 64.523196 0
M  V30 6 C 41.328738 35.972364 61.427516 0
M  V30 7 S 37.478768 32.524849 60.943959 0
M  V30 8 S 41.680415 31.005625 63.677024 0
M  V30 9 O 37.406075 33.446380 59.801708 0
M  V30 10 C 39.410611 28.031745 51.941642 0
M  V30 11 C 39.429394 29.035057 52.841154 0
M  V30 12 C 38.819892 27.514564 56.525250 0 CFG=1
M  V30 13 C 40.008569 35.244944 61.586345 0 CFG=1
M  V30 14 N 39.086532 26.840994 52.563249 0
M  V30 15 C 40.873415 29.074674 65.534563 0
M  V30 16 C 41.472287 27.824796 64.877785 0
M  V30 17 C 40.041993 33.726584 61.301445 0 CFG=2
M  V30 18 C 39.181500 30.648596 56.885749 0
M  V30 19 S 39.867404 30.702005 52.662333 0
M  V30 20 C 39.724537 28.119638 50.495777 0
M  V30 21 N 39.467374 32.070991 62.653514 0
M  V30 22 C 39.292929 29.279155 58.853094 0 CFG=2
M  V30 23 N 39.443376 35.621439 62.867357 0
M  V30 24 O 37.303259 26.185779 57.799059 0
M  V30 25 C 39.762862 29.618268 50.101676 0
M  V30 26 C 37.822015 30.795665 60.393922 0
M  V30 27 C 38.424826 27.029474 57.917121 0 CFG=2
M  V30 28 N 38.855761 32.988454 61.896656 0
M  V30 29 C 38.924369 30.697502 59.339760 0 CFG=2
M  V30 30 C 38.720890 36.022332 61.670220 0
M  V30 31 C 40.796879 32.195134 62.607158 0
M  V30 32 C 38.632901 31.483417 58.042910 0
M  V30 33 O 36.338519 32.402038 61.853500 0
M  V30 34 C 39.003029 27.226560 53.841725 0
M  V30 35 N 39.884318 29.519324 57.525524 0 CFG=1 CHG=1
M  V30 36 O 39.067426 28.576820 54.054696 0
M  V30 37 C 40.126789 28.318231 56.695605 0
M  V30 38 H 37.238438 28.790417 58.343605 0
M  V30 39 H 37.867459 28.021474 59.783041 0
M  V30 40 H 40.644721 31.546815 50.550660 0
M  V30 41 H 41.627699 30.189564 51.053444 0
M  V30 42 H 39.719065 30.821171 65.046879 0
M  V30 43 H 39.753154 29.621538 63.757405 0
M  V30 44 H 41.935452 35.513541 60.653462 0
M  V30 45 H 41.163535 37.016360 61.160966 0
M  V30 46 H 41.894304 35.942993 62.358636 0
M  V30 47 H 38.009575 28.155702 56.177983 0
M  V30 48 H 41.604166 29.538388 66.198225 0
M  V30 49 H 40.043969 28.763103 66.171641 0
M  V30 50 H 41.800300 27.111662 65.634845 0
M  V30 51 H 40.736137 27.323149 64.249501 0
M  V30 52 H 42.334744 28.072108 64.258394 0
M  V30 53 H 40.024437 33.592142 60.220424 0
M  V30 54 H 38.355364 30.312097 56.259898 0
M  V30 55 H 39.860733 31.217163 56.249857 0
M  V30 56 H 40.667370 27.631494 50.277545 0
M  V30 57 H 38.977541 27.592077 49.908766 0
M  V30 58 H 38.956439 31.422562 63.234636 0
M  V30 59 H 40.056622 28.842697 59.499782 0
M  V30 60 H 39.924115 36.344986 63.385587 0
M  V30 61 H 37.488295 25.532912 57.138180 0
M  V30 62 H 38.752935 29.990558 50.253507 0
M  V30 63 H 40.024256 29.733040 49.052275 0
M  V30 64 H 36.877484 30.420631 59.998165 0
M  V30 65 H 38.063511 30.200435 61.272813 0
M  V30 66 H 39.230910 26.450192 58.369605 0
M  V30 67 H 39.803747 31.095961 59.853491 0
M  V30 68 H 38.737260 37.076992 61.401573 0
M  V30 69 H 37.785693 35.510456 61.458470 0
M  V30 70 H 37.560190 31.624675 57.896937 0
M  V30 71 H 39.081204 32.476513 58.065266 0
M  V30 72 H 40.597717 28.630872 55.768156 0
M  V30 73 H 40.877300 27.696781 57.187634 0
M  V30 74 H 40.801579 29.887935 57.729355 0
M  V30 END ATOM
M  V30 BEGIN BOND
M  V30 1 1 8 5
M  V30 2 2 9 7
M  V30 3 2 11 10
M  V30 4 1 12 2
M  V30 5 1 13 6 CFG=3
M  V30 6 1 14 10
M  V30 7 1 15 5
M  V30 8 1 16 15
M  V30 9 1 17 3
M  V30 10 1 17 13
M  V30 11 1 19 4
M  V30 12 1 19 11
M  V30 13 1 20 10
M  V30 14 1 22 1
M  V30 15 1 23 13
M  V30 16 1 25 4
M  V30 17 1 25 20
M  V30 18 1 26 7
M  V30 19 1 27 1
M  V30 20 1 27 12
M  V30 21 1 27 24
M  V30 22 1 28 7
M  V30 23 1 28 17
M  V30 24 1 28 21
M  V30 25 1 29 22
M  V30 26 1 29 26
M  V30 27 1 30 13
M  V30 28 1 30 23
M  V30 29 2 31 3
M  V30 30 1 31 8
M  V30 31 1 31 21
M  V30 32 1 32 18
M  V30 33 1 32 29
M  V30 34 2 33 7
M  V30 35 1 34 2
M  V30 36 2 34 14
M  V30 37 1 35 18
M  V30 38 1 35 22
M  V30 39 1 36 11
M  V30 40 1 36 34
M  V30 41 1 37 12
M  V30 42 1 37 35
M  V30 43 1 38 1
M  V30 44 1 39 1
M  V30 45 1 40 4
M  V30 46 1 41 4
M  V30 47 1 42 5
M  V30 48 1 43 5
M  V30 49 1 44 6
M  V30 50 1 45 6
M  V30 51 1 46 6
M  V30 52 1 12 47 CFG=3
M  V30 53 1 48 15
M  V30 54 1 49 15
M  V30 55 1 50 16
M  V30 56 1 51 16
M  V30 57 1 52 16
M  V30 58 1 17 53 CFG=3
M  V30 59 1 54 18
M  V30 60 1 55 18
M  V30 61 1 56 20
M  V30 62 1 57 20
M  V30 63 1 58 21
M  V30 64 1 22 59 CFG=1
M  V30 65 1 60 23
M  V30 66 1 61 24
M  V30 67 1 62 25
M  V30 68 1 63 25
M  V30 69 1 64 26
M  V30 70 1 65 26
M  V30 71 1 27 66 CFG=1
M  V30 72 1 29 67 CFG=1
M  V30 73 1 68 30
M  V30 74 1 69 30
M  V30 75 1 70 32
M  V30 76 1 71 32
M  V30 77 1 72 37
M  V30 78 1 73 37
M  V30 79 1 35 74 CFG=1
M  V30 END BOND
M  V30 END CTAB
M  END
>  <i_epik_Tot_Q>  (1) 
1

>  <i_epik_Tot_abs_Q>  (1) 
1

>  <i_i_glide_confnum>  (1) 
361

>  <i_i_glide_lignum>  (1) 
34

>  <i_i_glide_posenum>  (1) 
376

>  <i_i_glide_rotatable_bonds>  (1) 
10

>  <i_lp_mmshare_version>  (1) 
72125

>  <i_m_source_file_index>  (1) 
16

>  <i_f3d_flags>  (1) 
0

>  <num_sample>  (1) 
100

>  <b_lp_Chiralities_Consistent>  (1) 
1

>  <r_epik_Charging_Adjusted_Penalty>  (1) 
0.0082019649409003706

>  <r_epik_Ionization_Penalty>  (1) 
0.015626865898487191

>  <r_epik_Ionization_Penalty_Charging>  (1) 
0.0082019649409003706

>  <r_epik_Ionization_Penalty_Neutral>  (1) 
0.0074249009575868222

>  <r_epik_State_Penalty>  (1) 
-0

>  <r_glide_ring_energy>  (1) 
0

>  <r_i_docking_score>  (1) 
-7.9508306434489064

>  <r_i_glide_ecoul>  (1) 
-2.9919650533859721

>  <r_i_glide_eff_state_penalty>  (1) 
-0

>  <r_i_glide_einternal>  (1) 
8.5329815976537233

>  <r_i_glide_emodel>  (1) 
-59.361748837898489

>  <r_i_glide_emodel_strain>  (1) 
2.7020136784815634

>  <r_i_glide_energy>  (1) 
-47.161786949201471

>  <r_i_glide_erotb>  (1) 
0.37349522713264072

>  <r_i_glide_esite>  (1) 
-0.054594390326819481

>  <r_i_glide_evdw>  (1) 
-44.169821895815495

>  <r_i_glide_gscore>  (1) 
-7.9508306434489064

>  <r_i_glide_gscore_strain>  (1) 
0

>  <r_i_glide_hbond>  (1) 
0

>  <r_i_glide_ligand_efficiency>  (1) 
-0.21488731468780828

>  <r_i_glide_ligand_efficiency_ln>  (1) 
-1.7243487726480349

>  <r_i_glide_ligand_efficiency_sa>  (1) 
-0.71605220564423522

>  <r_i_glide_lipo>  (1) 
-4.0394050046942427

>  <r_i_glide_metal>  (1) 
-0

>  <r_i_glide_rewards>  (1) 
-1.5730406227618143

>  <r_lp_Energy>  (1) 
9.9370189999999994

>  <r_lp_tautomer_probability>  (1) 
1

>  <s_epik_Chemistry_Notes>  (1) 
This compound has an imine and may undergo hydrolysis. This compound contains an acetal/aminal-like group ( X-CH(R)-Y where X, Y are N, S, or O) that may be acid/base labile, releasing an aldehyde.

>  <s_epik_cmdline>  (1) 
J2VwaWtfcHl0aG9uJywgJy1waHQnLCAnMS4wJywgJy1waCcsICc3LjQnLCAnLXRuJywgJzgnLCAnLW1hJywgJzUwMCcsICctaW1hZScsICc8aW5maWxlLm1hZT4nLCAnLW9tYWUnLCAnPG91dGZpbGUubWFlPic=

>  <s_epik_input>  (1) 
W0NIMl0xW0NIMl1bQ0gyXVNjKGMxMilvYyhuMilTW0NAQEhdKFtDQEBIXShbQ0gyXTMpW09IXSlbQ0gyXU4oW0NASF0zNClbQ0gyXVtDSDJdW0NASF00W0NIMl1TKD1PKSg9TylONVtOSF1DKFNbQ0gyXVtDSDJdW0NIM10pPU5bQ0BASF01W0NAXTYoW0NIM10pW05IXVtDSDJdNg==

>  <s_glide_docking_method>  (1) 
confgen

>  <s_i_glide_gridfile>  (1) 
gpcr_5ht2c_6bqh_protein_autoprepared_prepared

>  <s_lp_Force_Field>  (1) 
S-OPLS

>  <s_lp_Variant>  (1) 
DiffSBDD_15_num_sample_100-1

>  <s_m_source_file>  (1) 
generated__ligand_DiffSBDD_2026-05-06_prepared.sdf

>  <GenAI_Model>  (1) 
DiffSBDD

>  <Protein>  (1) 
GPCR_5HT2C

$$$$
DiffSBDD_85_num_sample_100
     RDKit          3D

  0  0  0  0  0  0  0  0  0  0999 V3000
M  V30 BEGIN CTAB
M  V30 COUNTS 83 87 0 0 1
M  V30 BEGIN ATOM
M  V30 1 C 40.326327 37.161661 61.854177 0
M  V30 2 N 37.921732 27.608139 53.826695 0 CHG=1
M  V30 3 C 40.345101 28.809405 51.074013 0
M  V30 4 Cl 37.383701 36.469432 62.963587 0
M  V30 5 C 40.283338 35.223332 63.509703 0 CFG=1
M  V30 6 C 38.486950 26.239392 58.386840 0
M  V30 7 C 38.989419 28.361766 53.149948 0
M  V30 8 C 40.220471 30.326647 51.271572 0
M  V30 9 O 42.174646 32.421872 61.594473 0
M  V30 10 S 39.404762 30.203232 60.301641 0
M  V30 11 C 39.951108 30.709144 52.736942 0
M  V30 12 O 40.514926 31.787952 62.936063 0 CHG=-1
M  V30 13 C 39.128419 28.052709 51.646901 0
M  V30 14 C 38.424102 31.733872 60.494753 0 CFG=1
M  V30 15 C 36.859593 30.131762 59.579707 0 CFG=2
M  V30 16 C 38.509343 28.752007 58.005154 0 CFG=1
M  V30 17 C 41.159173 36.217338 62.730821 0
M  V30 18 N 37.867447 27.988159 55.242710 0
M  V30 19 C 39.348658 34.431825 62.520025 0 CFG=2
M  V30 20 C 39.806895 26.120448 57.628780 0 CFG=1
M  V30 21 C 38.849035 29.881257 53.396373 0
M  V30 22 C 41.127484 34.414783 64.517531 0
M  V30 23 C 38.009736 26.885507 56.171082 0 CFG=2
M  V30 24 C 40.032526 28.667617 57.662262 0
M  V30 25 C 37.813041 27.386429 57.628429 0 CFG=1
M  V30 26 C 39.202437 36.472600 61.053762 0
M  V30 27 C 41.010156 32.505475 62.039450 0
M  V30 28 C 40.109733 33.588694 61.429293 0 CFG=1
M  V30 29 C 39.381668 26.172458 56.150195 0
M  V30 30 O 35.862218 29.804110 58.653224 0
M  V30 31 C 39.247974 33.013047 60.256906 0
M  V30 32 C 37.273708 31.599660 59.488276 0 CFG=1
M  V30 33 C 38.387657 35.477977 61.861299 0 CFG=2
M  V30 34 C 40.692597 27.319923 58.020676 0
M  V30 35 C 38.124266 29.242615 59.457355 0 CFG=1
M  V30 36 O 36.196511 32.445628 59.853161 0
M  V30 37 H 39.900054 37.954612 62.468505 0
M  V30 38 H 41.023091 37.621002 61.151873 0
M  V30 39 H 38.084228 26.612042 53.784012 0
M  V30 40 H 41.251613 28.455525 51.559743 0
M  V30 41 H 40.495810 28.598741 50.017633 0
M  V30 42 H 39.640198 35.821308 64.154958 0
M  V30 43 H 37.904356 25.319904 58.297707 0
M  V30 44 H 38.627412 26.439049 59.448718 0
M  V30 45 H 39.867367 27.994011 53.651855 0
M  V30 46 H 41.131478 30.820672 50.930708 0
M  V30 47 H 39.422951 30.708125 50.636063 0
M  V30 48 H 40.848245 30.617764 53.346269 0
M  V30 49 H 39.668837 31.756573 52.788510 0
M  V30 50 H 39.254009 26.981514 51.486819 0
M  V30 51 H 38.226206 28.340398 51.106336 0
M  V30 52 H 38.011187 31.745656 61.504232 0
M  V30 53 H 36.428788 30.021390 60.573397 0
M  V30 54 H 38.122942 29.527646 57.344949 0
M  V30 55 H 41.768254 36.805679 63.415254 0
M  V30 56 H 41.870506 35.680170 62.107838 0
M  V30 57 H 38.673428 28.595039 55.298946 0
M  V30 58 H 38.750731 33.699158 63.053556 0
M  V30 59 H 40.317001 25.186878 57.862160 0
M  V30 60 H 37.871658 30.191976 53.054034 0
M  V30 61 H 38.866369 30.138435 54.456345 0
M  V30 62 H 42.032092 34.004201 64.071577 0
M  V30 63 H 41.456568 35.047996 65.341370 0
M  V30 64 H 40.568619 33.589681 64.954888 0
M  V30 65 H 37.231284 26.150588 55.959958 0
M  V30 66 H 40.144006 28.813798 56.588896 0
M  V30 67 H 40.613145 29.485979 58.078905 0
M  V30 68 H 36.749001 27.437730 57.853504 0
M  V30 69 H 38.524755 37.225829 60.653487 0
M  V30 70 H 39.643944 35.968363 60.201787 0
M  V30 71 H 40.797459 34.270111 60.944790 0
M  V30 72 H 40.133988 26.675747 55.542538 0
M  V30 73 H 39.271403 25.163548 55.747724 0
M  V30 74 H 35.769843 30.521319 58.021764 0
M  V30 75 H 39.866791 32.821820 59.395487 0
M  V30 76 H 38.597555 33.785385 59.858622 0
M  V30 77 H 37.612407 31.839773 58.477746 0
M  V30 78 H 37.646767 34.981712 61.237885 0
M  V30 79 H 41.667360 27.235537 57.537823 0
M  V30 80 H 40.883068 27.295984 59.092350 0
M  V30 81 H 37.980449 28.373698 60.086789 0
M  V30 82 H 35.560076 32.423814 59.149356 0
M  V30 83 H 37.021234 27.834742 53.426765 0
M  V30 END ATOM
M  V30 BEGIN BOND
M  V30 1 1 7 2
M  V30 2 1 8 3
M  V30 3 1 11 8
M  V30 4 1 13 3
M  V30 5 1 13 7
M  V30 6 1 14 10
M  V30 7 1 17 1
M  V30 8 1 17 5
M  V30 9 1 18 2
M  V30 10 1 19 5
M  V30 11 1 20 6
M  V30 12 1 21 7
M  V30 13 1 21 11
M  V30 14 1 22 5
M  V30 15 1 23 18
M  V30 16 1 24 16
M  V30 17 1 25 6
M  V30 18 1 25 16
M  V30 19 1 25 23
M  V30 20 1 26 1
M  V30 21 2 27 9
M  V30 22 1 27 12
M  V30 23 1 28 19
M  V30 24 1 28 27
M  V30 25 1 29 20
M  V30 26 1 29 23
M  V30 27 1 30 15
M  V30 28 1 31 14
M  V30 29 1 31 28
M  V30 30 1 32 14
M  V30 31 1 32 15
M  V30 32 1 33 4
M  V30 33 1 33 19
M  V30 34 1 33 26
M  V30 35 1 34 20
M  V30 36 1 34 24
M  V30 37 1 35 10
M  V30 38 1 35 15
M  V30 39 1 35 16
M  V30 40 1 36 32
M  V30 41 1 37 1
M  V30 42 1 38 1
M  V30 43 1 39 2
M  V30 44 1 40 3
M  V30 45 1 41 3
M  V30 46 1 5 42 CFG=1
M  V30 47 1 43 6
M  V30 48 1 44 6
M  V30 49 1 45 7
M  V30 50 1 46 8
M  V30 51 1 47 8
M  V30 52 1 48 11
M  V30 53 1 49 11
M  V30 54 1 50 13
M  V30 55 1 51 13
M  V30 56 1 14 52 CFG=1
M  V30 57 1 15 53 CFG=1
M  V30 58 1 16 54 CFG=3
M  V30 59 1 55 17
M  V30 60 1 56 17
M  V30 61 1 57 18
M  V30 62 1 19 58 CFG=1
M  V30 63 1 20 59 CFG=3
M  V30 64 1 60 21
M  V30 65 1 61 21
M  V30 66 1 62 22
M  V30 67 1 63 22
M  V30 68 1 64 22
M  V30 69 1 23 65 CFG=3
M  V30 70 1 66 24
M  V30 71 1 67 24
M  V30 72 1 25 68 CFG=1
M  V30 73 1 69 26
M  V30 74 1 70 26
M  V30 75 1 28 71 CFG=3
M  V30 76 1 72 29
M  V30 77 1 73 29
M  V30 78 1 74 30
M  V30 79 1 75 31
M  V30 80 1 76 31
M  V30 81 1 32 77 CFG=3
M  V30 82 1 33 78 CFG=3
M  V30 83 1 79 34
M  V30 84 1 80 34
M  V30 85 1 35 81 CFG=1
M  V30 86 1 82 36
M  V30 87 1 83 2
M  V30 END BOND
M  V30 END CTAB
M  END
>  <i_epik_Tot_Q>  (1) 
0

>  <i_epik_Tot_abs_Q>  (1) 
2

>  <i_i_glide_confnum>  (1) 
109

>  <i_i_glide_lignum>  (1) 
223

>  <i_i_glide_posenum>  (1) 
327

>  <i_i_glide_rotatable_bonds>  (1) 
10

>  <i_lp_mmshare_version>  (1) 
72125

>  <i_m_source_file_index>  (1) 
86

>  <i_f3d_flags>  (1) 
0

>  <num_sample>  (1) 
100

>  <b_lp_Chiralities_Consistent>  (1) 
1

>  <r_epik_Charging_Adjusted_Penalty>  (1) 
0.73371446279801333

>  <r_epik_Ionization_Penalty>  (1) 
0.028997413797582132

>  <r_epik_Ionization_Penalty_Charging>  (1) 
0.028997299906531444

>  <r_epik_Ionization_Penalty_Neutral>  (1) 
1.138910506862436e-07

>  <r_epik_State_Penalty>  (1) 
0.7047171628914819

>  <r_glide_ring_energy>  (1) 
0

>  <r_i_docking_score>  (1) 
-7.9486825400580763

>  <r_i_glide_ecoul>  (1) 
-7.0418659382062483

>  <r_i_glide_eff_state_penalty>  (1) 
0.7047171628914819

>  <r_i_glide_einternal>  (1) 
15.23056816754255

>  <r_i_glide_emodel>  (1) 
-47.946243932850138

>  <r_i_glide_emodel_strain>  (1) 
2.1527906380445927

>  <r_i_glide_energy>  (1) 
-36.97305437396917

>  <r_i_glide_erotb>  (1) 
0.49083612240102314

>  <r_i_glide_esite>  (1) 
0

>  <r_i_glide_evdw>  (1) 
-29.931188435762923

>  <r_i_glide_gscore>  (1) 
-8.6533997029495584

>  <r_i_glide_gscore_strain>  (1) 
0

>  <r_i_glide_hbond>  (1) 
-0.20932630743180786

>  <r_i_glide_ligand_efficiency>  (1) 
-0.22079673722383544

>  <r_i_glide_ligand_efficiency_ln>  (1) 
-1.734187781655697

>  <r_i_glide_ligand_efficiency_sa>  (1) 
-0.72905476310640893

>  <r_i_glide_lipo>  (1) 
-5.2374092592020558

>  <r_i_glide_metal>  (1) 
-0

>  <r_i_glide_rewards>  (1) 
-1.1446609461976356

>  <r_lp_Energy>  (1) 
63.234845

>  <s_epik_cmdline>  (1) 
J2VwaWtfcHl0aG9uJywgJy1waHQnLCAnMS4wJywgJy1waCcsICc3LjQnLCAnLXRuJywgJzgnLCAnLW1hJywgJzUwMCcsICctaW1hZScsICc8aW5maWxlLm1hZT4nLCAnLW9tYWUnLCAnPG91dGZpbGUubWFlPic=

>  <s_epik_input>  (1) 
W0NIM11bQ0BIXTFbQ0gyXVtDSDJdW0NIMl1bQ0BIXShDbClbQ0BIXTFbQ0BASF0oQyg9TylbT0hdKVtDSDJdW0NAQEhdMlNbQ0BASF0oW0NAQEhdKFtPSF0pW0NASF0yW09IXSlbQ0BASF0oW0NIMl1bQ0gyXTMpW0NASF0oW0NIMl1bQ0BIXTM0KVtDQEhdKFtDSDJdNClbTkhdW05IXVtDSF01W0NIMl1bQ0gyXVtDSDJdW0NIMl1bQ0gyXTU=

>  <s_glide_docking_method>  (1) 
confgen

>  <s_i_glide_gridfile>  (1) 
gpcr_5ht2c_6bqh_protein_autoprepared_prepared

>  <s_lp_Force_Field>  (1) 
S-OPLS

>  <s_lp_Variant>  (1) 
DiffSBDD_85_num_sample_100-4

>  <s_m_source_file>  (1) 
generated__ligand_DiffSBDD_2026-05-06_prepared.sdf

>  <GenAI_Model>  (1) 
DiffSBDD

>  <Protein>  (1) 
GPCR_5HT2C

$$$$
DiffSBDD_61_num_sample_100
     RDKit          3D

  0  0  0  0  0  0  0  0  0  0999 V3000
M  V30 BEGIN CTAB
M  V30 COUNTS 50 53 0 0 1
M  V30 BEGIN ATOM
M  V30 1 N 37.523842 31.964566 58.253347 0
M  V30 2 C 39.817061 28.587761 50.549363 0
M  V30 3 N 39.072446 33.289540 59.489859 0
M  V30 4 C 35.236887 33.772504 61.333720 0
M  V30 5 C 38.391713 28.361585 52.456639 0 CFG=1
M  V30 6 C 38.917436 26.931138 54.337362 0
M  V30 7 S 37.783678 29.272717 53.957449 0
M  V30 8 N 34.811604 32.266682 59.453223 0
M  V30 9 O 39.545869 28.969141 51.891402 0
M  V30 10 C 35.627941 33.063242 60.251721 0
M  V30 11 C 38.463694 28.052441 54.965441 0
M  V30 12 C 41.197972 33.638851 61.811664 0
M  V30 13 C 39.035963 30.583831 57.082999 0
M  V30 14 C 39.682291 33.765248 61.975671 0
M  V30 15 C 37.864313 32.839779 59.257596 0
M  V30 16 C 39.150997 27.163497 57.121761 0
M  V30 17 C 39.633720 26.003477 56.467366 0
M  V30 18 O 38.414769 31.858698 57.145788 0
M  V30 19 C 38.554692 28.197077 56.363621 0
M  V30 20 C 38.015929 29.439018 57.049525 0
M  V30 21 N 36.941962 33.306903 60.109390 0
M  V30 22 C 36.421748 34.507164 61.763777 0
M  V30 23 C 37.446315 34.087519 60.934849 0
M  V30 24 C 38.736102 26.878089 52.856254 0
M  V30 25 C 38.912244 34.264417 60.734910 0 CFG=2
M  V30 26 C 39.509163 25.884968 55.065005 0
M  V30 27 H 36.564513 31.840311 57.904764 0
M  V30 28 H 40.652611 29.178996 50.174047 0
M  V30 29 H 40.084262 27.535989 50.460910 0
M  V30 30 H 38.969906 28.766611 49.892734 0
M  V30 31 H 34.264355 33.803885 61.746039 0
M  V30 32 H 37.583379 28.379635 51.723705 0
M  V30 33 H 33.825770 32.181095 59.645632 0
M  V30 34 H 35.067645 31.967794 58.496395 0
M  V30 35 H 41.662268 33.379523 62.763006 0
M  V30 36 H 41.454677 32.847537 61.107402 0
M  V30 37 H 41.638784 34.572469 61.466491 0
M  V30 38 H 39.740388 30.422223 57.897717 0
M  V30 39 H 39.617752 30.591517 56.161243 0
M  V30 40 H 39.467513 34.430970 62.811963 0
M  V30 41 H 39.298915 32.788070 62.268876 0
M  V30 42 H 39.239132 27.258130 58.193870 0
M  V30 43 H 40.090786 25.208773 57.037325 0
M  V30 44 H 37.101251 29.758234 56.550946 0
M  V30 45 H 37.708386 29.189857 58.065055 0
M  V30 46 H 36.503098 35.217935 62.579270 0
M  V30 47 H 39.576100 26.427506 52.329702 0
M  V30 48 H 37.825521 26.314312 52.688251 0
M  V30 49 H 39.164056 35.292128 60.474952 0
M  V30 50 H 39.867162 25.000079 54.560529 0
M  V30 END ATOM
M  V30 BEGIN BOND
M  V30 1 1 7 5
M  V30 2 1 9 2
M  V30 3 1 9 5
M  V30 4 2 10 4
M  V30 5 1 10 8
M  V30 6 1 11 6
M  V30 7 1 11 7
M  V30 8 1 14 12
M  V30 9 1 15 1
M  V30 10 2 15 3
M  V30 11 2 17 16
M  V30 12 1 18 1
M  V30 13 1 18 13
M  V30 14 2 19 11
M  V30 15 1 19 16
M  V30 16 1 20 13
M  V30 17 1 20 19
M  V30 18 1 21 10
M  V30 19 1 21 15
M  V30 20 1 22 4
M  V30 21 1 23 21
M  V30 22 2 23 22
M  V30 23 1 24 5
M  V30 24 1 24 6
M  V30 25 1 25 3
M  V30 26 1 25 14
M  V30 27 1 25 23
M  V30 28 2 26 6
M  V30 29 1 26 17
M  V30 30 1 27 1
M  V30 31 1 28 2
M  V30 32 1 29 2
M  V30 33 1 30 2
M  V30 34 1 31 4
M  V30 35 1 5 32 CFG=3
M  V30 36 1 33 8
M  V30 37 1 34 8
M  V30 38 1 35 12
M  V30 39 1 36 12
M  V30 40 1 37 12
M  V30 41 1 38 13
M  V30 42 1 39 13
M  V30 43 1 40 14
M  V30 44 1 41 14
M  V30 45 1 42 16
M  V30 46 1 43 17
M  V30 47 1 44 20
M  V30 48 1 45 20
M  V30 49 1 46 22
M  V30 50 1 47 24
M  V30 51 1 48 24
M  V30 52 1 25 49 CFG=3
M  V30 53 1 50 26
M  V30 END BOND
M  V30 END CTAB
M  END
>  <i_epik_Tot_Q>  (1) 
0

>  <i_epik_Tot_abs_Q>  (1) 
0

>  <i_i_glide_confnum>  (1) 
36

>  <i_i_glide_lignum>  (1) 
156

>  <i_i_glide_posenum>  (1) 
186

>  <i_i_glide_rotatable_bonds>  (1) 
7

>  <i_lp_mmshare_version>  (1) 
72125

>  <i_m_source_file_index>  (1) 
62

>  <i_f3d_flags>  (1) 
0

>  <num_sample>  (1) 
100

>  <b_lp_Chiralities_Consistent>  (1) 
1

>  <r_epik_Charging_Adjusted_Penalty>  (1) 
7.696981497401035e-09

>  <r_epik_Ionization_Penalty>  (1) 
0.0074591056384177897

>  <r_epik_Ionization_Penalty_Charging>  (1) 
0

>  <r_epik_Ionization_Penalty_Neutral>  (1) 
0.0074591056384177897

>  <r_epik_State_Penalty>  (1) 
7.696981497401035e-09

>  <r_glide_ring_energy>  (1) 
0

>  <r_i_docking_score>  (1) 
-7.9472282419913984

>  <r_i_glide_ecoul>  (1) 
-13.683866394998187

>  <r_i_glide_eff_state_penalty>  (1) 
7.696981497401035e-09

>  <r_i_glide_einternal>  (1) 
7.0881721238857178

>  <r_i_glide_emodel>  (1) 
-61.683409054695694

>  <r_i_glide_emodel_strain>  (1) 
0.39346254324573238

>  <r_i_glide_energy>  (1) 
-41.412914358483761

>  <r_i_glide_erotb>  (1) 
0.69602230450698876

>  <r_i_glide_esite>  (1) 
-0.247591640024688

>  <r_i_glide_evdw>  (1) 
-27.72904796348557

>  <r_i_glide_gscore>  (1) 
-7.9472282496883802

>  <r_i_glide_gscore_strain>  (1) 
0

>  <r_i_glide_hbond>  (1) 
-0.30399999999999999

>  <r_i_glide_ligand_efficiency>  (1) 
-0.30566262469197686

>  <r_i_glide_ligand_efficiency_ln>  (1) 
-1.8663804756488838

>  <r_i_glide_ligand_efficiency_sa>  (1) 
-0.90552432390905924

>  <r_i_glide_lipo>  (1) 
-3.4450232092366049

>  <r_i_glide_metal>  (1) 
-0

>  <r_i_glide_rewards>  (1) 
-1.20760334751007

>  <r_lp_Energy>  (1) 
14.504761999999999

>  <s_epik_Chemistry_Notes>  (1) 
This compound has an imine and may undergo hydrolysis. This compound contains an acetal/aminal-like group ( X-CH(R)-Y where X, Y are N, S, or O) that may be acid/base labile, releasing an aldehyde. This compound has a N-S or N-O group and may undergo hydrolysis at high or low pH.

>  <s_epik_cmdline>  (1) 
J2VwaWtfcHl0aG9uJywgJy1waHQnLCAnMS4wJywgJy1waCcsICc3LjQnLCAnLXRuJywgJzgnLCAnLW1hJywgJzUwMCcsICctaW1hZScsICc8aW5maWxlLm1hZT4nLCAnLW9tYWUnLCAnPG91dGZpbGUubWFlPic=

>  <s_epik_input>  (1) 
W05IMl1jMVtjSF1bY0hdYyhuMTIpW0NAQEhdKFtDSDJdW0NIM10pTj1DMltOSF1PW0NIMl1bQ0gyXWMoW2NIXVtjSF1bY0hdMyljKGMzNClTW0NASF0oW0NIMl00KU9bQ0gzXQ==

>  <s_glide_docking_method>  (1) 
confgen

>  <s_i_glide_gridfile>  (1) 
gpcr_5ht2c_6bqh_protein_autoprepared_prepared

>  <s_lp_Force_Field>  (1) 
S-OPLS

>  <s_lp_Variant>  (1) 
DiffSBDD_61_num_sample_100-1

>  <s_m_source_file>  (1) 
generated__ligand_DiffSBDD_2026-05-06_prepared.sdf

>  <GenAI_Model>  (1) 
DiffSBDD

>  <Protein>  (1) 
GPCR_5HT2C

$$$$
DiffSBDD_29_num_sample_100
     RDKit          3D

  0  0  0  0  0  0  0  0  0  0999 V3000
M  V30 BEGIN CTAB
M  V30 COUNTS 86 90 0 0 1
M  V30 BEGIN ATOM
M  V30 1 F 37.360134 35.878807 60.224393 0
M  V30 2 C 35.646655 31.481176 60.472743 0
M  V30 3 C 39.485967 33.867117 60.844559 0
M  V30 4 C 40.185392 27.714948 57.570248 0 CFG=2
M  V30 5 C 39.004983 30.223901 54.017350 0
M  V30 6 C 41.653611 27.803261 57.091176 0
M  V30 7 C 38.242735 37.090919 61.948250 0
M  V30 8 N 37.026354 31.668859 59.995345 0
M  V30 9 C 38.181876 26.071289 57.194891 0 CFG=1
M  V30 10 C 39.625626 27.981484 52.025932 0
M  V30 11 C 39.387426 30.802517 60.743832 0
M  V30 12 C 39.467411 27.680613 53.516593 0 CFG=2
M  V30 13 C 38.279987 36.052035 61.185995 0
M  V30 14 C 38.520928 29.611595 60.532932 0 CFG=2
M  V30 15 C 34.929817 33.520594 59.136798 0
M  V30 16 C 37.746756 23.642371 57.669923 0
M  V30 17 C 39.218265 27.023921 56.508767 0 CFG=1
M  V30 18 C 38.441659 28.952852 59.147483 0 CFG=1
M  V30 19 C 40.192411 35.574026 62.550309 0
M  V30 20 N 36.351600 33.621441 58.784581 0 CHG=1
M  V30 21 N 39.295241 35.185430 61.439842 0
M  V30 22 F 37.313079 38.051669 61.853497 0
M  V30 23 S 37.782893 27.354369 54.047349 0
M  V30 24 C 37.230619 33.119481 59.871086 0 CFG=2
M  V30 25 C 34.612475 32.064481 59.489470 0
M  V30 26 C 38.143132 24.282890 55.234654 0
M  V30 27 O 37.292833 29.340356 58.429255 0
M  V30 28 C 38.558524 28.063469 55.532026 0 CFG=2
M  V30 29 C 39.709183 29.044701 58.235949 0
M  V30 30 C 39.067532 29.344674 51.642816 0
M  V30 31 C 39.583602 30.433994 52.612115 0
M  V30 32 C 38.674874 33.539344 59.575707 0
M  V30 33 O 37.067312 26.821420 57.453601 0
M  V30 34 C 39.441495 28.856879 54.548888 0 CFG=2
M  V30 35 C 37.896547 30.959816 60.951570 0 CFG=2
M  V30 36 C 37.628278 24.743541 56.600248 0
M  V30 37 O 40.429556 26.862205 58.653492 0
M  V30 38 S 39.467023 37.221376 63.161946 0
M  V30 39 H 35.467410 30.421356 60.589045 0
M  V30 40 H 35.518751 31.934224 61.458122 0
M  V30 41 H 39.260341 33.153228 61.633912 0
M  V30 42 H 40.550972 33.752534 60.653478 0
M  V30 43 H 39.345073 31.017474 54.682637 0
M  V30 44 H 37.917336 30.306172 53.983388 0
M  V30 45 H 41.848088 28.468406 56.265590 0
M  V30 46 H 42.323753 28.132051 57.888456 0
M  V30 47 H 42.003224 26.821433 56.779908 0
M  V30 48 H 38.501301 25.803535 58.190665 0
M  V30 49 H 40.683373 28.021365 51.779344 0
M  V30 50 H 39.186310 27.193690 51.413107 0
M  V30 51 H 40.017332 30.797024 61.631049 0
M  V30 52 H 39.867414 31.180481 59.860593 0
M  V30 53 H 40.085627 26.832248 53.822040 0
M  V30 54 H 38.667494 28.875022 61.319066 0
M  V30 55 H 34.307068 33.887024 58.320295 0
M  V30 56 H 34.729261 34.164011 59.993615 0
M  V30 57 H 38.766206 23.266088 57.765536 0
M  V30 58 H 37.467426 24.014678 58.653463 0
M  V30 59 H 37.067396 22.821012 57.453552 0
M  V30 60 H 39.870034 26.361768 55.945175 0
M  V30 61 H 38.270494 27.907194 59.390164 0
M  V30 62 H 40.175365 34.831656 63.348413 0
M  V30 63 H 41.214970 35.716321 62.200005 0
M  V30 64 H 36.469154 33.044321 57.955104 0
M  V30 65 H 36.924281 33.593951 60.804571 0
M  V30 66 H 34.537174 31.381503 58.653506 0
M  V30 67 H 33.599430 32.055676 59.853500 0
M  V30 68 H 39.218324 24.417698 55.127967 0
M  V30 69 H 37.867425 23.243376 55.053457 0
M  V30 70 H 37.650087 24.805740 54.425200 0
M  V30 71 H 37.159483 30.274424 58.539912 0
M  V30 72 H 37.863403 28.748270 56.011852 0
M  V30 73 H 40.549592 29.377007 58.845742 0
M  V30 74 H 39.586495 29.827373 57.486503 0
M  V30 75 H 39.340948 29.585835 50.615156 0
M  V30 76 H 37.982917 29.234801 51.669464 0
M  V30 77 H 40.667375 30.367754 52.668874 0
M  V30 78 H 39.409506 31.448143 52.254463 0
M  V30 79 H 39.164485 32.831494 58.913640 0
M  V30 80 H 38.662966 34.421430 58.972414 0
M  V30 81 H 37.298831 27.700221 57.743087 0
M  V30 82 H 40.382523 29.002060 55.053487 0
M  V30 83 H 37.649808 31.060594 62.007546 0
M  V30 84 H 36.551764 24.847884 56.448546 0
M  V30 85 H 39.625371 26.722103 59.127053 0
M  V30 86 H 36.572963 34.582822 58.564597 0
M  V30 END ATOM
M  V30 BEGIN BOND
M  V30 1 1 6 4
M  V30 2 1 8 2
M  V30 3 1 12 10
M  V30 4 1 13 1
M  V30 5 2 13 7
M  V30 6 1 14 11
M  V30 7 1 17 4
M  V30 8 1 17 9
M  V30 9 1 18 14
M  V30 10 1 20 15
M  V30 11 1 21 3
M  V30 12 1 21 13
M  V30 13 1 21 19
M  V30 14 1 22 7
M  V30 15 1 23 12
M  V30 16 1 24 8
M  V30 17 1 24 20
M  V30 18 1 25 2
M  V30 19 1 25 15
M  V30 20 1 27 18
M  V30 21 1 28 17
M  V30 22 1 28 23
M  V30 23 1 29 4
M  V30 24 1 29 18
M  V30 25 1 30 10
M  V30 26 1 31 5
M  V30 27 1 31 30
M  V30 28 1 32 3
M  V30 29 1 32 24
M  V30 30 1 33 9
M  V30 31 1 34 5
M  V30 32 1 34 12
M  V30 33 1 34 28
M  V30 34 1 35 8
M  V30 35 1 35 11
M  V30 36 1 35 14
M  V30 37 1 36 9
M  V30 38 1 36 16
M  V30 39 1 36 26
M  V30 40 1 4 37 CFG=1
M  V30 41 1 38 7
M  V30 42 1 38 19
M  V30 43 1 39 2
M  V30 44 1 40 2
M  V30 45 1 41 3
M  V30 46 1 42 3
M  V30 47 1 43 5
M  V30 48 1 44 5
M  V30 49 1 45 6
M  V30 50 1 46 6
M  V30 51 1 47 6
M  V30 52 1 9 48 CFG=1
M  V30 53 1 49 10
M  V30 54 1 50 10
M  V30 55 1 51 11
M  V30 56 1 52 11
M  V30 57 1 12 53 CFG=1
M  V30 58 1 14 54 CFG=1
M  V30 59 1 55 15
M  V30 60 1 56 15
M  V30 61 1 57 16
M  V30 62 1 58 16
M  V30 63 1 59 16
M  V30 64 1 17 60 CFG=3
M  V30 65 1 18 61 CFG=1
M  V30 66 1 62 19
M  V30 67 1 63 19
M  V30 68 1 64 20
M  V30 69 1 24 65 CFG=1
M  V30 70 1 66 25
M  V30 71 1 67 25
M  V30 72 1 68 26
M  V30 73 1 69 26
M  V30 74 1 70 26
M  V30 75 1 71 27
M  V30 76 1 28 72 CFG=1
M  V30 77 1 73 29
M  V30 78 1 74 29
M  V30 79 1 75 30
M  V30 80 1 76 30
M  V30 81 1 77 31
M  V30 82 1 78 31
M  V30 83 1 79 32
M  V30 84 1 80 32
M  V30 85 1 81 33
M  V30 86 1 34 82 CFG=1
M  V30 87 1 35 83 CFG=1
M  V30 88 1 84 36
M  V30 89 1 85 37
M  V30 90 1 86 20
M  V30 END BOND
M  V30 END CTAB
M  END
>  <i_epik_Tot_Q>  (1) 
1

>  <i_epik_Tot_abs_Q>  (1) 
1

>  <i_i_glide_confnum>  (1) 
1730

>  <i_i_glide_lignum>  (1) 
71

>  <i_i_glide_posenum>  (1) 
141

>  <i_i_glide_rotatable_bonds>  (1) 
14

>  <i_lp_mmshare_version>  (1) 
72125

>  <i_m_source_file_index>  (1) 
30

>  <i_f3d_flags>  (1) 
0

>  <num_sample>  (1) 
100

>  <b_lp_Chiralities_Consistent>  (1) 
1

>  <r_epik_Charging_Adjusted_Penalty>  (1) 
0.43533657855592212

>  <r_epik_Ionization_Penalty>  (1) 
0.17417288321429925

>  <r_epik_Ionization_Penalty_Charging>  (1) 
0.17415579174197784

>  <r_epik_Ionization_Penalty_Neutral>  (1) 
1.7091472321405907e-05

>  <r_epik_State_Penalty>  (1) 
0.2611807868139443

>  <r_glide_ring_energy>  (1) 
0.53215094814157604

>  <r_i_docking_score>  (1) 
-7.9455429496231433

>  <r_i_glide_ecoul>  (1) 
-1.7517993971463754

>  <r_i_glide_eff_state_penalty>  (1) 
0.2611807868139443

>  <r_i_glide_einternal>  (1) 
30.327986549711799

>  <r_i_glide_emodel>  (1) 
-23.35537541607988

>  <r_i_glide_emodel_strain>  (1) 
5.2457646414497674

>  <r_i_glide_energy>  (1) 
-37.136274454889708

>  <r_i_glide_erotb>  (1) 
0.46833353265868582

>  <r_i_glide_esite>  (1) 
-0.1152572988327753

>  <r_i_glide_evdw>  (1) 
-35.38447505774333

>  <r_i_glide_gscore>  (1) 
-8.2067237364370875

>  <r_i_glide_gscore_strain>  (1) 
0.31144116036244185

>  <r_i_glide_hbond>  (1) 
-0.14020247153230334

>  <r_i_glide_ligand_efficiency>  (1) 
-0.2090932355163985

>  <r_i_glide_ligand_efficiency_ln>  (1) 
-1.7132927941314895

>  <r_i_glide_ligand_efficiency_sa>  (1) 
-0.70296631553415545

>  <r_i_glide_lipo>  (1) 
-5.2882598525805848

>  <r_i_glide_metal>  (1) 
-0

>  <r_i_glide_rewards>  (1) 
-1.410785144053428

>  <r_lp_Energy>  (1) 
40.958697000000001

>  <s_epik_Chemistry_Notes>  (1) 
This compound has an imine and may undergo hydrolysis. This compound contains an acetal/aminal-like group ( X-CH(R)-Y where X, Y are N, S, or O) that may be acid/base labile, releasing an aldehyde.

>  <s_epik_cmdline>  (1) 
J2VwaWtfcHl0aG9uJywgJy1waHQnLCAnMS4wJywgJy1waCcsICc3LjQnLCAnLXRuJywgJzgnLCAnLW1hJywgJzUwMCcsICctaW1hZScsICc8aW5maWxlLm1hZT4nLCAnLW9tYWUnLCAnPG91dGZpbGUubWFlPic=

>  <s_epik_input>  (1) 
RkMxPUMoRilOKFtDSDJdUzEpW0NIMl1bQ0gyXVtDQEhdMltOSF1bQ0gyXVtDSDJdW0NIMl1OMltDQEBIXTNbQ0gyXVtDQEBIXTNbQ0BASF0oW09IXSlbQ0gyXVtDQEBdKFtDSDNdKShbT0hdKVtDQEBIXShbQ0BASF0oW09IXSlbQ0hdKFtDSDNdKVtDSDNdKVtDQEhdKFM0KVtDQEBIXShbQ0BASF00NSlbQ0gyXVtDSDJdW0NIMl1bQ0gyXTU=

>  <s_glide_docking_method>  (1) 
confgen

>  <s_i_glide_gridfile>  (1) 
gpcr_5ht2c_6bqh_protein_autoprepared_prepared

>  <s_lp_Force_Field>  (1) 
S-OPLS

>  <s_lp_Variant>  (1) 
DiffSBDD_29_num_sample_100-1

>  <s_m_source_file>  (1) 
generated__ligand_DiffSBDD_2026-05-06_prepared.sdf

>  <GenAI_Model>  (1) 
DiffSBDD

>  <Protein>  (1) 
GPCR_5HT2C

$$$$
DiffSBDD_77_num_sample_100
     RDKit          3D

  0  0  0  0  0  0  0  0  0  0999 V3000
M  V30 BEGIN CTAB
M  V30 COUNTS 77 79 0 0 1
M  V30 BEGIN ATOM
M  V30 1 C 37.024007 38.479186 61.140982 0
M  V30 2 F 34.861721 37.988147 64.062567 0
M  V30 3 C 40.515024 27.633786 56.934018 0
M  V30 4 C 37.970885 37.478123 61.348852 0
M  V30 5 C 39.416301 30.871470 53.469864 0
M  V30 6 C 37.284297 33.913594 61.453501 0
M  V30 7 C 37.538211 29.822682 58.488163 0
M  V30 8 C 37.599450 31.782319 59.995504 0 CFG=2
M  V30 9 O 38.556456 31.144018 55.987095 0
M  V30 10 C 39.944233 31.141810 52.040353 0
M  V30 11 N 41.661433 34.000920 63.537841 0
M  V30 12 C 38.940210 35.586101 62.674872 0
M  V30 13 C 35.875755 37.822818 63.180620 0
M  V30 14 O 40.190411 28.023552 60.106928 0
M  V30 15 C 39.280927 27.477208 59.173651 0
M  V30 16 C 37.892800 36.654974 62.468233 0
M  V30 17 F 35.067387 39.621521 61.853526 0
M  V30 18 C 39.190970 31.811027 62.004787 0
M  V30 19 O 42.381583 33.755756 65.664520 0
M  V30 20 O 37.653257 34.008950 59.054822 0
M  V30 21 C 35.974457 38.655400 62.055486 0
M  V30 22 C 39.525308 28.729440 51.497361 0
M  V30 23 N 39.016258 29.056505 55.186729 0
M  V30 24 C 41.050756 33.425155 62.345314 0
M  V30 25 C 36.837591 36.821537 63.391884 0
M  V30 26 C 39.409760 28.198050 57.839428 0
M  V30 27 C 41.867270 33.290135 64.653379 0
M  V30 28 C 39.277910 28.394156 52.887681 0
M  V30 29 C 39.053536 31.623030 60.487681 0
M  V30 30 F 39.467254 27.754783 50.578401 0
M  V30 31 C 39.072160 26.944773 53.292190 0
M  V30 32 C 38.763581 34.303727 61.807848 0 CFG=1
M  V30 33 C 38.731543 29.943192 56.180471 0
M  V30 34 N 37.467407 31.278863 58.626300 0
M  V30 35 C 38.598454 29.274308 57.509590 0
M  V30 36 C 39.230518 29.380781 53.812582 0
M  V30 37 C 39.818821 29.971019 51.097015 0
M  V30 38 C 37.078741 33.227873 60.081470 0 CFG=2
M  V30 39 N 39.576972 33.192117 62.397668 0 CFG=1 CHG=1
M  V30 40 H 37.100630 39.116688 60.278167 0
M  V30 41 H 41.261214 27.123997 57.544543 0
M  V30 42 H 40.125041 26.887370 56.240651 0
M  V30 43 H 41.078598 28.400536 56.402114 0
M  V30 44 H 38.757369 37.339033 60.653502 0
M  V30 45 H 38.453137 31.373939 53.560158 0
M  V30 46 H 40.113856 31.343701 54.162283 0
M  V30 47 H 36.834466 33.314259 62.245200 0
M  V30 48 H 36.655560 34.798444 61.398687 0
M  V30 49 H 36.571478 29.466832 58.130253 0
M  V30 50 H 37.643381 29.387051 59.476888 0
M  V30 51 H 36.955989 31.181258 60.640482 0
M  V30 52 H 41.007824 31.362515 52.082996 0
M  V30 53 H 39.467407 32.018502 51.606528 0
M  V30 54 H 41.943212 34.971726 63.511449 0
M  V30 55 H 39.067414 35.396704 63.732941 0
M  V30 56 H 39.895012 36.041840 62.406190 0
M  V30 57 H 41.072105 27.844571 59.812288 0
M  V30 58 H 39.515537 26.421081 59.033930 0
M  V30 59 H 38.270499 27.480774 59.575019 0
M  V30 60 H 38.263941 31.535513 62.507625 0
M  V30 61 H 39.920352 31.102940 62.401164 0
M  V30 62 H 37.582598 33.512922 58.247899 0
M  V30 63 H 39.044524 28.076428 55.422849 0
M  V30 64 H 41.582623 32.497913 62.124256 0
M  V30 65 H 41.298230 34.072668 61.502672 0
M  V30 66 H 36.764486 36.188747 64.253493 0
M  V30 67 H 41.517881 32.251091 64.541295 0
M  V30 68 H 39.407287 30.619683 60.253466 0
M  V30 69 H 39.715873 32.299520 59.948500 0
M  V30 70 H 38.635658 26.421441 52.447944 0
M  V30 71 H 40.020028 26.470373 53.548154 0
M  V30 72 H 38.376510 26.825846 54.122552 0
M  V30 73 H 39.225691 34.565522 60.856336 0
M  V30 74 H 36.620300 31.621343 58.147430 0
M  V30 75 H 40.000164 30.167429 50.050333 0
M  V30 76 H 36.004967 33.196196 59.882965 0
M  V30 77 H 39.356109 33.211993 63.383220 0
M  V30 END ATOM
M  V30 BEGIN BOND
M  V30 1 2 4 1
M  V30 2 1 10 5
M  V30 3 1 13 2
M  V30 4 1 15 14
M  V30 5 1 16 4
M  V30 6 1 16 12
M  V30 7 1 21 1
M  V30 8 2 21 13
M  V30 9 1 21 17
M  V30 10 1 24 11
M  V30 11 1 25 13
M  V30 12 2 25 16
M  V30 13 1 26 3
M  V30 14 1 26 15
M  V30 15 1 27 11
M  V30 16 2 27 19
M  V30 17 1 28 22
M  V30 18 1 29 8
M  V30 19 1 29 18
M  V30 20 1 30 22
M  V30 21 1 31 28
M  V30 22 1 32 6
M  V30 23 1 32 12
M  V30 24 2 33 9
M  V30 25 1 33 23
M  V30 26 1 34 7
M  V30 27 1 34 8
M  V30 28 1 35 7
M  V30 29 2 35 26
M  V30 30 1 35 33
M  V30 31 1 36 5
M  V30 32 1 36 23
M  V30 33 2 36 28
M  V30 34 1 37 10
M  V30 35 2 37 22
M  V30 36 1 38 6
M  V30 37 1 38 8
M  V30 38 1 38 20
M  V30 39 1 39 18
M  V30 40 1 39 24
M  V30 41 1 39 32
M  V30 42 1 40 1
M  V30 43 1 41 3
M  V30 44 1 42 3
M  V30 45 1 43 3
M  V30 46 1 44 4
M  V30 47 1 45 5
M  V30 48 1 46 5
M  V30 49 1 47 6
M  V30 50 1 48 6
M  V30 51 1 49 7
M  V30 52 1 50 7
M  V30 53 1 8 51 CFG=1
M  V30 54 1 52 10
M  V30 55 1 53 10
M  V30 56 1 54 11
M  V30 57 1 55 12
M  V30 58 1 56 12
M  V30 59 1 57 14
M  V30 60 1 58 15
M  V30 61 1 59 15
M  V30 62 1 60 18
M  V30 63 1 61 18
M  V30 64 1 62 20
M  V30 65 1 63 23
M  V30 66 1 64 24
M  V30 67 1 65 24
M  V30 68 1 66 25
M  V30 69 1 67 27
M  V30 70 1 68 29
M  V30 71 1 69 29
M  V30 72 1 70 31
M  V30 73 1 71 31
M  V30 74 1 72 31
M  V30 75 1 32 73 CFG=3
M  V30 76 1 74 34
M  V30 77 1 75 37
M  V30 78 1 38 76 CFG=3
M  V30 79 1 39 77 CFG=1
M  V30 END BOND
M  V30 END CTAB
M  END
>  <i_epik_Tot_Q>  (1) 
1

>  <i_epik_Tot_abs_Q>  (1) 
1

>  <i_i_glide_confnum>  (1) 
3479

>  <i_i_glide_lignum>  (1) 
196

>  <i_i_glide_posenum>  (1) 
46

>  <i_i_glide_rotatable_bonds>  (1) 
14

>  <i_lp_mmshare_version>  (1) 
72125

>  <i_m_source_file_index>  (1) 
78

>  <i_f3d_flags>  (1) 
0

>  <num_sample>  (1) 
100

>  <b_lp_Chiralities_Consistent>  (1) 
1

>  <r_epik_Charging_Adjusted_Penalty>  (1) 
1.2599673287133732

>  <r_epik_Ionization_Penalty>  (1) 
0.56885031527891383

>  <r_epik_Ionization_Penalty_Charging>  (1) 
0.52000942162343

>  <r_epik_Ionization_Penalty_Neutral>  (1) 
0.048840893655483872

>  <r_epik_State_Penalty>  (1) 
0.73995790708994325

>  <r_glide_ring_energy>  (1) 
0

>  <r_i_docking_score>  (1) 
-7.9351042216980723

>  <r_i_glide_ecoul>  (1) 
-2.8263384224013333

>  <r_i_glide_eff_state_penalty>  (1) 
0.73995790708994325

>  <r_i_glide_einternal>  (1) 
12.423206887652604

>  <r_i_glide_emodel>  (1) 
-69.512122779608433

>  <r_i_glide_emodel_strain>  (1) 
2.4942630584024812

>  <r_i_glide_energy>  (1) 
-43.868516132924107

>  <r_i_glide_erotb>  (1) 
0.67934156738045093

>  <r_i_glide_esite>  (1) 
-0.0009402488585157847

>  <r_i_glide_evdw>  (1) 
-41.042177710522772

>  <r_i_glide_gscore>  (1) 
-8.6750621287880154

>  <r_i_glide_gscore_strain>  (1) 
0

>  <r_i_glide_hbond>  (1) 
-0.16

>  <r_i_glide_ligand_efficiency>  (1) 
-0.20346421081277108

>  <r_i_glide_ligand_efficiency_ln>  (1) 
-1.701511596460513

>  <r_i_glide_ligand_efficiency_sa>  (1) 
-0.6899901599521161

>  <r_i_glide_lipo>  (1) 
-4.3742401284897632

>  <r_i_glide_metal>  (1) 
-0

>  <r_i_glide_rewards>  (1) 
-2.3431636699338494

>  <r_lp_Energy>  (1) 
52.110675999999998

>  <s_epik_Chemistry_Notes>  (1) 
This compound contains an acetal/aminal-like group ( X-CH(R)-Y where X, Y are N, S, or O) that may be acid/base labile, releasing an aldehyde.

>  <s_epik_cmdline>  (1) 
J2VwaWtfcHl0aG9uJywgJy1waHQnLCAnMS4wJywgJy1waCcsICc3LjQnLCAnLXRuJywgJzgnLCAnLW1hJywgJzUwMCcsICctaW1hZScsICc8aW5maWxlLm1hZT4nLCAnLW9tYWUnLCAnPG91dGZpbGUubWFlPic=

>  <s_epik_input>  (1) 
RmMxYyhGKVtjSF1bY0hdYyhbY0hdMSlbQ0gyXVtDQEhdKFtDSDJdW0NASF0yW09IXSlOKFtDSDJdW05IXVtDSF09TylbQ0gyXVtDSDJdW0NAQEhdMltOSF1bQ0gyXVxDKD1DKFxbQ0gzXSlbQ0gyXVtPSF0pQyg9TylbTkhdQyg9QzNbQ0gzXSlbQ0gyXVtDSDJdW0NIXT1DM0Y=

>  <s_glide_docking_method>  (1) 
confgen

>  <s_i_glide_gridfile>  (1) 
gpcr_5ht2c_6bqh_protein_autoprepared_prepared

>  <s_lp_Force_Field>  (1) 
S-OPLS

>  <s_lp_Variant>  (1) 
DiffSBDD_77_num_sample_100-7

>  <s_m_source_file>  (1) 
generated__ligand_DiffSBDD_2026-05-06_prepared.sdf

>  <GenAI_Model>  (1) 
DiffSBDD

>  <Protein>  (1) 
GPCR_5HT2C

$$$$
DiffSBDD_69_num_sample_100
     RDKit          3D

  0  0  0  0  0  0  0  0  0  0999 V3000
M  V30 BEGIN CTAB
M  V30 COUNTS 67 72 0 0 1
M  V30 BEGIN ATOM
M  V30 1 C 38.518876 28.645729 54.316236 0
M  V30 2 C 44.067941 31.505943 66.584282 0 CFG=1
M  V30 3 C 38.728936 31.893475 61.487634 0
M  V30 4 C 43.244896 32.770904 66.731928 0 CFG=1
M  V30 5 C 36.387192 32.366612 61.005440 0
M  V30 6 C 39.355187 25.417765 57.540733 0
M  V30 7 C 39.901449 31.934965 62.447183 0
M  V30 8 C 40.646954 28.479012 56.786325 0
M  V30 9 N 40.304106 33.300137 62.747678 0
M  V30 10 C 41.697559 32.592901 64.646636 0
M  V30 11 C 37.792110 31.322759 59.312954 0
M  V30 12 O 41.461748 34.821251 64.191277 0
M  V30 13 C 38.910577 25.618094 56.095138 0
M  V30 14 C 37.966488 30.760259 57.916606 0 CFG=1
M  V30 15 C 37.480594 32.404647 61.881925 0
M  V30 16 C 38.219490 27.949737 53.138794 0
M  V30 17 O 45.378926 31.589454 67.171225 0
M  V30 18 C 39.322940 29.798447 54.272321 0
M  V30 19 C 44.760580 32.811057 66.736628 0 CFG=1
M  V30 20 C 39.683161 30.516718 55.558518 0 CFG=1
M  V30 21 C 36.539568 31.825912 59.723235 0
M  V30 22 N 39.867423 25.621804 55.169928 0
M  V30 23 C 38.831665 31.720391 55.813315 0
M  V30 24 C 39.500847 29.573612 51.847016 0
M  V30 25 C 42.431145 33.337071 65.592866 0
M  V30 26 O 37.720981 25.764980 55.822287 0
M  V30 27 C 38.706947 28.410645 51.900694 0
M  V30 28 C 38.065696 31.835497 56.881236 0
M  V30 29 O 37.467427 26.821960 53.199559 0
M  V30 30 C 39.835074 29.551749 56.767711 0
M  V30 31 C 39.528731 26.736381 58.318475 0
M  V30 32 C 38.886031 31.351056 60.203731 0
M  V30 33 O 39.078613 29.861060 57.889222 0
M  V30 34 C 39.810387 30.269296 53.033550 0
M  V30 35 C 40.796487 27.551960 57.979523 0
M  V30 36 C 41.138576 33.537305 63.839374 0
M  V30 37 C 42.267600 34.665222 65.301554 0
M  V30 38 H 38.142541 28.286695 55.261742 0
M  V30 39 H 44.074932 31.044698 65.598356 0
M  V30 40 H 42.738858 32.920832 67.683297 0
M  V30 41 H 35.429002 32.757114 61.317248 0
M  V30 42 H 40.266689 24.822005 57.579254 0
M  V30 43 H 38.583948 24.821756 58.029326 0
M  V30 44 H 39.603192 31.420004 63.361564 0
M  V30 45 H 40.748087 31.388803 62.029407 0
M  V30 46 H 41.235932 28.242291 55.914455 0
M  V30 47 H 39.899146 34.043405 62.196670 0
M  V30 48 H 41.589833 31.520946 64.568474 0
M  V30 49 H 37.073751 30.179713 57.684079 0
M  V30 50 H 37.363071 32.821434 62.859639 0
M  V30 51 H 45.240226 33.222385 65.853620 0
M  V30 52 H 40.667372 30.937771 55.390275 0
M  V30 53 H 35.698131 31.800572 59.053472 0
M  V30 54 H 40.832378 25.498012 55.443836 0
M  V30 55 H 39.625870 25.752254 54.197935 0
M  V30 56 H 38.867736 32.515015 55.082861 0
M  V30 57 H 39.876029 29.928821 50.898282 0
M  V30 58 H 38.474116 27.871780 50.993635 0
M  V30 59 H 37.467687 32.722400 57.027804 0
M  V30 60 H 37.304652 26.526381 54.088924 0
M  V30 61 H 39.580547 26.487329 59.376245 0
M  V30 62 H 38.632872 27.350752 58.219083 0
M  V30 63 H 39.843862 30.960221 59.898221 0
M  V30 64 H 40.426522 31.155863 52.994794 0
M  V30 65 H 41.655055 26.896148 57.828904 0
M  V30 66 H 41.047018 28.179119 58.836227 0
M  V30 67 H 42.629321 35.583521 65.742729 0
M  V30 END ATOM
M  V30 BEGIN BOND
M  V30 1 1 4 2
M  V30 2 1 7 3
M  V30 3 1 9 7
M  V30 4 1 13 6
M  V30 5 1 14 11
M  V30 6 1 15 3
M  V30 7 2 15 5
M  V30 8 2 16 1
M  V30 9 1 17 2
M  V30 10 1 18 1
M  V30 11 1 19 2
M  V30 12 1 19 4
M  V30 13 1 19 17
M  V30 14 1 20 18
M  V30 15 1 21 5
M  V30 16 2 21 11
M  V30 17 1 22 13
M  V30 18 1 23 20
M  V30 19 1 25 4
M  V30 20 1 25 10
M  V30 21 2 26 13
M  V30 22 1 27 16
M  V30 23 2 27 24
M  V30 24 1 28 14
M  V30 25 2 28 23
M  V30 26 1 29 16
M  V30 27 2 30 8
M  V30 28 1 30 20
M  V30 29 1 31 6
M  V30 30 2 32 3
M  V30 31 1 32 11
M  V30 32 1 33 14
M  V30 33 1 33 30
M  V30 34 2 34 18
M  V30 35 1 34 24
M  V30 36 1 35 8
M  V30 37 1 35 31
M  V30 38 1 36 9
M  V30 39 2 36 10
M  V30 40 1 36 12
M  V30 41 1 37 12
M  V30 42 2 37 25
M  V30 43 1 38 1
M  V30 44 1 2 39 CFG=3
M  V30 45 1 4 40 CFG=1
M  V30 46 1 41 5
M  V30 47 1 42 6
M  V30 48 1 43 6
M  V30 49 1 44 7
M  V30 50 1 45 7
M  V30 51 1 46 8
M  V30 52 1 47 9
M  V30 53 1 48 10
M  V30 54 1 14 49 CFG=3
M  V30 55 1 50 15
M  V30 56 1 19 51 CFG=3
M  V30 57 1 20 52 CFG=3
M  V30 58 1 53 21
M  V30 59 1 54 22
M  V30 60 1 55 22
M  V30 61 1 56 23
M  V30 62 1 57 24
M  V30 63 1 58 27
M  V30 64 1 59 28
M  V30 65 1 60 29
M  V30 66 1 61 31
M  V30 67 1 62 31
M  V30 68 1 63 32
M  V30 69 1 64 34
M  V30 70 1 65 35
M  V30 71 1 66 35
M  V30 72 1 67 37
M  V30 END BOND
M  V30 END CTAB
M  END
>  <i_epik_Tot_Q>  (1) 
0

>  <i_epik_Tot_abs_Q>  (1) 
0

>  <i_i_glide_confnum>  (1) 
590

>  <i_i_glide_lignum>  (1) 
177

>  <i_i_glide_posenum>  (1) 
86

>  <i_i_glide_rotatable_bonds>  (1) 
11

>  <i_lp_mmshare_version>  (1) 
72125

>  <i_m_source_file_index>  (1) 
70

>  <i_f3d_flags>  (1) 
0

>  <num_sample>  (1) 
100

>  <b_lp_Chiralities_Consistent>  (1) 
1

>  <r_epik_Charging_Adjusted_Penalty>  (1) 
0

>  <r_epik_Ionization_Penalty>  (1) 
0.0027858750297933624

>  <r_epik_Ionization_Penalty_Charging>  (1) 
0

>  <r_epik_Ionization_Penalty_Neutral>  (1) 
0.0027858750297933624

>  <r_epik_State_Penalty>  (1) 
-0

>  <r_glide_ring_energy>  (1) 
1.6699314456563892

>  <r_i_docking_score>  (1) 
-7.9327731016694987

>  <r_i_glide_ecoul>  (1) 
-1.0650060673647261

>  <r_i_glide_eff_state_penalty>  (1) 
-0

>  <r_i_glide_einternal>  (1) 
11.435684788536514

>  <r_i_glide_emodel>  (1) 
-71.89748909568381

>  <r_i_glide_emodel_strain>  (1) 
1.0406259723742579

>  <r_i_glide_energy>  (1) 
-51.900211189637815

>  <r_i_glide_erotb>  (1) 
0.7388310729384443

>  <r_i_glide_esite>  (1) 
0

>  <r_i_glide_evdw>  (1) 
-50.835205122273088

>  <r_i_glide_gscore>  (1) 
-7.9327731016694987

>  <r_i_glide_gscore_strain>  (1) 
0

>  <r_i_glide_hbond>  (1) 
0

>  <r_i_glide_ligand_efficiency>  (1) 
-0.21439927301809455

>  <r_i_glide_ligand_efficiency_ln>  (1) 
-1.7204325151649229

>  <r_i_glide_ligand_efficiency_sa>  (1) 
-0.71442594252790137

>  <r_i_glide_lipo>  (1) 
-4.8221508467385998

>  <r_i_glide_metal>  (1) 
-0

>  <r_i_glide_rewards>  (1) 
-1.1479421616509791

>  <r_lp_Energy>  (1) 
39.698884999999997

>  <r_lp_tautomer_probability>  (1) 
1

>  <s_epik_cmdline>  (1) 
J2VwaWtfcHl0aG9uJywgJy1waHQnLCAnMS4wJywgJy1waCcsICc3LjQnLCAnLXRuJywgJzgnLCAnLW1hJywgJzUwMCcsICctaW1hZScsICc8aW5maWxlLm1hZT4nLCAnLW9tYWUnLCAnPG91dGZpbGUubWFlPic=

>  <s_epik_input>  (1) 
W05IMl1DKD1PKVtDSDJdW0NIMl1bQ0gyXS9bQ0hdPUMoTzEpL1tDQEBIXShjKFtjSF1jMltPSF0pW2NIXVtjSF1bY0hdMilbQ0hdPVtDSF1bQ0BASF0xYyhbY0hdMylbY0hdW2NIXVtjSF1jM1tDSDJdW05IXWMob1tjSF00KVtjSF1jNFtDQEBIXTVbQ0hdKE82KVtDSF01Ng==

>  <s_glide_docking_method>  (1) 
confgen

>  <s_i_glide_gridfile>  (1) 
gpcr_5ht2c_6bqh_protein_autoprepared_prepared

>  <s_lp_Force_Field>  (1) 
S-OPLS

>  <s_lp_Variant>  (1) 
DiffSBDD_69_num_sample_100-1

>  <s_m_source_file>  (1) 
generated__ligand_DiffSBDD_2026-05-06_prepared.sdf

>  <GenAI_Model>  (1) 
DiffSBDD

>  <Protein>  (1) 
GPCR_5HT2C

$$$$
DiffSBDD_1_num_sample_100
     RDKit          3D

  0  0  0  0  0  0  0  0  0  0999 V3000
M  V30 BEGIN CTAB
M  V30 COUNTS 62 65 0 0 1
M  V30 BEGIN ATOM
M  V30 1 C 38.607712 26.829381 56.468230 0
M  V30 2 C 39.682378 34.516598 62.105862 0
M  V30 3 O 38.861073 24.821504 55.510829 0
M  V30 4 C 37.732540 32.960549 61.469255 0 CFG=1
M  V30 5 C 38.856273 28.278886 56.622519 0
M  V30 6 C 38.238120 30.667168 60.628227 0
M  V30 7 C 37.614436 36.695929 63.394776 0
M  V30 8 C 41.407581 36.070185 62.127353 0
M  V30 9 N 40.138907 36.772813 61.853503 0 CHG=1
M  V30 10 C 38.078255 32.816643 57.634730 0
M  V30 11 C 38.087069 29.022745 57.723980 0
M  V30 12 C 37.689627 36.277164 61.913927 0 CFG=2
M  V30 13 C 39.098680 35.780516 61.485913 0 CFG=2
M  V30 14 C 37.869313 31.124733 59.210509 0 CFG=2
M  V30 15 C 38.452389 31.505613 56.914802 0
M  V30 16 C 39.171721 26.125611 55.541469 0
M  V30 17 N 37.548938 31.504213 61.636965 0
M  V30 18 C 39.093665 33.297915 62.083287 0
M  V30 19 O 39.644383 28.898638 55.906530 0
M  V30 20 C 37.232796 37.428328 60.996846 0
M  V30 21 C 37.924036 24.719667 56.658255 0
M  V30 22 C 37.474626 33.376070 59.985378 0
M  V30 23 C 41.019571 34.735316 62.742663 0
M  V30 24 N 38.195587 32.525468 59.049111 0
M  V30 25 O 36.463965 30.941401 59.053557 0
M  V30 26 C 37.697449 26.135563 57.384889 0
M  V30 27 C 38.593373 30.447648 58.040612 0 CFG=2
M  V30 28 O 36.274475 36.848800 63.822616 0
M  V30 29 H 36.981465 33.436114 62.095633 0
M  V30 30 H 39.318466 30.731110 60.763149 0
M  V30 31 H 37.977960 29.621431 60.745187 0
M  V30 32 H 38.141644 37.621518 63.545059 0
M  V30 33 H 38.153656 36.021422 64.045815 0
M  V30 34 H 42.062083 36.648946 62.777948 0
M  V30 35 H 41.890003 35.904499 61.165322 0
M  V30 36 H 40.254819 37.472278 61.134077 0
M  V30 37 H 37.067441 33.126146 57.381622 0
M  V30 38 H 38.744048 33.629068 57.351146 0
M  V30 39 H 38.135125 28.431258 58.637839 0
M  V30 40 H 37.037807 29.059735 57.432849 0
M  V30 41 H 36.968573 35.481933 61.759342 0
M  V30 42 H 39.173997 35.678971 60.404542 0
M  V30 43 H 37.664040 31.233902 56.211573 0
M  V30 44 H 39.377968 31.609911 56.347586 0
M  V30 45 H 39.865909 26.447162 54.777581 0
M  V30 46 H 37.866964 31.231965 62.561129 0
M  V30 47 H 39.612550 32.472705 62.551242 0
M  V30 48 H 37.878435 38.302128 61.087564 0
M  V30 49 H 37.226064 37.122578 59.949988 0
M  V30 50 H 36.221950 37.753447 61.241653 0
M  V30 51 H 36.972472 24.321295 56.303951 0
M  V30 52 H 38.322887 23.994757 57.369452 0
M  V30 53 H 36.403397 33.304360 59.790530 0
M  V30 54 H 37.705025 34.415203 59.787285 0
M  V30 55 H 40.897038 34.825452 63.822895 0
M  V30 56 H 41.733387 33.938592 62.527371 0
M  V30 57 H 36.178804 31.256858 58.188825 0
M  V30 58 H 38.060513 26.138962 58.413248 0
M  V30 59 H 36.667756 26.488094 57.321348 0
M  V30 60 H 39.647197 30.375093 58.300460 0
M  V30 61 H 35.881228 36.000432 63.990656 0
M  V30 62 H 39.862247 37.219936 62.715796 0
M  V30 END ATOM
M  V30 BEGIN BOND
M  V30 1 1 5 1
M  V30 2 1 9 8
M  V30 3 1 11 5
M  V30 4 1 12 7
M  V30 5 1 13 2
M  V30 6 1 13 9
M  V30 7 1 13 12
M  V30 8 1 14 6
M  V30 9 1 15 10
M  V30 10 2 16 1
M  V30 11 1 16 3
M  V30 12 1 17 4
M  V30 13 1 17 6
M  V30 14 2 18 2
M  V30 15 1 18 4
M  V30 16 2 19 5
M  V30 17 1 20 12
M  V30 18 1 21 3
M  V30 19 1 22 4
M  V30 20 1 23 2
M  V30 21 1 23 8
M  V30 22 1 24 10
M  V30 23 1 24 14
M  V30 24 1 24 22
M  V30 25 1 14 25 CFG=3
M  V30 26 1 26 1
M  V30 27 1 26 21
M  V30 28 1 27 11
M  V30 29 1 27 14
M  V30 30 1 27 15
M  V30 31 1 28 7
M  V30 32 1 4 29 CFG=1
M  V30 33 1 30 6
M  V30 34 1 31 6
M  V30 35 1 32 7
M  V30 36 1 33 7
M  V30 37 1 34 8
M  V30 38 1 35 8
M  V30 39 1 36 9
M  V30 40 1 37 10
M  V30 41 1 38 10
M  V30 42 1 39 11
M  V30 43 1 40 11
M  V30 44 1 12 41 CFG=1
M  V30 45 1 13 42 CFG=3
M  V30 46 1 43 15
M  V30 47 1 44 15
M  V30 48 1 45 16
M  V30 49 1 46 17
M  V30 50 1 47 18
M  V30 51 1 48 20
M  V30 52 1 49 20
M  V30 53 1 50 20
M  V30 54 1 51 21
M  V30 55 1 52 21
M  V30 56 1 53 22
M  V30 57 1 54 22
M  V30 58 1 55 23
M  V30 59 1 56 23
M  V30 60 1 57 25
M  V30 61 1 58 26
M  V30 62 1 59 26
M  V30 63 1 27 60 CFG=1
M  V30 64 1 61 28
M  V30 65 1 62 9
M  V30 END BOND
M  V30 END CTAB
M  END
>  <i_epik_Tot_Q>  (1) 
1

>  <i_epik_Tot_abs_Q>  (1) 
1

>  <i_i_glide_confnum>  (1) 
113

>  <i_i_glide_lignum>  (1) 
10

>  <i_i_glide_posenum>  (1) 
187

>  <i_i_glide_rotatable_bonds>  (1) 
8

>  <i_lp_mmshare_version>  (1) 
72125

>  <i_m_source_file_index>  (1) 
2

>  <i_f3d_flags>  (1) 
0

>  <num_sample>  (1) 
100

>  <b_lp_Chiralities_Consistent>  (1) 
1

>  <r_epik_Charging_Adjusted_Penalty>  (1) 
0.089223518210420474

>  <r_epik_Ionization_Penalty>  (1) 
0.15303808439063821

>  <r_epik_Ionization_Penalty_Charging>  (1) 
0.0017986555257548985

>  <r_epik_Ionization_Penalty_Neutral>  (1) 
0.15123942886488331

>  <r_epik_State_Penalty>  (1) 
0.08742486268466558

>  <r_glide_ring_energy>  (1) 
0

>  <r_i_docking_score>  (1) 
-7.9254213141210226

>  <r_i_glide_ecoul>  (1) 
-9.0214498957450466

>  <r_i_glide_eff_state_penalty>  (1) 
0.08742486268466558

>  <r_i_glide_einternal>  (1) 
8.931359202803641

>  <r_i_glide_emodel>  (1) 
-52.051913681964294

>  <r_i_glide_emodel_strain>  (1) 
0.37799976760699394

>  <r_i_glide_energy>  (1) 
-40.669381385247817

>  <r_i_glide_erotb>  (1) 
0.76037187950223806

>  <r_i_glide_esite>  (1) 
-0.04696106307859374

>  <r_i_glide_evdw>  (1) 
-31.647931489502767

>  <r_i_glide_gscore>  (1) 
-8.012846176805688

>  <r_i_glide_gscore_strain>  (1) 
0

>  <r_i_glide_hbond>  (1) 
-0.665702385711892

>  <r_i_glide_ligand_efficiency>  (1) 
-0.28305076121860795

>  <r_i_glide_ligand_efficiency_ln>  (1) 
-1.8294199397803823

>  <r_i_glide_ligand_efficiency_sa>  (1) 
-0.85950881999743645

>  <r_i_glide_lipo>  (1) 
-3.0512047245341591

>  <r_i_glide_metal>  (1) 
-0

>  <r_i_glide_rewards>  (1) 
-2.0737358241463841

>  <r_lp_Energy>  (1) 
14.952356

>  <s_epik_cmdline>  (1) 
J2VwaWtfcHl0aG9uJywgJy1waHQnLCAnMS4wJywgJy1waCcsICc3LjQnLCAnLXRuJywgJzgnLCAnLW1hJywgJzUwMCcsICctaW1hZScsICc8aW5maWxlLm1hZT4nLCAnLW9tYWUnLCAnPG91dGZpbGUubWFlPic=

>  <s_epik_input>  (1) 
W0NIMl0xW0NIMl1PW0NIXT1DMUMoPU8pW0NIMl1bQ0BIXTJbQ0gyXVtDSDJdTihbQ0BAXTIzW09IXSlbQ0gyXVtDQEBIXShbTkhdW0NIMl0zKS9bQ0hdPUM0XFtDQEBIXShbTkhdW0NIMl1bQ0gyXTQpW0NASF0oW0NIM10pW0NIMl1bT0hd

>  <s_glide_docking_method>  (1) 
confgen

>  <s_i_glide_gridfile>  (1) 
gpcr_5ht2c_6bqh_protein_autoprepared_prepared

>  <s_lp_Force_Field>  (1) 
S-OPLS

>  <s_lp_Variant>  (1) 
DiffSBDD_1_num_sample_100-4

>  <s_m_source_file>  (1) 
generated__ligand_DiffSBDD_2026-05-06_prepared.sdf

>  <GenAI_Model>  (1) 
DiffSBDD

>  <Protein>  (1) 
GPCR_5HT2C

$$$$
DiffSBDD_91_num_sample_100
     RDKit          3D

  0  0  0  0  0  0  0  0  0  0999 V3000
M  V30 BEGIN CTAB
M  V30 COUNTS 73 75 0 0 1
M  V30 BEGIN ATOM
M  V30 1 C 44.054764 31.587735 66.858102 0
M  V30 2 C 41.607059 34.639630 64.168216 0 CFG=1
M  V30 3 N 37.467400 26.421395 56.224955 0
M  V30 4 C 40.501522 32.464877 62.609714 0 CFG=2
M  V30 5 O 40.668435 31.420303 61.687969 0
M  V30 6 C 40.705689 34.922420 62.951791 0 CFG=2
M  V30 7 F 44.620079 31.855900 69.167460 0
M  V30 8 C 40.823359 33.801116 61.901254 0 CFG=2
M  V30 9 C 42.184838 32.855550 65.924220 0
M  V30 10 C 39.301272 29.153411 55.288915 0
M  V30 11 C 39.741885 30.428705 61.728117 0
M  V30 12 C 38.232958 26.652900 57.326903 0
M  V30 13 C 39.206258 29.006469 51.825491 0 CFG=1
M  V30 14 O 38.667417 30.482300 62.326010 0
M  V30 15 C 38.734656 30.050596 54.175697 0
M  V30 16 C 39.823050 34.020677 60.744861 0
M  V30 17 S 38.373742 29.354171 56.833151 0
M  V30 18 C 43.233798 31.923442 65.763535 0
M  V30 19 O 41.297855 35.621431 65.136062 0
M  V30 20 O 41.067417 36.160882 62.367394 0
M  V30 21 C 39.584545 30.061753 52.891051 0
M  V30 22 C 39.902494 29.317192 59.422136 0
M  V30 23 C 41.294011 33.231919 64.736000 0 CFG=2
M  V30 24 C 43.829238 32.178349 68.116040 0
M  V30 25 C 42.781011 33.103393 68.281675 0
M  V30 26 N 39.471671 28.036125 58.877964 0
M  V30 27 O 40.094701 29.162677 50.741710 0
M  V30 28 C 41.959343 33.442017 67.188956 0
M  V30 29 C 38.702472 27.850918 57.729641 0
M  V30 30 C 38.438063 25.480071 57.983449 0
M  V30 31 C 40.157644 29.191307 60.934031 0
M  V30 32 C 39.242660 27.532386 52.265209 0
M  V30 33 C 37.018553 24.984838 56.067612 0 CFG=2
M  V30 34 C 37.803798 24.521841 57.347528 0
M  V30 35 C 37.507580 24.351420 54.768788 0
M  V30 36 O 41.399318 32.286953 63.669076 0
M  V30 37 H 44.858136 30.876802 66.731964 0
M  V30 38 H 42.661218 34.707799 63.895988 0
M  V30 39 H 39.491069 32.507518 63.021363 0
M  V30 40 H 39.667131 34.997796 63.279276 0
M  V30 41 H 41.842249 33.745593 61.514885 0
M  V30 42 H 39.281547 28.106892 54.993691 0
M  V30 43 H 40.343199 29.401511 55.489727 0
M  V30 44 H 38.205228 29.221425 51.453871 0
M  V30 45 H 38.689881 31.071360 54.559571 0
M  V30 46 H 37.703832 29.776013 53.948538 0
M  V30 47 H 38.797628 34.058563 61.114104 0
M  V30 48 H 40.016310 34.960618 60.227401 0
M  V30 49 H 39.867497 33.226080 60.000016 0
M  V30 50 H 43.411621 31.468514 64.800647 0
M  V30 51 H 41.467538 36.483106 64.765169 0
M  V30 52 H 41.940464 36.096078 62.013392 0
M  V30 53 H 40.641920 30.021425 53.147427 0
M  V30 54 H 39.467489 31.043764 52.430362 0
M  V30 55 H 40.814500 29.621434 58.909299 0
M  V30 56 H 39.147207 30.084008 59.245972 0
M  V30 57 H 40.267463 33.201499 65.100649 0
M  V30 58 H 42.607651 33.555437 69.247518 0
M  V30 59 H 39.699846 27.222488 59.429049 0
M  V30 60 H 40.976083 29.025368 51.053296 0
M  V30 61 H 41.156926 34.154049 67.319526 0
M  V30 62 H 39.017898 25.361634 58.878310 0
M  V30 63 H 39.568577 28.364992 61.333624 0
M  V30 64 H 41.199799 28.942239 61.132933 0
M  V30 65 H 38.491948 27.326657 53.027595 0
M  V30 66 H 39.013554 26.877811 51.423320 0
M  V30 67 H 40.214128 27.228973 52.653501 0
M  V30 68 H 35.942568 24.881853 56.211315 0
M  V30 69 H 37.796539 23.489963 57.663467 0
M  V30 70 H 37.278153 23.286132 54.741285 0
M  V30 71 H 37.022991 24.821420 53.911897 0
M  V30 72 H 38.585714 24.466484 54.653546 0
M  V30 73 H 37.085337 27.159780 55.651594 0
M  V30 END ATOM
M  V30 BEGIN BOND
M  V30 1 1 5 4
M  V30 2 1 6 2
M  V30 3 1 8 4
M  V30 4 1 8 6
M  V30 5 1 11 5
M  V30 6 1 12 3
M  V30 7 2 14 11
M  V30 8 1 15 10
M  V30 9 1 16 8
M  V30 10 1 17 10
M  V30 11 2 18 1
M  V30 12 1 18 9
M  V30 13 1 19 2
M  V30 14 1 20 6
M  V30 15 1 21 13
M  V30 16 1 21 15
M  V30 17 1 23 2
M  V30 18 1 23 9
M  V30 19 1 24 1
M  V30 20 1 24 7
M  V30 21 2 25 24
M  V30 22 1 26 22
M  V30 23 1 27 13
M  V30 24 2 28 9
M  V30 25 1 28 25
M  V30 26 2 29 12
M  V30 27 1 29 17
M  V30 28 1 29 26
M  V30 29 1 30 12
M  V30 30 1 31 11
M  V30 31 1 31 22
M  V30 32 1 32 13
M  V30 33 1 33 3
M  V30 34 2 34 30
M  V30 35 1 34 33
M  V30 36 1 35 33
M  V30 37 1 36 4
M  V30 38 1 36 23
M  V30 39 1 37 1
M  V30 40 1 2 38 CFG=3
M  V30 41 1 4 39 CFG=1
M  V30 42 1 6 40 CFG=1
M  V30 43 1 8 41 CFG=3
M  V30 44 1 42 10
M  V30 45 1 43 10
M  V30 46 1 13 44 CFG=3
M  V30 47 1 45 15
M  V30 48 1 46 15
M  V30 49 1 47 16
M  V30 50 1 48 16
M  V30 51 1 49 16
M  V30 52 1 50 18
M  V30 53 1 51 19
M  V30 54 1 52 20
M  V30 55 1 53 21
M  V30 56 1 54 21
M  V30 57 1 55 22
M  V30 58 1 56 22
M  V30 59 1 23 57 CFG=1
M  V30 60 1 58 25
M  V30 61 1 59 26
M  V30 62 1 60 27
M  V30 63 1 61 28
M  V30 64 1 62 30
M  V30 65 1 63 31
M  V30 66 1 64 31
M  V30 67 1 65 32
M  V30 68 1 66 32
M  V30 69 1 67 32
M  V30 70 1 33 68 CFG=1
M  V30 71 1 69 34
M  V30 72 1 70 35
M  V30 73 1 71 35
M  V30 74 1 72 35
M  V30 75 1 73 3
M  V30 END BOND
M  V30 END CTAB
M  END
>  <i_epik_Tot_Q>  (1) 
0

>  <i_epik_Tot_abs_Q>  (1) 
0

>  <i_i_glide_confnum>  (1) 
809

>  <i_i_glide_lignum>  (1) 
246

>  <i_i_glide_posenum>  (1) 
97

>  <i_i_glide_rotatable_bonds>  (1) 
15

>  <i_lp_mmshare_version>  (1) 
72125

>  <i_m_source_file_index>  (1) 
92

>  <i_f3d_flags>  (1) 
0

>  <num_sample>  (1) 
100

>  <b_lp_Chiralities_Consistent>  (1) 
1

>  <r_epik_Charging_Adjusted_Penalty>  (1) 
0.41626047813520761

>  <r_epik_Ionization_Penalty>  (1) 
0.0056919315549441929

>  <r_epik_Ionization_Penalty_Charging>  (1) 
0.0055806391826036302

>  <r_epik_Ionization_Penalty_Neutral>  (1) 
0.00011129237234056257

>  <r_epik_State_Penalty>  (1) 
0.41067983895260396

>  <r_glide_ring_energy>  (1) 
0

>  <r_i_docking_score>  (1) 
-7.9214254612986492

>  <r_i_glide_ecoul>  (1) 
-0.63851631953429577

>  <r_i_glide_eff_state_penalty>  (1) 
0.41067983895260396

>  <r_i_glide_einternal>  (1) 
11.151859132229838

>  <r_i_glide_emodel>  (1) 
-71.064956109935451

>  <r_i_glide_emodel_strain>  (1) 
1.9457179944351992

>  <r_i_glide_energy>  (1) 
-53.57641103144821

>  <r_i_glide_erotb>  (1) 
0.89707811728232589

>  <r_i_glide_esite>  (1) 
0

>  <r_i_glide_evdw>  (1) 
-52.937894711913913

>  <r_i_glide_gscore>  (1) 
-8.3321053002512535

>  <r_i_glide_gscore_strain>  (1) 
0

>  <r_i_glide_hbond>  (1) 
-0.32000000000000001

>  <r_i_glide_ligand_efficiency>  (1) 
-0.22003959614718471

>  <r_i_glide_ligand_efficiency_ln>  (1) 
-1.7282410234715564

>  <r_i_glide_ligand_efficiency_sa>  (1) 
-0.7265547383541584

>  <r_i_glide_lipo>  (1) 
-5.2672308951410809

>  <r_i_glide_metal>  (1) 
-0

>  <r_i_glide_rewards>  (1) 
-0.89928033886665648

>  <r_lp_Energy>  (1) 
23.896531

>  <r_lp_tautomer_probability>  (1) 
0.49957765584955821

>  <s_epik_Chemistry_Notes>  (1) 
This compound has an ester and may undergo hydrolysis at high or low pH. This compound has an imine and may undergo hydrolysis. This compound contains an acetal/aminal-like group ( X-CH(R)-Y where X, Y are N, S, or O) that may be acid/base labile, releasing an aldehyde.

>  <s_epik_cmdline>  (1) 
J2VwaWtfcHl0aG9uJywgJy1waHQnLCAnMS4wJywgJy1waCcsICc3LjQnLCAnLXRuJywgJzgnLCAnLW1hJywgJzUwMCcsICctaW1hZScsICc8aW5maWxlLm1hZT4nLCAnLW9tYWUnLCAnPG91dGZpbGUubWFlPic=

>  <s_epik_input>  (1) 
W2NIXTFbY0hdYyhGKVtjSF1bY0hdYzFbQ0BASF0yT1tDQEBIXShbQ0BASF0oW0NIM10pW0NASF0oW09IXSlbQ0BIXTJbT0hdKU9DKD1PKVtDSDJdW0NIMl1bTkhdW0NAQEhdKEMzPU5bQ0BASF0oW0NIM10pW0NIXT1bQ0hdMylTW0NIMl1bQ0gyXVtDSDJdW0NAQEhdKFtPSF0pW0NIM10=

>  <s_glide_docking_method>  (1) 
confgen

>  <s_i_glide_gridfile>  (1) 
gpcr_5ht2c_6bqh_protein_autoprepared_prepared

>  <s_lp_Force_Field>  (1) 
S-OPLS

>  <s_lp_Variant>  (1) 
DiffSBDD_91_num_sample_100-2

>  <s_m_source_file>  (1) 
generated__ligand_DiffSBDD_2026-05-06_prepared.sdf

>  <GenAI_Model>  (1) 
DiffSBDD

>  <Protein>  (1) 
GPCR_5HT2C

$$$$
DiffSBDD_1_num_sample_100
     RDKit          3D

  0  0  0  0  0  0  0  0  0  0999 V3000
M  V30 BEGIN CTAB
M  V30 COUNTS 62 65 0 0 1
M  V30 BEGIN ATOM
M  V30 1 C 38.585451 26.635743 56.788363 0
M  V30 2 C 39.659125 34.553545 62.078131 0
M  V30 3 O 37.283235 24.836472 57.092855 0
M  V30 4 C 37.728573 32.977917 61.433215 0 CFG=1
M  V30 5 C 38.965050 28.058237 56.931964 0
M  V30 6 C 38.227586 30.662491 60.660910 0
M  V30 7 C 37.595315 36.694644 63.391229 0
M  V30 8 C 41.357913 36.143017 62.137978 0
M  V30 9 N 40.079460 36.820417 61.853530 0 CHG=1
M  V30 10 C 38.100700 32.717877 57.604797 0
M  V30 11 C 38.039231 28.966989 57.752472 0
M  V30 12 C 37.648137 36.291102 61.904496 0 CFG=2
M  V30 13 C 39.058883 35.814706 61.466521 0 CFG=2
M  V30 14 C 37.874482 31.081211 59.226661 0 CFG=2
M  V30 15 C 38.568153 31.402807 56.942378 0
M  V30 16 C 37.495527 26.145824 57.289965 0
M  V30 17 N 37.534699 31.528654 61.640089 0
M  V30 18 C 39.085529 33.327299 62.048016 0
M  V30 19 O 39.985777 28.527737 56.428261 0
M  V30 20 C 37.173944 37.447706 61.002011 0
M  V30 21 C 38.506872 24.462567 56.341453 0
M  V30 22 C 37.488143 33.355256 59.936390 0
M  V30 23 C 40.993164 34.785050 62.717916 0
M  V30 24 N 38.210687 32.474862 59.028300 0
M  V30 25 O 36.470097 30.899919 59.053496 0
M  V30 26 C 39.464069 25.721544 56.060355 0
M  V30 27 C 38.612286 30.360384 58.090831 0 CFG=2
M  V30 28 O 36.266993 36.832824 63.848538 0
M  V30 29 H 36.975778 33.472234 62.039767 0
M  V30 30 H 39.306160 30.728522 60.804687 0
M  V30 31 H 37.966771 29.621425 60.805977 0
M  V30 32 H 38.118639 37.621432 63.543511 0
M  V30 33 H 38.150748 36.021484 64.029779 0
M  V30 34 H 41.978501 36.731329 62.812000 0
M  V30 35 H 41.867567 36.013907 61.185711 0
M  V30 36 H 40.190065 37.527967 61.141247 0
M  V30 37 H 37.067405 32.941198 57.339037 0
M  V30 38 H 38.708467 33.570262 57.301694 0
M  V30 39 H 37.833584 28.452240 58.690574 0
M  V30 40 H 37.085740 29.071299 57.233801 0
M  V30 41 H 36.929075 35.494678 61.747180 0
M  V30 42 H 39.133642 35.724240 60.383968 0
M  V30 43 H 37.866375 31.113205 56.159333 0
M  V30 44 H 39.550182 31.512312 56.481779 0
M  V30 45 H 36.725547 26.649147 57.853332 0
M  V30 46 H 37.848767 31.281897 62.572775 0
M  V30 47 H 39.614106 32.505384 62.511458 0
M  V30 48 H 37.816154 38.324088 61.089017 0
M  V30 49 H 37.155729 37.152989 59.951819 0
M  V30 50 H 36.164596 37.765036 61.261100 0
M  V30 51 H 39.046877 23.718240 56.928482 0
M  V30 52 H 38.218470 23.993453 55.400863 0
M  V30 53 H 36.418448 33.286586 59.734027 0
M  V30 54 H 37.736180 34.386418 59.716705 0
M  V30 55 H 40.872949 34.839116 63.800585 0
M  V30 56 H 41.720937 34.008021 62.479819 0
M  V30 57 H 36.190737 31.240468 58.196913 0
M  V30 58 H 39.543508 25.974653 55.002022 0
M  V30 59 H 40.446723 25.629226 56.522089 0
M  V30 60 H 39.648267 30.239505 58.404598 0
M  V30 61 H 35.877579 35.979744 64.003666 0
M  V30 62 H 39.779384 37.253658 62.714375 0
M  V30 END ATOM
M  V30 BEGIN BOND
M  V30 1 1 5 1
M  V30 2 1 9 8
M  V30 3 1 11 5
M  V30 4 1 12 7
M  V30 5 1 13 2
M  V30 6 1 13 9
M  V30 7 1 13 12
M  V30 8 1 14 6
M  V30 9 1 15 10
M  V30 10 2 16 1
M  V30 11 1 16 3
M  V30 12 1 17 4
M  V30 13 1 17 6
M  V30 14 2 18 2
M  V30 15 1 18 4
M  V30 16 2 19 5
M  V30 17 1 20 12
M  V30 18 1 21 3
M  V30 19 1 22 4
M  V30 20 1 23 2
M  V30 21 1 23 8
M  V30 22 1 24 10
M  V30 23 1 24 14
M  V30 24 1 24 22
M  V30 25 1 14 25 CFG=3
M  V30 26 1 26 1
M  V30 27 1 26 21
M  V30 28 1 27 11
M  V30 29 1 27 14
M  V30 30 1 27 15
M  V30 31 1 28 7
M  V30 32 1 4 29 CFG=1
M  V30 33 1 30 6
M  V30 34 1 31 6
M  V30 35 1 32 7
M  V30 36 1 33 7
M  V30 37 1 34 8
M  V30 38 1 35 8
M  V30 39 1 36 9
M  V30 40 1 37 10
M  V30 41 1 38 10
M  V30 42 1 39 11
M  V30 43 1 40 11
M  V30 44 1 12 41 CFG=1
M  V30 45 1 13 42 CFG=3
M  V30 46 1 43 15
M  V30 47 1 44 15
M  V30 48 1 45 16
M  V30 49 1 46 17
M  V30 50 1 47 18
M  V30 51 1 48 20
M  V30 52 1 49 20
M  V30 53 1 50 20
M  V30 54 1 51 21
M  V30 55 1 52 21
M  V30 56 1 53 22
M  V30 57 1 54 22
M  V30 58 1 55 23
M  V30 59 1 56 23
M  V30 60 1 57 25
M  V30 61 1 58 26
M  V30 62 1 59 26
M  V30 63 1 27 60 CFG=1
M  V30 64 1 61 28
M  V30 65 1 62 9
M  V30 END BOND
M  V30 END CTAB
M  END
>  <i_epik_Tot_Q>  (1) 
1

>  <i_epik_Tot_abs_Q>  (1) 
1

>  <i_i_glide_confnum>  (1) 
113

>  <i_i_glide_lignum>  (1) 
10

>  <i_i_glide_posenum>  (1) 
187

>  <i_i_glide_rotatable_bonds>  (1) 
8

>  <i_lp_mmshare_version>  (1) 
72125

>  <i_m_source_file_index>  (1) 
2

>  <i_f3d_flags>  (1) 
0

>  <num_sample>  (1) 
100

>  <b_lp_Chiralities_Consistent>  (1) 
1

>  <r_epik_Charging_Adjusted_Penalty>  (1) 
0.089223518210420474

>  <r_epik_Ionization_Penalty>  (1) 
0.15303808439063821

>  <r_epik_Ionization_Penalty_Charging>  (1) 
0.0017986555257548985

>  <r_epik_Ionization_Penalty_Neutral>  (1) 
0.15123942886488331

>  <r_epik_State_Penalty>  (1) 
0.08742486268466558

>  <r_glide_ring_energy>  (1) 
0

>  <r_i_docking_score>  (1) 
-7.920547361728568

>  <r_i_glide_ecoul>  (1) 
-9.1776440959098178

>  <r_i_glide_eff_state_penalty>  (1) 
0.08742486268466558

>  <r_i_glide_einternal>  (1) 
6.8643867578637945

>  <r_i_glide_emodel>  (1) 
-53.583911209671953

>  <r_i_glide_emodel_strain>  (1) 
0.33556270285465928

>  <r_i_glide_energy>  (1) 
-41.135325499860791

>  <r_i_glide_erotb>  (1) 
0.76037187950223806

>  <r_i_glide_esite>  (1) 
-0.045958729153691306

>  <r_i_glide_evdw>  (1) 
-31.957681403950971

>  <r_i_glide_gscore>  (1) 
-8.0079722244132334

>  <r_i_glide_gscore_strain>  (1) 
0

>  <r_i_glide_hbond>  (1) 
-0.66327057139784895

>  <r_i_glide_ligand_efficiency>  (1) 
-0.28287669149030598

>  <r_i_glide_ligand_efficiency_ln>  (1) 
-1.8282948884627432

>  <r_i_glide_ligand_efficiency_sa>  (1) 
-0.85898024178013743

>  <r_i_glide_lipo>  (1) 
-3.0069882973410813

>  <r_i_glide_metal>  (1) 
-0

>  <r_i_glide_rewards>  (1) 
-2.0775958214388268

>  <r_lp_Energy>  (1) 
14.952356

>  <s_epik_cmdline>  (1) 
J2VwaWtfcHl0aG9uJywgJy1waHQnLCAnMS4wJywgJy1waCcsICc3LjQnLCAnLXRuJywgJzgnLCAnLW1hJywgJzUwMCcsICctaW1hZScsICc8aW5maWxlLm1hZT4nLCAnLW9tYWUnLCAnPG91dGZpbGUubWFlPic=

>  <s_epik_input>  (1) 
W0NIMl0xW0NIMl1PW0NIXT1DMUMoPU8pW0NIMl1bQ0BIXTJbQ0gyXVtDSDJdTihbQ0BAXTIzW09IXSlbQ0gyXVtDQEBIXShbTkhdW0NIMl0zKS9bQ0hdPUM0XFtDQEBIXShbTkhdW0NIMl1bQ0gyXTQpW0NASF0oW0NIM10pW0NIMl1bT0hd

>  <s_glide_docking_method>  (1) 
confgen

>  <s_i_glide_gridfile>  (1) 
gpcr_5ht2c_6bqh_protein_autoprepared_prepared

>  <s_lp_Force_Field>  (1) 
S-OPLS

>  <s_lp_Variant>  (1) 
DiffSBDD_1_num_sample_100-4

>  <s_m_source_file>  (1) 
generated__ligand_DiffSBDD_2026-05-06_prepared.sdf

>  <GenAI_Model>  (1) 
DiffSBDD

>  <Protein>  (1) 
GPCR_5HT2C

$$$$
DiffSBDD_64_num_sample_100
     RDKit          3D

  0  0  0  0  0  0  0  0  0  0999 V3000
M  V30 BEGIN CTAB
M  V30 COUNTS 67 69 0 0 1
M  V30 BEGIN ATOM
M  V30 1 C 38.619476 28.782203 51.535337 0
M  V30 2 C 39.988562 30.438445 53.262106 0
M  V30 3 C 41.518947 34.820930 64.182777 0
M  V30 4 C 38.267406 31.263099 57.065501 0
M  V30 5 C 37.834135 33.095252 58.682138 0
M  V30 6 O 40.667444 31.063024 61.087822 0
M  V30 7 N 38.994221 29.588610 53.793670 0
M  V30 8 C 40.585889 32.406657 63.011832 0
M  V30 9 O 39.867475 29.651683 49.774451 0
M  V30 10 C 41.413808 32.391588 64.173234 0
M  V30 11 C 40.184537 33.686098 62.449186 0
M  V30 12 C 37.448175 34.911284 60.368708 0
M  V30 13 O 37.408297 27.969360 53.445332 0
M  V30 14 C 40.692639 34.879167 63.049615 0
M  V30 15 C 38.267450 28.721754 52.985130 0
M  V30 16 C 38.685298 31.014526 55.845344 0
M  V30 17 C 40.267430 30.465551 51.971201 0
M  V30 18 C 39.700439 28.212857 57.330310 0
M  V30 19 C 38.367829 27.483114 57.575919 0
M  V30 20 C 38.847395 35.132555 60.965619 0
M  V30 21 C 39.867532 28.696628 55.876819 0
M  V30 22 N 39.295045 33.785660 61.302721 0
M  V30 23 C 38.228470 32.790797 61.202505 0
M  V30 24 C 41.866884 33.589169 64.746182 0
M  V30 25 C 40.606118 29.974143 63.117892 0
M  V30 26 C 37.868063 31.635269 58.259533 0
M  V30 27 C 38.767430 29.598113 55.260203 0 CFG=2
M  V30 28 C 35.849803 32.925661 60.271880 0
M  V30 29 C 40.877872 27.290237 57.676452 0
M  V30 30 C 39.573700 29.619973 51.078228 0
M  V30 31 N 40.191027 31.180096 62.404832 0
M  V30 32 C 37.311244 33.393037 60.116000 0 CFG=2
M  V30 33 H 38.099050 28.137794 50.844087 0
M  V30 34 H 39.138890 29.268244 49.306014 0
M  V30 35 H 40.495514 31.049215 53.992574 0
M  V30 36 H 41.885708 35.736564 64.625903 0
M  V30 37 H 38.841522 33.496627 58.561115 0
M  V30 38 H 37.215151 33.626770 57.956320 0
M  V30 39 H 40.147466 31.676790 60.585531 0
M  V30 40 H 41.719875 31.458900 64.616499 0
M  V30 41 H 37.279155 35.512608 59.474231 0
M  V30 42 H 36.705450 35.225743 61.103904 0
M  V30 43 H 40.445179 35.844716 62.647220 0
M  V30 44 H 38.984553 31.824286 55.199227 0
M  V30 45 H 41.034875 31.130211 51.598523 0
M  V30 46 H 39.748835 29.069987 58.001344 0
M  V30 47 H 38.230101 26.660541 56.873263 0
M  V30 48 H 38.329410 27.068215 58.583575 0
M  V30 49 H 37.515100 28.154969 57.479016 0
M  V30 50 H 38.693271 35.799296 61.811429 0
M  V30 51 H 39.528641 35.597345 60.253604 0
M  V30 52 H 39.954553 27.800241 55.259996 0
M  V30 53 H 40.825769 29.203987 55.779741 0
M  V30 54 H 37.709629 32.716482 62.159569 0
M  V30 55 H 38.475628 31.792916 60.867890 0
M  V30 56 H 42.500792 33.559579 65.620401 0
M  V30 57 H 40.201488 29.096270 62.612471 0
M  V30 58 H 41.691109 29.861981 63.142826 0
M  V30 59 H 40.209224 29.954812 64.133971 0
M  V30 60 H 37.544732 30.908370 58.988678 0
M  V30 61 H 37.793773 29.159727 55.481133 0
M  V30 62 H 35.451868 33.176889 61.255669 0
M  V30 63 H 35.206356 33.396401 59.526931 0
M  V30 64 H 35.754099 31.846526 60.151583 0
M  V30 65 H 40.916749 26.426187 57.010965 0
M  V30 66 H 41.830866 27.814689 57.598867 0
M  V30 67 H 40.792377 26.910239 58.689293 0
M  V30 END ATOM
M  V30 BEGIN BOND
M  V30 1 1 7 2
M  V30 2 2 10 8
M  V30 3 1 11 8
M  V30 4 1 14 3
M  V30 5 2 14 11
M  V30 6 1 15 1
M  V30 7 1 15 7
M  V30 8 2 15 13
M  V30 9 2 16 4
M  V30 10 2 17 2
M  V30 11 1 19 18
M  V30 12 1 20 12
M  V30 13 1 21 18
M  V30 14 1 22 11
M  V30 15 1 22 20
M  V30 16 1 23 22
M  V30 17 2 24 3
M  V30 18 1 24 10
M  V30 19 2 26 4
M  V30 20 1 26 5
M  V30 21 1 27 7
M  V30 22 1 27 16
M  V30 23 1 27 21
M  V30 24 1 29 18
M  V30 25 2 30 1
M  V30 26 1 30 9
M  V30 27 1 30 17
M  V30 28 1 31 6
M  V30 29 1 31 8
M  V30 30 1 31 25
M  V30 31 1 32 5 CFG=3
M  V30 32 1 32 12
M  V30 33 1 32 23
M  V30 34 1 32 28
M  V30 35 1 33 1
M  V30 36 1 34 9
M  V30 37 1 35 2
M  V30 38 1 36 3
M  V30 39 1 37 5
M  V30 40 1 38 5
M  V30 41 1 39 6
M  V30 42 1 40 10
M  V30 43 1 41 12
M  V30 44 1 42 12
M  V30 45 1 43 14
M  V30 46 1 44 16
M  V30 47 1 45 17
M  V30 48 1 46 18
M  V30 49 1 47 19
M  V30 50 1 48 19
M  V30 51 1 49 19
M  V30 52 1 50 20
M  V30 53 1 51 20
M  V30 54 1 52 21
M  V30 55 1 53 21
M  V30 56 1 54 23
M  V30 57 1 55 23
M  V30 58 1 56 24
M  V30 59 1 57 25
M  V30 60 1 58 25
M  V30 61 1 59 25
M  V30 62 1 60 26
M  V30 63 1 27 61 CFG=3
M  V30 64 1 62 28
M  V30 65 1 63 28
M  V30 66 1 64 28
M  V30 67 1 65 29
M  V30 68 1 66 29
M  V30 69 1 67 29
M  V30 END BOND
M  V30 END CTAB
M  END
>  <i_epik_Tot_Q>  (1) 
0

>  <i_epik_Tot_abs_Q>  (1) 
0

>  <i_i_glide_confnum>  (1) 
925

>  <i_i_glide_lignum>  (1) 
162

>  <i_i_glide_posenum>  (1) 
388

>  <i_i_glide_rotatable_bonds>  (1) 
10

>  <i_lp_mmshare_version>  (1) 
72125

>  <i_m_source_file_index>  (1) 
65

>  <i_f3d_flags>  (1) 
0

>  <num_sample>  (1) 
100

>  <b_lp_Chiralities_Consistent>  (1) 
1

>  <r_epik_Charging_Adjusted_Penalty>  (1) 
0.62675424586451389

>  <r_epik_Ionization_Penalty>  (1) 
0.6271712436186877

>  <r_epik_Ionization_Penalty_Charging>  (1) 
1.6245979767145579e-07

>  <r_epik_Ionization_Penalty_Neutral>  (1) 
0.62717108115888998

>  <r_epik_State_Penalty>  (1) 
0.62675408340471617

>  <r_glide_ring_energy>  (1) 
0

>  <r_i_docking_score>  (1) 
-7.9160109022660983

>  <r_i_glide_ecoul>  (1) 
-4.3019009770946726

>  <r_i_glide_eff_state_penalty>  (1) 
0.62675408340471617

>  <r_i_glide_einternal>  (1) 
4.2480489545287377

>  <r_i_glide_emodel>  (1) 
-67.27133411670917

>  <r_i_glide_emodel_strain>  (1) 
4.101766478707674

>  <r_i_glide_energy>  (1) 
-52.847405826950478

>  <r_i_glide_erotb>  (1) 
0.72903887146802748

>  <r_i_glide_esite>  (1) 
0

>  <r_i_glide_evdw>  (1) 
-48.545504849855803

>  <r_i_glide_gscore>  (1) 
-8.5427649856708143

>  <r_i_glide_gscore_strain>  (1) 
0.025441619676918492

>  <r_i_glide_hbond>  (1) 
-0.32779129502076798

>  <r_i_glide_ligand_efficiency>  (1) 
-0.24737534069581557

>  <r_i_glide_ligand_efficiency_ln>  (1) 
-1.7726106233248753

>  <r_i_glide_ligand_efficiency_sa>  (1) 
-0.78536775210305887

>  <r_i_glide_lipo>  (1) 
-4.0981953426811328

>  <r_i_glide_metal>  (1) 
-0

>  <r_i_glide_rewards>  (1) 
-1.7986984500568668

>  <r_lp_Energy>  (1) 
25.450896

>  <r_lp_tautomer_probability>  (1) 
0.99998436711719629

>  <s_epik_Chemistry_Notes>  (1) 
This compound has a N-S or N-O group and may undergo hydrolysis at high or low pH.

>  <s_epik_cmdline>  (1) 
J2VwaWtfcHl0aG9uJywgJy1waHQnLCAnMS4wJywgJy1waCcsICc3LjQnLCAnLXRuJywgJzgnLCAnLW1hJywgJzUwMCcsICctaW1hZScsICc8aW5maWxlLm1hZT4nLCAnLW9tYWUnLCAnPG91dGZpbGUubWFlPic=

>  <s_epik_input>  (1) 
Tz1DMVtDSDJdQyg9TylbQ0hdPVtDSF1OMVtDQEBIXShbQ0gyXVtDSF0oW0NIM10pW0NIM10pW0NIXT1DPVtDSF1bQ0gyXVtDQF0yKFtDSDNdKVtDSDJdW0NIMl1OKFtDSDJdMiljM1tjSF1bY0hdW2NIXVtjSF1jM04oW09IXSlbQ0gzXQ==

>  <s_glide_docking_method>  (1) 
confgen

>  <s_i_glide_gridfile>  (1) 
gpcr_5ht2c_6bqh_protein_autoprepared_prepared

>  <s_lp_Force_Field>  (1) 
S-OPLS

>  <s_lp_Variant>  (1) 
DiffSBDD_64_num_sample_100-2

>  <s_m_source_file>  (1) 
generated__ligand_DiffSBDD_2026-05-06_prepared.sdf

>  <GenAI_Model>  (1) 
DiffSBDD

>  <Protein>  (1) 
GPCR_5HT2C

$$$$
DiffSBDD_23_num_sample_100
     RDKit          3D

  0  0  0  0  0  0  0  0  0  0999 V3000
M  V30 BEGIN CTAB
M  V30 COUNTS 83 87 0 0 1
M  V30 BEGIN ATOM
M  V30 1 C 38.291273 26.592639 55.404241 0
M  V30 2 C 39.465923 31.548896 62.778397 0
M  V30 3 C 41.212417 34.951892 63.201848 0
M  V30 4 O 37.833341 36.078758 60.968929 0
M  V30 5 N 40.498477 30.511158 66.271150 0
M  V30 6 C 39.294135 29.681305 61.101741 0
M  V30 7 C 40.284352 27.123670 58.662877 0
M  V30 8 N 40.289670 32.626944 63.448003 0
M  V30 9 C 39.067410 34.396977 62.166225 0
M  V30 10 C 41.091388 36.267117 62.725796 0
M  V30 11 C 42.296443 30.157384 63.053503 0
M  V30 12 C 41.590809 29.922338 64.374244 0
M  V30 13 C 39.573753 27.448690 57.350895 0 CFG=1
M  V30 14 C 41.470071 28.830559 65.023499 0
M  V30 15 N 38.959530 26.262629 56.693165 0 CFG=2 CHG=1
M  V30 16 C 39.185043 32.082514 60.227686 0
M  V30 17 C 37.465538 37.450866 60.900060 0
M  V30 18 C 38.949532 35.718383 61.696927 0
M  V30 19 C 39.790224 31.141705 61.293315 0 CFG=1
M  V30 20 C 39.778308 30.103205 54.163785 0
M  V30 21 C 40.970982 30.935818 65.140003 0
M  V30 22 C 38.343703 29.221400 58.868977 0
M  V30 23 C 37.243850 28.367443 53.090140 0
M  V30 24 O 37.285940 29.781493 59.153828 0
M  V30 25 C 37.393690 29.395095 54.230805 0
M  V30 26 C 40.195738 33.999946 62.929748 0
M  V30 27 C 40.921647 32.399643 64.683607 0
M  V30 28 C 39.857835 25.097005 56.546439 0
M  V30 29 C 40.740382 28.977094 66.334265 0
M  V30 30 C 38.781628 29.640020 56.381384 0
M  V30 31 C 39.038472 27.655937 54.546115 0 CFG=2
M  V30 32 C 39.967382 36.654742 61.979245 0
M  V30 33 C 40.616841 28.422922 59.394790 0
M  V30 34 C 38.766509 29.171444 54.882659 0 CFG=2
M  V30 35 C 38.520673 27.529168 53.106786 0
M  V30 36 O 41.379128 33.287361 65.403516 0
M  V30 37 N 39.383232 29.127575 59.741416 0
M  V30 38 C 38.522460 28.584218 57.470369 0 CFG=1
M  V30 39 H 38.177641 25.667746 54.836404 0
M  V30 40 H 37.263309 26.896716 55.586568 0
M  V30 41 H 38.427588 31.866290 62.796175 0
M  V30 42 H 39.335190 30.638215 63.354049 0
M  V30 43 H 42.088244 34.678369 63.765596 0
M  V30 44 H 38.267403 29.647399 61.436041 0
M  V30 45 H 39.799053 29.006892 61.792398 0
M  V30 46 H 39.667099 26.484143 59.292797 0
M  V30 47 H 41.213339 26.593450 58.451264 0
M  V30 48 H 38.276223 33.702927 61.960923 0
M  V30 49 H 41.867403 36.982762 62.939030 0
M  V30 50 H 41.867403 29.529249 62.278222 0
M  V30 51 H 43.329314 29.827537 63.169196 0
M  V30 52 H 42.353456 31.195571 62.732554 0
M  V30 53 H 40.392900 27.799275 56.721782 0
M  V30 54 H 41.858660 27.877078 64.697304 0
M  V30 55 H 38.120012 32.249175 60.389462 0
M  V30 56 H 39.263748 31.698335 59.217845 0
M  V30 57 H 39.707513 33.034730 60.182943 0
M  V30 58 H 36.463139 37.528153 60.478880 0
M  V30 59 H 38.130915 38.022809 60.254153 0
M  V30 60 H 37.440027 37.909489 61.889521 0
M  V30 61 H 40.861294 31.159992 61.115824 0
M  V30 62 H 40.776321 30.021434 54.590148 0
M  V30 63 H 39.489547 31.149389 54.276764 0
M  V30 64 H 39.857456 29.922169 53.093490 0
M  V30 65 H 37.099990 28.821426 52.111781 0
M  V30 66 H 36.378637 27.729461 53.274035 0
M  V30 67 H 36.628868 29.235398 54.982444 0
M  V30 68 H 37.268766 30.419349 53.880984 0
M  V30 69 H 40.667413 25.322457 55.854360 0
M  V30 70 H 39.300864 24.248982 56.151703 0
M  V30 71 H 40.267394 24.770018 57.499516 0
M  V30 72 H 41.364038 28.696504 67.183862 0
M  V30 73 H 39.804851 28.421428 66.349170 0
M  V30 74 H 39.750872 30.083492 56.616634 0
M  V30 75 H 38.079022 30.468706 56.499158 0
M  V30 76 H 40.096701 27.408211 54.576038 0
M  V30 77 H 39.889259 37.669889 61.624349 0
M  V30 78 H 41.204508 28.191270 60.283747 0
M  V30 79 H 41.240753 29.069927 58.775308 0
M  V30 80 H 38.342680 26.502013 52.788846 0
M  V30 81 H 39.246375 27.934702 52.402019 0
M  V30 82 H 37.522921 28.184839 57.303607 0
M  V30 83 H 38.223047 25.949634 57.310035 0
M  V30 END ATOM
M  V30 BEGIN BOND
M  V30 1 1 8 2
M  V30 2 1 10 3
M  V30 3 1 12 11
M  V30 4 1 13 7
M  V30 5 2 14 12
M  V30 6 1 15 1
M  V30 7 1 15 13
M  V30 8 1 17 4
M  V30 9 1 18 4
M  V30 10 2 18 9
M  V30 11 1 19 2
M  V30 12 1 19 6
M  V30 13 1 19 16
M  V30 14 2 21 5
M  V30 15 1 21 12
M  V30 16 2 24 22
M  V30 17 1 25 23
M  V30 18 2 26 3
M  V30 19 1 26 8
M  V30 20 1 26 9
M  V30 21 1 27 8
M  V30 22 1 27 21
M  V30 23 1 28 15
M  V30 24 1 29 5
M  V30 25 1 29 14
M  V30 26 1 31 1
M  V30 27 2 32 10
M  V30 28 1 32 18
M  V30 29 1 33 7
M  V30 30 1 34 20 CFG=3
M  V30 31 1 34 25
M  V30 32 1 34 30
M  V30 33 1 34 31
M  V30 34 1 35 23
M  V30 35 1 35 31
M  V30 36 2 36 27
M  V30 37 1 37 6
M  V30 38 1 37 22
M  V30 39 1 37 33
M  V30 40 1 38 13
M  V30 41 1 38 22
M  V30 42 1 38 30
M  V30 43 1 39 1
M  V30 44 1 40 1
M  V30 45 1 41 2
M  V30 46 1 42 2
M  V30 47 1 43 3
M  V30 48 1 44 6
M  V30 49 1 45 6
M  V30 50 1 46 7
M  V30 51 1 47 7
M  V30 52 1 48 9
M  V30 53 1 49 10
M  V30 54 1 50 11
M  V30 55 1 51 11
M  V30 56 1 52 11
M  V30 57 1 13 53 CFG=3
M  V30 58 1 54 14
M  V30 59 1 55 16
M  V30 60 1 56 16
M  V30 61 1 57 16
M  V30 62 1 58 17
M  V30 63 1 59 17
M  V30 64 1 60 17
M  V30 65 1 19 61 CFG=1
M  V30 66 1 62 20
M  V30 67 1 63 20
M  V30 68 1 64 20
M  V30 69 1 65 23
M  V30 70 1 66 23
M  V30 71 1 67 25
M  V30 72 1 68 25
M  V30 73 1 69 28
M  V30 74 1 70 28
M  V30 75 1 71 28
M  V30 76 1 72 29
M  V30 77 1 73 29
M  V30 78 1 74 30
M  V30 79 1 75 30
M  V30 80 1 31 76 CFG=3
M  V30 81 1 77 32
M  V30 82 1 78 33
M  V30 83 1 79 33
M  V30 84 1 80 35
M  V30 85 1 81 35
M  V30 86 1 38 82 CFG=3
M  V30 87 1 15 83 CFG=1
M  V30 END BOND
M  V30 END CTAB
M  END
>  <i_epik_Tot_Q>  (1) 
1

>  <i_epik_Tot_abs_Q>  (1) 
1

>  <i_i_glide_confnum>  (1) 
237

>  <i_i_glide_lignum>  (1) 
59

>  <i_i_glide_posenum>  (1) 
160

>  <i_i_glide_rotatable_bonds>  (1) 
8

>  <i_lp_mmshare_version>  (1) 
72125

>  <i_m_source_file_index>  (1) 
24

>  <i_f3d_flags>  (1) 
0

>  <num_sample>  (1) 
100

>  <b_lp_Chiralities_Consistent>  (1) 
1

>  <r_epik_Charging_Adjusted_Penalty>  (1) 
0.0029773975431382485

>  <r_epik_Ionization_Penalty>  (1) 
0.013183626931022738

>  <r_epik_Ionization_Penalty_Charging>  (1) 
0.0029773975431382485

>  <r_epik_Ionization_Penalty_Neutral>  (1) 
0.010206229387884489

>  <r_epik_State_Penalty>  (1) 
-0

>  <r_glide_ring_energy>  (1) 
0

>  <r_i_docking_score>  (1) 
-7.9130779676140168

>  <r_i_glide_ecoul>  (1) 
0.22985653848857271

>  <r_i_glide_eff_state_penalty>  (1) 
-0

>  <r_i_glide_einternal>  (1) 
20.996503838423777

>  <r_i_glide_emodel>  (1) 
-53.172076973769741

>  <r_i_glide_emodel_strain>  (1) 
2.0759183082537618

>  <r_i_glide_energy>  (1) 
-47.992008952144303

>  <r_i_glide_erotb>  (1) 
0.5287100460970352

>  <r_i_glide_esite>  (1) 
0

>  <r_i_glide_evdw>  (1) 
-48.221865490632879

>  <r_i_glide_gscore>  (1) 
-7.9130779676140168

>  <r_i_glide_gscore_strain>  (1) 
0

>  <r_i_glide_hbond>  (1) 
0

>  <r_i_glide_ligand_efficiency>  (1) 
-0.20823889388457939

>  <r_i_glide_ligand_efficiency_ln>  (1) 
-1.7062923889873094

>  <r_i_glide_ligand_efficiency_sa>  (1) 
-0.70009403997897512

>  <r_i_glide_lipo>  (1) 
-4.7618870111518534

>  <r_i_glide_metal>  (1) 
-0

>  <r_i_glide_rewards>  (1) 
-1.3032862088008397

>  <r_lp_Energy>  (1) 
98.080461999999997

>  <r_lp_tautomer_probability>  (1) 
1

>  <s_epik_Chemistry_Notes>  (1) 
This compound has an imine and may undergo hydrolysis.

>  <s_epik_cmdline>  (1) 
J2VwaWtfcHl0aG9uJywgJy1waHQnLCAnMS4wJywgJy1waCcsICc3LjQnLCAnLXRuJywgJzgnLCAnLW1hJywgJzUwMCcsICctaW1hZScsICc8aW5maWxlLm1hZT4nLCAnLW9tYWUnLCAnPG91dGZpbGUubWFlPic=

>  <s_epik_input>  (1) 
W0NIMl0xW0NIMl1bQ0gyXVtDQEBIXShbQ0BAXTEyW0NIM10pW0NIMl1OKFtDSDNdKVtDQEhdM1tDQEhdKFtDSDJdMilDKD1PKU4oW0NIMl1bQ0gyXTMpW0NIMl1bQ0BASF0oW0NIM10pW0NIMl1OKGMoW2NIXVtjSF1bY0hdNClbY0hdYzRPW0NIM10pQyg9TylDNT1OW0NIMl1bQ0hdPUM1W0NIM10=

>  <s_glide_docking_method>  (1) 
confgen

>  <s_i_glide_gridfile>  (1) 
gpcr_5ht2c_6bqh_protein_autoprepared_prepared

>  <s_lp_Force_Field>  (1) 
S-OPLS

>  <s_lp_Variant>  (1) 
DiffSBDD_23_num_sample_100-2

>  <s_m_source_file>  (1) 
generated__ligand_DiffSBDD_2026-05-06_prepared.sdf

>  <GenAI_Model>  (1) 
DiffSBDD

>  <Protein>  (1) 
GPCR_5HT2C

$$$$
DiffSBDD_77_num_sample_100
     RDKit          3D

  0  0  0  0  0  0  0  0  0  0999 V3000
M  V30 BEGIN CTAB
M  V30 COUNTS 76 78 0 0 1
M  V30 BEGIN ATOM
M  V30 1 C 39.867443 30.575701 52.582288 0
M  V30 2 F 38.662935 27.426010 51.113545 0
M  V30 3 C 41.363133 32.530009 63.424613 0
M  V30 4 C 39.862504 30.245680 53.951515 0
M  V30 5 C 37.729709 35.039891 60.361865 0
M  V30 6 C 37.607390 29.551547 57.228984 0
M  V30 7 C 38.666811 30.105510 61.743178 0
M  V30 8 C 39.148220 30.077320 59.276579 0 CFG=2
M  V30 9 O 39.590700 33.775506 61.797900 0
M  V30 10 C 36.940564 36.127988 59.599575 0
M  V30 11 N 37.375229 25.512756 56.243380 0
M  V30 12 C 39.587282 28.552259 55.817607 0
M  V30 13 C 39.049229 28.340873 52.034557 0
M  V30 14 O 41.867349 29.317941 62.653517 0
M  V30 15 C 41.031863 29.984125 63.562165 0
M  V30 16 C 39.467407 28.953755 54.362771 0
M  V30 17 F 39.480923 29.939218 50.307894 0
M  V30 18 C 39.077025 27.502970 58.920916 0
M  V30 19 O 36.880480 23.661221 55.053911 0
M  V30 20 O 37.867372 31.786441 58.069967 0
M  V30 21 C 39.467517 29.621513 51.623752 0
M  V30 22 C 35.112053 34.457060 59.205730 0
M  V30 23 N 37.755542 32.615770 61.086150 0
M  V30 24 C 37.588928 26.161590 57.533245 0
M  V30 25 C 39.048828 28.006069 53.401984 0
M  V30 26 C 40.543778 31.311896 62.992708 0
M  V30 27 C 37.067371 24.219467 56.130846 0
M  V30 28 C 35.815729 33.409231 59.913120 0
M  V30 29 C 39.941794 28.759343 59.142096 0
M  V30 30 F 33.913979 34.180666 58.661354 0
M  V30 31 C 35.192432 32.025698 60.039971 0
M  V30 32 C 38.294349 28.312717 56.612115 0 CFG=1
M  V30 33 C 38.976427 32.717117 61.679863 0
M  V30 34 N 38.154028 30.021438 60.350081 0
M  V30 35 C 39.445674 31.382023 62.170064 0
M  V30 36 C 37.036196 33.665179 60.443544 0
M  V30 37 C 35.615393 35.686871 59.053482 0
M  V30 38 C 38.539124 30.554515 57.930401 0 CFG=2
M  V30 39 N 38.587465 27.226817 57.561898 0
M  V30 40 H 40.184617 31.558576 52.264290 0
M  V30 41 H 40.758584 33.243299 63.984875 0
M  V30 42 H 42.189575 32.237171 64.072243 0
M  V30 43 H 41.814720 33.025060 62.564554 0
M  V30 44 H 40.191814 30.970572 54.682212 0
M  V30 45 H 37.892102 35.423785 61.369434 0
M  V30 46 H 38.697872 34.932284 59.871714 0
M  V30 47 H 37.118810 30.073862 56.405918 0
M  V30 48 H 36.796690 29.252002 57.894758 0
M  V30 49 H 39.269554 29.217973 61.920444 0
M  V30 50 H 37.854584 30.021754 62.453071 0
M  V30 51 H 39.867368 30.821675 59.581096 0
M  V30 52 H 37.467788 36.480385 58.720154 0
M  V30 53 H 36.785897 37.002452 60.232536 0
M  V30 54 H 37.460427 26.073029 55.408532 0
M  V30 55 H 40.276699 29.227193 56.310501 0
M  V30 56 H 40.155470 27.620816 55.781174 0
M  V30 57 H 42.168214 28.511889 63.049871 0
M  V30 58 H 40.199826 29.332709 63.821644 0
M  V30 59 H 41.562628 30.142669 64.502183 0
M  V30 60 H 39.687715 26.641733 59.191278 0
M  V30 61 H 38.267369 27.506296 59.640845 0
M  V30 62 H 36.995043 31.727302 57.674478 0
M  V30 63 H 37.327220 31.700840 61.052819 0
M  V30 64 H 37.864993 25.408346 58.272854 0
M  V30 65 H 36.634753 26.578777 57.853374 0
M  V30 66 H 38.757191 27.015014 53.711991 0
M  V30 67 H 37.006019 23.731018 57.115475 0
M  V30 68 H 40.721176 28.840491 58.387989 0
M  V30 69 H 40.493092 28.611574 60.070377 0
M  V30 70 H 34.214203 31.990594 59.561761 0
M  V30 71 H 35.809805 31.268899 59.561207 0
M  V30 72 H 35.067144 31.755978 61.088472 0
M  V30 73 H 37.587690 27.923329 55.880890 0
M  V30 74 H 37.585883 29.189282 60.234300 0
M  V30 75 H 35.067354 36.421766 58.499513 0
M  V30 76 H 39.359569 30.817688 57.267854 0
M  V30 END ATOM
M  V30 BEGIN BOND
M  V30 1 2 4 1
M  V30 2 1 10 5
M  V30 3 1 13 2
M  V30 4 1 15 14
M  V30 5 1 16 4
M  V30 6 1 16 12
M  V30 7 1 21 1
M  V30 8 2 21 13
M  V30 9 1 21 17
M  V30 10 1 24 11
M  V30 11 1 25 13
M  V30 12 2 25 16
M  V30 13 1 26 3
M  V30 14 1 26 15
M  V30 15 1 27 11
M  V30 16 2 27 19
M  V30 17 1 28 22
M  V30 18 1 29 8
M  V30 19 1 29 18
M  V30 20 1 30 22
M  V30 21 1 31 28
M  V30 22 1 32 6
M  V30 23 1 32 12
M  V30 24 2 33 9
M  V30 25 1 33 23
M  V30 26 1 34 7
M  V30 27 1 34 8
M  V30 28 1 35 7
M  V30 29 2 35 26
M  V30 30 1 35 33
M  V30 31 1 36 5
M  V30 32 1 36 23
M  V30 33 2 36 28
M  V30 34 1 37 10
M  V30 35 2 37 22
M  V30 36 1 38 6
M  V30 37 1 38 8
M  V30 38 1 38 20
M  V30 39 1 39 18
M  V30 40 1 39 24
M  V30 41 1 39 32
M  V30 42 1 40 1
M  V30 43 1 41 3
M  V30 44 1 42 3
M  V30 45 1 43 3
M  V30 46 1 44 4
M  V30 47 1 45 5
M  V30 48 1 46 5
M  V30 49 1 47 6
M  V30 50 1 48 6
M  V30 51 1 49 7
M  V30 52 1 50 7
M  V30 53 1 8 51 CFG=1
M  V30 54 1 52 10
M  V30 55 1 53 10
M  V30 56 1 54 11
M  V30 57 1 55 12
M  V30 58 1 56 12
M  V30 59 1 57 14
M  V30 60 1 58 15
M  V30 61 1 59 15
M  V30 62 1 60 18
M  V30 63 1 61 18
M  V30 64 1 62 20
M  V30 65 1 63 23
M  V30 66 1 64 24
M  V30 67 1 65 24
M  V30 68 1 66 25
M  V30 69 1 67 27
M  V30 70 1 68 29
M  V30 71 1 69 29
M  V30 72 1 70 31
M  V30 73 1 71 31
M  V30 74 1 72 31
M  V30 75 1 32 73 CFG=3
M  V30 76 1 74 34
M  V30 77 1 75 37
M  V30 78 1 38 76 CFG=3
M  V30 END BOND
M  V30 END CTAB
M  END
>  <i_epik_Tot_Q>  (1) 
0

>  <i_epik_Tot_abs_Q>  (1) 
0

>  <i_i_glide_confnum>  (1) 
10108

>  <i_i_glide_lignum>  (1) 
191

>  <i_i_glide_posenum>  (1) 
28

>  <i_i_glide_rotatable_bonds>  (1) 
14

>  <i_lp_mmshare_version>  (1) 
72125

>  <i_m_source_file_index>  (1) 
78

>  <i_f3d_flags>  (1) 
0

>  <num_sample>  (1) 
100

>  <b_lp_Chiralities_Consistent>  (1) 
1

>  <r_epik_Charging_Adjusted_Penalty>  (1) 
0.53836467660946008

>  <r_epik_Ionization_Penalty>  (1) 
0.66160028736033039

>  <r_epik_Ionization_Penalty_Charging>  (1) 
0

>  <r_epik_Ionization_Penalty_Neutral>  (1) 
0.66160028736033039

>  <r_epik_State_Penalty>  (1) 
0.53836467660946008

>  <r_glide_ring_energy>  (1) 
2.2380455838838502

>  <r_i_docking_score>  (1) 
-7.9094051241156809

>  <r_i_glide_ecoul>  (1) 
-5.7978460411146653

>  <r_i_glide_eff_state_penalty>  (1) 
0.53836467660946008

>  <r_i_glide_einternal>  (1) 
9.4970927270770531

>  <r_i_glide_emodel>  (1) 
-66.465442113592687

>  <r_i_glide_emodel_strain>  (1) 
4.3980364499100233

>  <r_i_glide_energy>  (1) 
-49.263436792370698

>  <r_i_glide_erotb>  (1) 
0.6830181953671759

>  <r_i_glide_esite>  (1) 
0

>  <r_i_glide_evdw>  (1) 
-43.46559075125603

>  <r_i_glide_gscore>  (1) 
-8.4477698007251405

>  <r_i_glide_gscore_strain>  (1) 
0.099509112477505823

>  <r_i_glide_hbond>  (1) 
-0.42448907627018023

>  <r_i_glide_ligand_efficiency>  (1) 
-0.20280525959270976

>  <r_i_glide_ligand_efficiency_ln>  (1) 
-1.6960009804265812

>  <r_i_glide_ligand_efficiency_sa>  (1) 
-0.68775551703425608

>  <r_i_glide_lipo>  (1) 
-3.2492946756346424

>  <r_i_glide_metal>  (1) 
-0

>  <r_i_glide_rewards>  (1) 
-2.5135569129349986

>  <r_lp_Energy>  (1) 
35.999558999999998

>  <s_epik_Chemistry_Notes>  (1) 
This compound contains an acetal/aminal-like group ( X-CH(R)-Y where X, Y are N, S, or O) that may be acid/base labile, releasing an aldehyde.

>  <s_epik_cmdline>  (1) 
J2VwaWtfcHl0aG9uJywgJy1waHQnLCAnMS4wJywgJy1waCcsICc3LjQnLCAnLXRuJywgJzgnLCAnLW1hJywgJzUwMCcsICctaW1hZScsICc8aW5maWxlLm1hZT4nLCAnLW9tYWUnLCAnPG91dGZpbGUubWFlPic=

>  <s_epik_input>  (1) 
RmMxYyhGKVtjSF1bY0hdYyhbY0hdMSlbQ0gyXVtDQEhdKFtDSDJdW0NASF0yW09IXSlOKFtDSDJdW05IXVtDSF09TylbQ0gyXVtDSDJdW0NAQEhdMltOSF1bQ0gyXVxDKD1DKFxbQ0gzXSlbQ0gyXVtPSF0pQyg9TylbTkhdQyg9QzNbQ0gzXSlbQ0gyXVtDSDJdW0NIXT1DM0Y=

>  <s_glide_docking_method>  (1) 
confgen

>  <s_i_glide_gridfile>  (1) 
gpcr_5ht2c_6bqh_protein_autoprepared_prepared

>  <s_lp_Force_Field>  (1) 
S-OPLS

>  <s_lp_Variant>  (1) 
DiffSBDD_77_num_sample_100-2

>  <s_m_source_file>  (1) 
generated__ligand_DiffSBDD_2026-05-06_prepared.sdf

>  <GenAI_Model>  (1) 
DiffSBDD

>  <Protein>  (1) 
GPCR_5HT2C

$$$$
DiffSBDD_15_num_sample_100
     RDKit          3D

  0  0  0  0  0  0  0  0  0  0999 V3000
M  V30 BEGIN CTAB
M  V30 COUNTS 74 79 0 0 1
M  V30 BEGIN ATOM
M  V30 1 C 38.295773 30.026270 57.727895 0
M  V30 2 S 37.467414 27.628305 54.393085 0
M  V30 3 N 41.867895 33.677405 63.601016 0
M  V30 4 C 40.754628 30.359673 49.651859 0
M  V30 5 C 38.516568 35.292536 61.946844 0
M  V30 6 C 40.694480 31.595890 65.441941 0
M  V30 7 S 39.979901 30.544382 62.154969 0
M  V30 8 S 40.179497 35.673988 62.589478 0
M  V30 9 O 38.858272 30.821308 63.053469 0
M  V30 10 C 39.691419 29.907752 52.346207 0
M  V30 11 C 39.348915 28.985338 51.458446 0
M  V30 12 C 38.122588 28.299948 55.955320 0 CFG=1
M  V30 13 C 41.853185 31.311081 64.488428 0 CFG=1
M  V30 14 N 39.096584 29.666097 53.541536 0
M  V30 15 C 38.410237 35.412343 60.426659 0
M  V30 16 C 36.995743 35.119941 59.909709 0
M  V30 17 C 42.002843 32.223959 63.257545 0 CFG=1
M  V30 18 C 40.140023 27.486681 58.351956 0
M  V30 19 S 39.850145 28.821273 49.853533 0
M  V30 20 C 40.603176 31.021926 52.126696 0
M  V30 21 N 40.451626 33.113958 61.962758 0
M  V30 22 C 38.255168 28.904742 58.798654 0 CFG=2
M  V30 23 N 43.107257 31.222565 65.221124 0
M  V30 24 O 37.467509 30.705885 55.610484 0
M  V30 25 C 41.519698 30.594072 50.927835 0
M  V30 26 C 39.285856 30.534372 60.475079 0
M  V30 27 C 37.481293 29.622905 56.503718 0 CFG=2
M  V30 28 N 41.024260 31.920792 62.136364 0
M  V30 29 C 39.250047 29.106158 59.930848 0 CFG=2
M  V30 30 C 42.621212 30.014721 64.588255 0
M  V30 31 C 40.947871 34.032081 62.791272 0
M  V30 32 C 40.573652 28.538943 59.380586 0
M  V30 33 O 40.817366 29.350186 62.335875 0
M  V30 34 C 38.411220 28.553034 53.280622 0
M  V30 35 N 38.666264 27.584188 58.276735 0 CFG=1 CHG=1
M  V30 36 O 38.494894 28.084099 51.998136 0
M  V30 37 C 38.044039 27.184920 57.002579 0
M  V30 38 H 39.321308 30.242024 57.424259 0
M  V30 39 H 37.889674 30.954058 58.137384 0
M  V30 40 H 41.468935 30.226825 48.843366 0
M  V30 41 H 40.085730 31.197034 49.451140 0
M  V30 42 H 38.215246 34.293252 62.253343 0
M  V30 43 H 37.817329 35.983657 62.420312 0
M  V30 44 H 40.114019 30.685582 65.600254 0
M  V30 45 H 41.043481 31.946474 66.415897 0
M  V30 46 H 40.020248 32.349436 65.035662 0
M  V30 47 H 39.184470 28.482414 55.789569 0
M  V30 48 H 38.676922 36.424647 60.137203 0
M  V30 49 H 39.125575 34.745483 59.947603 0
M  V30 50 H 36.937760 35.267123 58.830644 0
M  V30 51 H 36.694325 34.093419 60.127124 0
M  V30 52 H 36.267242 35.787604 60.369037 0
M  V30 53 H 43.000988 32.058891 62.849236 0
M  V30 54 H 40.612757 27.675436 57.388129 0
M  V30 55 H 40.411364 26.475589 58.652721 0
M  V30 56 H 40.032799 31.907186 51.853759 0
M  V30 57 H 41.067532 31.223565 53.082438 0
M  V30 58 H 39.720929 33.269661 61.285472 0
M  V30 59 H 37.237836 28.842556 59.183649 0
M  V30 60 H 43.063409 31.267315 66.229268 0
M  V30 61 H 36.827783 31.335440 55.943394 0
M  V30 62 H 42.017683 29.634220 51.053681 0
M  V30 63 H 42.362505 31.221417 50.751187 0
M  V30 64 H 39.867394 31.202747 59.855467 0
M  V30 65 H 38.282000 30.956486 60.548943 0
M  V30 66 H 36.445713 29.568984 56.833527 0
M  V30 67 H 38.917793 28.454521 60.741888 0
M  V30 68 H 42.235648 29.228281 65.234580 0
M  V30 69 H 43.133170 29.660985 63.694101 0
M  V30 70 H 41.155671 29.319402 58.890785 0
M  V30 71 H 41.204098 28.100573 60.155139 0
M  V30 72 H 38.517542 26.271814 56.638292 0
M  V30 73 H 37.005543 26.928570 57.203488 0
M  V30 74 H 38.339926 26.915580 58.961241 0
M  V30 END ATOM
M  V30 BEGIN BOND
M  V30 1 1 8 5
M  V30 2 2 9 7
M  V30 3 2 11 10
M  V30 4 1 12 2
M  V30 5 1 13 6 CFG=1
M  V30 6 1 14 10
M  V30 7 1 15 5
M  V30 8 1 16 15
M  V30 9 1 17 3
M  V30 10 1 17 13
M  V30 11 1 19 4
M  V30 12 1 19 11
M  V30 13 1 20 10
M  V30 14 1 22 1
M  V30 15 1 23 13
M  V30 16 1 25 4
M  V30 17 1 25 20
M  V30 18 1 26 7
M  V30 19 1 27 1
M  V30 20 1 27 12
M  V30 21 1 27 24
M  V30 22 1 28 7
M  V30 23 1 28 17
M  V30 24 1 28 21
M  V30 25 1 29 22
M  V30 26 1 29 26
M  V30 27 1 30 13
M  V30 28 1 30 23
M  V30 29 2 31 3
M  V30 30 1 31 8
M  V30 31 1 31 21
M  V30 32 1 32 18
M  V30 33 1 32 29
M  V30 34 2 33 7
M  V30 35 1 34 2
M  V30 36 2 34 14
M  V30 37 1 35 18
M  V30 38 1 35 22
M  V30 39 1 36 11
M  V30 40 1 36 34
M  V30 41 1 37 12
M  V30 42 1 37 35
M  V30 43 1 38 1
M  V30 44 1 39 1
M  V30 45 1 40 4
M  V30 46 1 41 4
M  V30 47 1 42 5
M  V30 48 1 43 5
M  V30 49 1 44 6
M  V30 50 1 45 6
M  V30 51 1 46 6
M  V30 52 1 12 47 CFG=3
M  V30 53 1 48 15
M  V30 54 1 49 15
M  V30 55 1 50 16
M  V30 56 1 51 16
M  V30 57 1 52 16
M  V30 58 1 17 53 CFG=3
M  V30 59 1 54 18
M  V30 60 1 55 18
M  V30 61 1 56 20
M  V30 62 1 57 20
M  V30 63 1 58 21
M  V30 64 1 22 59 CFG=1
M  V30 65 1 60 23
M  V30 66 1 61 24
M  V30 67 1 62 25
M  V30 68 1 63 25
M  V30 69 1 64 26
M  V30 70 1 65 26
M  V30 71 1 27 66 CFG=1
M  V30 72 1 29 67 CFG=1
M  V30 73 1 68 30
M  V30 74 1 69 30
M  V30 75 1 70 32
M  V30 76 1 71 32
M  V30 77 1 72 37
M  V30 78 1 73 37
M  V30 79 1 35 74 CFG=1
M  V30 END BOND
M  V30 END CTAB
M  END
>  <i_epik_Tot_Q>  (1) 
1

>  <i_epik_Tot_abs_Q>  (1) 
1

>  <i_i_glide_confnum>  (1) 
340

>  <i_i_glide_lignum>  (1) 
36

>  <i_i_glide_posenum>  (1) 
376

>  <i_i_glide_rotatable_bonds>  (1) 
10

>  <i_lp_mmshare_version>  (1) 
72125

>  <i_m_source_file_index>  (1) 
16

>  <i_f3d_flags>  (1) 
0

>  <num_sample>  (1) 
100

>  <b_lp_Chiralities_Consistent>  (1) 
1

>  <r_epik_Charging_Adjusted_Penalty>  (1) 
0.0082019649409003706

>  <r_epik_Ionization_Penalty>  (1) 
0.015626865898487191

>  <r_epik_Ionization_Penalty_Charging>  (1) 
0.0082019649409003706

>  <r_epik_Ionization_Penalty_Neutral>  (1) 
0.0074249009575868222

>  <r_epik_State_Penalty>  (1) 
-0

>  <r_glide_ring_energy>  (1) 
0

>  <r_i_docking_score>  (1) 
-7.8993860540044709

>  <r_i_glide_ecoul>  (1) 
-2.9990541079124924

>  <r_i_glide_eff_state_penalty>  (1) 
-0

>  <r_i_glide_einternal>  (1) 
11.673645729873193

>  <r_i_glide_emodel>  (1) 
-54.743454295503625

>  <r_i_glide_emodel_strain>  (1) 
2.3027045663847048

>  <r_i_glide_energy>  (1) 
-38.36650378148012

>  <r_i_glide_erotb>  (1) 
0.37349522713264072

>  <r_i_glide_esite>  (1) 
-0.037707646768641842

>  <r_i_glide_evdw>  (1) 
-35.367449673567627

>  <r_i_glide_gscore>  (1) 
-7.8993860540044709

>  <r_i_glide_gscore_strain>  (1) 
0

>  <r_i_glide_hbond>  (1) 
-0.16

>  <r_i_glide_ligand_efficiency>  (1) 
-0.21349692037849921

>  <r_i_glide_ligand_efficiency_ln>  (1) 
-1.7131916472298265

>  <r_i_glide_ligand_efficiency_sa>  (1) 
-0.71141910334435143

>  <r_i_glide_lipo>  (1) 
-4.2435288291123152

>  <r_i_glide_metal>  (1) 
-0

>  <r_i_glide_rewards>  (1) 
-1.6134142053908995

>  <r_lp_Energy>  (1) 
12.858018

>  <r_lp_tautomer_probability>  (1) 
1

>  <s_epik_Chemistry_Notes>  (1) 
This compound has an imine and may undergo hydrolysis. This compound contains an acetal/aminal-like group ( X-CH(R)-Y where X, Y are N, S, or O) that may be acid/base labile, releasing an aldehyde.

>  <s_epik_cmdline>  (1) 
J2VwaWtfcHl0aG9uJywgJy1waHQnLCAnMS4wJywgJy1waCcsICc3LjQnLCAnLXRuJywgJzgnLCAnLW1hJywgJzUwMCcsICctaW1hZScsICc8aW5maWxlLm1hZT4nLCAnLW9tYWUnLCAnPG91dGZpbGUubWFlPic=

>  <s_epik_input>  (1) 
W0NIMl0xW0NIMl1bQ0gyXVNjKGMxMilvYyhuMilTW0NAQEhdKFtDQEBIXShbQ0gyXTMpW09IXSlbQ0gyXU4oW0NASF0zNClbQ0gyXVtDSDJdW0NASF00W0NIMl1TKD1PKSg9TylONVtOSF1DKFNbQ0gyXVtDSDJdW0NIM10pPU5bQ0BASF01W0NAXTYoW0NIM10pW05IXVtDSDJdNg==

>  <s_glide_docking_method>  (1) 
confgen

>  <s_i_glide_gridfile>  (1) 
gpcr_5ht2c_6bqh_protein_autoprepared_prepared

>  <s_lp_Force_Field>  (1) 
S-OPLS

>  <s_lp_Variant>  (1) 
DiffSBDD_15_num_sample_100-3

>  <s_m_source_file>  (1) 
generated__ligand_DiffSBDD_2026-05-06_prepared.sdf

>  <GenAI_Model>  (1) 
DiffSBDD

>  <Protein>  (1) 
GPCR_5HT2C

$$$$
DiffSBDD_23_num_sample_100
     RDKit          3D

  0  0  0  0  0  0  0  0  0  0999 V3000
M  V30 BEGIN CTAB
M  V30 COUNTS 83 87 0 0 1
M  V30 BEGIN ATOM
M  V30 1 C 38.283899 26.735145 55.250663 0
M  V30 2 C 39.530535 31.296466 62.894524 0
M  V30 3 C 41.643752 32.523406 65.692047 0
M  V30 4 O 41.575269 36.015440 63.343156 0
M  V30 5 N 43.542148 30.819744 64.719507 0
M  V30 6 C 38.878852 29.718349 61.069098 0
M  V30 7 C 39.868420 27.059736 58.733218 0
M  V30 8 N 40.723541 31.205309 63.761231 0
M  V30 9 C 41.181616 33.625521 63.555708 0
M  V30 10 C 42.059325 33.756662 66.231601 0
M  V30 11 C 42.374295 27.335723 65.194034 0
M  V30 12 C 43.166936 28.636898 65.172601 0
M  V30 13 C 39.410081 27.485775 57.343516 0 CFG=1
M  V30 14 C 44.345569 28.854994 65.612965 0
M  V30 15 N 38.885455 26.334319 56.550038 0 CFG=2 CHG=1
M  V30 16 C 39.326043 32.145986 60.505908 0
M  V30 17 C 41.047515 35.986090 62.021667 0
M  V30 18 C 41.597527 34.861367 64.101320 0
M  V30 19 C 39.737611 30.955192 61.394722 0 CFG=1
M  V30 20 C 39.880905 30.234531 54.174973 0
M  V30 21 C 42.680086 29.854802 64.635552 0
M  V30 22 C 38.148279 29.353133 58.746184 0
M  V30 23 C 37.523351 28.635338 52.839888 0
M  V30 24 O 37.140656 30.039174 58.909179 0
M  V30 25 C 37.493866 29.530491 54.094007 0
M  V30 26 C 41.217707 32.449951 64.338813 0
M  V30 27 C 41.254018 29.928089 63.984431 0
M  V30 28 C 39.867357 25.234778 56.364726 0
M  V30 29 C 44.814707 30.272269 65.427354 0
M  V30 30 C 38.775531 29.727904 56.321172 0
M  V30 31 C 39.114281 27.797588 54.482474 0 CFG=2
M  V30 32 C 42.038714 34.920782 65.437291 0
M  V30 33 C 40.238609 28.305594 59.532229 0
M  V30 34 C 38.824657 29.299149 54.820789 0 CFG=2
M  V30 35 C 38.733252 27.707575 52.994474 0
M  V30 36 O 40.668408 28.901072 63.650676 0
M  V30 37 N 39.062881 29.151483 59.729562 0
M  V30 38 C 38.400555 28.671909 57.377045 0 CFG=1
M  V30 39 H 38.167793 25.835658 54.645055 0
M  V30 40 H 37.258812 27.067269 55.389573 0
M  V30 41 H 39.062833 32.276438 62.993384 0
M  V30 42 H 38.772666 30.642964 63.332047 0
M  V30 43 H 41.641256 31.641304 66.315183 0
M  V30 44 H 37.845801 30.021791 61.232366 0
M  V30 45 H 39.067415 28.919552 61.784718 0
M  V30 46 H 39.087890 26.492003 59.236170 0
M  V30 47 H 40.744272 26.421365 58.652456 0
M  V30 48 H 40.839262 33.574130 62.538961 0
M  V30 49 H 42.387503 33.811607 67.259074 0
M  V30 50 H 41.386637 27.472559 65.637484 0
M  V30 51 H 42.892485 26.587272 65.793244 0
M  V30 52 H 42.264096 26.930572 64.187145 0
M  V30 53 H 40.322813 27.835794 56.858072 0
M  V30 54 H 44.972277 28.110588 66.082892 0
M  V30 55 H 38.306155 32.466970 60.722374 0
M  V30 56 H 39.352545 31.890057 59.450855 0
M  V30 57 H 39.982238 33.003716 60.638921 0
M  V30 58 H 41.072514 36.990894 61.601720 0
M  V30 59 H 40.006209 35.658837 62.010544 0
M  V30 60 H 41.637467 35.345867 61.364674 0
M  V30 61 H 40.785920 30.724069 61.204182 0
M  V30 62 H 40.862550 30.093187 54.626395 0
M  V30 63 H 39.617952 31.283042 54.324780 0
M  V30 64 H 39.987103 30.100152 53.099460 0
M  V30 65 H 37.628298 29.221269 51.928282 0
M  V30 66 H 36.598762 28.063524 52.756094 0
M  V30 67 H 36.667449 29.239581 54.737429 0
M  V30 68 H 37.342337 30.582994 53.855054 0
M  V30 69 H 40.754361 25.602141 55.850628 0
M  V30 70 H 39.444240 24.424181 55.769511 0
M  V30 71 H 40.168992 24.788902 57.310930 0
M  V30 72 H 45.700830 30.332049 64.795231 0
M  V30 73 H 44.994568 30.766868 66.382830 0
M  V30 74 H 39.752148 30.114737 56.618111 0
M  V30 75 H 38.110690 30.590509 56.408069 0
M  V30 76 H 40.162485 27.555697 54.646091 0
M  V30 77 H 42.354499 35.865293 65.856672 0
M  V30 78 H 40.669349 28.011444 60.490976 0
M  V30 79 H 41.009858 28.880655 59.016237 0
M  V30 80 H 38.517739 26.696901 52.649010 0
M  V30 81 H 39.553291 28.061250 52.369435 0
M  V30 82 H 37.406304 28.299229 57.148359 0
M  V30 83 H 38.126695 25.936113 57.085190 0
M  V30 END ATOM
M  V30 BEGIN BOND
M  V30 1 1 8 2
M  V30 2 1 10 3
M  V30 3 1 12 11
M  V30 4 1 13 7
M  V30 5 2 14 12
M  V30 6 1 15 1
M  V30 7 1 15 13
M  V30 8 1 17 4
M  V30 9 1 18 4
M  V30 10 2 18 9
M  V30 11 1 19 2
M  V30 12 1 19 6
M  V30 13 1 19 16
M  V30 14 2 21 5
M  V30 15 1 21 12
M  V30 16 2 24 22
M  V30 17 1 25 23
M  V30 18 2 26 3
M  V30 19 1 26 8
M  V30 20 1 26 9
M  V30 21 1 27 8
M  V30 22 1 27 21
M  V30 23 1 28 15
M  V30 24 1 29 5
M  V30 25 1 29 14
M  V30 26 1 31 1
M  V30 27 2 32 10
M  V30 28 1 32 18
M  V30 29 1 33 7
M  V30 30 1 34 20 CFG=3
M  V30 31 1 34 25
M  V30 32 1 34 30
M  V30 33 1 34 31
M  V30 34 1 35 23
M  V30 35 1 35 31
M  V30 36 2 36 27
M  V30 37 1 37 6
M  V30 38 1 37 22
M  V30 39 1 37 33
M  V30 40 1 38 13
M  V30 41 1 38 22
M  V30 42 1 38 30
M  V30 43 1 39 1
M  V30 44 1 40 1
M  V30 45 1 41 2
M  V30 46 1 42 2
M  V30 47 1 43 3
M  V30 48 1 44 6
M  V30 49 1 45 6
M  V30 50 1 46 7
M  V30 51 1 47 7
M  V30 52 1 48 9
M  V30 53 1 49 10
M  V30 54 1 50 11
M  V30 55 1 51 11
M  V30 56 1 52 11
M  V30 57 1 13 53 CFG=3
M  V30 58 1 54 14
M  V30 59 1 55 16
M  V30 60 1 56 16
M  V30 61 1 57 16
M  V30 62 1 58 17
M  V30 63 1 59 17
M  V30 64 1 60 17
M  V30 65 1 19 61 CFG=1
M  V30 66 1 62 20
M  V30 67 1 63 20
M  V30 68 1 64 20
M  V30 69 1 65 23
M  V30 70 1 66 23
M  V30 71 1 67 25
M  V30 72 1 68 25
M  V30 73 1 69 28
M  V30 74 1 70 28
M  V30 75 1 71 28
M  V30 76 1 72 29
M  V30 77 1 73 29
M  V30 78 1 74 30
M  V30 79 1 75 30
M  V30 80 1 31 76 CFG=3
M  V30 81 1 77 32
M  V30 82 1 78 33
M  V30 83 1 79 33
M  V30 84 1 80 35
M  V30 85 1 81 35
M  V30 86 1 38 82 CFG=3
M  V30 87 1 15 83 CFG=1
M  V30 END BOND
M  V30 END CTAB
M  END
>  <i_epik_Tot_Q>  (1) 
1

>  <i_epik_Tot_abs_Q>  (1) 
1

>  <i_i_glide_confnum>  (1) 
49

>  <i_i_glide_lignum>  (1) 
59

>  <i_i_glide_posenum>  (1) 
254

>  <i_i_glide_rotatable_bonds>  (1) 
8

>  <i_lp_mmshare_version>  (1) 
72125

>  <i_m_source_file_index>  (1) 
24

>  <i_f3d_flags>  (1) 
0

>  <num_sample>  (1) 
100

>  <b_lp_Chiralities_Consistent>  (1) 
1

>  <r_epik_Charging_Adjusted_Penalty>  (1) 
0.0029773975431382485

>  <r_epik_Ionization_Penalty>  (1) 
0.013183626931022738

>  <r_epik_Ionization_Penalty_Charging>  (1) 
0.0029773975431382485

>  <r_epik_Ionization_Penalty_Neutral>  (1) 
0.010206229387884489

>  <r_epik_State_Penalty>  (1) 
-0

>  <r_glide_ring_energy>  (1) 
0

>  <r_i_docking_score>  (1) 
-7.8989759033157121

>  <r_i_glide_ecoul>  (1) 
2.0827723256566988

>  <r_i_glide_eff_state_penalty>  (1) 
-0

>  <r_i_glide_einternal>  (1) 
8.9648066158929609

>  <r_i_glide_emodel>  (1) 
-61.980416341710168

>  <r_i_glide_emodel_strain>  (1) 
0.1055066828292297

>  <r_i_glide_energy>  (1) 
-48.845728288430152

>  <r_i_glide_erotb>  (1) 
0.5287100460970352

>  <r_i_glide_esite>  (1) 
-0.0056449600928578153

>  <r_i_glide_evdw>  (1) 
-50.92850061408685

>  <r_i_glide_gscore>  (1) 
-7.8989759033157121

>  <r_i_glide_gscore_strain>  (1) 
0

>  <r_i_glide_hbond>  (1) 
0

>  <r_i_glide_ligand_efficiency>  (1) 
-0.20786778692936084

>  <r_i_glide_ligand_efficiency_ln>  (1) 
-1.703251569083893

>  <r_i_glide_ligand_efficiency_sa>  (1) 
-0.69884638752223827

>  <r_i_glide_lipo>  (1) 
-5.2698411716009401

>  <r_i_glide_metal>  (1) 
-0

>  <r_i_glide_rewards>  (1) 
-0.91819063586311123

>  <r_lp_Energy>  (1) 
98.080461999999997

>  <r_lp_tautomer_probability>  (1) 
1

>  <s_epik_Chemistry_Notes>  (1) 
This compound has an imine and may undergo hydrolysis.

>  <s_epik_cmdline>  (1) 
J2VwaWtfcHl0aG9uJywgJy1waHQnLCAnMS4wJywgJy1waCcsICc3LjQnLCAnLXRuJywgJzgnLCAnLW1hJywgJzUwMCcsICctaW1hZScsICc8aW5maWxlLm1hZT4nLCAnLW9tYWUnLCAnPG91dGZpbGUubWFlPic=

>  <s_epik_input>  (1) 
W0NIMl0xW0NIMl1bQ0gyXVtDQEBIXShbQ0BAXTEyW0NIM10pW0NIMl1OKFtDSDNdKVtDQEhdM1tDQEhdKFtDSDJdMilDKD1PKU4oW0NIMl1bQ0gyXTMpW0NIMl1bQ0BASF0oW0NIM10pW0NIMl1OKGMoW2NIXVtjSF1bY0hdNClbY0hdYzRPW0NIM10pQyg9TylDNT1OW0NIMl1bQ0hdPUM1W0NIM10=

>  <s_glide_docking_method>  (1) 
confgen

>  <s_i_glide_gridfile>  (1) 
gpcr_5ht2c_6bqh_protein_autoprepared_prepared

>  <s_lp_Force_Field>  (1) 
S-OPLS

>  <s_lp_Variant>  (1) 
DiffSBDD_23_num_sample_100-2

>  <s_m_source_file>  (1) 
generated__ligand_DiffSBDD_2026-05-06_prepared.sdf

>  <GenAI_Model>  (1) 
DiffSBDD

>  <Protein>  (1) 
GPCR_5HT2C

$$$$
DiffSBDD_24_num_sample_100
     RDKit          3D

  0  0  0  0  0  0  0  0  0  0999 V3000
M  V30 BEGIN CTAB
M  V30 COUNTS 61 63 0 0 1
M  V30 BEGIN ATOM
M  V30 1 C 39.233487 32.074656 55.811563 0
M  V30 2 O 39.284036 34.135505 60.411546 0
M  V30 3 C 36.173221 31.682349 61.201826 0
M  V30 4 C 36.833696 23.801625 55.840096 0
M  V30 5 C 37.050218 25.297894 57.853486 0
M  V30 6 N 37.409278 33.154296 59.610625 0
M  V30 7 C 37.358922 33.998841 58.417956 0
M  V30 8 C 39.016181 29.327464 53.149300 0
M  V30 9 C 38.446816 28.382332 55.378086 0
M  V30 10 N 37.448683 24.950970 56.501187 0
M  V30 11 O 40.973763 32.441634 62.036583 0
M  V30 12 N 37.467410 31.221430 61.681217 0
M  V30 13 C 40.127840 30.317728 51.033001 0
M  V30 14 C 39.885895 31.559105 61.840498 0
M  V30 15 C 38.067764 27.312359 56.207521 0
M  V30 16 C 38.509017 32.255551 61.691062 0 CFG=1
M  V30 17 C 38.651565 29.635402 55.954831 0
M  V30 18 N 38.267404 32.298889 56.872943 0
M  V30 19 C 38.623985 28.190519 53.977926 0
M  V30 20 C 37.840882 26.032287 55.666112 0
M  V30 21 C 39.193599 29.278291 51.629141 0
M  V30 22 C 38.429633 33.252383 60.502327 0
M  V30 23 C 39.236715 30.573529 53.791641 0
M  V30 24 C 38.570657 28.401600 50.823001 0
M  V30 25 C 38.025638 25.831652 54.290058 0
M  V30 26 C 38.439324 26.882713 53.455489 0
M  V30 27 C 36.329052 32.173334 59.765654 0
M  V30 28 C 38.455924 33.621426 57.410076 0
M  V30 29 C 39.040629 30.724120 55.171182 0
M  V30 30 H 39.112695 32.846087 55.050385 0
M  V30 31 H 40.250062 32.149934 56.198016 0
M  V30 32 H 35.791808 32.484336 61.836327 0
M  V30 33 H 35.440788 30.875768 61.239042 0
M  V30 34 H 37.542837 23.269919 55.207013 0
M  V30 35 H 36.475903 23.081591 56.575304 0
M  V30 36 H 35.981211 24.109742 55.233511 0
M  V30 37 H 37.903861 25.652768 58.431806 0
M  V30 38 H 36.267404 26.055516 57.853507 0
M  V30 39 H 36.667405 24.421427 58.357855 0
M  V30 40 H 36.382741 33.937998 57.936026 0
M  V30 41 H 37.467227 35.042689 58.714800 0
M  V30 42 H 40.794849 32.981756 62.791798 0
M  V30 43 H 37.781893 30.467330 61.076630 0
M  V30 44 H 39.706236 31.321123 51.077684 0
M  V30 45 H 41.067403 30.311809 51.563569 0
M  V30 46 H 40.335579 30.110340 49.982453 0
M  V30 47 H 40.099005 30.951897 60.959683 0
M  V30 48 H 39.861723 30.875016 62.690522 0
M  V30 49 H 37.943289 27.486714 57.264004 0
M  V30 50 H 38.351824 32.868402 62.578974 0
M  V30 51 H 38.506634 29.763825 57.018266 0
M  V30 52 H 37.304767 32.181202 56.551988 0
M  V30 53 H 39.527196 31.433504 53.210314 0
M  V30 54 H 38.758601 28.419299 49.762484 0
M  V30 55 H 37.867400 27.684951 51.175712 0
M  V30 56 H 37.867404 24.859046 53.865420 0
M  V30 57 H 38.626589 26.659461 52.440693 0
M  V30 58 H 35.381446 32.603603 59.438517 0
M  V30 59 H 36.530584 31.333759 59.097767 0
M  V30 60 H 38.434337 34.342514 56.591703 0
M  V30 61 H 39.443590 33.621434 57.871154 0
M  V30 END ATOM
M  V30 BEGIN BOND
M  V30 1 1 7 6
M  V30 2 1 10 4
M  V30 3 1 10 5
M  V30 4 1 12 3
M  V30 5 1 14 11
M  V30 6 1 15 9
M  V30 7 1 16 12
M  V30 8 1 16 14
M  V30 9 2 17 9
M  V30 10 1 18 1
M  V30 11 2 19 8
M  V30 12 1 19 9
M  V30 13 1 20 10
M  V30 14 2 20 15
M  V30 15 1 21 8
M  V30 16 1 21 13
M  V30 17 2 22 2
M  V30 18 1 22 6
M  V30 19 1 22 16
M  V30 20 1 23 8
M  V30 21 2 24 21
M  V30 22 1 25 20
M  V30 23 1 26 19
M  V30 24 2 26 25
M  V30 25 1 27 3
M  V30 26 1 27 6
M  V30 27 1 28 7
M  V30 28 1 28 18
M  V30 29 1 29 1
M  V30 30 1 29 17
M  V30 31 2 29 23
M  V30 32 1 30 1
M  V30 33 1 31 1
M  V30 34 1 32 3
M  V30 35 1 33 3
M  V30 36 1 34 4
M  V30 37 1 35 4
M  V30 38 1 36 4
M  V30 39 1 37 5
M  V30 40 1 38 5
M  V30 41 1 39 5
M  V30 42 1 40 7
M  V30 43 1 41 7
M  V30 44 1 42 11
M  V30 45 1 43 12
M  V30 46 1 44 13
M  V30 47 1 45 13
M  V30 48 1 46 13
M  V30 49 1 47 14
M  V30 50 1 48 14
M  V30 51 1 49 15
M  V30 52 1 16 50 CFG=1
M  V30 53 1 51 17
M  V30 54 1 52 18
M  V30 55 1 53 23
M  V30 56 1 54 24
M  V30 57 1 55 24
M  V30 58 1 56 25
M  V30 59 1 57 26
M  V30 60 1 58 27
M  V30 61 1 59 27
M  V30 62 1 60 28
M  V30 63 1 61 28
M  V30 END BOND
M  V30 END CTAB
M  END
>  <i_epik_Tot_Q>  (1) 
0

>  <i_epik_Tot_abs_Q>  (1) 
0

>  <i_i_glide_confnum>  (1) 
473

>  <i_i_glide_lignum>  (1) 
64

>  <i_i_glide_posenum>  (1) 
176

>  <i_i_glide_rotatable_bonds>  (1) 
9

>  <i_lp_mmshare_version>  (1) 
72125

>  <i_m_source_file_index>  (1) 
25

>  <i_f3d_flags>  (1) 
0

>  <num_sample>  (1) 
100

>  <b_lp_Chiralities_Consistent>  (1) 
1

>  <r_epik_Charging_Adjusted_Penalty>  (1) 
1.3040267678810453

>  <r_epik_Ionization_Penalty>  (1) 
1.4057066568095866

>  <r_epik_Ionization_Penalty_Charging>  (1) 
0

>  <r_epik_Ionization_Penalty_Neutral>  (1) 
1.4057066568095866

>  <r_epik_State_Penalty>  (1) 
1.3040267678810453

>  <r_glide_ring_energy>  (1) 
0

>  <r_i_docking_score>  (1) 
-7.8854161056639276

>  <r_i_glide_ecoul>  (1) 
-5.9277711737012115

>  <r_i_glide_eff_state_penalty>  (1) 
1.3040267678810453

>  <r_i_glide_einternal>  (1) 
15.043523846562337

>  <r_i_glide_emodel>  (1) 
-66.596466641162309

>  <r_i_glide_emodel_strain>  (1) 
0.022224939818457301

>  <r_i_glide_energy>  (1) 
-46.553179486474399

>  <r_i_glide_erotb>  (1) 
0.87102097732651396

>  <r_i_glide_esite>  (1) 
-0.036359158938098192

>  <r_i_glide_evdw>  (1) 
-40.625408312773189

>  <r_i_glide_gscore>  (1) 
-9.1894428735449729

>  <r_i_glide_gscore_strain>  (1) 
0

>  <r_i_glide_hbond>  (1) 
-0.45599999999999996

>  <r_i_glide_ligand_efficiency>  (1) 
-0.27191090019530784

>  <r_i_glide_ligand_efficiency_ln>  (1) 
-1.8055603312973532

>  <r_i_glide_ligand_efficiency_sa>  (1) 
-0.83539643375742956

>  <r_i_glide_lipo>  (1) 
-3.9801061825267419

>  <r_i_glide_metal>  (1) 
-0

>  <r_i_glide_rewards>  (1) 
-2.6675624177128072

>  <r_lp_Energy>  (1) 
67.58931299999999

>  <s_epik_cmdline>  (1) 
J2VwaWtfcHl0aG9uJywgJy1waHQnLCAnMS4wJywgJy1waCcsICc3LjQnLCAnLXRuJywgJzgnLCAnLW1hJywgJzUwMCcsICctaW1hZScsICc8aW5maWxlLm1hZT4nLCAnLW9tYWUnLCAnPG91dGZpbGUubWFlPic=

>  <s_epik_input>  (1) 
W0NIMl0xW0NIMl1bTkhdW0NAQEhdKFtDSDJdW09IXSlDKD1PKU4xW0NIMl1bQ0gyXVtOSF1bQ0gyXWMoW2NIXTIpW2NIXWMoQyhbQ0gzXSk9W0NIMl0pYyhjMjMpW2NIXVtjSF1jKFtjSF0zKU4oW0NIM10pW0NIM10=

>  <s_glide_docking_method>  (1) 
confgen

>  <s_i_glide_gridfile>  (1) 
gpcr_5ht2c_6bqh_protein_autoprepared_prepared

>  <s_lp_Force_Field>  (1) 
S-OPLS

>  <s_lp_Variant>  (1) 
DiffSBDD_24_num_sample_100-3

>  <s_m_source_file>  (1) 
generated__ligand_DiffSBDD_2026-05-06_prepared.sdf

>  <GenAI_Model>  (1) 
DiffSBDD

>  <Protein>  (1) 
GPCR_5HT2C

$$$$
DiffSBDD_80_num_sample_100
     RDKit          3D

  0  0  0  0  0  0  0  0  0  0999 V3000
M  V30 BEGIN CTAB
M  V30 COUNTS 73 76 0 0 1
M  V30 BEGIN ATOM
M  V30 1 C 40.433848 27.916111 59.684281 0
M  V30 2 C 39.199726 31.194416 60.818384 0
M  V30 3 N 39.098241 32.670936 60.793644 0 CFG=1 CHG=1
M  V30 4 O 39.272130 29.105309 56.278071 0
M  V30 5 O 38.667426 31.490103 57.938063 0
M  V30 6 O 40.667288 28.532535 60.933539 0
M  V30 7 C 39.163845 35.500089 61.615705 0 CFG=2
M  V30 8 C 37.814198 34.762499 61.344451 0 CFG=1
M  V30 9 C 39.065813 28.206817 51.453397 0
M  V30 10 C 38.588582 26.979980 55.581787 0
M  V30 11 O 39.680865 31.021987 54.494695 0
M  V30 12 C 39.484494 30.092321 53.513087 0
M  V30 13 O 34.963669 32.627426 60.240156 0
M  V30 14 C 38.688747 27.896032 52.773671 0
M  V30 15 C 36.607780 33.997669 59.151150 0
M  V30 16 C 39.867401 30.389935 52.188383 0
M  V30 17 O 39.405738 25.748971 57.484130 0
M  V30 18 C 40.327839 34.814884 60.878035 0
M  V30 19 O 40.010312 29.752129 49.879888 0
M  V30 20 C 37.148979 35.144755 60.000009 0
M  V30 21 C 39.655435 29.450487 51.161373 0
M  V30 22 C 39.710638 28.177564 57.264538 0 CFG=1
M  V30 23 C 38.070907 30.484704 60.083236 0 CFG=2
M  V30 24 C 39.743736 28.839790 58.665285 0 CFG=1
M  V30 25 C 38.001494 33.238184 61.612256 0
M  V30 26 C 38.795092 26.960027 57.080305 0 CFG=1
M  V30 27 C 35.181351 33.621493 59.549465 0
M  V30 28 C 38.360887 29.331935 59.120456 0 CFG=2
M  V30 29 C 37.041528 36.423952 59.595207 0
M  V30 30 C 40.266662 36.518895 63.484876 0
M  V30 31 C 37.773507 30.622357 58.602095 0 CFG=2
M  V30 32 C 38.491243 28.478575 55.256038 0 CFG=2
M  V30 33 C 38.900208 28.831892 53.815186 0
M  V30 34 C 40.374475 33.308821 61.180701 0
M  V30 35 O 39.435526 35.468022 63.011957 0
M  V30 36 H 39.853370 27.010184 59.836933 0
M  V30 37 H 41.406414 27.621227 59.290122 0
M  V30 38 H 39.246465 30.830474 61.846008 0
M  V30 39 H 40.140817 30.921814 60.350999 0
M  V30 40 H 38.751102 31.184925 57.042026 0
M  V30 41 H 41.174447 27.936426 61.467227 0
M  V30 42 H 39.101705 36.542768 61.308546 0
M  V30 43 H 37.099233 35.135261 62.078559 0
M  V30 44 H 38.900511 27.487845 50.663144 0
M  V30 45 H 39.370538 29.444535 49.251128 0
M  V30 46 H 37.717961 26.409911 55.255993 0
M  V30 47 H 39.471976 26.556125 55.099563 0
M  V30 48 H 40.040415 31.832025 54.166228 0
M  V30 49 H 38.237420 26.939044 52.987566 0
M  V30 50 H 36.573499 34.321419 58.111535 0
M  V30 51 H 37.250264 33.127528 59.162461 0
M  V30 52 H 40.314661 31.345930 51.957525 0
M  V30 53 H 38.844383 25.029320 57.238466 0
M  V30 54 H 41.281649 35.276428 61.132884 0
M  V30 55 H 40.211517 34.958401 59.809192 0
M  V30 56 H 40.726404 27.899736 56.975307 0
M  V30 57 H 37.174204 30.393292 60.691875 0
M  V30 58 H 40.397340 29.697772 58.550587 0
M  V30 59 H 37.077816 32.685606 61.476132 0
M  V30 60 H 38.267380 33.076537 62.653528 0
M  V30 61 H 37.833244 27.082959 57.575878 0
M  V30 62 H 34.398708 34.286107 59.184007 0
M  V30 63 H 37.658091 28.515561 59.217358 0
M  V30 64 H 36.572027 36.669475 58.653601 0
M  V30 65 H 37.417252 37.237440 60.196687 0
M  V30 66 H 40.415773 36.404860 64.558802 0
M  V30 67 H 41.249947 36.512481 63.014611 0
M  V30 68 H 39.807092 37.493775 63.316506 0
M  V30 69 H 36.743058 30.650412 58.253487 0
M  V30 70 H 37.466661 28.816144 55.403272 0
M  V30 71 H 40.569139 33.141992 62.242044 0
M  V30 72 H 41.190634 32.821436 60.653655 0
M  V30 73 H 38.918371 32.905210 59.824792 0
M  V30 END ATOM
M  V30 BEGIN BOND
M  V30 1 1 3 2
M  V30 2 1 6 1
M  V30 3 1 8 7
M  V30 4 1 12 11
M  V30 5 2 14 9
M  V30 6 1 16 12
M  V30 7 1 18 7
M  V30 8 1 20 8
M  V30 9 1 20 15
M  V30 10 1 21 9
M  V30 11 2 21 16
M  V30 12 1 21 19
M  V30 13 1 22 4
M  V30 14 1 23 2
M  V30 15 1 24 1
M  V30 16 1 24 22
M  V30 17 1 25 3
M  V30 18 1 25 8
M  V30 19 1 26 10
M  V30 20 1 26 17
M  V30 21 1 26 22
M  V30 22 2 27 13
M  V30 23 1 27 15
M  V30 24 1 28 23
M  V30 25 1 28 24
M  V30 26 2 29 20
M  V30 27 1 31 5
M  V30 28 1 31 23
M  V30 29 1 31 28
M  V30 30 1 32 4
M  V30 31 1 32 10
M  V30 32 2 33 12
M  V30 33 1 33 14
M  V30 34 1 33 32
M  V30 35 1 34 3
M  V30 36 1 34 18
M  V30 37 1 35 7
M  V30 38 1 35 30
M  V30 39 1 36 1
M  V30 40 1 37 1
M  V30 41 1 38 2
M  V30 42 1 39 2
M  V30 43 1 40 5
M  V30 44 1 41 6
M  V30 45 1 7 42 CFG=3
M  V30 46 1 8 43 CFG=1
M  V30 47 1 44 9
M  V30 48 1 45 19
M  V30 49 1 46 10
M  V30 50 1 47 10
M  V30 51 1 48 11
M  V30 52 1 49 14
M  V30 53 1 50 15
M  V30 54 1 51 15
M  V30 55 1 52 16
M  V30 56 1 53 17
M  V30 57 1 54 18
M  V30 58 1 55 18
M  V30 59 1 22 56 CFG=3
M  V30 60 1 23 57 CFG=1
M  V30 61 1 24 58 CFG=3
M  V30 62 1 59 25
M  V30 63 1 60 25
M  V30 64 1 26 61 CFG=1
M  V30 65 1 62 27
M  V30 66 1 28 63 CFG=1
M  V30 67 1 64 29
M  V30 68 1 65 29
M  V30 69 1 66 30
M  V30 70 1 67 30
M  V30 71 1 68 30
M  V30 72 1 31 69 CFG=1
M  V30 73 1 32 70 CFG=1
M  V30 74 1 71 34
M  V30 75 1 72 34
M  V30 76 1 3 73 CFG=3
M  V30 END BOND
M  V30 END CTAB
M  END
>  <i_epik_Tot_Q>  (1) 
1

>  <i_epik_Tot_abs_Q>  (1) 
1

>  <i_i_glide_confnum>  (1) 
1840

>  <i_i_glide_lignum>  (1) 
208

>  <i_i_glide_posenum>  (1) 
169

>  <i_i_glide_rotatable_bonds>  (1) 
15

>  <i_lp_mmshare_version>  (1) 
72125

>  <i_m_source_file_index>  (1) 
81

>  <i_f3d_flags>  (1) 
0

>  <num_sample>  (1) 
100

>  <b_lp_Chiralities_Consistent>  (1) 
1

>  <r_epik_Charging_Adjusted_Penalty>  (1) 
0.034071705691259377

>  <r_epik_Ionization_Penalty>  (1) 
0.043305258844254187

>  <r_epik_Ionization_Penalty_Charging>  (1) 
0.034071705691259377

>  <r_epik_Ionization_Penalty_Neutral>  (1) 
0.009233553152994808

>  <r_epik_State_Penalty>  (1) 
-0

>  <r_glide_ring_energy>  (1) 
0

>  <r_i_docking_score>  (1) 
-7.8798285101362397

>  <r_i_glide_ecoul>  (1) 
-4.7202533570360492

>  <r_i_glide_eff_state_penalty>  (1) 
-0

>  <r_i_glide_einternal>  (1) 
14.945178890035198

>  <r_i_glide_emodel>  (1) 
-67.188649187087435

>  <r_i_glide_emodel_strain>  (1) 
1.745504660203153

>  <r_i_glide_energy>  (1) 
-52.714187153851306

>  <r_i_glide_erotb>  (1) 
0.67144220787932085

>  <r_i_glide_esite>  (1) 
-0.025149706868434353

>  <r_i_glide_evdw>  (1) 
-47.993933796815256

>  <r_i_glide_gscore>  (1) 
-7.8798285101362397

>  <r_i_glide_gscore_strain>  (1) 
0

>  <r_i_glide_hbond>  (1) 
-0.19501989942352707

>  <r_i_glide_ligand_efficiency>  (1) 
-0.22513795743246398

>  <r_i_glide_ligand_efficiency_ln>  (1) 
-1.7297972413462204

>  <r_i_glide_ligand_efficiency_sa>  (1) 
-0.73644118770200584

>  <r_i_glide_lipo>  (1) 
-4.3739546775886389

>  <r_i_glide_metal>  (1) 
-0

>  <r_i_glide_rewards>  (1) 
-0.84941174073878944

>  <r_lp_Energy>  (1) 
34.743352000000002

>  <r_lp_tautomer_probability>  (1) 
1

>  <s_epik_cmdline>  (1) 
J2VwaWtfcHl0aG9uJywgJy1waHQnLCAnMS4wJywgJy1waCcsICc3LjQnLCAnLXRuJywgJzgnLCAnLW1hJywgJzUwMCcsICctaW1hZScsICc8aW5maWxlLm1hZT4nLCAnLW9tYWUnLCAnPG91dGZpbGUubWFlPic=

>  <s_epik_input>  (1) 
Tz1bQ0hdW0NIMl1DKD1bQ0gyXSlbQ0BASF0oW0NASF0oW0NIMl1bQ0gyXTEpT1tDSDNdKVtDSDJdTjFbQ0gyXVtDQEBIXTJbQ0BASF0oW0NAQEhdMltPSF0pW0NAQEhdKFtDSDJdW09IXSlbQ0BASF0zT1tDQEhdKFtDSDJdW0NASF0zW09IXSlDND1bQ0hdW0NIMl1DKD1PKVtDSF09QzRbT0hd

>  <s_glide_docking_method>  (1) 
confgen

>  <s_i_glide_gridfile>  (1) 
gpcr_5ht2c_6bqh_protein_autoprepared_prepared

>  <s_lp_Force_Field>  (1) 
S-OPLS

>  <s_lp_Variant>  (1) 
DiffSBDD_80_num_sample_100-4

>  <s_m_source_file>  (1) 
generated__ligand_DiffSBDD_2026-05-06_prepared.sdf

>  <GenAI_Model>  (1) 
DiffSBDD

>  <Protein>  (1) 
GPCR_5HT2C

$$$$
DiffSBDD_14_num_sample_100
     RDKit          3D

  0  0  0  0  0  0  0  0  0  0999 V3000
M  V30 BEGIN CTAB
M  V30 COUNTS 76 78 0 0 1
M  V30 BEGIN ATOM
M  V30 1 C 38.363092 25.424927 54.652837 0
M  V30 2 C 38.356004 26.943005 54.791455 0 CFG=1
M  V30 3 C 38.491109 33.382672 58.760152 0
M  V30 4 C 38.081748 26.660725 57.274718 0
M  V30 5 C 38.820174 27.427237 56.165574 0 CFG=2
M  V30 6 C 37.467176 24.470149 58.252260 0
M  V30 7 O 41.158596 36.021116 63.907395 0
M  V30 8 C 39.467211 28.604254 50.344504 0
M  V30 9 C 37.085903 35.964986 61.188290 0
M  V30 10 C 39.999339 29.970520 52.186414 0
M  V30 11 C 38.199671 25.140864 57.112311 0 CFG=1
M  V30 12 O 37.185571 29.359535 58.044673 0
M  V30 13 O 40.267332 29.665427 49.848975 0
M  V30 14 N 40.448061 35.523637 62.799591 0
M  V30 15 C 38.666193 31.139263 57.397526 0
M  V30 16 O 38.976399 37.221444 63.046528 0
M  V30 17 C 38.634796 28.958684 56.185641 0
M  V30 18 N 37.056391 31.957360 59.039681 0 CHG=1
M  V30 19 O 39.273737 27.509160 53.876976 0
M  V30 20 C 40.487935 30.616587 50.887737 0
M  V30 21 C 38.752981 27.757582 52.591552 0
M  V30 22 C 39.364093 36.226344 62.438146 0
M  V30 23 C 37.271474 33.242083 59.673579 0 CFG=2
M  V30 24 C 36.070830 34.161750 59.520133 0 CFG=2
M  V30 25 C 38.614762 35.729168 61.201634 0
M  V30 26 C 38.468867 31.867044 58.705454 0 CFG=2
M  V30 27 C 36.412450 35.642823 59.826961 0
M  V30 28 C 39.820907 28.515367 51.802467 0 CFG=1
M  V30 29 C 38.487901 29.625608 57.548476 0 CFG=2
M  V30 30 C 34.864614 33.621475 60.313390 0
M  V30 31 C 37.622255 24.705468 55.769214 0
M  V30 32 H 39.387992 25.055867 54.596452 0
M  V30 33 H 37.842452 25.221431 53.729583 0
M  V30 34 H 37.339558 27.299989 54.613111 0
M  V30 35 H 38.261420 33.852786 57.800424 0
M  V30 36 H 39.396572 33.790793 59.207356 0
M  V30 37 H 38.480577 26.949145 58.247895 0
M  V30 38 H 37.026043 26.925892 57.274187 0
M  V30 39 H 39.884120 27.207075 56.279653 0
M  V30 40 H 36.423012 24.784337 58.253447 0
M  V30 41 H 37.529526 23.383068 58.209856 0
M  V30 42 H 37.924271 24.821375 59.161288 0
M  V30 43 H 40.798593 36.891574 64.035714 0
M  V30 44 H 39.661250 27.657522 49.853764 0
M  V30 45 H 38.410389 28.821473 50.253779 0
M  V30 46 H 36.606090 35.413250 61.996119 0
M  V30 47 H 36.901154 37.019255 61.402509 0
M  V30 48 H 39.067353 30.420988 52.497655 0
M  V30 49 H 40.667069 30.106456 53.030862 0
M  V30 50 H 39.251938 24.853854 57.155336 0
M  V30 51 H 36.554861 29.581955 57.372176 0
M  V30 52 H 40.892411 34.715139 62.390994 0
M  V30 53 H 37.988307 31.531124 56.635646 0
M  V30 54 H 39.671473 31.340752 57.030913 0
M  V30 55 H 37.774543 29.248057 55.581372 0
M  V30 56 H 39.493431 29.389238 55.669867 0
M  V30 57 H 36.740944 31.214423 59.646228 0
M  V30 58 H 41.552168 30.839311 50.932041 0
M  V30 59 H 39.949517 31.541874 50.681922 0
M  V30 60 H 38.517301 26.819902 52.092512 0
M  V30 61 H 37.830030 28.338772 52.640437 0
M  V30 62 H 37.539832 33.051201 60.713913 0
M  V30 63 H 35.770567 34.142228 58.469886 0
M  V30 64 H 39.064851 36.186441 60.323573 0
M  V30 65 H 38.835554 34.671215 61.145729 0
M  V30 66 H 39.031158 31.432879 59.535873 0
M  V30 67 H 35.496254 36.223386 59.733800 0
M  V30 68 H 37.049872 36.025746 59.028926 0
M  V30 69 H 40.785621 28.021562 51.853610 0
M  V30 70 H 39.230387 29.236570 58.246156 0
M  V30 71 H 34.934820 33.856106 61.375660 0
M  V30 72 H 33.929751 34.022202 59.924712 0
M  V30 73 H 34.769710 32.539878 60.227569 0
M  V30 74 H 37.716938 23.626657 55.636746 0
M  V30 75 H 36.557115 24.935943 55.717723 0
M  V30 76 H 36.483832 32.022613 58.191421 0
M  V30 END ATOM
M  V30 BEGIN BOND
M  V30 1 1 2 1
M  V30 2 1 5 2
M  V30 3 1 5 4
M  V30 4 1 11 4
M  V30 5 1 11 6
M  V30 6 1 13 8
M  V30 7 1 14 7
M  V30 8 1 17 5
M  V30 9 1 19 2
M  V30 10 1 20 10
M  V30 11 1 20 13
M  V30 12 1 21 19
M  V30 13 1 22 14
M  V30 14 2 22 16
M  V30 15 1 23 3
M  V30 16 1 23 18
M  V30 17 1 24 23
M  V30 18 1 25 9
M  V30 19 1 25 22
M  V30 20 1 26 3
M  V30 21 1 26 15
M  V30 22 1 26 18
M  V30 23 1 27 9
M  V30 24 1 27 24
M  V30 25 1 28 8
M  V30 26 1 28 10
M  V30 27 1 28 21
M  V30 28 1 29 12
M  V30 29 1 29 15
M  V30 30 1 29 17
M  V30 31 1 30 24
M  V30 32 1 31 1
M  V30 33 1 31 11
M  V30 34 1 32 1
M  V30 35 1 33 1
M  V30 36 1 2 34 CFG=3
M  V30 37 1 35 3
M  V30 38 1 36 3
M  V30 39 1 37 4
M  V30 40 1 38 4
M  V30 41 1 5 39 CFG=1
M  V30 42 1 40 6
M  V30 43 1 41 6
M  V30 44 1 42 6
M  V30 45 1 43 7
M  V30 46 1 44 8
M  V30 47 1 45 8
M  V30 48 1 46 9
M  V30 49 1 47 9
M  V30 50 1 48 10
M  V30 51 1 49 10
M  V30 52 1 11 50 CFG=3
M  V30 53 1 51 12
M  V30 54 1 52 14
M  V30 55 1 53 15
M  V30 56 1 54 15
M  V30 57 1 55 17
M  V30 58 1 56 17
M  V30 59 1 57 18
M  V30 60 1 58 20
M  V30 61 1 59 20
M  V30 62 1 60 21
M  V30 63 1 61 21
M  V30 64 1 23 62 CFG=1
M  V30 65 1 24 63 CFG=3
M  V30 66 1 64 25
M  V30 67 1 65 25
M  V30 68 1 26 66 CFG=1
M  V30 69 1 67 27
M  V30 70 1 68 27
M  V30 71 1 28 69 CFG=3
M  V30 72 1 29 70 CFG=1
M  V30 73 1 71 30
M  V30 74 1 72 30
M  V30 75 1 73 30
M  V30 76 1 74 31
M  V30 77 1 75 31
M  V30 78 1 76 18
M  V30 END BOND
M  V30 END CTAB
M  END
>  <i_epik_Tot_Q>  (1) 
1

>  <i_epik_Tot_abs_Q>  (1) 
1

>  <i_i_glide_confnum>  (1) 
2823

>  <i_i_glide_lignum>  (1) 
32

>  <i_i_glide_posenum>  (1) 
199

>  <i_i_glide_rotatable_bonds>  (1) 
15

>  <i_lp_mmshare_version>  (1) 
72125

>  <i_m_source_file_index>  (1) 
15

>  <i_f3d_flags>  (1) 
0

>  <num_sample>  (1) 
100

>  <b_lp_Chiralities_Consistent>  (1) 
1

>  <r_epik_Charging_Adjusted_Penalty>  (1) 
0.00011085431656654283

>  <r_epik_Ionization_Penalty>  (1) 
0.0093428253379992804

>  <r_epik_Ionization_Penalty_Charging>  (1) 
0.00011085431656654283

>  <r_epik_Ionization_Penalty_Neutral>  (1) 
0.0092319710214327378

>  <r_epik_State_Penalty>  (1) 
-0

>  <r_glide_ring_energy>  (1) 
0

>  <r_i_docking_score>  (1) 
-7.8674198758556164

>  <r_i_glide_ecoul>  (1) 
-7.3332536201217833

>  <r_i_glide_eff_state_penalty>  (1) 
-0

>  <r_i_glide_einternal>  (1) 
19.06688182653572

>  <r_i_glide_emodel>  (1) 
-61.925487710715068

>  <r_i_glide_emodel_strain>  (1) 
1.5599743883864505

>  <r_i_glide_energy>  (1) 
-46.296717294564274

>  <r_i_glide_erotb>  (1) 
1.3314850251941783

>  <r_i_glide_esite>  (1) 
-0.10000000000000001

>  <r_i_glide_evdw>  (1) 
-38.963463674442494

>  <r_i_glide_gscore>  (1) 
-7.8674198758556164

>  <r_i_glide_gscore_strain>  (1) 
0

>  <r_i_glide_hbond>  (1) 
-0.32762620116053259

>  <r_i_glide_ligand_efficiency>  (1) 
-0.25378773793082632

>  <r_i_glide_ligand_efficiency_ln>  (1) 
-1.7743442894687254

>  <r_i_glide_ligand_efficiency_sa>  (1) 
-0.79724388975007521

>  <r_i_glide_lipo>  (1) 
-4.210543708743395

>  <r_i_glide_metal>  (1) 
-0

>  <r_i_glide_rewards>  (1) 
-1.5125737644054755

>  <r_lp_Energy>  (1) 
22.97654

>  <r_lp_tautomer_probability>  (1) 
1

>  <s_epik_Chemistry_Notes>  (1) 
This compound has a N-S or N-O group and may undergo hydrolysis at high or low pH.

>  <s_epik_cmdline>  (1) 
J2VwaWtfcHl0aG9uJywgJy1waHQnLCAnMS4wJywgJy1waCcsICc3LjQnLCAnLXRuJywgJzgnLCAnLW1hJywgJzUwMCcsICctaW1hZScsICc8aW5maWxlLm1hZT4nLCAnLW9tYWUnLCAnPG91dGZpbGUubWFlPic=

>  <s_epik_input>  (1) 
W0NIMl0xW0NIMl1PW0NIMl1bQ0BASF0xW0NIMl1PW0NASF0yW0NIMl1bQ0gyXVtDQEhdKFtDSDNdKVtDSDJdW0NAQEhdMltDSDJdW0NASF0oW09IXSlbQ0gyXVtDQEhdKFtOSF0zKVtDSDJdW0NASF0zW0NAQEhdKFtDSDNdKVtDSDJdW0NIMl1bQ0gyXUMoPU8pW05IXVtPSF0=

>  <s_glide_docking_method>  (1) 
confgen

>  <s_i_glide_gridfile>  (1) 
gpcr_5ht2c_6bqh_protein_autoprepared_prepared

>  <s_lp_Force_Field>  (1) 
S-OPLS

>  <s_lp_Variant>  (1) 
DiffSBDD_14_num_sample_100-1

>  <s_m_source_file>  (1) 
generated__ligand_DiffSBDD_2026-05-06_prepared.sdf

>  <GenAI_Model>  (1) 
DiffSBDD

>  <Protein>  (1) 
GPCR_5HT2C

$$$$
DiffSBDD_84_num_sample_100
     RDKit          3D

  0  0  0  0  0  0  0  0  0  0999 V3000
M  V30 BEGIN CTAB
M  V30 COUNTS 48 50 0 0 1
M  V30 BEGIN ATOM
M  V30 1 C 39.619438 29.846429 52.499113 0
M  V30 2 C 39.835594 28.464892 61.058126 0
M  V30 3 C 40.002840 29.998365 61.113067 0 CFG=2
M  V30 4 C 39.474259 29.464328 55.633107 0
M  V30 5 C 38.104019 29.482450 59.701047 0 CFG=1
M  V30 6 C 39.863225 31.039620 53.262592 0
M  V30 7 C 39.610083 28.162850 50.803088 0
M  V30 8 N 39.009426 29.511888 56.813817 0
M  V30 9 Cl 41.066756 30.421379 50.263684 0
M  V30 10 C 38.889410 28.178417 59.884430 0
M  V30 11 C 37.492860 27.155070 53.882863 0
M  V30 12 O 40.284561 30.178950 63.520606 0
M  V30 13 C 38.757011 30.010603 54.402480 0 CFG=1
M  V30 14 C 38.893496 29.178881 53.240600 0
M  V30 15 C 40.048647 29.438424 51.242131 0
M  V30 16 C 38.386758 27.919710 52.926658 0
M  V30 17 C 39.502758 30.620321 62.433334 0
M  V30 18 C 38.757459 27.386416 51.658281 0
M  V30 19 C 37.736277 30.116415 57.127871 0 CFG=1
M  V30 20 C 39.211222 30.506816 59.896931 0
M  V30 21 C 37.181008 29.567402 58.454833 0
M  V30 22 N 37.867418 31.583407 57.158687 0 CHG=1
M  V30 23 H 40.792978 27.960988 60.921224 0
M  V30 24 H 39.404885 28.083822 61.985095 0
M  V30 25 H 41.053268 30.262191 60.985207 0
M  V30 26 H 40.448005 29.013504 55.427562 0
M  V30 27 H 37.445385 29.621411 60.550544 0
M  V30 28 H 39.384176 31.912738 52.824102 0
M  V30 29 H 40.895209 31.175623 53.584373 0
M  V30 30 H 39.912409 27.784314 49.853515 0
M  V30 31 H 39.475269 27.962528 58.990510 0
M  V30 32 H 38.267456 27.310089 60.068357 0
M  V30 33 H 37.071159 26.270530 53.404622 0
M  V30 34 H 38.057998 26.832437 54.757611 0
M  V30 35 H 36.667995 27.783880 54.217377 0
M  V30 36 H 39.947661 29.339777 63.808522 0
M  V30 37 H 37.747044 30.401700 54.510804 0
M  V30 38 H 38.457042 30.376915 62.625225 0
M  V30 39 H 39.574106 31.707074 62.387038 0
M  V30 40 H 38.411267 26.421517 51.341274 0
M  V30 41 H 36.982273 29.870501 56.380113 0
M  V30 42 H 38.861161 31.534743 59.995610 0
M  V30 43 H 39.867289 30.421441 59.036650 0
M  V30 44 H 36.787952 28.569435 58.254093 0
M  V30 45 H 36.300105 30.157455 58.714281 0
M  V30 46 H 36.898760 31.934762 57.129376 0
M  V30 47 H 38.332333 31.884132 58.000738 0
M  V30 48 H 38.352031 31.918433 56.340855 0
M  V30 END ATOM
M  V30 BEGIN BOND
M  V30 1 1 3 2
M  V30 2 1 6 1
M  V30 3 2 8 4
M  V30 4 1 10 2
M  V30 5 1 10 5
M  V30 6 1 13 4
M  V30 7 1 13 6
M  V30 8 1 14 1
M  V30 9 1 14 13
M  V30 10 2 15 1
M  V30 11 1 15 7
M  V30 12 1 15 9
M  V30 13 1 16 11
M  V30 14 2 16 14
M  V30 15 1 17 3
M  V30 16 1 17 12
M  V30 17 2 18 7
M  V30 18 1 18 16
M  V30 19 1 19 8
M  V30 20 1 20 3
M  V30 21 1 20 5
M  V30 22 1 21 5
M  V30 23 1 21 19
M  V30 24 1 22 19
M  V30 25 1 23 2
M  V30 26 1 24 2
M  V30 27 1 3 25 CFG=3
M  V30 28 1 26 4
M  V30 29 1 5 27 CFG=1
M  V30 30 1 28 6
M  V30 31 1 29 6
M  V30 32 1 30 7
M  V30 33 1 31 10
M  V30 34 1 32 10
M  V30 35 1 33 11
M  V30 36 1 34 11
M  V30 37 1 35 11
M  V30 38 1 36 12
M  V30 39 1 13 37 CFG=1
M  V30 40 1 38 17
M  V30 41 1 39 17
M  V30 42 1 40 18
M  V30 43 1 19 41 CFG=3
M  V30 44 1 42 20
M  V30 45 1 43 20
M  V30 46 1 44 21
M  V30 47 1 45 21
M  V30 48 1 46 22
M  V30 49 1 47 22
M  V30 50 1 48 22
M  V30 END BOND
M  V30 END CTAB
M  END
>  <i_epik_Tot_Q>  (1) 
1

>  <i_epik_Tot_abs_Q>  (1) 
1

>  <i_i_glide_confnum>  (1) 
251

>  <i_i_glide_lignum>  (1) 
219

>  <i_i_glide_posenum>  (1) 
10

>  <i_i_glide_rotatable_bonds>  (1) 
6

>  <i_lp_mmshare_version>  (1) 
72125

>  <i_m_source_file_index>  (1) 
85

>  <i_f3d_flags>  (1) 
0

>  <num_sample>  (1) 
100

>  <b_lp_Chiralities_Consistent>  (1) 
1

>  <r_epik_Charging_Adjusted_Penalty>  (1) 
0.46451758934955678

>  <r_epik_Ionization_Penalty>  (1) 
0.053840736014893024

>  <r_epik_Ionization_Penalty_Charging>  (1) 
0.053837750396952835

>  <r_epik_Ionization_Penalty_Neutral>  (1) 
2.9856179401856363e-06

>  <r_epik_State_Penalty>  (1) 
0.41067983895260396

>  <r_glide_ring_energy>  (1) 
0.79554456132168294

>  <r_i_docking_score>  (1) 
-7.8573101767310058

>  <r_i_glide_ecoul>  (1) 
-8.0237760116333821

>  <r_i_glide_eff_state_penalty>  (1) 
0.41067983895260396

>  <r_i_glide_einternal>  (1) 
6.8120827590885975

>  <r_i_glide_emodel>  (1) 
-59.90417744864272

>  <r_i_glide_emodel_strain>  (1) 
0.70772808655931385

>  <r_i_glide_energy>  (1) 
-38.064550085091

>  <r_i_glide_erotb>  (1) 
0.90212786361762021

>  <r_i_glide_esite>  (1) 
-0.18274869190981163

>  <r_i_glide_evdw>  (1) 
-30.040774073457616

>  <r_i_glide_gscore>  (1) 
-8.2679900156836101

>  <r_i_glide_gscore_strain>  (1) 
0

>  <r_i_glide_hbond>  (1) 
-0.40729078816667685

>  <r_i_glide_ligand_efficiency>  (1) 
-0.3571504625786821

>  <r_i_glide_ligand_efficiency_ln>  (1) 
-1.9206132095454007

>  <r_i_glide_ligand_efficiency_sa>  (1) 
-1.0007496431072322

>  <r_i_glide_lipo>  (1) 
-3.7892111607420049

>  <r_i_glide_metal>  (1) 
-0

>  <r_i_glide_rewards>  (1) 
-2.0852621330648491

>  <r_lp_Energy>  (1) 
15.401159

>  <r_lp_tautomer_probability>  (1) 
0.49999300000000002

>  <s_epik_Chemistry_Notes>  (1) 
This compound has an imine and may undergo hydrolysis. This compound contains an acetal/aminal-like group ( X-CH(R)-Y where X, Y are N, S, or O) that may be acid/base labile, releasing an aldehyde.

>  <s_epik_cmdline>  (1) 
J2VwaWtfcHl0aG9uJywgJy1waHQnLCAnMS4wJywgJy1waCcsICc3LjQnLCAnLXRuJywgJzgnLCAnLW1hJywgJzUwMCcsICctaW1hZScsICc8aW5maWxlLm1hZT4nLCAnLW9tYWUnLCAnPG91dGZpbGUubWFlPic=

>  <s_epik_input>  (1) 
Q2xjMVtjSF1bY0hdYyhbQ0gzXSljKGMxMilbQ0BIXShbQ0gyXTIpL1tDSF09TlxbQ0BIXShbTkgyXSlbQ0gyXVtDQEhdKFtDSDJdMylbQ0gyXVtDSDJdW0NAQEhdM1tDSDJdW09IXQ==

>  <s_glide_docking_method>  (1) 
confgen

>  <s_i_glide_gridfile>  (1) 
gpcr_5ht2c_6bqh_protein_autoprepared_prepared

>  <s_lp_Force_Field>  (1) 
S-OPLS

>  <s_lp_Variant>  (1) 
DiffSBDD_84_num_sample_100-2

>  <s_m_source_file>  (1) 
generated__ligand_DiffSBDD_2026-05-06_prepared.sdf

>  <GenAI_Model>  (1) 
DiffSBDD

>  <Protein>  (1) 
GPCR_5HT2C

$$$$
DiffSBDD_69_num_sample_100
     RDKit          3D

  0  0  0  0  0  0  0  0  0  0999 V3000
M  V30 BEGIN CTAB
M  V30 COUNTS 67 72 0 0 1
M  V30 BEGIN ATOM
M  V30 1 C 37.653398 36.958801 60.805712 0
M  V30 2 C 41.119120 30.118470 50.846619 0 CFG=1
M  V30 3 C 38.614658 29.199812 57.355490 0
M  V30 4 C 39.748911 30.342460 51.421982 0 CFG=1
M  V30 5 C 36.802221 29.621413 58.934224 0
M  V30 6 C 40.539694 28.900243 62.282266 0
M  V30 7 C 39.392280 28.236536 56.482419 0
M  V30 8 C 38.991027 32.467788 61.736494 0
M  V30 9 N 38.600406 27.621038 55.424450 0
M  V30 10 C 39.378988 29.236140 53.739369 0
M  V30 11 C 38.267375 31.441793 58.252123 0
M  V30 12 O 38.006700 27.520662 53.104941 0
M  V30 13 C 41.446906 29.089301 63.508916 0
M  V30 14 C 38.663684 32.904225 58.329965 0 CFG=1
M  V30 15 C 37.519460 28.736717 58.107233 0
M  V30 16 C 38.233468 38.183954 61.175060 0
M  V30 17 O 41.250145 30.421428 49.453501 0
M  V30 18 C 38.312140 35.746426 61.113758 0
M  V30 19 C 39.939138 30.091835 49.940124 0 CFG=1
M  V30 20 C 37.697192 34.411173 60.692719 0 CFG=1
M  V30 21 C 37.177219 30.966175 59.013440 0
M  V30 22 N 42.657558 28.532543 63.453501 0
M  V30 23 C 37.022549 34.482270 59.335620 0
M  V30 24 C 40.117602 37.001909 62.177907 0
M  V30 25 C 39.163648 29.310120 52.351483 0
M  V30 26 O 41.056854 29.727376 64.482591 0
M  V30 27 C 39.467399 38.202805 61.853503 0
M  V30 28 C 37.459188 33.805269 58.275991 0
M  V30 29 O 37.604882 39.359377 60.879526 0
M  V30 30 C 38.733695 33.276425 60.692455 0
M  V30 31 C 39.469044 29.998202 62.097202 0
M  V30 32 C 38.986982 30.555255 57.422562 0
M  V30 33 O 39.433286 33.150043 59.512639 0
M  V30 34 C 39.547908 35.776762 61.810013 0
M  V30 35 C 40.043557 31.374654 61.728384 0
M  V30 36 C 38.672549 28.138526 54.130545 0
M  V30 37 C 38.341165 28.274522 51.996551 0
M  V30 38 H 36.709166 36.947487 60.283471 0
M  V30 39 H 41.567710 29.168656 51.111521 0
M  V30 40 H 39.522682 31.356165 51.746848 0
M  V30 41 H 35.962148 29.261250 59.508354 0
M  V30 42 H 40.033313 27.943080 62.401319 0
M  V30 43 H 41.144644 28.816773 61.379088 0
M  V30 44 H 40.301572 28.703379 56.106351 0
M  V30 45 H 39.741357 27.430068 57.127913 0
M  V30 46 H 38.436653 32.594107 62.653621 0
M  V30 47 H 38.075611 26.789057 55.650794 0
M  V30 48 H 39.977582 29.883807 54.361768 0
M  V30 49 H 39.292118 33.152071 57.474133 0
M  V30 50 H 37.230041 27.698228 58.051226 0
M  V30 51 H 39.593450 29.128856 49.570549 0
M  V30 52 H 36.925020 34.160612 61.421312 0
M  V30 53 H 36.623932 31.640277 59.648532 0
M  V30 54 H 42.946578 28.021448 62.623550 0
M  V30 55 H 43.288768 28.628853 64.234052 0
M  V30 56 H 36.148311 35.110351 59.249718 0
M  V30 57 H 41.060218 37.022682 62.707032 0
M  V30 58 H 39.905610 39.144920 62.135549 0
M  V30 59 H 36.943102 33.880451 57.331723 0
M  V30 60 H 36.805784 39.273319 60.370543 0
M  V30 61 H 38.870302 30.078633 63.006099 0
M  V30 62 H 38.776963 29.685098 61.315017 0
M  V30 63 H 39.823642 30.915753 56.843028 0
M  V30 64 H 40.060186 34.861652 62.057584 0
M  V30 65 H 40.536613 31.321186 60.757910 0
M  V30 66 H 40.808573 31.668583 62.446847 0
M  V30 67 H 37.917498 27.935791 51.062412 0
M  V30 END ATOM
M  V30 BEGIN BOND
M  V30 1 1 4 2
M  V30 2 1 7 3
M  V30 3 1 9 7
M  V30 4 1 13 6
M  V30 5 1 14 11
M  V30 6 1 15 3
M  V30 7 2 15 5
M  V30 8 2 16 1
M  V30 9 1 17 2
M  V30 10 1 18 1
M  V30 11 1 19 2
M  V30 12 1 19 4
M  V30 13 1 19 17
M  V30 14 1 20 18
M  V30 15 1 21 5
M  V30 16 2 21 11
M  V30 17 1 22 13
M  V30 18 1 23 20
M  V30 19 1 25 4
M  V30 20 1 25 10
M  V30 21 2 26 13
M  V30 22 1 27 16
M  V30 23 2 27 24
M  V30 24 1 28 14
M  V30 25 2 28 23
M  V30 26 1 29 16
M  V30 27 2 30 8
M  V30 28 1 30 20
M  V30 29 1 31 6
M  V30 30 2 32 3
M  V30 31 1 32 11
M  V30 32 1 33 14
M  V30 33 1 33 30
M  V30 34 2 34 18
M  V30 35 1 34 24
M  V30 36 1 35 8
M  V30 37 1 35 31
M  V30 38 1 36 9
M  V30 39 2 36 10
M  V30 40 1 36 12
M  V30 41 1 37 12
M  V30 42 2 37 25
M  V30 43 1 38 1
M  V30 44 1 2 39 CFG=1
M  V30 45 1 4 40 CFG=3
M  V30 46 1 41 5
M  V30 47 1 42 6
M  V30 48 1 43 6
M  V30 49 1 44 7
M  V30 50 1 45 7
M  V30 51 1 46 8
M  V30 52 1 47 9
M  V30 53 1 48 10
M  V30 54 1 14 49 CFG=3
M  V30 55 1 50 15
M  V30 56 1 19 51 CFG=3
M  V30 57 1 20 52 CFG=1
M  V30 58 1 53 21
M  V30 59 1 54 22
M  V30 60 1 55 22
M  V30 61 1 56 23
M  V30 62 1 57 24
M  V30 63 1 58 27
M  V30 64 1 59 28
M  V30 65 1 60 29
M  V30 66 1 61 31
M  V30 67 1 62 31
M  V30 68 1 63 32
M  V30 69 1 64 34
M  V30 70 1 65 35
M  V30 71 1 66 35
M  V30 72 1 67 37
M  V30 END BOND
M  V30 END CTAB
M  END
>  <i_epik_Tot_Q>  (1) 
0

>  <i_epik_Tot_abs_Q>  (1) 
0

>  <i_i_glide_confnum>  (1) 
607

>  <i_i_glide_lignum>  (1) 
177

>  <i_i_glide_posenum>  (1) 
395

>  <i_i_glide_rotatable_bonds>  (1) 
11

>  <i_lp_mmshare_version>  (1) 
72125

>  <i_m_source_file_index>  (1) 
70

>  <i_f3d_flags>  (1) 
0

>  <num_sample>  (1) 
100

>  <b_lp_Chiralities_Consistent>  (1) 
1

>  <r_epik_Charging_Adjusted_Penalty>  (1) 
0

>  <r_epik_Ionization_Penalty>  (1) 
0.0027858750297933624

>  <r_epik_Ionization_Penalty_Charging>  (1) 
0

>  <r_epik_Ionization_Penalty_Neutral>  (1) 
0.0027858750297933624

>  <r_epik_State_Penalty>  (1) 
-0

>  <r_glide_ring_energy>  (1) 
1.6699314456563892

>  <r_i_docking_score>  (1) 
-7.8529071414701015

>  <r_i_glide_ecoul>  (1) 
-6.2722801504035894

>  <r_i_glide_eff_state_penalty>  (1) 
-0

>  <r_i_glide_einternal>  (1) 
8.6300853528890844

>  <r_i_glide_emodel>  (1) 
-69.920382224689689

>  <r_i_glide_emodel_strain>  (1) 
0.22490652178382931

>  <r_i_glide_energy>  (1) 
-47.973957958392958

>  <r_i_glide_erotb>  (1) 
0.7388310729384443

>  <r_i_glide_esite>  (1) 
-0.0088806070064543739

>  <r_i_glide_evdw>  (1) 
-41.70167780798937

>  <r_i_glide_gscore>  (1) 
-7.8529071414701015

>  <r_i_glide_gscore_strain>  (1) 
0

>  <r_i_glide_hbond>  (1) 
-0.60311115950144378

>  <r_i_glide_ligand_efficiency>  (1) 
-0.21224073355324599

>  <r_i_glide_ligand_efficiency_ln>  (1) 
-1.7031114607214279

>  <r_i_glide_ligand_efficiency_sa>  (1) 
-0.70723321015549279

>  <r_i_glide_lipo>  (1) 
-4.0441659894860935

>  <r_i_glide_metal>  (1) 
-0

>  <r_i_glide_rewards>  (1) 
-0.90965454545454705

>  <r_lp_Energy>  (1) 
39.698884999999997

>  <r_lp_tautomer_probability>  (1) 
1

>  <s_epik_cmdline>  (1) 
J2VwaWtfcHl0aG9uJywgJy1waHQnLCAnMS4wJywgJy1waCcsICc3LjQnLCAnLXRuJywgJzgnLCAnLW1hJywgJzUwMCcsICctaW1hZScsICc8aW5maWxlLm1hZT4nLCAnLW9tYWUnLCAnPG91dGZpbGUubWFlPic=

>  <s_epik_input>  (1) 
W05IMl1DKD1PKVtDSDJdW0NIMl1bQ0gyXS9bQ0hdPUMoTzEpL1tDQEBIXShjKFtjSF1jMltPSF0pW2NIXVtjSF1bY0hdMilbQ0hdPVtDSF1bQ0BASF0xYyhbY0hdMylbY0hdW2NIXVtjSF1jM1tDSDJdW05IXWMob1tjSF00KVtjSF1jNFtDQEBIXTVbQ0hdKE82KVtDSF01Ng==

>  <s_glide_docking_method>  (1) 
confgen

>  <s_i_glide_gridfile>  (1) 
gpcr_5ht2c_6bqh_protein_autoprepared_prepared

>  <s_lp_Force_Field>  (1) 
S-OPLS

>  <s_lp_Variant>  (1) 
DiffSBDD_69_num_sample_100-1

>  <s_m_source_file>  (1) 
generated__ligand_DiffSBDD_2026-05-06_prepared.sdf

>  <GenAI_Model>  (1) 
DiffSBDD

>  <Protein>  (1) 
GPCR_5HT2C

$$$$
DiffSBDD_0_num_sample_100
     RDKit          3D

  0  0  0  0  0  0  0  0  0  0999 V3000
M  V30 BEGIN CTAB
M  V30 COUNTS 60 62 0 0 1
M  V30 BEGIN ATOM
M  V30 1 C 39.847712 28.666430 52.090658 0
M  V30 2 C 39.458359 29.365939 56.129284 0 CFG=1
M  V30 3 C 40.876337 31.701720 64.210480 0
M  V30 4 C 40.331177 29.694903 61.434841 0
M  V30 5 C 40.208124 29.933670 51.506075 0
M  V30 6 C 39.095565 31.066203 53.533730 0
M  V30 7 C 40.358882 32.971096 62.188164 0
M  V30 8 C 41.550292 32.820590 64.738634 0
M  V30 9 C 40.275364 31.775202 62.936357 0
M  V30 10 C 38.067695 31.390643 56.961452 0 CFG=2
M  V30 11 N 40.678275 28.648089 58.120905 0
M  V30 12 C 40.620260 28.116410 59.476684 0
M  V30 13 C 39.804440 28.992005 60.411898 0
M  V30 14 C 41.624144 34.015565 63.996570 0
M  V30 15 F 41.102852 35.238844 62.005065 0
M  V30 16 C 41.030989 34.090100 62.719661 0
M  V30 17 C 39.523133 30.574582 62.380043 0 CFG=1
M  V30 18 C 39.867402 31.068084 52.167079 0
M  V30 19 N 37.176332 31.311346 61.453499 0
M  V30 20 C 39.483462 28.382065 57.323990 0
M  V30 21 C 39.067408 28.653436 53.157859 0
M  V30 22 C 38.373321 29.058119 55.073006 0 CFG=1
M  V30 23 N 39.379418 30.762967 56.647490 0 CHG=1
M  V30 24 O 42.267395 35.101502 64.516744 0
M  V30 25 C 38.231537 32.919632 57.095032 0
M  V30 26 C 37.467405 30.824015 58.254372 0
M  V30 27 C 38.486551 33.621257 55.757889 0
M  V30 28 N 38.507833 29.730360 53.752584 0
M  V30 29 S 38.532173 27.407841 54.203162 0
M  V30 30 C 38.211141 30.984521 61.855522 0
M  V30 31 Cl 41.067403 30.021430 50.015442 0
M  V30 32 H 40.245576 27.746421 51.690756 0
M  V30 33 H 40.431403 29.282306 55.642263 0
M  V30 34 H 40.814500 30.789219 64.786086 0
M  V30 35 H 41.391073 29.645073 61.621227 0
M  V30 36 H 39.810988 31.354077 54.296316 0
M  V30 37 H 38.300581 31.809751 53.495687 0
M  V30 38 H 39.900201 33.032812 61.211973 0
M  V30 39 H 42.005983 32.763658 65.716533 0
M  V30 40 H 37.382736 31.220894 56.134718 0
M  V30 41 H 41.477950 28.235891 57.654720 0
M  V30 42 H 41.639383 28.045195 59.858832 0
M  V30 43 H 40.213447 27.105601 59.465512 0
M  V30 44 H 38.742353 29.033244 60.225706 0
M  V30 45 H 39.290672 29.948450 63.238674 0
M  V30 46 H 40.131069 32.021429 51.757357 0
M  V30 47 H 39.530161 27.350383 56.972359 0
M  V30 48 H 38.584265 28.453467 57.928848 0
M  V30 49 H 37.354977 29.153570 55.449145 0
M  V30 50 H 39.958803 30.790427 57.474466 0
M  V30 51 H 42.151706 35.891669 64.006965 0
M  V30 52 H 37.310488 33.340142 57.501813 0
M  V30 53 H 39.016291 33.167053 57.811441 0
M  V30 54 H 36.667436 31.449806 58.653494 0
M  V30 55 H 37.030804 29.838082 58.106490 0
M  V30 56 H 38.229680 30.774442 59.025373 0
M  V30 57 H 38.441067 34.704809 55.853531 0
M  V30 58 H 39.467404 33.366201 55.368073 0
M  V30 59 H 37.732659 33.346866 55.020606 0
M  V30 60 H 39.803781 31.352788 55.948609 0
M  V30 END ATOM
M  V30 BEGIN BOND
M  V30 1 1 5 1
M  V30 2 2 8 3
M  V30 3 1 9 3
M  V30 4 2 9 7
M  V30 5 1 12 11
M  V30 6 2 13 4
M  V30 7 1 13 12
M  V30 8 1 14 8
M  V30 9 1 16 7
M  V30 10 2 16 14
M  V30 11 1 16 15
M  V30 12 1 17 4
M  V30 13 1 17 9
M  V30 14 2 18 5
M  V30 15 1 18 6
M  V30 16 1 20 2
M  V30 17 1 20 11
M  V30 18 2 21 1
M  V30 19 1 22 2
M  V30 20 1 23 2
M  V30 21 1 23 10
M  V30 22 1 24 14
M  V30 23 1 25 10
M  V30 24 1 26 10
M  V30 25 1 27 25
M  V30 26 1 28 6
M  V30 27 1 28 21
M  V30 28 1 28 22
M  V30 29 1 29 21
M  V30 30 1 29 22
M  V30 31 1 30 17
M  V30 32 3 30 19
M  V30 33 1 31 5
M  V30 34 1 32 1
M  V30 35 1 2 33 CFG=3
M  V30 36 1 34 3
M  V30 37 1 35 4
M  V30 38 1 36 6
M  V30 39 1 37 6
M  V30 40 1 38 7
M  V30 41 1 39 8
M  V30 42 1 10 40 CFG=3
M  V30 43 1 41 11
M  V30 44 1 42 12
M  V30 45 1 43 12
M  V30 46 1 44 13
M  V30 47 1 17 45 CFG=1
M  V30 48 1 46 18
M  V30 49 1 47 20
M  V30 50 1 48 20
M  V30 51 1 22 49 CFG=1
M  V30 52 1 50 23
M  V30 53 1 51 24
M  V30 54 1 52 25
M  V30 55 1 53 25
M  V30 56 1 54 26
M  V30 57 1 55 26
M  V30 58 1 56 26
M  V30 59 1 57 27
M  V30 60 1 58 27
M  V30 61 1 59 27
M  V30 62 1 60 23
M  V30 END BOND
M  V30 END CTAB
M  END
>  <i_epik_Tot_Q>  (1) 
1

>  <i_epik_Tot_abs_Q>  (1) 
1

>  <i_i_glide_confnum>  (1) 
336

>  <i_i_glide_lignum>  (1) 
3

>  <i_i_glide_posenum>  (1) 
35

>  <i_i_glide_rotatable_bonds>  (1) 
11

>  <i_lp_mmshare_version>  (1) 
72125

>  <i_m_source_file_index>  (1) 
1

>  <i_f3d_flags>  (1) 
0

>  <num_sample>  (1) 
100

>  <b_lp_Chiralities_Consistent>  (1) 
1

>  <r_epik_Charging_Adjusted_Penalty>  (1) 
1.026714880071514

>  <r_epik_Ionization_Penalty>  (1) 
0.57488375576365369

>  <r_epik_Ionization_Penalty_Charging>  (1) 
0.45778339447339428

>  <r_epik_Ionization_Penalty_Neutral>  (1) 
0.11710036129025943

>  <r_epik_State_Penalty>  (1) 
0.56893148559811979

>  <r_glide_ring_energy>  (1) 
0

>  <r_i_docking_score>  (1) 
-7.8528411712824608

>  <r_i_glide_ecoul>  (1) 
-5.3679327241492123

>  <r_i_glide_eff_state_penalty>  (1) 
0.56893148559811979

>  <r_i_glide_einternal>  (1) 
8.6374514227314574

>  <r_i_glide_emodel>  (1) 
-73.692478112619312

>  <r_i_glide_emodel_strain>  (1) 
0

>  <r_i_glide_energy>  (1) 
-48.91242132924215

>  <r_i_glide_erotb>  (1) 
0.74887478347211667

>  <r_i_glide_esite>  (1) 
-0.014091951772682205

>  <r_i_glide_evdw>  (1) 
-43.544488605092937

>  <r_i_glide_gscore>  (1) 
-8.4217726568805809

>  <r_i_glide_gscore_strain>  (1) 
0

>  <r_i_glide_hbond>  (1) 
-0.32000000000000001

>  <r_i_glide_ligand_efficiency>  (1) 
-0.25331745713814391

>  <r_i_glide_ligand_efficiency_ln>  (1) 
-1.7710563448038403

>  <r_i_glide_ligand_efficiency_sa>  (1) 
-0.7957665587667514

>  <r_i_glide_lipo>  (1) 
-4.1752311120951955

>  <r_i_glide_metal>  (1) 
-0

>  <r_i_glide_rewards>  (1) 
-1.6789100376077903

>  <r_lp_Energy>  (1) 
39.675871999999998

>  <r_lp_tautomer_probability>  (1) 
0.99999999999736477

>  <s_epik_Chemistry_Notes>  (1) 
This compound contains an acetal/aminal-like group ( X-CH(R)-Y where X, Y are N, S, or O) that may be acid/base labile, releasing an aldehyde.

>  <s_epik_cmdline>  (1) 
J2VwaWtfcHl0aG9uJywgJy1waHQnLCAnMS4wJywgJy1waCcsICc3LjQnLCAnLXRuJywgJzgnLCAnLW1hJywgJzUwMCcsICctaW1hZScsICc8aW5maWxlLm1hZT4nLCAnLW9tYWUnLCAnPG91dGZpbGUubWFlPic=

>  <s_epik_input>  (1) 
W0NIXT0xQyhDbCk9W0NIXVtDSDJdTihDMTIpW0NAQEhdKFMyKVtDQEBIXShbTkhdW0NAQEhdKFtDSDNdKVtDSDJdW0NIM10pW0NIMl1bTkhdW0NIMl1cW0NIXT1bQ0hdXFtDQEhdKEMjTiljM1tjSF1bY0hdYyhbT0hdKWMoRilbY0hdMw==

>  <s_glide_docking_method>  (1) 
confgen

>  <s_i_glide_gridfile>  (1) 
gpcr_5ht2c_6bqh_protein_autoprepared_prepared

>  <s_lp_Force_Field>  (1) 
S-OPLS

>  <s_lp_Variant>  (1) 
DiffSBDD_0_num_sample_100-3

>  <s_m_source_file>  (1) 
generated__ligand_DiffSBDD_2026-05-06_prepared.sdf

>  <GenAI_Model>  (1) 
DiffSBDD

>  <Protein>  (1) 
GPCR_5HT2C

$$$$
DiffSBDD_80_num_sample_100
     RDKit          3D

  0  0  0  0  0  0  0  0  0  0999 V3000
M  V30 BEGIN CTAB
M  V30 COUNTS 73 76 0 0 1
M  V30 BEGIN ATOM
M  V30 1 C 36.788802 29.275188 58.177179 0
M  V30 2 C 38.223009 33.997832 59.405478 0
M  V30 3 N 38.797102 34.917515 60.426641 0 CFG=1 CHG=1
M  V30 4 O 38.628389 30.068812 56.146038 0
M  V30 5 O 35.608622 32.606301 59.453512 0
M  V30 6 O 37.093008 27.940020 57.853496 0
M  V30 7 C 40.056922 36.155556 62.787398 0 CFG=2
M  V30 8 C 38.540683 36.307088 62.450555 0 CFG=1
M  V30 9 C 39.956295 30.610439 52.121824 0
M  V30 10 C 40.228000 28.392338 56.067570 0
M  V30 11 O 38.283362 26.978949 53.355538 0
M  V30 12 C 38.823347 28.169628 52.958433 0
M  V30 13 O 35.348903 38.421218 63.008012 0
M  V30 14 C 39.717234 30.384320 53.489244 0
M  V30 15 C 36.746902 37.714719 61.187388 0
M  V30 16 C 39.061779 28.405136 51.590021 0
M  V30 17 O 41.189458 28.821077 58.253661 0
M  V30 18 C 40.867749 35.859703 61.510243 0
M  V30 19 O 39.867474 29.850795 49.851235 0
M  V30 20 C 38.178270 37.609418 61.680685 0
M  V30 21 C 39.632240 29.622783 51.173600 0
M  V30 22 C 39.160421 29.977650 57.470490 0 CFG=1
M  V30 23 C 38.087663 32.528909 59.798526 0 CFG=2
M  V30 24 C 38.046217 30.101349 58.537781 0 CFG=1
M  V30 25 C 38.083281 35.011061 61.706257 0
M  V30 26 C 39.987348 28.677064 57.531693 0 CFG=1
M  V30 27 C 35.946157 38.745605 61.985018 0
M  V30 28 C 37.620829 31.550472 58.726428 0 CFG=1
M  V30 29 C 39.066980 38.597186 61.453455 0
M  V30 30 C 41.413763 35.176545 64.509171 0
M  V30 31 C 36.724787 31.868929 59.897375 0 CFG=2
M  V30 32 C 38.950183 28.902086 55.399668 0 CFG=2
M  V30 33 C 39.155455 29.162662 53.915325 0
M  V30 34 C 40.245564 34.752761 60.640813 0
M  V30 35 O 40.267389 35.064093 63.673266 0
M  V30 36 H 36.077821 29.272191 59.003236 0
M  V30 37 H 36.268067 29.712200 57.325021 0
M  V30 38 H 38.845738 34.021404 58.512542 0
M  V30 39 H 37.261526 34.401428 59.089570 0
M  V30 40 H 35.467010 32.389351 58.524952 0
M  V30 41 H 37.487856 27.930149 56.996557 0
M  V30 42 H 40.416511 37.057664 63.283883 0
M  V30 43 H 37.996338 36.368195 63.392918 0
M  V30 44 H 40.392059 31.545087 51.799279 0
M  V30 45 H 39.128571 29.620181 49.300503 0
M  V30 46 H 40.451760 27.347313 55.853060 0
M  V30 47 H 41.067384 28.992108 55.725696 0
M  V30 48 H 38.111489 26.919223 54.280627 0
M  V30 49 H 39.977479 31.142803 54.213753 0
M  V30 50 H 36.755988 38.020972 60.142632 0
M  V30 51 H 36.267399 36.750364 61.217304 0
M  V30 52 H 38.811929 27.647252 50.861113 0
M  V30 53 H 40.993932 28.763078 59.177090 0
M  V30 54 H 41.867612 35.547098 61.778452 0
M  V30 55 H 41.026825 36.765080 60.932188 0
M  V30 56 H 39.841871 30.821405 57.527199 0
M  V30 57 H 38.878206 32.151109 60.443440 0
M  V30 58 H 38.443421 29.745695 59.490109 0
M  V30 59 H 37.006882 34.954699 61.555350 0
M  V30 60 H 38.326943 34.104995 62.253502 0
M  V30 61 H 39.458841 27.836700 57.974180 0
M  V30 62 H 35.954144 39.759993 61.585479 0
M  V30 63 H 37.448115 32.041186 57.771241 0
M  V30 64 H 38.778315 39.486057 60.911403 0
M  V30 65 H 40.080131 38.535003 61.800024 0
M  V30 66 H 41.494730 34.287880 65.135867 0
M  V30 67 H 42.337610 35.271423 63.937977 0
M  V30 68 H 41.334699 36.031894 65.179185 0
M  V30 69 H 36.524989 31.116180 60.657540 0
M  V30 70 H 38.140023 28.190252 55.539367 0
M  V30 71 H 40.465226 33.767405 61.055540 0
M  V30 72 H 40.667382 34.821450 59.652137 0
M  V30 73 H 38.697313 35.833727 60.015521 0
M  V30 END ATOM
M  V30 BEGIN BOND
M  V30 1 1 3 2
M  V30 2 1 6 1
M  V30 3 1 8 7
M  V30 4 1 12 11
M  V30 5 2 14 9
M  V30 6 1 16 12
M  V30 7 1 18 7
M  V30 8 1 20 8
M  V30 9 1 20 15
M  V30 10 1 21 9
M  V30 11 2 21 16
M  V30 12 1 21 19
M  V30 13 1 22 4
M  V30 14 1 23 2
M  V30 15 1 24 1
M  V30 16 1 24 22
M  V30 17 1 25 3
M  V30 18 1 25 8
M  V30 19 1 26 10
M  V30 20 1 26 17
M  V30 21 1 26 22
M  V30 22 2 27 13
M  V30 23 1 27 15
M  V30 24 1 28 23
M  V30 25 1 28 24
M  V30 26 2 29 20
M  V30 27 1 31 5
M  V30 28 1 31 23
M  V30 29 1 31 28
M  V30 30 1 32 4
M  V30 31 1 32 10
M  V30 32 2 33 12
M  V30 33 1 33 14
M  V30 34 1 33 32
M  V30 35 1 34 3
M  V30 36 1 34 18
M  V30 37 1 35 7
M  V30 38 1 35 30
M  V30 39 1 36 1
M  V30 40 1 37 1
M  V30 41 1 38 2
M  V30 42 1 39 2
M  V30 43 1 40 5
M  V30 44 1 41 6
M  V30 45 1 7 42 CFG=1
M  V30 46 1 8 43 CFG=1
M  V30 47 1 44 9
M  V30 48 1 45 19
M  V30 49 1 46 10
M  V30 50 1 47 10
M  V30 51 1 48 11
M  V30 52 1 49 14
M  V30 53 1 50 15
M  V30 54 1 51 15
M  V30 55 1 52 16
M  V30 56 1 53 17
M  V30 57 1 54 18
M  V30 58 1 55 18
M  V30 59 1 22 56 CFG=1
M  V30 60 1 23 57 CFG=1
M  V30 61 1 24 58 CFG=1
M  V30 62 1 59 25
M  V30 63 1 60 25
M  V30 64 1 26 61 CFG=1
M  V30 65 1 62 27
M  V30 66 1 28 63 CFG=3
M  V30 67 1 64 29
M  V30 68 1 65 29
M  V30 69 1 66 30
M  V30 70 1 67 30
M  V30 71 1 68 30
M  V30 72 1 31 69 CFG=1
M  V30 73 1 32 70 CFG=3
M  V30 74 1 71 34
M  V30 75 1 72 34
M  V30 76 1 3 73 CFG=3
M  V30 END BOND
M  V30 END CTAB
M  END
>  <i_epik_Tot_Q>  (1) 
1

>  <i_epik_Tot_abs_Q>  (1) 
1

>  <i_i_glide_confnum>  (1) 
1705

>  <i_i_glide_lignum>  (1) 
212

>  <i_i_glide_posenum>  (1) 
104

>  <i_i_glide_rotatable_bonds>  (1) 
15

>  <i_lp_mmshare_version>  (1) 
72125

>  <i_m_source_file_index>  (1) 
81

>  <i_f3d_flags>  (1) 
0

>  <num_sample>  (1) 
100

>  <b_lp_Chiralities_Consistent>  (1) 
1

>  <r_epik_Charging_Adjusted_Penalty>  (1) 
0.034071705691259377

>  <r_epik_Ionization_Penalty>  (1) 
0.043305258844254187

>  <r_epik_Ionization_Penalty_Charging>  (1) 
0.034071705691259377

>  <r_epik_Ionization_Penalty_Neutral>  (1) 
0.009233553152994808

>  <r_epik_State_Penalty>  (1) 
-0

>  <r_glide_ring_energy>  (1) 
0

>  <r_i_docking_score>  (1) 
-7.8408006917388056

>  <r_i_glide_ecoul>  (1) 
-8.0063835846382219

>  <r_i_glide_eff_state_penalty>  (1) 
-0

>  <r_i_glide_einternal>  (1) 
12.480458901867607

>  <r_i_glide_emodel>  (1) 
-57.421479165625051

>  <r_i_glide_emodel_strain>  (1) 
2.7289602973446279

>  <r_i_glide_energy>  (1) 
-42.013509543972894

>  <r_i_glide_erotb>  (1) 
0.67144220787932085

>  <r_i_glide_esite>  (1) 
0

>  <r_i_glide_evdw>  (1) 
-34.007125959334672

>  <r_i_glide_gscore>  (1) 
-7.8408006917388056

>  <r_i_glide_gscore_strain>  (1) 
0

>  <r_i_glide_hbond>  (1) 
-0.45599999999999996

>  <r_i_glide_ligand_efficiency>  (1) 
-0.22402287690682302

>  <r_i_glide_ligand_efficiency_ln>  (1) 
-1.7212297690322227

>  <r_i_glide_ligand_efficiency_sa>  (1) 
-0.7327936853614343

>  <r_i_glide_lipo>  (1) 
-3.7861112659624561

>  <r_i_glide_metal>  (1) 
-0

>  <r_i_glide_rewards>  (1) 
-1.3688177979932037

>  <r_lp_Energy>  (1) 
34.886631000000001

>  <r_lp_tautomer_probability>  (1) 
1

>  <s_epik_cmdline>  (1) 
J2VwaWtfcHl0aG9uJywgJy1waHQnLCAnMS4wJywgJy1waCcsICc3LjQnLCAnLXRuJywgJzgnLCAnLW1hJywgJzUwMCcsICctaW1hZScsICc8aW5maWxlLm1hZT4nLCAnLW9tYWUnLCAnPG91dGZpbGUubWFlPic=

>  <s_epik_input>  (1) 
Tz1bQ0hdW0NIMl1DKD1bQ0gyXSlbQ0BASF0oW0NASF0oW0NIMl1bQ0gyXTEpT1tDSDNdKVtDSDJdTjFbQ0gyXVtDQEBIXTJbQ0BASF0oW0NAQEhdMltPSF0pW0NAQEhdKFtDSDJdW09IXSlbQ0BASF0zT1tDQEhdKFtDSDJdW0NASF0zW09IXSlDND1bQ0hdW0NIMl1DKD1PKVtDSF09QzRbT0hd

>  <s_glide_docking_method>  (1) 
confgen

>  <s_i_glide_gridfile>  (1) 
gpcr_5ht2c_6bqh_protein_autoprepared_prepared

>  <s_lp_Force_Field>  (1) 
S-OPLS

>  <s_lp_Variant>  (1) 
DiffSBDD_80_num_sample_100-8

>  <s_m_source_file>  (1) 
generated__ligand_DiffSBDD_2026-05-06_prepared.sdf

>  <GenAI_Model>  (1) 
DiffSBDD

>  <Protein>  (1) 
GPCR_5HT2C

$$$$
DiffSBDD_14_num_sample_100
     RDKit          3D

  0  0  0  0  0  0  0  0  0  0999 V3000
M  V30 BEGIN CTAB
M  V30 COUNTS 76 78 0 0 1
M  V30 BEGIN ATOM
M  V30 1 C 38.125940 27.846517 52.133340 0
M  V30 2 C 38.383527 28.278608 53.583698 0 CFG=2
M  V30 3 C 38.407548 30.554829 60.057998 0
M  V30 4 C 39.687661 30.265992 52.558663 0
M  V30 5 C 38.669081 29.802319 53.628710 0 CFG=2
M  V30 6 C 40.731630 30.021686 50.255392 0
M  V30 7 O 41.300400 35.402214 64.721762 0
M  V30 8 C 38.219315 24.786746 56.446311 0
M  V30 9 C 39.773765 33.180554 61.481712 0
M  V30 10 C 39.735055 26.479646 56.990866 0
M  V30 11 C 39.548906 29.640378 51.151921 0 CFG=1
M  V30 12 O 36.841493 30.021427 55.837252 0
M  V30 13 O 38.222838 24.900356 57.862015 0
M  V30 14 N 41.408932 36.021411 63.453738 0
M  V30 15 C 38.522578 30.731541 57.431715 0
M  V30 16 O 41.067431 35.710926 61.244412 0
M  V30 17 C 39.097349 30.344340 55.002902 0
M  V30 18 N 36.665547 31.003128 59.053504 0 CHG=1
M  V30 19 O 39.467312 27.537501 54.134929 0
M  V30 20 C 39.092050 25.958615 58.268077 0
M  V30 21 C 39.164744 26.199658 54.517824 0
M  V30 22 C 41.000061 35.292510 62.397267 0
M  V30 23 C 37.367053 31.674769 60.148122 0 CFG=2
M  V30 24 C 37.736142 33.140647 59.835661 0 CFG=2
M  V30 25 C 40.430297 33.889181 62.680208 0
M  V30 26 C 37.834621 30.209270 58.692838 0 CFG=2
M  V30 27 C 38.455311 33.832443 61.013821 0
M  V30 28 C 38.666687 26.159015 55.965102 0 CFG=1
M  V30 29 C 38.204998 29.923039 56.174876 0 CFG=2
M  V30 30 C 36.497344 33.978899 59.461742 0
M  V30 31 C 39.337655 28.130252 51.241624 0
M  V30 32 H 37.252065 28.378313 51.760153 0
M  V30 33 H 37.867530 26.801291 52.071788 0
M  V30 34 H 37.481741 28.075659 54.162009 0
M  V30 35 H 39.449506 30.868850 60.009962 0
M  V30 36 H 38.267116 29.763262 60.794609 0
M  V30 37 H 39.667951 31.353601 52.479253 0
M  V30 38 H 40.667394 30.021412 52.939986 0
M  V30 39 H 37.717451 30.292692 53.452899 0
M  V30 40 H 41.676709 29.697164 50.686424 0
M  V30 41 H 40.636153 29.575219 49.265825 0
M  V30 42 H 40.786732 31.102536 50.123548 0
M  V30 43 H 41.577613 36.084442 65.318320 0
M  V30 44 H 37.237222 24.500518 56.068586 0
M  V30 45 H 38.939055 24.021630 56.159169 0
M  V30 46 H 40.477398 33.106721 60.653536 0
M  V30 47 H 39.573257 32.163004 61.810967 0
M  V30 48 H 40.647486 25.920764 56.776708 0
M  V30 49 H 40.004578 27.533525 57.044338 0
M  V30 50 H 38.667401 30.021469 50.653538 0
M  V30 51 H 36.468387 30.864660 56.103192 0
M  V30 52 H 41.813554 36.950004 63.514805 0
M  V30 53 H 38.301362 31.784089 57.252204 0
M  V30 54 H 39.600167 30.678748 57.573676 0
M  V30 55 H 39.118815 31.433141 54.943773 0
M  V30 56 H 40.121670 30.035018 55.218899 0
M  V30 57 H 35.924735 30.408069 59.392400 0
M  V30 58 H 38.494535 26.738067 58.742057 0
M  V30 59 H 39.837620 25.621463 58.986200 0
M  V30 60 H 38.425315 25.741306 53.863770 0
M  V30 61 H 40.074478 25.606798 54.420616 0
M  V30 62 H 36.773375 31.583749 61.058570 0
M  V30 63 H 38.420663 33.175195 58.988880 0
M  V30 64 H 41.235008 33.267277 63.075439 0
M  V30 65 H 39.672587 33.961113 63.453490 0
M  V30 66 H 37.583248 29.148410 58.639608 0
M  V30 67 H 37.765086 33.886347 61.854527 0
M  V30 68 H 38.654510 34.866427 60.729968 0
M  V30 69 H 37.814243 26.826798 56.084314 0
M  V30 70 H 38.396103 28.878753 56.380770 0
M  V30 71 H 35.752239 33.968902 60.258097 0
M  V30 72 H 36.766951 35.020720 59.280476 0
M  V30 73 H 36.019294 33.622441 58.549583 0
M  V30 74 H 39.165908 27.712798 50.249609 0
M  V30 75 H 40.226105 27.641382 51.641350 0
M  V30 76 H 36.325029 31.612421 58.307547 0
M  V30 END ATOM
M  V30 BEGIN BOND
M  V30 1 1 2 1
M  V30 2 1 5 2
M  V30 3 1 5 4
M  V30 4 1 11 4
M  V30 5 1 11 6
M  V30 6 1 13 8
M  V30 7 1 14 7
M  V30 8 1 17 5
M  V30 9 1 19 2
M  V30 10 1 20 10
M  V30 11 1 20 13
M  V30 12 1 21 19
M  V30 13 1 22 14
M  V30 14 2 22 16
M  V30 15 1 23 3
M  V30 16 1 23 18
M  V30 17 1 24 23
M  V30 18 1 25 9
M  V30 19 1 25 22
M  V30 20 1 26 3
M  V30 21 1 26 15
M  V30 22 1 26 18
M  V30 23 1 27 9
M  V30 24 1 27 24
M  V30 25 1 28 8
M  V30 26 1 28 10
M  V30 27 1 28 21
M  V30 28 1 29 12
M  V30 29 1 29 15
M  V30 30 1 29 17
M  V30 31 1 30 24
M  V30 32 1 31 1
M  V30 33 1 31 11
M  V30 34 1 32 1
M  V30 35 1 33 1
M  V30 36 1 2 34 CFG=1
M  V30 37 1 35 3
M  V30 38 1 36 3
M  V30 39 1 37 4
M  V30 40 1 38 4
M  V30 41 1 5 39 CFG=3
M  V30 42 1 40 6
M  V30 43 1 41 6
M  V30 44 1 42 6
M  V30 45 1 43 7
M  V30 46 1 44 8
M  V30 47 1 45 8
M  V30 48 1 46 9
M  V30 49 1 47 9
M  V30 50 1 48 10
M  V30 51 1 49 10
M  V30 52 1 11 50 CFG=3
M  V30 53 1 51 12
M  V30 54 1 52 14
M  V30 55 1 53 15
M  V30 56 1 54 15
M  V30 57 1 55 17
M  V30 58 1 56 17
M  V30 59 1 57 18
M  V30 60 1 58 20
M  V30 61 1 59 20
M  V30 62 1 60 21
M  V30 63 1 61 21
M  V30 64 1 23 62 CFG=1
M  V30 65 1 24 63 CFG=3
M  V30 66 1 64 25
M  V30 67 1 65 25
M  V30 68 1 26 66 CFG=3
M  V30 69 1 67 27
M  V30 70 1 68 27
M  V30 71 1 28 69 CFG=3
M  V30 72 1 29 70 CFG=1
M  V30 73 1 71 30
M  V30 74 1 72 30
M  V30 75 1 73 30
M  V30 76 1 74 31
M  V30 77 1 75 31
M  V30 78 1 76 18
M  V30 END BOND
M  V30 END CTAB
M  END
>  <i_epik_Tot_Q>  (1) 
1

>  <i_epik_Tot_abs_Q>  (1) 
1

>  <i_i_glide_confnum>  (1) 
1200

>  <i_i_glide_lignum>  (1) 
33

>  <i_i_glide_posenum>  (1) 
360

>  <i_i_glide_rotatable_bonds>  (1) 
15

>  <i_lp_mmshare_version>  (1) 
72125

>  <i_m_source_file_index>  (1) 
15

>  <i_f3d_flags>  (1) 
0

>  <num_sample>  (1) 
100

>  <b_lp_Chiralities_Consistent>  (1) 
1

>  <r_epik_Charging_Adjusted_Penalty>  (1) 
0.00011085431656654283

>  <r_epik_Ionization_Penalty>  (1) 
0.0093428253379992804

>  <r_epik_Ionization_Penalty_Charging>  (1) 
0.00011085431656654283

>  <r_epik_Ionization_Penalty_Neutral>  (1) 
0.0092319710214327378

>  <r_epik_State_Penalty>  (1) 
-0

>  <r_glide_ring_energy>  (1) 
0

>  <r_i_docking_score>  (1) 
-7.8402022222930032

>  <r_i_glide_ecoul>  (1) 
-13.329535130961647

>  <r_i_glide_eff_state_penalty>  (1) 
-0

>  <r_i_glide_einternal>  (1) 
8.2242369716805968

>  <r_i_glide_emodel>  (1) 
-75.616833700229193

>  <r_i_glide_emodel_strain>  (1) 
1.3642120243080598

>  <r_i_glide_energy>  (1) 
-53.125330741325193

>  <r_i_glide_erotb>  (1) 
1.3314850251941783

>  <r_i_glide_esite>  (1) 
-0.11370820593900469

>  <r_i_glide_evdw>  (1) 
-39.795795610363548

>  <r_i_glide_gscore>  (1) 
-7.8402022222930032

>  <r_i_glide_gscore_strain>  (1) 
0

>  <r_i_glide_hbond>  (1) 
-0.61282344634453711

>  <r_i_glide_ligand_efficiency>  (1) 
-0.25290974910622593

>  <r_i_glide_ligand_efficiency_ln>  (1) 
-1.7682058744694484

>  <r_i_glide_ligand_efficiency_sa>  (1) 
-0.79448579264345964

>  <r_i_glide_lipo>  (1) 
-4.2806982142257128

>  <r_i_glide_metal>  (1) 
-0

>  <r_i_glide_rewards>  (1) 
-0.17523733081550374

>  <r_lp_Energy>  (1) 
17.773495

>  <r_lp_tautomer_probability>  (1) 
1

>  <s_epik_Chemistry_Notes>  (1) 
This compound has a N-S or N-O group and may undergo hydrolysis at high or low pH.

>  <s_epik_cmdline>  (1) 
J2VwaWtfcHl0aG9uJywgJy1waHQnLCAnMS4wJywgJy1waCcsICc3LjQnLCAnLXRuJywgJzgnLCAnLW1hJywgJzUwMCcsICctaW1hZScsICc8aW5maWxlLm1hZT4nLCAnLW9tYWUnLCAnPG91dGZpbGUubWFlPic=

>  <s_epik_input>  (1) 
W0NIMl0xW0NIMl1PW0NIMl1bQ0BASF0xW0NIMl1PW0NASF0yW0NIMl1bQ0gyXVtDQEhdKFtDSDNdKVtDSDJdW0NAQEhdMltDSDJdW0NASF0oW09IXSlbQ0gyXVtDQEhdKFtOSF0zKVtDSDJdW0NASF0zW0NAQEhdKFtDSDNdKVtDSDJdW0NIMl1bQ0gyXUMoPU8pW05IXVtPSF0=

>  <s_glide_docking_method>  (1) 
confgen

>  <s_i_glide_gridfile>  (1) 
gpcr_5ht2c_6bqh_protein_autoprepared_prepared

>  <s_lp_Force_Field>  (1) 
S-OPLS

>  <s_lp_Variant>  (1) 
DiffSBDD_14_num_sample_100-2

>  <s_m_source_file>  (1) 
generated__ligand_DiffSBDD_2026-05-06_prepared.sdf

>  <GenAI_Model>  (1) 
DiffSBDD

>  <Protein>  (1) 
GPCR_5HT2C

$$$$
DiffSBDD_14_num_sample_100
     RDKit          3D

  0  0  0  0  0  0  0  0  0  0999 V3000
M  V30 BEGIN CTAB
M  V30 COUNTS 76 78 0 0 1
M  V30 BEGIN ATOM
M  V30 1 C 38.151576 27.853245 52.031560 0
M  V30 2 C 38.303729 28.164763 53.524715 0 CFG=2
M  V30 3 C 38.329609 30.450637 59.714177 0
M  V30 4 C 39.707479 30.215604 52.768448 0
M  V30 5 C 38.599996 29.664677 53.709500 0 CFG=2
M  V30 6 C 40.996913 30.063166 50.574185 0
M  V30 7 O 41.620834 36.021336 63.446117 0
M  V30 8 C 37.753532 24.897187 56.502406 0
M  V30 9 C 39.074047 34.500608 60.465394 0
M  V30 10 C 39.516241 26.369637 56.980404 0
M  V30 11 C 39.709059 29.680046 51.310795 0 CFG=1
M  V30 12 O 37.467475 32.021023 55.000282 0
M  V30 13 O 37.876931 24.967194 57.918152 0
M  V30 14 N 40.266719 36.422785 63.513651 0
M  V30 15 C 37.995922 31.354864 57.236302 0
M  V30 16 O 38.296434 36.372658 62.419861 0
M  V30 17 C 38.836555 30.069236 55.186076 0
M  V30 18 N 36.399839 30.729092 59.053498 0 CHG=1
M  V30 19 O 39.335138 27.351648 54.075657 0
M  V30 20 C 38.815426 25.982004 58.274903 0
M  V30 21 C 38.895934 26.075508 54.523012 0
M  V30 22 C 39.479749 36.045378 62.491103 0
M  V30 23 C 37.129154 31.258495 60.209011 0 CFG=2
M  V30 24 C 37.164982 32.796308 60.261921 0 CFG=2
M  V30 25 C 40.112052 35.172974 61.385918 0
M  V30 26 C 37.638552 30.359418 58.357601 0 CFG=2
M  V30 27 C 38.331677 33.323401 61.127852 0
M  V30 28 C 38.403653 26.173342 55.973300 0 CFG=1
M  V30 29 C 37.678173 30.874906 55.804685 0 CFG=2
M  V30 30 C 35.823155 33.385014 60.729928 0
M  V30 31 C 39.433886 28.175132 51.261155 0
M  V30 32 H 37.324861 28.429790 51.625856 0
M  V30 33 H 37.878292 26.821464 51.880532 0
M  V30 34 H 37.357284 27.956892 54.027815 0
M  V30 35 H 39.282521 30.978280 59.699660 0
M  V30 36 H 38.421812 29.481738 60.208446 0
M  V30 37 H 39.637538 31.303816 52.741784 0
M  V30 38 H 40.667275 30.021096 53.226796 0
M  V30 39 H 37.673741 30.139930 53.413898 0
M  V30 40 H 41.867668 29.621480 51.053248 0
M  V30 41 H 40.971223 29.727970 49.536875 0
M  V30 42 H 41.133609 31.145132 50.564810 0
M  V30 43 H 42.030488 36.535456 64.132622 0
M  V30 44 H 36.711883 24.794240 56.197024 0
M  V30 45 H 38.297739 24.022669 56.151345 0
M  V30 46 H 38.354844 35.242131 60.112747 0
M  V30 47 H 39.581109 34.132968 59.572639 0
M  V30 48 H 40.339294 25.682231 56.778465 0
M  V30 49 H 39.918270 27.381872 56.996422 0
M  V30 50 H 38.915096 30.135583 50.729701 0
M  V30 51 H 36.648432 32.446752 55.269630 0
M  V30 52 H 40.078944 36.998590 64.323250 0
M  V30 53 H 37.467495 32.293455 57.386715 0
M  V30 54 H 39.050204 31.626655 57.294898 0
M  V30 55 H 39.748930 30.663172 55.257493 0
M  V30 56 H 39.026283 29.188793 55.797665 0
M  V30 57 H 35.861860 29.907532 59.285814 0
M  V30 58 H 38.271735 26.834948 58.679680 0
M  V30 59 H 39.516285 25.642252 59.035378 0
M  V30 60 H 38.111374 25.674104 53.879410 0
M  V30 61 H 39.735003 25.381063 54.462556 0
M  V30 62 H 36.737628 30.823075 61.128840 0
M  V30 63 H 37.327473 33.186999 59.261925 0
M  V30 64 H 40.761374 35.817653 60.790764 0
M  V30 65 H 40.743066 34.394189 61.815987 0
M  V30 66 H 37.599192 29.325134 58.013033 0
M  V30 67 H 39.058762 32.537035 61.328707 0
M  V30 68 H 37.959894 33.608085 62.110617 0
M  V30 69 H 37.683210 26.985315 56.077119 0
M  V30 70 H 36.759322 30.285729 55.792571 0
M  V30 71 H 35.570982 33.059667 61.739605 0
M  V30 72 H 35.858580 34.475460 60.736621 0
M  V30 73 H 35.005740 33.092473 60.070262 0
M  V30 74 H 39.331927 27.845048 50.228206 0
M  V30 75 H 40.267052 27.621663 51.687925 0
M  V30 76 H 35.867288 31.391809 58.482411 0
M  V30 END ATOM
M  V30 BEGIN BOND
M  V30 1 1 2 1
M  V30 2 1 5 2
M  V30 3 1 5 4
M  V30 4 1 11 4
M  V30 5 1 11 6
M  V30 6 1 13 8
M  V30 7 1 14 7
M  V30 8 1 17 5
M  V30 9 1 19 2
M  V30 10 1 20 10
M  V30 11 1 20 13
M  V30 12 1 21 19
M  V30 13 1 22 14
M  V30 14 2 22 16
M  V30 15 1 23 3
M  V30 16 1 23 18
M  V30 17 1 24 23
M  V30 18 1 25 9
M  V30 19 1 25 22
M  V30 20 1 26 3
M  V30 21 1 26 15
M  V30 22 1 26 18
M  V30 23 1 27 9
M  V30 24 1 27 24
M  V30 25 1 28 8
M  V30 26 1 28 10
M  V30 27 1 28 21
M  V30 28 1 29 12
M  V30 29 1 29 15
M  V30 30 1 29 17
M  V30 31 1 30 24
M  V30 32 1 31 1
M  V30 33 1 31 11
M  V30 34 1 32 1
M  V30 35 1 33 1
M  V30 36 1 2 34 CFG=1
M  V30 37 1 35 3
M  V30 38 1 36 3
M  V30 39 1 37 4
M  V30 40 1 38 4
M  V30 41 1 5 39 CFG=3
M  V30 42 1 40 6
M  V30 43 1 41 6
M  V30 44 1 42 6
M  V30 45 1 43 7
M  V30 46 1 44 8
M  V30 47 1 45 8
M  V30 48 1 46 9
M  V30 49 1 47 9
M  V30 50 1 48 10
M  V30 51 1 49 10
M  V30 52 1 11 50 CFG=3
M  V30 53 1 51 12
M  V30 54 1 52 14
M  V30 55 1 53 15
M  V30 56 1 54 15
M  V30 57 1 55 17
M  V30 58 1 56 17
M  V30 59 1 57 18
M  V30 60 1 58 20
M  V30 61 1 59 20
M  V30 62 1 60 21
M  V30 63 1 61 21
M  V30 64 1 23 62 CFG=1
M  V30 65 1 24 63 CFG=3
M  V30 66 1 64 25
M  V30 67 1 65 25
M  V30 68 1 26 66 CFG=3
M  V30 69 1 67 27
M  V30 70 1 68 27
M  V30 71 1 28 69 CFG=3
M  V30 72 1 29 70 CFG=1
M  V30 73 1 71 30
M  V30 74 1 72 30
M  V30 75 1 73 30
M  V30 76 1 74 31
M  V30 77 1 75 31
M  V30 78 1 76 18
M  V30 END BOND
M  V30 END CTAB
M  END
>  <i_epik_Tot_Q>  (1) 
1

>  <i_epik_Tot_abs_Q>  (1) 
1

>  <i_i_glide_confnum>  (1) 
8061

>  <i_i_glide_lignum>  (1) 
33

>  <i_i_glide_posenum>  (1) 
249

>  <i_i_glide_rotatable_bonds>  (1) 
15

>  <i_lp_mmshare_version>  (1) 
72125

>  <i_m_source_file_index>  (1) 
15

>  <i_f3d_flags>  (1) 
0

>  <num_sample>  (1) 
100

>  <b_lp_Chiralities_Consistent>  (1) 
1

>  <r_epik_Charging_Adjusted_Penalty>  (1) 
0.00011085431656654283

>  <r_epik_Ionization_Penalty>  (1) 
0.0093428253379992804

>  <r_epik_Ionization_Penalty_Charging>  (1) 
0.00011085431656654283

>  <r_epik_Ionization_Penalty_Neutral>  (1) 
0.0092319710214327378

>  <r_epik_State_Penalty>  (1) 
-0

>  <r_glide_ring_energy>  (1) 
0

>  <r_i_docking_score>  (1) 
-7.8345237253908415

>  <r_i_glide_ecoul>  (1) 
-13.000598081647937

>  <r_i_glide_eff_state_penalty>  (1) 
-0

>  <r_i_glide_einternal>  (1) 
18.921508274185946

>  <r_i_glide_emodel>  (1) 
-70.413942267784392

>  <r_i_glide_emodel_strain>  (1) 
2.452418567366351

>  <r_i_glide_energy>  (1) 
-54.379538028624175

>  <r_i_glide_erotb>  (1) 
1.3314850251941783

>  <r_i_glide_esite>  (1) 
-0.10000000000000001

>  <r_i_glide_evdw>  (1) 
-41.378939946976239

>  <r_i_glide_gscore>  (1) 
-7.8345237253908415

>  <r_i_glide_gscore_strain>  (1) 
0

>  <r_i_glide_hbond>  (1) 
-0.63932163367227957

>  <r_i_glide_ligand_efficiency>  (1) 
-0.25272657178680136

>  <r_i_glide_ligand_efficiency_ln>  (1) 
-1.7669251993929806

>  <r_i_glide_ligand_efficiency_sa>  (1) 
-0.79391036295626238

>  <r_i_glide_lipo>  (1) 
-4.3767078132852406

>  <r_i_glide_metal>  (1) 
-0

>  <r_i_glide_rewards>  (1) 
-0.030942594031498238

>  <r_lp_Energy>  (1) 
17.773495

>  <r_lp_tautomer_probability>  (1) 
1

>  <s_epik_Chemistry_Notes>  (1) 
This compound has a N-S or N-O group and may undergo hydrolysis at high or low pH.

>  <s_epik_cmdline>  (1) 
J2VwaWtfcHl0aG9uJywgJy1waHQnLCAnMS4wJywgJy1waCcsICc3LjQnLCAnLXRuJywgJzgnLCAnLW1hJywgJzUwMCcsICctaW1hZScsICc8aW5maWxlLm1hZT4nLCAnLW9tYWUnLCAnPG91dGZpbGUubWFlPic=

>  <s_epik_input>  (1) 
W0NIMl0xW0NIMl1PW0NIMl1bQ0BASF0xW0NIMl1PW0NASF0yW0NIMl1bQ0gyXVtDQEhdKFtDSDNdKVtDSDJdW0NAQEhdMltDSDJdW0NASF0oW09IXSlbQ0gyXVtDQEhdKFtOSF0zKVtDSDJdW0NASF0zW0NAQEhdKFtDSDNdKVtDSDJdW0NIMl1bQ0gyXUMoPU8pW05IXVtPSF0=

>  <s_glide_docking_method>  (1) 
confgen

>  <s_i_glide_gridfile>  (1) 
gpcr_5ht2c_6bqh_protein_autoprepared_prepared

>  <s_lp_Force_Field>  (1) 
S-OPLS

>  <s_lp_Variant>  (1) 
DiffSBDD_14_num_sample_100-2

>  <s_m_source_file>  (1) 
generated__ligand_DiffSBDD_2026-05-06_prepared.sdf

>  <GenAI_Model>  (1) 
DiffSBDD

>  <Protein>  (1) 
GPCR_5HT2C

$$$$
DiffSBDD_97_num_sample_100
     RDKit          3D

  0  0  0  0  0  0  0  0  0  0999 V3000
M  V30 BEGIN CTAB
M  V30 COUNTS 74 78 0 0 1
M  V30 BEGIN ATOM
M  V30 1 C 36.899091 37.621432 62.997349 0
M  V30 2 C 38.046189 31.462159 57.691333 0
M  V30 3 C 37.467409 26.869574 57.377327 0
M  V30 4 S 39.140326 30.087580 57.333993 0 CHG=1
M  V30 5 C 38.125355 28.611166 52.263557 0
M  V30 6 C 39.784340 25.628131 56.397497 0
M  V30 7 C 37.064080 30.994201 58.785711 0 CFG=2
M  V30 8 C 39.043725 34.603647 60.886595 0
M  V30 9 C 39.024421 29.425956 59.017449 0
M  V30 10 C 38.212895 29.431241 54.740537 0 CFG=1
M  V30 11 N 39.765029 29.708115 50.683210 0 CHG=1
M  V30 12 N 38.265040 35.611360 61.642769 0 CFG=2 CHG=1
M  V30 13 C 37.711759 25.523098 57.660681 0
M  V30 14 C 36.300850 32.095709 59.566927 0
M  V30 15 C 37.533759 36.603353 60.796044 0 CFG=1
M  V30 16 C 37.757104 29.965552 59.687501 0
M  V30 17 N 39.574003 29.890551 54.454806 0
M  V30 18 C 37.834257 28.290096 53.739265 0
M  V30 19 O 39.867399 30.905852 50.448145 0
M  V30 20 C 39.684166 30.433094 53.115061 0
M  V30 21 O 39.867411 28.821436 49.853504 0 CHG=-1
M  V30 22 C 38.866423 24.905213 57.173199 0
M  V30 23 C 36.063446 34.584756 60.056473 0
M  V30 24 C 38.216220 33.322543 60.717839 0
M  V30 25 C 36.668833 35.955638 59.696243 0
M  V30 26 C 36.667403 37.456886 61.694310 0
M  V30 27 C 39.017364 36.245631 62.758181 0
M  V30 28 C 39.546820 26.976625 56.106922 0
M  V30 29 F 39.096738 23.621430 57.453503 0
M  V30 30 C 37.038552 33.440642 59.724717 0 CFG=1
M  V30 31 C 38.094786 29.054456 56.260674 0 CFG=1
M  V30 32 C 38.077835 37.007091 63.719917 0
M  V30 33 C 38.377567 27.600759 56.587679 0
M  V30 34 C 39.494363 29.294411 52.096318 0 CFG=1
M  V30 35 H 36.235915 38.239110 63.582354 0
M  V30 36 H 37.553439 31.837156 56.793373 0
M  V30 37 H 38.721042 32.236053 58.049060 0
M  V30 38 H 36.581221 27.344466 57.763212 0
M  V30 39 H 37.336614 29.221429 51.853535 0
M  V30 40 H 38.096796 27.691443 51.676603 0
M  V30 41 H 40.667411 25.145297 56.023198 0
M  V30 42 H 36.291594 30.421304 58.270568 0
M  V30 43 H 39.951299 34.344824 61.433803 0
M  V30 44 H 39.379601 34.990275 59.925516 0
M  V30 45 H 39.104038 28.339913 59.058876 0
M  V30 46 H 39.885492 29.812576 59.563252 0
M  V30 47 H 37.557713 30.286519 54.565576 0
M  V30 48 H 37.010332 24.959795 58.253551 0
M  V30 49 H 35.992598 31.720912 60.544197 0
M  V30 50 H 35.358191 32.277408 59.053505 0
M  V30 51 H 38.249914 37.273448 60.319929 0
M  V30 52 H 37.999257 30.376945 60.667779 0
M  V30 53 H 37.056461 29.154423 59.853492 0
M  V30 54 H 39.835761 30.617453 55.105507 0
M  V30 55 H 38.387608 27.378183 53.940543 0
M  V30 56 H 36.783237 28.022632 53.857236 0
M  V30 57 H 38.975387 31.250438 53.002087 0
M  V30 58 H 40.667406 30.877886 52.996033 0
M  V30 59 H 35.726326 34.537120 61.093104 0
M  V30 60 H 35.164244 34.468019 59.449375 0
M  V30 61 H 37.852667 32.986310 61.690506 0
M  V30 62 H 38.894055 32.542643 60.373525 0
M  V30 63 H 35.867403 36.638497 59.414195 0
M  V30 64 H 37.251909 35.873176 58.779907 0
M  V30 65 H 35.818722 37.946068 61.236644 0
M  V30 66 H 39.574761 35.500594 63.327566 0
M  V30 67 H 39.754521 36.929725 62.332874 0
M  V30 68 H 40.253545 27.530676 55.506502 0
M  V30 69 H 37.427465 33.710648 58.746512 0
M  V30 70 H 37.067412 29.238353 56.550231 0
M  V30 71 H 38.669764 37.762441 64.229692 0
M  V30 72 H 37.675658 36.421426 64.532186 0
M  V30 73 H 40.267379 28.544244 52.253501 0
M  V30 74 H 37.539355 35.081687 62.103059 0
M  V30 END ATOM
M  V30 BEGIN BOND
M  V30 1 1 4 2 CFG=1
M  V30 2 1 7 2
M  V30 3 1 9 4
M  V30 4 1 12 8
M  V30 5 1 13 3
M  V30 6 1 14 7
M  V30 7 1 15 12
M  V30 8 1 16 7
M  V30 9 1 16 9
M  V30 10 1 17 10
M  V30 11 1 18 5
M  V30 12 1 18 10
M  V30 13 2 19 11
M  V30 14 1 20 17
M  V30 15 1 21 11
M  V30 16 1 22 6
M  V30 17 2 22 13
M  V30 18 1 24 8
M  V30 19 1 25 15
M  V30 20 1 25 23
M  V30 21 2 26 1
M  V30 22 1 26 15
M  V30 23 1 27 12
M  V30 24 2 28 6
M  V30 25 1 29 22
M  V30 26 1 30 14
M  V30 27 1 30 23
M  V30 28 1 30 24
M  V30 29 1 31 4
M  V30 30 1 31 10
M  V30 31 1 32 1
M  V30 32 1 32 27
M  V30 33 2 33 3
M  V30 34 1 33 28
M  V30 35 1 33 31
M  V30 36 1 34 5
M  V30 37 1 34 11
M  V30 38 1 34 20
M  V30 39 1 35 1
M  V30 40 1 36 2
M  V30 41 1 37 2
M  V30 42 1 38 3
M  V30 43 1 39 5
M  V30 44 1 40 5
M  V30 45 1 41 6
M  V30 46 1 7 42 CFG=3
M  V30 47 1 43 8
M  V30 48 1 44 8
M  V30 49 1 45 9
M  V30 50 1 46 9
M  V30 51 1 10 47 CFG=1
M  V30 52 1 48 13
M  V30 53 1 49 14
M  V30 54 1 50 14
M  V30 55 1 15 51 CFG=3
M  V30 56 1 52 16
M  V30 57 1 53 16
M  V30 58 1 54 17
M  V30 59 1 55 18
M  V30 60 1 56 18
M  V30 61 1 57 20
M  V30 62 1 58 20
M  V30 63 1 59 23
M  V30 64 1 60 23
M  V30 65 1 61 24
M  V30 66 1 62 24
M  V30 67 1 63 25
M  V30 68 1 64 25
M  V30 69 1 65 26
M  V30 70 1 66 27
M  V30 71 1 67 27
M  V30 72 1 68 28
M  V30 73 1 30 69 CFG=3
M  V30 74 1 31 70 CFG=1
M  V30 75 1 71 32
M  V30 76 1 72 32
M  V30 77 1 34 73 CFG=1
M  V30 78 1 12 74 CFG=1
M  V30 END BOND
M  V30 END CTAB
M  END
>  <i_epik_Tot_Q>  (1) 
2

>  <i_epik_Tot_abs_Q>  (1) 
4

>  <i_i_glide_confnum>  (1) 
245

>  <i_i_glide_lignum>  (1) 
269

>  <i_i_glide_posenum>  (1) 
47

>  <i_i_glide_rotatable_bonds>  (1) 
6

>  <i_lp_mmshare_version>  (1) 
72125

>  <i_m_source_file_index>  (1) 
98

>  <i_f3d_flags>  (1) 
0

>  <num_sample>  (1) 
100

>  <b_lp_Chiralities_Consistent>  (1) 
1

>  <r_epik_Charging_Adjusted_Penalty>  (1) 
0.028424460748094963

>  <r_epik_Ionization_Penalty>  (1) 
0.031653010901111077

>  <r_epik_Ionization_Penalty_Charging>  (1) 
0.0018620536084809386

>  <r_epik_Ionization_Penalty_Neutral>  (1) 
0.029790957292630139

>  <r_epik_State_Penalty>  (1) 
0.026562407139614025

>  <r_glide_ring_energy>  (1) 
0

>  <r_i_docking_score>  (1) 
-7.8266146208301075

>  <r_i_glide_ecoul>  (1) 
-1.5069008255599075

>  <r_i_glide_eff_state_penalty>  (1) 
0.026562407139614025

>  <r_i_glide_einternal>  (1) 
26.802347499219852

>  <r_i_glide_emodel>  (1) 
-41.901241428511298

>  <r_i_glide_emodel_strain>  (1) 
2.5167799625354093

>  <r_i_glide_energy>  (1) 
-38.814807321087123

>  <r_i_glide_erotb>  (1) 
0.42420227184638803

>  <r_i_glide_esite>  (1) 
-0.017304177151451435

>  <r_i_glide_evdw>  (1) 
-37.307906495527213

>  <r_i_glide_gscore>  (1) 
-7.8531770279697213

>  <r_i_glide_gscore_strain>  (1) 
0

>  <r_i_glide_hbond>  (1) 
0

>  <r_i_glide_ligand_efficiency>  (1) 
-0.23019454767147374

>  <r_i_glide_ligand_efficiency_ln>  (1) 
-1.7291186988455387

>  <r_i_glide_ligand_efficiency_sa>  (1) 
-0.74574097322623867

>  <r_i_glide_lipo>  (1) 
-4.7035190560052751

>  <r_i_glide_metal>  (1) 
-0

>  <r_i_glide_rewards>  (1) 
-1.4651256180490357

>  <r_lp_Energy>  (1) 
45.469682999999996

>  <s_epik_cmdline>  (1) 
J2VwaWtfcHl0aG9uJywgJy1waHQnLCAnMS4wJywgJy1waCcsICc3LjQnLCAnLXRuJywgJzgnLCAnLW1hJywgJzUwMCcsICctaW1hZScsICc8aW5maWxlLm1hZT4nLCAnLW9tYWUnLCAnPG91dGZpbGUubWFlPic=

>  <s_epik_input>  (1) 
W0NIMl0xW0NIMl1bQ0hdPVtDSF1bQ0BASF0oTjEyKVtDSDJdW0NIMl1bQ0BASF0oW0NIMl1bQ0gyXTIpW0NIMl1bQ0BIXShbQ0gyXVtDSDJdMylbQ0gyXVtTK10zW0NASF0oYyhbY0hdW2NIXTQpW2NIXVtjSF1jNEYpW0NASF01W05IXVtDSDJdW0NASF0oW04rXSg9TylbTy1dKVtDSDJdW0NIMl01

>  <s_glide_docking_method>  (1) 
confgen

>  <s_i_glide_gridfile>  (1) 
gpcr_5ht2c_6bqh_protein_autoprepared_prepared

>  <s_lp_Force_Field>  (1) 
S-OPLS

>  <s_lp_Variant>  (1) 
DiffSBDD_97_num_sample_100-2

>  <s_m_source_file>  (1) 
generated__ligand_DiffSBDD_2026-05-06_prepared.sdf

>  <GenAI_Model>  (1) 
DiffSBDD

>  <Protein>  (1) 
GPCR_5HT2C

$$$$
DiffSBDD_23_num_sample_100
     RDKit          3D

  0  0  0  0  0  0  0  0  0  0999 V3000
M  V30 BEGIN CTAB
M  V30 COUNTS 83 87 0 0 1
M  V30 BEGIN ATOM
M  V30 1 C 38.273324 26.764536 55.308262 0
M  V30 2 C 39.699130 31.230697 62.997773 0
M  V30 3 C 41.377311 33.537296 63.797660 0
M  V30 4 O 42.699778 33.453704 67.791615 0
M  V30 5 N 43.775784 30.734112 64.654985 0
M  V30 6 C 38.916695 29.702955 61.151347 0
M  V30 7 C 39.914647 27.079843 58.765571 0
M  V30 8 N 40.921662 31.099751 63.820856 0
M  V30 9 C 41.841673 32.268089 65.840753 0
M  V30 10 C 41.804877 34.715867 64.435720 0
M  V30 11 C 42.751519 27.182558 64.882971 0
M  V30 12 C 43.495595 28.509096 64.935915 0
M  V30 13 C 39.429126 27.513093 57.387722 0 CFG=1
M  V30 14 C 44.685779 28.733442 65.338586 0
M  V30 15 N 38.876353 26.366068 56.608384 0 CFG=2 CHG=1
M  V30 16 C 39.468414 32.126392 60.633369 0
M  V30 17 C 42.679324 32.242029 68.534125 0
M  V30 18 C 42.269049 33.460883 66.479369 0
M  V30 19 C 39.835854 30.898317 61.487611 0 CFG=1
M  V30 20 C 39.888897 30.247174 54.228414 0
M  V30 21 C 42.944463 29.747642 64.522269 0
M  V30 22 C 38.179634 29.368928 58.822323 0
M  V30 23 C 37.487177 28.658099 52.912146 0
M  V30 24 O 37.177396 30.059963 58.995531 0
M  V30 25 C 37.495310 29.578276 54.148641 0
M  V30 26 C 41.410803 32.302783 64.486865 0
M  V30 27 C 41.489802 29.822964 63.931752 0
M  V30 28 C 39.825041 25.238435 56.427792 0
M  V30 29 C 45.100613 30.176548 65.247533 0
M  V30 30 C 38.775457 29.755373 56.380560 0
M  V30 31 C 39.099940 27.822914 54.530273 0 CFG=2
M  V30 32 C 42.251627 34.677292 65.768523 0
M  V30 33 C 40.272546 28.311000 59.590072 0
M  V30 34 C 38.823517 29.326327 54.876534 0 CFG=2
M  V30 35 C 38.700815 27.735664 53.048482 0
M  V30 36 O 40.917628 28.804718 63.547847 0
M  V30 37 N 39.095282 29.150899 59.802070 0
M  V30 38 C 38.421259 28.697501 57.443887 0 CFG=1
M  V30 39 H 38.152976 25.863163 54.705275 0
M  V30 40 H 37.250888 27.102444 55.450498 0
M  V30 41 H 39.258619 32.220566 63.116854 0
M  V30 42 H 38.947354 30.583609 63.453554 0
M  V30 43 H 41.032313 33.578855 62.776840 0
M  V30 44 H 37.887576 30.021421 61.319580 0
M  V30 45 H 39.067786 28.888368 61.858841 0
M  V30 46 H 39.154456 26.487490 59.271201 0
M  V30 47 H 40.802916 26.462794 58.653396 0
M  V30 48 H 41.835329 31.335846 66.381429 0
M  V30 49 H 41.787219 35.655311 63.901733 0
M  V30 50 H 41.804232 27.234312 65.421803 0
M  V30 51 H 43.350862 26.400642 65.350300 0
M  V30 52 H 42.568555 26.876905 63.853059 0
M  V30 53 H 40.331362 27.858104 56.880104 0
M  V30 54 H 45.358636 27.976481 65.714643 0
M  V30 55 H 38.469412 32.490817 60.873874 0
M  V30 56 H 39.467403 31.900002 59.569755 0
M  V30 57 H 40.169291 32.946095 60.787109 0
M  V30 58 H 43.042188 32.436537 69.543431 0
M  V30 59 H 43.331275 31.487785 68.090435 0
M  V30 60 H 41.666741 31.844980 68.622440 0
M  V30 61 H 40.866348 30.624664 61.262480 0
M  V30 62 H 40.876290 30.071151 54.653564 0
M  V30 63 H 39.655366 31.298291 54.404053 0
M  V30 64 H 39.969858 30.130813 53.148752 0
M  V30 65 H 37.560569 29.221422 51.983028 0
M  V30 66 H 36.563143 28.079994 52.872303 0
M  V30 67 H 36.667403 29.324957 54.805338 0
M  V30 68 H 37.370373 30.628301 53.882769 0
M  V30 69 H 40.691544 25.560650 55.853503 0
M  V30 70 H 39.351666 24.421461 55.885217 0
M  V30 71 H 40.164174 24.816710 57.372875 0
M  V30 72 H 45.944145 30.319598 64.571536 0
M  V30 73 H 45.322725 30.600313 66.227520 0
M  V30 74 H 39.746735 30.159512 56.671728 0
M  V30 75 H 38.096376 30.606804 56.470857 0
M  V30 76 H 40.150885 27.571794 54.653474 0
M  V30 77 H 42.575862 35.587294 66.251653 0
M  V30 78 H 40.697776 27.997466 60.545269 0
M  V30 79 H 41.044821 28.900482 59.092688 0
M  V30 80 H 38.488204 26.725047 52.700572 0
M  V30 81 H 39.513389 28.097243 52.418464 0
M  V30 82 H 37.424036 28.322301 57.227166 0
M  V30 83 H 38.113977 25.991898 57.155782 0
M  V30 END ATOM
M  V30 BEGIN BOND
M  V30 1 1 8 2
M  V30 2 1 10 3
M  V30 3 1 12 11
M  V30 4 1 13 7
M  V30 5 2 14 12
M  V30 6 1 15 1
M  V30 7 1 15 13
M  V30 8 1 17 4
M  V30 9 1 18 4
M  V30 10 2 18 9
M  V30 11 1 19 2
M  V30 12 1 19 6
M  V30 13 1 19 16
M  V30 14 2 21 5
M  V30 15 1 21 12
M  V30 16 2 24 22
M  V30 17 1 25 23
M  V30 18 2 26 3
M  V30 19 1 26 8
M  V30 20 1 26 9
M  V30 21 1 27 8
M  V30 22 1 27 21
M  V30 23 1 28 15
M  V30 24 1 29 5
M  V30 25 1 29 14
M  V30 26 1 31 1
M  V30 27 2 32 10
M  V30 28 1 32 18
M  V30 29 1 33 7
M  V30 30 1 34 20 CFG=3
M  V30 31 1 34 25
M  V30 32 1 34 30
M  V30 33 1 34 31
M  V30 34 1 35 23
M  V30 35 1 35 31
M  V30 36 2 36 27
M  V30 37 1 37 6
M  V30 38 1 37 22
M  V30 39 1 37 33
M  V30 40 1 38 13
M  V30 41 1 38 22
M  V30 42 1 38 30
M  V30 43 1 39 1
M  V30 44 1 40 1
M  V30 45 1 41 2
M  V30 46 1 42 2
M  V30 47 1 43 3
M  V30 48 1 44 6
M  V30 49 1 45 6
M  V30 50 1 46 7
M  V30 51 1 47 7
M  V30 52 1 48 9
M  V30 53 1 49 10
M  V30 54 1 50 11
M  V30 55 1 51 11
M  V30 56 1 52 11
M  V30 57 1 13 53 CFG=3
M  V30 58 1 54 14
M  V30 59 1 55 16
M  V30 60 1 56 16
M  V30 61 1 57 16
M  V30 62 1 58 17
M  V30 63 1 59 17
M  V30 64 1 60 17
M  V30 65 1 19 61 CFG=1
M  V30 66 1 62 20
M  V30 67 1 63 20
M  V30 68 1 64 20
M  V30 69 1 65 23
M  V30 70 1 66 23
M  V30 71 1 67 25
M  V30 72 1 68 25
M  V30 73 1 69 28
M  V30 74 1 70 28
M  V30 75 1 71 28
M  V30 76 1 72 29
M  V30 77 1 73 29
M  V30 78 1 74 30
M  V30 79 1 75 30
M  V30 80 1 31 76 CFG=3
M  V30 81 1 77 32
M  V30 82 1 78 33
M  V30 83 1 79 33
M  V30 84 1 80 35
M  V30 85 1 81 35
M  V30 86 1 38 82 CFG=3
M  V30 87 1 15 83 CFG=1
M  V30 END BOND
M  V30 END CTAB
M  END
>  <i_epik_Tot_Q>  (1) 
1

>  <i_epik_Tot_abs_Q>  (1) 
1

>  <i_i_glide_confnum>  (1) 
49

>  <i_i_glide_lignum>  (1) 
59

>  <i_i_glide_posenum>  (1) 
254

>  <i_i_glide_rotatable_bonds>  (1) 
8

>  <i_lp_mmshare_version>  (1) 
72125

>  <i_m_source_file_index>  (1) 
24

>  <i_f3d_flags>  (1) 
0

>  <num_sample>  (1) 
100

>  <b_lp_Chiralities_Consistent>  (1) 
1

>  <r_epik_Charging_Adjusted_Penalty>  (1) 
0.0029773975431382485

>  <r_epik_Ionization_Penalty>  (1) 
0.013183626931022738

>  <r_epik_Ionization_Penalty_Charging>  (1) 
0.0029773975431382485

>  <r_epik_Ionization_Penalty_Neutral>  (1) 
0.010206229387884489

>  <r_epik_State_Penalty>  (1) 
-0

>  <r_glide_ring_energy>  (1) 
0

>  <r_i_docking_score>  (1) 
-7.8248060271677913

>  <r_i_glide_ecoul>  (1) 
0.34722694790960629

>  <r_i_glide_eff_state_penalty>  (1) 
-0

>  <r_i_glide_einternal>  (1) 
12.286436848417928

>  <r_i_glide_emodel>  (1) 
-59.813090131707284

>  <r_i_glide_emodel_strain>  (1) 
0.32132913869821778

>  <r_i_glide_energy>  (1) 
-48.721451463689505

>  <r_i_glide_erotb>  (1) 
0.5287100460970352

>  <r_i_glide_esite>  (1) 
0

>  <r_i_glide_evdw>  (1) 
-49.068678411599109

>  <r_i_glide_gscore>  (1) 
-7.8248060271677913

>  <r_i_glide_gscore_strain>  (1) 
0

>  <r_i_glide_hbond>  (1) 
0

>  <r_i_glide_ligand_efficiency>  (1) 
-0.20591594808336292

>  <r_i_glide_ligand_efficiency_ln>  (1) 
-1.6872583619297004

>  <r_i_glide_ligand_efficiency_sa>  (1) 
-0.69228435332395843

>  <r_i_glide_lipo>  (1) 
-4.9932487226379862

>  <r_i_glide_metal>  (1) 
-0

>  <r_i_glide_rewards>  (1) 
-0.9589174722333258

>  <r_lp_Energy>  (1) 
98.080461999999997

>  <r_lp_tautomer_probability>  (1) 
1

>  <s_epik_Chemistry_Notes>  (1) 
This compound has an imine and may undergo hydrolysis.

>  <s_epik_cmdline>  (1) 
J2VwaWtfcHl0aG9uJywgJy1waHQnLCAnMS4wJywgJy1waCcsICc3LjQnLCAnLXRuJywgJzgnLCAnLW1hJywgJzUwMCcsICctaW1hZScsICc8aW5maWxlLm1hZT4nLCAnLW9tYWUnLCAnPG91dGZpbGUubWFlPic=

>  <s_epik_input>  (1) 
W0NIMl0xW0NIMl1bQ0gyXVtDQEBIXShbQ0BAXTEyW0NIM10pW0NIMl1OKFtDSDNdKVtDQEhdM1tDQEhdKFtDSDJdMilDKD1PKU4oW0NIMl1bQ0gyXTMpW0NIMl1bQ0BASF0oW0NIM10pW0NIMl1OKGMoW2NIXVtjSF1bY0hdNClbY0hdYzRPW0NIM10pQyg9TylDNT1OW0NIMl1bQ0hdPUM1W0NIM10=

>  <s_glide_docking_method>  (1) 
confgen

>  <s_i_glide_gridfile>  (1) 
gpcr_5ht2c_6bqh_protein_autoprepared_prepared

>  <s_lp_Force_Field>  (1) 
S-OPLS

>  <s_lp_Variant>  (1) 
DiffSBDD_23_num_sample_100-2

>  <s_m_source_file>  (1) 
generated__ligand_DiffSBDD_2026-05-06_prepared.sdf

>  <GenAI_Model>  (1) 
DiffSBDD

>  <Protein>  (1) 
GPCR_5HT2C

$$$$
DiffSBDD_85_num_sample_100
     RDKit          3D

  0  0  0  0  0  0  0  0  0  0999 V3000
M  V30 BEGIN CTAB
M  V30 COUNTS 83 87 0 0 1
M  V30 BEGIN ATOM
M  V30 1 C 36.562211 37.535589 61.643484 0
M  V30 2 N 38.744932 27.210673 54.634033 0
M  V30 3 C 39.512632 29.819447 53.022971 0
M  V30 4 Cl 37.400240 34.560906 59.029041 0
M  V30 5 C 38.660458 36.411288 62.526015 0 CFG=1
M  V30 6 C 39.867260 26.821675 59.111945 0
M  V30 7 C 37.924739 27.883587 53.663191 0
M  V30 8 C 39.806251 29.109073 51.688904 0
M  V30 9 O 41.466750 35.405768 62.799978 0
M  V30 10 S 39.831793 30.297432 60.653249 0
M  V30 11 C 39.626849 27.589402 51.817961 0
M  V30 12 O 41.014711 33.240688 62.950870 0 CHG=-1
M  V30 13 C 38.158124 29.384561 53.580127 0
M  V30 14 C 39.098376 31.923587 61.089013 0 CFG=1
M  V30 15 C 37.550397 30.949796 59.410391 0 CFG=1
M  V30 16 C 38.808196 28.968374 58.290201 0 CFG=1
M  V30 17 C 37.260972 36.953044 62.876933 0
M  V30 18 N 38.267655 27.498435 55.923950 0 CHG=1
M  V30 19 C 38.572797 35.235673 61.484236 0 CFG=2
M  V30 20 C 41.033651 27.051065 58.153139 0 CFG=1
M  V30 21 C 38.241681 27.204343 52.358986 0
M  V30 22 C 39.594129 37.587446 62.119548 0
M  V30 23 C 38.928737 26.733389 56.979013 0 CFG=2
M  V30 24 C 40.138188 29.369264 57.620972 0
M  V30 25 C 38.709031 27.411269 58.328673 0 CFG=1
M  V30 26 C 36.493730 36.453406 60.554848 0
M  V30 27 C 40.887828 34.366980 62.425664 0
M  V30 28 C 39.940577 34.485039 61.192479 0 CFG=1
M  V30 29 C 40.458126 26.569780 56.820306 0
M  V30 30 O 36.232277 30.563235 59.057445 0
M  V30 31 C 39.866673 33.099942 60.448796 0
M  V30 32 C 37.628843 31.821330 60.686841 0 CFG=1
M  V30 33 C 37.834301 35.803640 60.228208 0 CFG=2
M  V30 34 C 41.359588 28.550482 58.106609 0
M  V30 35 C 38.441210 29.712425 59.623044 0 CFG=1
M  V30 36 O 37.067153 31.221378 61.805209 0
M  V30 37 H 35.577121 37.914872 61.920528 0
M  V30 38 H 37.068750 38.415117 61.254972 0
M  V30 39 H 38.557271 26.218802 54.600345 0
M  V30 40 H 39.529742 30.899922 52.871449 0
M  V30 41 H 40.267792 29.621751 53.773458 0
M  V30 42 H 39.046896 36.002930 63.460411 0
M  V30 43 H 39.712136 25.753524 59.246530 0
M  V30 44 H 40.013679 27.283287 60.089278 0
M  V30 45 H 36.875102 27.694515 53.893675 0
M  V30 46 H 39.132004 29.480200 50.914665 0
M  V30 47 H 40.816692 29.339654 51.351651 0
M  V30 48 H 39.816547 27.095772 50.863819 0
M  V30 49 H 40.363832 27.220517 52.523990 0
M  V30 50 H 37.467385 29.621452 52.802053 0
M  V30 51 H 37.882648 29.923838 54.486367 0
M  V30 52 H 39.172579 32.019264 62.169717 0
M  V30 53 H 37.949486 31.538094 58.581505 0
M  V30 54 H 38.028394 29.306682 57.609639 0
M  V30 55 H 36.643083 36.157298 63.295784 0
M  V30 56 H 37.335253 37.699270 63.663152 0
M  V30 57 H 37.269679 27.333314 55.929017 0
M  V30 58 H 37.911969 34.486824 61.915536 0
M  V30 59 H 41.927735 26.489460 58.417796 0
M  V30 60 H 38.181971 26.157239 52.653484 0
M  V30 61 H 37.469032 27.441729 51.626100 0
M  V30 62 H 39.145482 38.286794 61.420512 0
M  V30 63 H 39.877762 38.162634 63.000998 0
M  V30 64 H 40.513253 37.259083 61.639232 0
M  V30 65 H 38.479263 25.737970 56.999714 0
M  V30 66 H 40.067607 29.254754 56.540465 0
M  V30 67 H 40.267329 30.421448 57.729466 0
M  V30 68 H 37.737351 27.083019 58.653518 0
M  V30 69 H 35.867583 35.619956 60.873978 0
M  V30 70 H 36.033655 36.862820 59.651856 0
M  V30 71 H 40.491825 35.142887 60.518418 0
M  V30 72 H 40.902047 27.113813 55.986077 0
M  V30 73 H 40.667552 25.513107 56.660022 0
M  V30 74 H 35.880099 31.173481 58.403582 0
M  V30 75 H 40.888375 32.731263 60.419900 0
M  V30 76 H 39.599444 33.217029 59.402628 0
M  V30 77 H 37.097479 32.755027 60.620084 0
M  V30 78 H 38.449237 36.551190 59.745819 0
M  V30 79 H 42.218681 28.712086 57.455985 0
M  V30 80 H 41.678645 28.881025 59.093931 0
M  V30 81 H 37.882940 29.023180 60.252563 0
M  V30 82 H 37.648864 30.512896 62.045943 0
M  V30 83 H 38.447781 28.484145 56.065174 0
M  V30 END ATOM
M  V30 BEGIN BOND
M  V30 1 1 7 2
M  V30 2 1 8 3
M  V30 3 1 11 8
M  V30 4 1 13 3
M  V30 5 1 13 7
M  V30 6 1 14 10
M  V30 7 1 17 1
M  V30 8 1 17 5
M  V30 9 1 18 2
M  V30 10 1 19 5
M  V30 11 1 20 6
M  V30 12 1 21 7
M  V30 13 1 21 11
M  V30 14 1 22 5
M  V30 15 1 23 18
M  V30 16 1 24 16
M  V30 17 1 25 6
M  V30 18 1 25 16
M  V30 19 1 25 23
M  V30 20 1 26 1
M  V30 21 2 27 9
M  V30 22 1 27 12
M  V30 23 1 28 19
M  V30 24 1 28 27
M  V30 25 1 29 20
M  V30 26 1 29 23
M  V30 27 1 30 15
M  V30 28 1 31 14
M  V30 29 1 31 28
M  V30 30 1 32 14
M  V30 31 1 32 15
M  V30 32 1 33 4
M  V30 33 1 33 19
M  V30 34 1 33 26
M  V30 35 1 34 20
M  V30 36 1 34 24
M  V30 37 1 35 10
M  V30 38 1 35 15
M  V30 39 1 35 16
M  V30 40 1 36 32
M  V30 41 1 37 1
M  V30 42 1 38 1
M  V30 43 1 39 2
M  V30 44 1 40 3
M  V30 45 1 41 3
M  V30 46 1 5 42 CFG=1
M  V30 47 1 43 6
M  V30 48 1 44 6
M  V30 49 1 45 7
M  V30 50 1 46 8
M  V30 51 1 47 8
M  V30 52 1 48 11
M  V30 53 1 49 11
M  V30 54 1 50 13
M  V30 55 1 51 13
M  V30 56 1 14 52 CFG=1
M  V30 57 1 15 53 CFG=3
M  V30 58 1 16 54 CFG=3
M  V30 59 1 55 17
M  V30 60 1 56 17
M  V30 61 1 57 18
M  V30 62 1 19 58 CFG=1
M  V30 63 1 20 59 CFG=1
M  V30 64 1 60 21
M  V30 65 1 61 21
M  V30 66 1 62 22
M  V30 67 1 63 22
M  V30 68 1 64 22
M  V30 69 1 23 65 CFG=1
M  V30 70 1 66 24
M  V30 71 1 67 24
M  V30 72 1 25 68 CFG=1
M  V30 73 1 69 26
M  V30 74 1 70 26
M  V30 75 1 28 71 CFG=3
M  V30 76 1 72 29
M  V30 77 1 73 29
M  V30 78 1 74 30
M  V30 79 1 75 31
M  V30 80 1 76 31
M  V30 81 1 32 77 CFG=3
M  V30 82 1 33 78 CFG=3
M  V30 83 1 79 34
M  V30 84 1 80 34
M  V30 85 1 35 81 CFG=1
M  V30 86 1 82 36
M  V30 87 1 83 18
M  V30 END BOND
M  V30 END CTAB
M  END
>  <i_epik_Tot_Q>  (1) 
0

>  <i_epik_Tot_abs_Q>  (1) 
2

>  <i_i_glide_confnum>  (1) 
1753

>  <i_i_glide_lignum>  (1) 
220

>  <i_i_glide_posenum>  (1) 
92

>  <i_i_glide_rotatable_bonds>  (1) 
10

>  <i_lp_mmshare_version>  (1) 
72125

>  <i_m_source_file_index>  (1) 
86

>  <i_f3d_flags>  (1) 
0

>  <num_sample>  (1) 
100

>  <b_lp_Chiralities_Consistent>  (1) 
1

>  <r_epik_Charging_Adjusted_Penalty>  (1) 
0.24139881983135253

>  <r_epik_Ionization_Penalty>  (1) 
0.013577590547947769

>  <r_epik_Ionization_Penalty_Charging>  (1) 
0.013577468157686226

>  <r_epik_Ionization_Penalty_Neutral>  (1) 
1.223902615442005e-07

>  <r_epik_State_Penalty>  (1) 
0.22782135167366629

>  <r_glide_ring_energy>  (1) 
2.3799155957738485

>  <r_i_docking_score>  (1) 
-7.8240515093541276

>  <r_i_glide_ecoul>  (1) 
-8.0207391705126945

>  <r_i_glide_eff_state_penalty>  (1) 
0.22782135167366629

>  <r_i_glide_einternal>  (1) 
32.465588905563848

>  <r_i_glide_emodel>  (1) 
-26.246149542400111

>  <r_i_glide_emodel_strain>  (1) 
4.6085040127914993

>  <r_i_glide_energy>  (1) 
-27.189878219370975

>  <r_i_glide_erotb>  (1) 
0.49083612240102314

>  <r_i_glide_esite>  (1) 
0

>  <r_i_glide_evdw>  (1) 
-19.16913904885828

>  <r_i_glide_gscore>  (1) 
-8.0518728610277943

>  <r_i_glide_gscore_strain>  (1) 
0.15212600319787484

>  <r_i_glide_hbond>  (1) 
-0.45599999999999996

>  <r_i_glide_ligand_efficiency>  (1) 
-0.21733476414872577

>  <r_i_glide_ligand_efficiency_ln>  (1) 
-1.7069966578974238

>  <r_i_glide_ligand_efficiency_sa>  (1) 
-0.71762357987476477

>  <r_i_glide_lipo>  (1) 
-4.8586434118634632

>  <r_i_glide_metal>  (1) 
-0

>  <r_i_glide_rewards>  (1) 
-1.2186237467434122

>  <r_lp_Energy>  (1) 
69.240732999999992

>  <s_epik_cmdline>  (1) 
J2VwaWtfcHl0aG9uJywgJy1waHQnLCAnMS4wJywgJy1waCcsICc3LjQnLCAnLXRuJywgJzgnLCAnLW1hJywgJzUwMCcsICctaW1hZScsICc8aW5maWxlLm1hZT4nLCAnLW9tYWUnLCAnPG91dGZpbGUubWFlPic=

>  <s_epik_input>  (1) 
W0NIM11bQ0BIXTFbQ0gyXVtDSDJdW0NIMl1bQ0BIXShDbClbQ0BIXTFbQ0BASF0oQyg9TylbT0hdKVtDSDJdW0NAQEhdMlNbQ0BASF0oW0NAQEhdKFtPSF0pW0NASF0yW09IXSlbQ0BASF0oW0NIMl1bQ0gyXTMpW0NASF0oW0NIMl1bQ0BIXTM0KVtDQEhdKFtDSDJdNClbTkhdW05IXVtDSF01W0NIMl1bQ0gyXVtDSDJdW0NIMl1bQ0gyXTU=

>  <s_glide_docking_method>  (1) 
confgen

>  <s_i_glide_gridfile>  (1) 
gpcr_5ht2c_6bqh_protein_autoprepared_prepared

>  <s_lp_Force_Field>  (1) 
S-OPLS

>  <s_lp_Variant>  (1) 
DiffSBDD_85_num_sample_100-1

>  <s_m_source_file>  (1) 
generated__ligand_DiffSBDD_2026-05-06_prepared.sdf

>  <GenAI_Model>  (1) 
DiffSBDD

>  <Protein>  (1) 
GPCR_5HT2C

$$$$
DiffSBDD_10_num_sample_100
     RDKit          3D

  0  0  0  0  0  0  0  0  0  0999 V3000
M  V30 BEGIN CTAB
M  V30 COUNTS 89 92 0 0 1
M  V30 BEGIN ATOM
M  V30 1 C 42.449183 33.099589 64.970529 0
M  V30 2 C 40.332856 28.425073 60.768337 0
M  V30 3 C 40.797692 28.421426 57.357199 0
M  V30 4 C 38.397032 30.279556 54.166325 0 CFG=2
M  V30 5 C 40.627917 30.869652 63.584375 0
M  V30 6 C 38.575498 30.485294 56.508970 0 CFG=1
M  V30 7 C 39.013324 27.636651 52.521800 0
M  V30 8 C 39.821543 29.501661 61.738970 0
M  V30 9 O 43.478073 33.106545 67.940711 0
M  V30 10 O 40.851546 30.675015 67.417133 0
M  V30 11 C 41.694515 35.180682 66.330546 0
M  V30 12 C 40.648130 34.561442 67.275896 0
M  V30 13 O 39.979101 25.956987 56.480702 0
M  V30 14 C 41.918674 31.485171 66.966193 0 CFG=2
M  V30 15 C 41.144537 33.610940 68.392291 0
M  V30 16 N 41.463762 30.878157 64.629562 0
M  V30 17 C 39.081314 26.636045 56.980151 0
M  V30 18 C 38.632178 28.540138 58.686000 0 CFG=2
M  V30 19 C 39.271822 28.146281 57.299132 0 CFG=1
M  V30 20 C 38.999630 28.874891 51.592112 0 CFG=2
M  V30 21 C 39.528876 28.421403 50.230510 0
M  V30 22 C 38.335247 27.776380 53.892353 0
M  V30 23 C 37.804311 30.788263 57.784179 0
M  V30 24 C 38.513686 28.987464 56.214492 0 CFG=2
M  V30 25 C 39.897678 30.047867 52.053569 0
M  V30 26 C 38.489415 30.061193 58.933433 0
M  V30 27 C 39.446016 30.921934 53.245779 0
M  V30 28 C 37.571317 24.806582 57.076599 0
M  V30 29 N 38.041538 31.142626 55.314124 0 CHG=1
M  V30 30 C 39.207906 27.795463 59.912677 0
M  V30 31 C 41.828262 34.506245 64.960002 0
M  V30 32 C 42.204306 32.521846 68.087312 0 CFG=2
M  V30 33 O 37.857560 26.178050 57.288653 0
M  V30 34 C 41.525973 32.005879 65.561388 0 CFG=2
M  V30 35 O 39.867407 31.798241 63.312835 0
M  V30 36 C 38.904223 28.936100 54.730657 0 CFG=2
M  V30 37 N 40.700485 29.741607 62.870962 0
M  V30 38 H 42.667406 32.866131 63.927541 0
M  V30 39 H 43.425017 33.100371 65.453498 0
M  V30 40 H 41.145363 28.807431 60.152616 0
M  V30 41 H 40.764369 27.621508 61.364526 0
M  V30 42 H 41.016165 29.362257 57.853501 0
M  V30 43 H 41.319326 27.663646 57.944569 0
M  V30 44 H 41.268980 28.421441 56.375371 0
M  V30 45 H 37.467420 30.132984 53.620072 0
M  V30 46 H 39.611517 30.813180 56.607740 0
M  V30 47 H 40.036925 27.286588 52.653520 0
M  V30 48 H 38.504200 26.821384 52.006806 0
M  V30 49 H 38.852881 29.220547 62.151784 0
M  V30 50 H 39.676736 30.443624 61.215910 0
M  V30 51 H 43.449078 33.684308 67.194303 0
M  V30 52 H 40.607238 30.087842 66.717154 0
M  V30 53 H 41.414921 36.220654 66.155238 0
M  V30 54 H 42.667398 35.221429 66.793184 0
M  V30 55 H 39.867403 34.088855 66.691644 0
M  V30 56 H 40.132153 35.380965 67.778172 0
M  V30 57 H 42.795455 30.841697 66.872845 0
M  V30 58 H 40.265640 33.116139 68.806443 0
M  V30 59 H 41.527338 34.223660 69.209475 0
M  V30 60 H 42.065539 30.086082 64.796899 0
M  V30 61 H 37.594350 28.213205 58.626142 0
M  V30 62 H 37.974145 29.215271 51.458935 0
M  V30 63 H 40.572322 28.126745 50.314108 0
M  V30 64 H 38.993882 27.553573 49.853521 0
M  V30 65 H 39.467419 29.211468 49.481020 0
M  V30 66 H 38.462975 26.825612 54.402488 0
M  V30 67 H 37.257417 27.887267 53.765275 0
M  V30 68 H 36.779204 30.421430 57.708157 0
M  V30 69 H 37.757568 31.861048 57.975474 0
M  V30 70 H 37.467402 28.694126 56.254087 0
M  V30 71 H 40.874264 29.621452 52.253505 0
M  V30 72 H 40.067571 30.725879 51.214781 0
M  V30 73 H 37.906028 30.234049 59.838606 0
M  V30 74 H 39.467409 30.510963 59.082172 0
M  V30 75 H 40.328164 31.193872 53.827131 0
M  V30 76 H 39.067401 31.869427 52.865921 0
M  V30 77 H 36.627821 24.550931 57.550377 0
M  V30 78 H 37.495300 24.588943 56.010568 0
M  V30 79 H 38.343052 24.167950 57.509774 0
M  V30 80 H 37.032667 31.189732 55.416034 0
M  V30 81 H 39.557689 26.821437 59.580374 0
M  V30 82 H 38.371351 27.621434 60.586438 0
M  V30 83 H 40.859636 34.483485 64.458716 0
M  V30 84 H 42.459135 35.144754 64.339655 0
M  V30 85 H 42.309429 31.944977 69.008019 0
M  V30 86 H 40.513705 32.399329 65.634259 0
M  V30 87 H 39.986145 28.918620 54.683526 0
M  V30 88 H 41.342267 29.012821 63.144233 0
M  V30 89 H 38.399883 32.081663 55.214094 0
M  V30 END ATOM
M  V30 BEGIN BOND
M  V30 1 1 8 2
M  V30 2 1 12 11
M  V30 3 1 14 10
M  V30 4 1 15 12
M  V30 5 1 16 5
M  V30 6 2 17 13
M  V30 7 1 19 3 CFG=1
M  V30 8 1 19 17
M  V30 9 1 19 18
M  V30 10 1 20 7
M  V30 11 1 21 20
M  V30 12 1 22 7
M  V30 13 1 23 6
M  V30 14 1 24 6
M  V30 15 1 24 19
M  V30 16 1 25 20
M  V30 17 1 26 18
M  V30 18 1 26 23
M  V30 19 1 27 4
M  V30 20 1 27 25
M  V30 21 1 29 4
M  V30 22 1 29 6
M  V30 23 1 30 2
M  V30 24 1 30 18
M  V30 25 1 31 1
M  V30 26 1 31 11
M  V30 27 1 32 9
M  V30 28 1 32 14
M  V30 29 1 32 15
M  V30 30 1 33 17
M  V30 31 1 33 28
M  V30 32 1 34 1
M  V30 33 1 34 14
M  V30 34 1 34 16
M  V30 35 2 35 5
M  V30 36 1 36 4
M  V30 37 1 36 22
M  V30 38 1 36 24
M  V30 39 1 37 5
M  V30 40 1 37 8
M  V30 41 1 38 1
M  V30 42 1 39 1
M  V30 43 1 40 2
M  V30 44 1 41 2
M  V30 45 1 42 3
M  V30 46 1 43 3
M  V30 47 1 44 3
M  V30 48 1 4 45 CFG=3
M  V30 49 1 6 46 CFG=1
M  V30 50 1 47 7
M  V30 51 1 48 7
M  V30 52 1 49 8
M  V30 53 1 50 8
M  V30 54 1 51 9
M  V30 55 1 52 10
M  V30 56 1 53 11
M  V30 57 1 54 11
M  V30 58 1 55 12
M  V30 59 1 56 12
M  V30 60 1 14 57 CFG=3
M  V30 61 1 58 15
M  V30 62 1 59 15
M  V30 63 1 60 16
M  V30 64 1 18 61 CFG=3
M  V30 65 1 20 62 CFG=3
M  V30 66 1 63 21
M  V30 67 1 64 21
M  V30 68 1 65 21
M  V30 69 1 66 22
M  V30 70 1 67 22
M  V30 71 1 68 23
M  V30 72 1 69 23
M  V30 73 1 24 70 CFG=3
M  V30 74 1 71 25
M  V30 75 1 72 25
M  V30 76 1 73 26
M  V30 77 1 74 26
M  V30 78 1 75 27
M  V30 79 1 76 27
M  V30 80 1 77 28
M  V30 81 1 78 28
M  V30 82 1 79 28
M  V30 83 1 80 29
M  V30 84 1 81 30
M  V30 85 1 82 30
M  V30 86 1 83 31
M  V30 87 1 84 31
M  V30 88 1 32 85 CFG=1
M  V30 89 1 34 86 CFG=1
M  V30 90 1 36 87 CFG=1
M  V30 91 1 88 37
M  V30 92 1 89 29
M  V30 END BOND
M  V30 END CTAB
M  END
>  <i_epik_Tot_Q>  (1) 
1

>  <i_epik_Tot_abs_Q>  (1) 
1

>  <i_i_glide_confnum>  (1) 
954

>  <i_i_glide_lignum>  (1) 
29

>  <i_i_glide_posenum>  (1) 
251

>  <i_i_glide_rotatable_bonds>  (1) 
11

>  <i_lp_mmshare_version>  (1) 
72125

>  <i_m_source_file_index>  (1) 
11

>  <i_f3d_flags>  (1) 
0

>  <num_sample>  (1) 
100

>  <b_lp_Chiralities_Consistent>  (1) 
1

>  <r_epik_Charging_Adjusted_Penalty>  (1) 
5.0796361182183547e-05

>  <r_epik_Ionization_Penalty>  (1) 
7.4494793670828869e-05

>  <r_epik_Ionization_Penalty_Charging>  (1) 
5.0796361182183547e-05

>  <r_epik_Ionization_Penalty_Neutral>  (1) 
2.3698432488645322e-05

>  <r_epik_State_Penalty>  (1) 
-0

>  <r_glide_ring_energy>  (1) 
0.60387110762599439

>  <r_i_docking_score>  (1) 
-7.8125981753849958

>  <r_i_glide_ecoul>  (1) 
-1.7089423186810926

>  <r_i_glide_eff_state_penalty>  (1) 
-0

>  <r_i_glide_einternal>  (1) 
8.5815526621634461

>  <r_i_glide_emodel>  (1) 
-60.043007654656783

>  <r_i_glide_emodel_strain>  (1) 
1.4306408380363962

>  <r_i_glide_energy>  (1) 
-46.08029899273528

>  <r_i_glide_erotb>  (1) 
0.60206145100119157

>  <r_i_glide_esite>  (1) 
-0.10119662902805869

>  <r_i_glide_evdw>  (1) 
-44.371356674054184

>  <r_i_glide_gscore>  (1) 
-7.8125981753849958

>  <r_i_glide_gscore_strain>  (1) 
0

>  <r_i_glide_hbond>  (1) 
-0.052720053524297199

>  <r_i_glide_ligand_efficiency>  (1) 
-0.21115130203743232

>  <r_i_glide_ligand_efficiency_ln>  (1) 
-1.6943693909538076

>  <r_i_glide_ligand_efficiency_sa>  (1) 
-0.70360298265262677

>  <r_i_glide_lipo>  (1) 
-4.7094952413185016

>  <r_i_glide_metal>  (1) 
-0

>  <r_i_glide_rewards>  (1) 
-1.0763385210104575

>  <r_lp_Energy>  (1) 
70.195819

>  <r_lp_tautomer_probability>  (1) 
1

>  <s_epik_Chemistry_Notes>  (1) 
This compound has an ester and may undergo hydrolysis at high or low pH.

>  <s_epik_cmdline>  (1) 
J2VwaWtfcHl0aG9uJywgJy1waHQnLCAnMS4wJywgJy1waCcsICc3LjQnLCAnLXRuJywgJzgnLCAnLW1hJywgJzUwMCcsICctaW1hZScsICc8aW5maWxlLm1hZT4nLCAnLW9tYWUnLCAnPG91dGZpbGUubWFlPic=

>  <s_epik_input>  (1) 
W09IXVtDQEBIXTFbQ0BASF0oW09IXSlbQ0gyXVtDSDJdW0NIMl1bQ0gyXVtDSDJdW0NASF0xW05IXUMoPU8pW05IXVtDSDJdW0NIMl1bQ0gyXVtDQEhdKFtDQEBdMihbQ0gzXSlDKD1PKU9bQ0gzXSlbQ0gyXVtDSDJdW0NASF0oW05IXTMpW0NASF0yW0NASF0oW0NAQEhdMzQpW0NIMl1bQ0gyXVtDQEhdKFtDSDNdKVtDSDJdW0NIMl00

>  <s_glide_docking_method>  (1) 
confgen

>  <s_i_glide_gridfile>  (1) 
gpcr_5ht2c_6bqh_protein_autoprepared_prepared

>  <s_lp_Force_Field>  (1) 
S-OPLS

>  <s_lp_Variant>  (1) 
DiffSBDD_10_num_sample_100-1

>  <s_m_source_file>  (1) 
generated__ligand_DiffSBDD_2026-05-06_prepared.sdf

>  <GenAI_Model>  (1) 
DiffSBDD

>  <Protein>  (1) 
GPCR_5HT2C

$$$$
DiffSBDD_30_num_sample_100
     RDKit          3D

  0  0  0  0  0  0  0  0  0  0999 V3000
M  V30 BEGIN CTAB
M  V30 COUNTS 69 72 0 0 1
M  V30 BEGIN ATOM
M  V30 1 C 37.187727 36.760862 59.858130 0
M  V30 2 C 38.164445 32.144770 61.177883 0 CFG=2
M  V30 3 O 38.070315 36.194296 61.972745 0
M  V30 4 C 37.236306 24.657330 56.080288 0
M  V30 5 C 37.636705 24.756429 57.423379 0
M  V30 6 N 37.198177 33.915360 59.144363 0
M  V30 7 C 38.480530 27.004311 57.006024 0
M  V30 8 C 37.830489 34.334584 60.410403 0 CFG=1
M  V30 9 O 36.667378 30.945983 59.053499 0
M  V30 10 O 40.107988 32.856648 62.426987 0
M  V30 11 C 38.958033 28.526622 52.315147 0
M  V30 12 C 39.317310 31.949054 62.172638 0
M  V30 13 C 39.453216 30.578468 62.827546 0
M  V30 14 C 40.141690 28.798674 51.407196 0
M  V30 15 C 39.739888 28.588466 54.654088 0 CFG=2
M  V30 16 C 38.607037 33.096723 55.768376 0
M  V30 17 N 37.867402 32.921065 57.031855 0 CHG=1
M  V30 18 C 39.124159 27.758973 51.035442 0
M  V30 19 C 38.505293 30.628904 55.149958 0 CFG=1
M  V30 20 C 38.259166 25.928789 57.885250 0
M  V30 21 C 39.811684 30.106138 54.558987 0
M  V30 22 N 39.187593 27.782572 53.547935 0
M  V30 23 C 37.462655 25.728867 55.195502 0
M  V30 24 C 38.070709 34.020272 57.980835 0
M  V30 25 C 38.087504 26.912433 55.652108 0
M  V30 26 C 38.147372 32.063574 54.741258 0
M  V30 27 C 36.204862 31.180420 60.369682 0
M  V30 28 C 37.260241 35.671800 60.940389 0 CFG=2
M  V30 29 C 38.354627 28.047509 54.708922 0 CFG=1
M  V30 30 O 37.076205 25.621418 53.893396 0
M  V30 31 S 37.228557 29.468545 54.653530 0
M  V30 32 O 37.588011 33.394974 61.411614 0
M  V30 33 O 37.225458 31.121499 61.321005 0
M  V30 34 H 36.529745 36.480361 59.035987 0
M  V30 35 H 36.793919 37.688864 60.274355 0
M  V30 36 H 38.173819 36.975769 59.453519 0
M  V30 37 H 38.593244 32.076098 60.177157 0
M  V30 38 H 38.961403 36.258930 61.666559 0
M  V30 39 H 36.758400 23.755596 55.724552 0
M  V30 40 H 37.467320 23.931406 58.099792 0
M  V30 41 H 36.891117 32.950923 59.247083 0
M  V30 42 H 38.961459 27.901612 57.367227 0
M  V30 43 H 38.912753 34.417571 60.294824 0
M  V30 44 H 35.943245 31.083056 58.438315 0
M  V30 45 H 38.146627 29.243856 52.271151 0
M  V30 46 H 38.654764 30.421431 63.551534 0
M  V30 47 H 39.399899 29.788209 62.079173 0
M  V30 48 H 40.407931 30.499676 63.347789 0
M  V30 49 H 40.140113 29.727971 50.840868 0
M  V30 50 H 41.121811 28.438836 51.701613 0
M  V30 51 H 40.451689 28.126444 55.337919 0
M  V30 52 H 39.680595 33.020298 55.945325 0
M  V30 53 H 38.409564 34.096631 55.380747 0
M  V30 54 H 36.875018 32.856336 56.799483 0
M  V30 55 H 39.420809 26.712755 51.086646 0
M  V30 56 H 38.429417 28.021418 50.253498 0
M  V30 57 H 38.557051 30.529014 56.234164 0
M  V30 58 H 38.568043 26.004536 58.917304 0
M  V30 59 H 39.966917 30.450763 53.538417 0
M  V30 60 H 40.667326 30.468671 55.126583 0
M  V30 61 H 39.120814 33.996920 58.270748 0
M  V30 62 H 37.867400 34.946849 57.453363 0
M  V30 63 H 38.558266 32.291367 53.757450 0
M  V30 64 H 37.067422 32.153963 54.629464 0
M  V30 65 H 35.467414 30.421431 60.603078 0
M  V30 66 H 35.679483 32.136143 60.400749 0
M  V30 67 H 36.267410 35.482898 61.341369 0
M  V30 68 H 37.445093 26.300101 53.344405 0
M  V30 69 H 38.124609 32.041309 57.455870 0
M  V30 END ATOM
M  V30 BEGIN BOND
M  V30 1 1 5 4
M  V30 2 1 8 6
M  V30 3 1 12 2
M  V30 4 2 12 10
M  V30 5 1 13 12
M  V30 6 1 14 11
M  V30 7 1 17 16
M  V30 8 1 18 11
M  V30 9 1 18 14
M  V30 10 2 20 5
M  V30 11 1 20 7
M  V30 12 1 21 15
M  V30 13 1 21 19
M  V30 14 1 22 11
M  V30 15 1 22 15
M  V30 16 2 23 4
M  V30 17 1 24 6
M  V30 18 1 24 17
M  V30 19 2 25 7
M  V30 20 1 25 23
M  V30 21 1 26 16
M  V30 22 1 26 19
M  V30 23 1 27 9
M  V30 24 1 28 1
M  V30 25 1 28 3
M  V30 26 1 28 8
M  V30 27 1 29 15
M  V30 28 1 29 22
M  V30 29 1 29 25 CFG=1
M  V30 30 1 30 23
M  V30 31 1 31 19
M  V30 32 1 31 29
M  V30 33 1 32 2
M  V30 34 1 32 8
M  V30 35 1 33 2
M  V30 36 1 33 27
M  V30 37 1 34 1
M  V30 38 1 35 1
M  V30 39 1 36 1
M  V30 40 1 2 37 CFG=3
M  V30 41 1 38 3
M  V30 42 1 39 4
M  V30 43 1 40 5
M  V30 44 1 41 6
M  V30 45 1 42 7
M  V30 46 1 8 43 CFG=3
M  V30 47 1 44 9
M  V30 48 1 45 11
M  V30 49 1 46 13
M  V30 50 1 47 13
M  V30 51 1 48 13
M  V30 52 1 49 14
M  V30 53 1 50 14
M  V30 54 1 15 51 CFG=1
M  V30 55 1 52 16
M  V30 56 1 53 16
M  V30 57 1 54 17
M  V30 58 1 55 18
M  V30 59 1 56 18
M  V30 60 1 19 57 CFG=1
M  V30 61 1 58 20
M  V30 62 1 59 21
M  V30 63 1 60 21
M  V30 64 1 61 24
M  V30 65 1 62 24
M  V30 66 1 63 26
M  V30 67 1 64 26
M  V30 68 1 65 27
M  V30 69 1 66 27
M  V30 70 1 28 67 CFG=1
M  V30 71 1 68 30
M  V30 72 1 69 17
M  V30 END BOND
M  V30 END CTAB
M  END
>  <i_epik_Tot_Q>  (1) 
1

>  <i_epik_Tot_abs_Q>  (1) 
1

>  <i_i_glide_confnum>  (1) 
6252

>  <i_i_glide_lignum>  (1) 
80

>  <i_i_glide_posenum>  (1) 
93

>  <i_i_glide_rotatable_bonds>  (1) 
17

>  <i_lp_mmshare_version>  (1) 
72125

>  <i_m_source_file_index>  (1) 
31

>  <i_f3d_flags>  (1) 
0

>  <num_sample>  (1) 
100

>  <b_lp_Chiralities_Consistent>  (1) 
1

>  <r_epik_Charging_Adjusted_Penalty>  (1) 
0.074635642036716146

>  <r_epik_Ionization_Penalty>  (1) 
0.2367700207343624

>  <r_epik_Ionization_Penalty_Charging>  (1) 
0.00051329390614008978

>  <r_epik_Ionization_Penalty_Neutral>  (1) 
0.23625672682822232

>  <r_epik_State_Penalty>  (1) 
0.074122348130576055

>  <r_glide_ring_energy>  (1) 
0

>  <r_i_docking_score>  (1) 
-7.8121192914262636

>  <r_i_glide_ecoul>  (1) 
-9.4630024722659947

>  <r_i_glide_eff_state_penalty>  (1) 
0.074122348130576055

>  <r_i_glide_einternal>  (1) 
20.936077444813975

>  <r_i_glide_emodel>  (1) 
-65.887262152865219

>  <r_i_glide_emodel_strain>  (1) 
1.077527114876986

>  <r_i_glide_energy>  (1) 
-45.560978679131878

>  <r_i_glide_erotb>  (1) 
1.1326933877215775

>  <r_i_glide_esite>  (1) 
-0.20543813294664989

>  <r_i_glide_evdw>  (1) 
-36.09797620686588

>  <r_i_glide_gscore>  (1) 
-7.8862416395568395

>  <r_i_glide_gscore_strain>  (1) 
0

>  <r_i_glide_hbond>  (1) 
-0.75385850499925411

>  <r_i_glide_ligand_efficiency>  (1) 
-0.23673088761897768

>  <r_i_glide_ligand_efficiency_ln>  (1) 
-1.7373748814242933

>  <r_i_glide_ligand_efficiency_sa>  (1) 
-0.75932244900825496

>  <r_i_glide_lipo>  (1) 
-3.7352900571019547

>  <r_i_glide_metal>  (1) 
-0

>  <r_i_glide_rewards>  (1) 
-1.0999991510473655

>  <r_lp_Energy>  (1) 
27.490511999999999

>  <r_lp_tautomer_probability>  (1) 
0.99999996999736518

>  <s_epik_Chemistry_Notes>  (1) 
This compound contains an acetal/aminal-like group ( X-CH(R)-Y where X, Y are N, S, or O) that may be acid/base labile, releasing an aldehyde.

>  <s_epik_cmdline>  (1) 
J2VwaWtfcHl0aG9uJywgJy1waHQnLCAnMS4wJywgJy1waCcsICc3LjQnLCAnLXRuJywgJzgnLCAnLW1hJywgJzUwMCcsICctaW1hZScsICc8aW5maWxlLm1hZT4nLCAnLW9tYWUnLCAnPG91dGZpbGUubWFlPic=

>  <s_epik_input>  (1) 
W09IXVtDSDJdT1tDQEBIXShDKD1PKVtDSDNdKU9bQ0BIXShbQ0BIXShbQ0gzXSlbT0hdKVtOSF1bQ0gyXVtOSF1bQ0gyXVtDSDJdW0NAQEhdKFMxKVtDSDJdW0NASF0oTjJbQ0hdM1tDSDJdW0NIMl0zKVtDQEBdMTJjNFtjSF1bY0hdW2NIXVtjSF1jNFtPSF0=

>  <s_glide_docking_method>  (1) 
confgen

>  <s_i_glide_gridfile>  (1) 
gpcr_5ht2c_6bqh_protein_autoprepared_prepared

>  <s_lp_Force_Field>  (1) 
S-OPLS

>  <s_lp_Variant>  (1) 
DiffSBDD_30_num_sample_100-2

>  <s_m_source_file>  (1) 
generated__ligand_DiffSBDD_2026-05-06_prepared.sdf

>  <GenAI_Model>  (1) 
DiffSBDD

>  <Protein>  (1) 
GPCR_5HT2C

$$$$
DiffSBDD_76_num_sample_100
     RDKit          3D

  0  0  0  0  0  0  0  0  0  0999 V3000
M  V30 BEGIN CTAB
M  V30 COUNTS 62 64 0 0 1
M  V30 BEGIN ATOM
M  V30 1 C 39.010865 28.992566 52.977537 0
M  V30 2 C 38.193244 27.933076 58.122481 0
M  V30 3 O 37.609647 31.380380 61.335329 0
M  V30 4 C 38.682595 34.923713 62.034165 0
M  V30 5 Cl 37.512662 33.564957 57.595232 0
M  V30 6 C 38.467019 31.386983 59.048315 0
M  V30 7 N 37.906787 33.349087 60.277450 0
M  V30 8 C 37.953660 32.008547 60.328110 0
M  V30 9 C 39.828052 29.624206 60.157441 0
M  V30 10 C 38.146420 32.081352 55.253985 0
M  V30 11 C 38.511901 29.901526 56.539200 0 CFG=2
M  V30 12 C 38.761629 31.415299 56.505526 0 CFG=2
M  V30 13 O 41.467410 35.621438 62.308080 0
M  V30 14 S 39.475771 26.276286 54.836782 0
M  V30 15 C 40.398038 30.310034 51.453579 0
M  V30 16 C 38.293851 32.009430 57.830066 0
M  V30 17 C 37.483534 34.180813 61.398671 0
M  V30 18 C 38.725525 28.094512 51.923965 0
M  V30 19 C 40.111293 29.415015 50.415837 0
M  V30 20 C 39.014221 29.219442 57.851069 0 CFG=1
M  V30 21 O 40.038259 30.374474 61.134270 0 CHG=-1
M  V30 22 C 40.878737 34.766326 63.281052 0
M  V30 23 C 40.559981 36.580753 61.779835 0
M  V30 24 C 38.000472 27.326138 54.703021 0
M  V30 25 C 39.283973 28.302774 50.653343 0
M  V30 26 C 39.733028 33.969071 62.639345 0
M  V30 27 N 39.067362 30.065160 59.084374 0
M  V30 28 O 39.198141 29.314647 55.421578 0
M  V30 29 C 39.402500 35.865681 61.060868 0
M  V30 30 C 39.861873 30.097393 52.737021 0
M  V30 31 F 40.632208 29.621429 49.185848 0
M  V30 32 O 40.330773 28.479171 60.111102 0
M  V30 33 C 38.383554 28.787085 54.366927 0 CFG=1
M  V30 34 H 38.547759 27.110304 57.507019 0
M  V30 35 H 38.267486 27.574528 59.147153 0
M  V30 36 H 37.131057 28.081369 57.929040 0
M  V30 37 H 38.291208 35.572808 62.821043 0
M  V30 38 H 38.187768 33.814466 59.426372 0
M  V30 39 H 38.439174 33.125972 55.148648 0
M  V30 40 H 38.416596 31.598811 54.328178 0
M  V30 41 H 37.067406 32.021615 55.289606 0
M  V30 42 H 37.431918 29.755838 56.467925 0
M  V30 43 H 39.839795 31.572837 56.465212 0
M  V30 44 H 40.099413 27.045635 55.735539 0
M  V30 45 H 41.038386 31.160642 51.270324 0
M  V30 46 H 36.771340 34.910773 61.012981 0
M  V30 47 H 36.932655 33.604458 62.143290 0
M  V30 48 H 38.079158 27.247776 52.085984 0
M  V30 49 H 40.048212 28.925226 57.656860 0
M  V30 50 H 40.522188 35.352651 64.129409 0
M  V30 51 H 41.642556 34.087143 63.660238 0
M  V30 52 H 40.190745 37.227367 62.577338 0
M  V30 53 H 41.099170 37.215524 61.078713 0
M  V30 54 H 37.301849 26.899875 53.985041 0
M  V30 55 H 37.467425 27.290182 55.645747 0
M  V30 56 H 39.067408 27.613346 49.853532 0
M  V30 57 H 39.284031 33.293962 63.367499 0
M  V30 58 H 40.150448 33.327570 61.862139 0
M  V30 59 H 39.805474 35.301000 60.220937 0
M  V30 60 H 38.695466 36.589837 60.653518 0
M  V30 61 H 40.098601 30.784061 53.532552 0
M  V30 62 H 37.458062 29.362701 54.314069 0
M  V30 END ATOM
M  V30 BEGIN BOND
M  V30 1 2 8 3
M  V30 2 1 8 6
M  V30 3 1 8 7
M  V30 4 1 12 10
M  V30 5 1 12 11
M  V30 6 1 16 5
M  V30 7 2 16 6
M  V30 8 1 16 12
M  V30 9 1 17 4
M  V30 10 1 17 7
M  V30 11 2 18 1
M  V30 12 1 19 15
M  V30 13 1 20 2
M  V30 14 1 20 11
M  V30 15 1 21 9
M  V30 16 1 22 13
M  V30 17 1 23 13
M  V30 18 1 24 14
M  V30 19 1 25 18
M  V30 20 2 25 19
M  V30 21 1 26 4
M  V30 22 1 26 22
M  V30 23 1 27 6
M  V30 24 1 27 9
M  V30 25 1 27 20
M  V30 26 1 28 11
M  V30 27 1 29 4
M  V30 28 1 29 23
M  V30 29 1 30 1
M  V30 30 2 30 15
M  V30 31 1 31 19
M  V30 32 2 32 9
M  V30 33 1 33 1
M  V30 34 1 33 24
M  V30 35 1 33 28
M  V30 36 1 34 2
M  V30 37 1 35 2
M  V30 38 1 36 2
M  V30 39 1 37 4
M  V30 40 1 38 7
M  V30 41 1 39 10
M  V30 42 1 40 10
M  V30 43 1 41 10
M  V30 44 1 11 42 CFG=3
M  V30 45 1 12 43 CFG=3
M  V30 46 1 44 14
M  V30 47 1 45 15
M  V30 48 1 46 17
M  V30 49 1 47 17
M  V30 50 1 48 18
M  V30 51 1 20 49 CFG=3
M  V30 52 1 50 22
M  V30 53 1 51 22
M  V30 54 1 52 23
M  V30 55 1 53 23
M  V30 56 1 54 24
M  V30 57 1 55 24
M  V30 58 1 56 25
M  V30 59 1 57 26
M  V30 60 1 58 26
M  V30 61 1 59 29
M  V30 62 1 60 29
M  V30 63 1 61 30
M  V30 64 1 33 62 CFG=3
M  V30 END BOND
M  V30 END CTAB
M  END
>  <i_epik_Tot_Q>  (1) 
-1

>  <i_epik_Tot_abs_Q>  (1) 
1

>  <i_i_glide_confnum>  (1) 
53

>  <i_i_glide_lignum>  (1) 
189

>  <i_i_glide_posenum>  (1) 
23

>  <i_i_glide_rotatable_bonds>  (1) 
10

>  <i_lp_mmshare_version>  (1) 
72125

>  <i_m_source_file_index>  (1) 
77

>  <i_f3d_flags>  (1) 
0

>  <num_sample>  (1) 
100

>  <b_lp_Chiralities_Consistent>  (1) 
1

>  <r_epik_Charging_Adjusted_Penalty>  (1) 
0.0069450066625796414

>  <r_epik_Ionization_Penalty>  (1) 
0.006947181281074642

>  <r_epik_Ionization_Penalty_Charging>  (1) 
2.7704327777150034e-06

>  <r_epik_Ionization_Penalty_Neutral>  (1) 
0.0069444108482969273

>  <r_epik_State_Penalty>  (1) 
0.0069422362298019267

>  <r_glide_ring_energy>  (1) 
0

>  <r_i_docking_score>  (1) 
-7.8019096174437443

>  <r_i_glide_ecoul>  (1) 
-3.1392154622411397

>  <r_i_glide_eff_state_penalty>  (1) 
0.0069422362298019267

>  <r_i_glide_einternal>  (1) 
8.4477054298694867

>  <r_i_glide_emodel>  (1) 
-68.275417488182995

>  <r_i_glide_emodel_strain>  (1) 
0.74711394965652289

>  <r_i_glide_energy>  (1) 
-50.473155587605376

>  <r_i_glide_erotb>  (1) 
0.57163862173476065

>  <r_i_glide_esite>  (1) 
-0.0025310237994923576

>  <r_i_glide_evdw>  (1) 
-47.333940125364236

>  <r_i_glide_gscore>  (1) 
-7.8088518536735458

>  <r_i_glide_gscore_strain>  (1) 
0

>  <r_i_glide_hbond>  (1) 
-0.10260746598564917

>  <r_i_glide_ligand_efficiency>  (1) 
-0.23642150355890135

>  <r_i_glide_ligand_efficiency_ln>  (1) 
-1.7351043027934439

>  <r_i_glide_ligand_efficiency_sa>  (1) 
-0.75833008901440657

>  <r_i_glide_lipo>  (1) 
-3.7604421956570606

>  <r_i_glide_metal>  (1) 
-0

>  <r_i_glide_rewards>  (1) 
-1.6773304643617217

>  <r_lp_Energy>  (1) 
51.555678999999998

>  <s_epik_cmdline>  (1) 
J2VwaWtfcHl0aG9uJywgJy1waHQnLCAnMS4wJywgJy1waCcsICc3LjQnLCAnLXRuJywgJzgnLCAnLW1hJywgJzUwMCcsICctaW1hZScsICc8aW5maWxlLm1hZT4nLCAnLW9tYWUnLCAnPG91dGZpbGUubWFlPic=

>  <s_epik_input>  (1) 
W2NIXTFbY0hdYyhGKVtjSF1bY0hdYzFbQ0BASF0oW0NIMl1bU0hdKU9bQ0BASF0oW0NASF0oW0NIM10pTjJDKD1PKVtPSF0pW0NAQEhdKFtDSDNdKUMoQ2wpPUMyQyg9TylbTkhdW0NIMl1bQ0hdM1tDSDJdW0NIMl1PW0NIMl1bQ0gyXTM=

>  <s_glide_docking_method>  (1) 
confgen

>  <s_i_glide_gridfile>  (1) 
gpcr_5ht2c_6bqh_protein_autoprepared_prepared

>  <s_lp_Force_Field>  (1) 
S-OPLS

>  <s_lp_Variant>  (1) 
DiffSBDD_76_num_sample_100-1

>  <s_m_source_file>  (1) 
generated__ligand_DiffSBDD_2026-05-06_prepared.sdf

>  <GenAI_Model>  (1) 
DiffSBDD

>  <Protein>  (1) 
GPCR_5HT2C

$$$$
DiffSBDD_24_num_sample_100
     RDKit          3D

  0  0  0  0  0  0  0  0  0  0999 V3000
M  V30 BEGIN CTAB
M  V30 COUNTS 61 63 0 0 1
M  V30 BEGIN ATOM
M  V30 1 C 39.242737 32.048538 55.836294 0
M  V30 2 O 39.312305 34.105044 60.387062 0
M  V30 3 C 36.162259 31.652457 61.158923 0
M  V30 4 C 37.050373 25.229211 57.826405 0
M  V30 5 C 36.826258 23.777016 55.785237 0
M  V30 6 N 37.391956 33.183580 59.603021 0
M  V30 7 C 37.361262 34.018277 58.402369 0
M  V30 8 C 39.014832 29.315796 53.162414 0
M  V30 9 C 38.442694 28.358939 55.386087 0
M  V30 10 N 37.444809 24.913473 56.470849 0
M  V30 11 O 40.788615 32.720817 62.339666 0
M  V30 12 N 37.467385 31.221436 61.636639 0
M  V30 13 C 40.127578 30.316812 51.051020 0
M  V30 14 C 39.847155 31.724010 61.994267 0
M  V30 15 C 38.062135 27.280459 56.208021 0
M  V30 16 C 38.442866 32.310667 61.717936 0 CFG=1
M  V30 17 C 38.648994 29.610261 55.970034 0
M  V30 18 N 38.267402 32.291118 56.884570 0
M  V30 19 C 38.621651 28.175566 53.984521 0
M  V30 20 C 37.837196 26.005132 55.653020 0
M  V30 21 C 39.193419 29.273987 51.641329 0
M  V30 22 C 38.408840 33.272675 60.500685 0
M  V30 23 C 39.237246 30.557208 53.810765 0
M  V30 24 C 38.571035 28.400612 50.830647 0
M  V30 25 C 38.024414 25.817084 54.280228 0
M  V30 26 C 38.438961 26.872024 53.454329 0
M  V30 27 C 36.308424 32.203096 59.744726 0
M  V30 28 C 38.460449 33.621427 57.403795 0
M  V30 29 C 39.042136 30.701625 55.190968 0
M  V30 30 H 39.144419 32.819440 55.070724 0
M  V30 31 H 40.255960 32.110198 56.233180 0
M  V30 32 H 35.747624 32.415399 61.819840 0
M  V30 33 H 35.457760 30.821425 61.157762 0
M  V30 34 H 36.267317 25.986089 57.853503 0
M  V30 35 H 36.667395 24.316383 58.253882 0
M  V30 36 H 37.903045 25.551891 58.425129 0
M  V30 37 H 35.997320 24.101864 55.154717 0
M  V30 38 H 37.544825 23.238867 55.167388 0
M  V30 39 H 36.431213 23.056122 56.500574 0
M  V30 40 H 36.387829 33.960002 57.913407 0
M  V30 41 H 37.467386 35.065006 58.688196 0
M  V30 42 H 40.726812 33.412462 61.692342 0
M  V30 43 H 37.831021 30.518437 60.999144 0
M  V30 44 H 39.705371 31.320198 51.101519 0
M  V30 45 H 41.067406 30.308803 51.581503 0
M  V30 46 H 40.334914 30.114493 49.999919 0
M  V30 47 H 40.212896 31.183811 61.119784 0
M  V30 48 H 39.805121 31.006178 62.814547 0
M  V30 49 H 37.935498 27.443655 57.266549 0
M  V30 50 H 38.176703 32.922549 62.578735 0
M  V30 51 H 38.504847 29.735104 57.033876 0
M  V30 52 H 37.307923 32.174515 56.555291 0
M  V30 53 H 39.530499 31.419184 53.233489 0
M  V30 54 H 38.759251 28.421428 49.769937 0
M  V30 55 H 37.867410 27.683137 51.180598 0
M  V30 56 H 37.867405 24.847702 53.853502 0
M  V30 57 H 38.629159 26.654656 52.439641 0
M  V30 58 H 35.359285 32.642902 59.435317 0
M  V30 59 H 36.504163 31.381836 59.053533 0
M  V30 60 H 38.445620 34.330236 56.573205 0
M  V30 61 H 39.446897 33.621438 57.867283 0
M  V30 END ATOM
M  V30 BEGIN BOND
M  V30 1 1 7 6
M  V30 2 1 10 4
M  V30 3 1 10 5
M  V30 4 1 12 3
M  V30 5 1 14 11
M  V30 6 1 15 9
M  V30 7 1 16 12
M  V30 8 1 16 14
M  V30 9 2 17 9
M  V30 10 1 18 1
M  V30 11 2 19 8
M  V30 12 1 19 9
M  V30 13 1 20 10
M  V30 14 2 20 15
M  V30 15 1 21 8
M  V30 16 1 21 13
M  V30 17 2 22 2
M  V30 18 1 22 6
M  V30 19 1 22 16
M  V30 20 1 23 8
M  V30 21 2 24 21
M  V30 22 1 25 20
M  V30 23 1 26 19
M  V30 24 2 26 25
M  V30 25 1 27 3
M  V30 26 1 27 6
M  V30 27 1 28 7
M  V30 28 1 28 18
M  V30 29 1 29 1
M  V30 30 1 29 17
M  V30 31 2 29 23
M  V30 32 1 30 1
M  V30 33 1 31 1
M  V30 34 1 32 3
M  V30 35 1 33 3
M  V30 36 1 34 4
M  V30 37 1 35 4
M  V30 38 1 36 4
M  V30 39 1 37 5
M  V30 40 1 38 5
M  V30 41 1 39 5
M  V30 42 1 40 7
M  V30 43 1 41 7
M  V30 44 1 42 11
M  V30 45 1 43 12
M  V30 46 1 44 13
M  V30 47 1 45 13
M  V30 48 1 46 13
M  V30 49 1 47 14
M  V30 50 1 48 14
M  V30 51 1 49 15
M  V30 52 1 16 50 CFG=1
M  V30 53 1 51 17
M  V30 54 1 52 18
M  V30 55 1 53 23
M  V30 56 1 54 24
M  V30 57 1 55 24
M  V30 58 1 56 25
M  V30 59 1 57 26
M  V30 60 1 58 27
M  V30 61 1 59 27
M  V30 62 1 60 28
M  V30 63 1 61 28
M  V30 END BOND
M  V30 END CTAB
M  END
>  <i_epik_Tot_Q>  (1) 
0

>  <i_epik_Tot_abs_Q>  (1) 
0

>  <i_i_glide_confnum>  (1) 
54

>  <i_i_glide_lignum>  (1) 
64

>  <i_i_glide_posenum>  (1) 
159

>  <i_i_glide_rotatable_bonds>  (1) 
9

>  <i_lp_mmshare_version>  (1) 
72125

>  <i_m_source_file_index>  (1) 
25

>  <i_f3d_flags>  (1) 
0

>  <num_sample>  (1) 
100

>  <b_lp_Chiralities_Consistent>  (1) 
1

>  <r_epik_Charging_Adjusted_Penalty>  (1) 
1.3040267678810453

>  <r_epik_Ionization_Penalty>  (1) 
1.4057066568095866

>  <r_epik_Ionization_Penalty_Charging>  (1) 
0

>  <r_epik_Ionization_Penalty_Neutral>  (1) 
1.4057066568095866

>  <r_epik_State_Penalty>  (1) 
1.3040267678810453

>  <r_glide_ring_energy>  (1) 
0

>  <r_i_docking_score>  (1) 
-7.8015270772530938

>  <r_i_glide_ecoul>  (1) 
-5.0584397104946168

>  <r_i_glide_eff_state_penalty>  (1) 
1.3040267678810453

>  <r_i_glide_einternal>  (1) 
8.4190013099297403

>  <r_i_glide_emodel>  (1) 
-68.899149671946745

>  <r_i_glide_emodel_strain>  (1) 
0.034425061016051473

>  <r_i_glide_energy>  (1) 
-45.807641405026033

>  <r_i_glide_erotb>  (1) 
0.87102097732651396

>  <r_i_glide_esite>  (1) 
-0.036229990078347443

>  <r_i_glide_evdw>  (1) 
-40.749201694531415

>  <r_i_glide_gscore>  (1) 
-9.1055538451341391

>  <r_i_glide_gscore_strain>  (1) 
0

>  <r_i_glide_hbond>  (1) 
-0.45599999999999996

>  <r_i_glide_ligand_efficiency>  (1) 
-0.26901817507769288

>  <r_i_glide_ligand_efficiency_ln>  (1) 
-1.7863518710334891

>  <r_i_glide_ligand_efficiency_sa>  (1) 
-0.82650906570649707

>  <r_i_glide_lipo>  (1) 
-4.0199561709733622

>  <r_i_glide_metal>  (1) 
-0

>  <r_i_glide_rewards>  (1) 
-2.6681626201081801

>  <r_lp_Energy>  (1) 
67.58931299999999

>  <s_epik_cmdline>  (1) 
J2VwaWtfcHl0aG9uJywgJy1waHQnLCAnMS4wJywgJy1waCcsICc3LjQnLCAnLXRuJywgJzgnLCAnLW1hJywgJzUwMCcsICctaW1hZScsICc8aW5maWxlLm1hZT4nLCAnLW9tYWUnLCAnPG91dGZpbGUubWFlPic=

>  <s_epik_input>  (1) 
W0NIMl0xW0NIMl1bTkhdW0NAQEhdKFtDSDJdW09IXSlDKD1PKU4xW0NIMl1bQ0gyXVtOSF1bQ0gyXWMoW2NIXTIpW2NIXWMoQyhbQ0gzXSk9W0NIMl0pYyhjMjMpW2NIXVtjSF1jKFtjSF0zKU4oW0NIM10pW0NIM10=

>  <s_glide_docking_method>  (1) 
confgen

>  <s_i_glide_gridfile>  (1) 
gpcr_5ht2c_6bqh_protein_autoprepared_prepared

>  <s_lp_Force_Field>  (1) 
S-OPLS

>  <s_lp_Variant>  (1) 
DiffSBDD_24_num_sample_100-3

>  <s_m_source_file>  (1) 
generated__ligand_DiffSBDD_2026-05-06_prepared.sdf

>  <GenAI_Model>  (1) 
DiffSBDD

>  <Protein>  (1) 
GPCR_5HT2C

$$$$
DiffSBDD_80_num_sample_100
     RDKit          3D

  0  0  0  0  0  0  0  0  0  0999 V3000
M  V30 BEGIN CTAB
M  V30 COUNTS 73 76 0 0 1
M  V30 BEGIN ATOM
M  V30 1 C 38.434921 28.790714 58.691688 0
M  V30 2 C 36.659991 33.484017 59.779889 0
M  V30 3 N 37.204241 34.801774 60.146938 0 CFG=2 CHG=1
M  V30 4 O 39.168194 29.934792 56.275981 0
M  V30 5 O 37.068105 31.611760 61.853545 0
M  V30 6 O 37.467924 28.188201 57.856321 0
M  V30 7 C 37.642387 37.496075 61.188972 0 CFG=2
M  V30 8 C 38.223198 36.258977 61.922120 0 CFG=2
M  V30 9 C 39.758574 29.620252 51.396209 0
M  V30 10 C 38.886329 31.951715 55.129407 0
M  V30 11 O 38.277242 27.983098 54.946044 0
M  V30 12 C 38.760926 28.528698 53.794343 0
M  V30 13 O 40.853192 34.421298 63.694553 0
M  V30 14 C 39.867581 30.350177 52.589349 0
M  V30 15 C 40.591147 36.678789 62.886008 0
M  V30 16 C 38.652430 27.808952 52.594873 0
M  V30 17 O 37.867445 33.219373 56.853711 0
M  V30 18 C 37.354073 37.194028 59.708331 0
M  V30 19 O 39.067440 27.641116 50.255313 0
M  V30 20 C 39.744683 36.086637 61.768090 0
M  V30 21 C 39.157071 28.349365 51.402111 0
M  V30 22 C 38.305730 30.760173 57.044801 0 CFG=1
M  V30 23 C 37.806381 32.491645 59.774809 0 CFG=2
M  V30 24 C 38.474130 30.325241 58.515863 0 CFG=1
M  V30 25 C 37.388907 34.998606 61.600175 0
M  V30 26 C 38.764033 32.163241 56.616576 0 CFG=1
M  V30 27 C 41.103690 35.614838 63.864646 0
M  V30 28 C 37.535373 31.040761 59.465851 0 CFG=1
M  V30 29 C 40.306870 35.452509 60.721945 0
M  V30 30 C 38.029041 39.837027 60.855627 0
M  V30 31 C 38.024013 31.449123 60.839025 0 CFG=2
M  V30 32 C 39.570527 30.594943 55.087601 0 CFG=2
M  V30 33 C 39.385434 29.809250 53.796577 0
M  V30 34 C 36.519960 35.932917 59.513212 0
M  V30 35 O 38.538215 38.592200 61.319252 0
M  V30 36 H 39.404165 28.369617 58.416704 0
M  V30 37 H 38.261356 28.513923 59.731219 0
M  V30 38 H 36.234009 33.509803 58.778308 0
M  V30 39 H 35.838918 33.189941 60.433532 0
M  V30 40 H 37.499863 32.023212 62.588965 0
M  V30 41 H 36.617334 28.551085 58.060187 0
M  V30 42 H 36.699114 37.751800 61.674204 0
M  V30 43 H 38.074921 36.432939 62.990245 0
M  V30 44 H 40.143930 30.033246 50.475857 0
M  V30 45 H 39.230436 28.160800 49.483190 0
M  V30 46 H 39.462705 32.733496 54.653556 0
M  V30 47 H 37.899291 31.904383 54.662744 0
M  V30 48 H 38.435166 28.540686 55.703712 0
M  V30 49 H 40.341572 31.321141 52.584440 0
M  V30 50 H 41.462941 37.162276 62.449246 0
M  V30 51 H 40.040707 37.451504 63.424546 0
M  V30 52 H 38.187874 26.832318 52.591774 0
M  V30 53 H 36.992755 32.935344 56.590264 0
M  V30 54 H 38.267467 37.100707 59.149051 0
M  V30 55 H 36.870364 38.021333 59.225606 0
M  V30 56 H 37.284728 30.580379 56.707765 0
M  V30 57 H 38.720672 32.893503 59.346049 0
M  V30 58 H 39.467390 30.619186 58.825793 0
M  V30 59 H 36.409451 35.058879 62.080675 0
M  V30 60 H 37.901190 34.128810 62.007110 0
M  V30 61 H 39.734672 32.410307 57.044715 0
M  V30 62 H 41.694177 35.992374 64.699330 0
M  V30 63 H 36.489428 30.754545 59.376043 0
M  V30 64 H 41.379200 35.351200 60.654715 0
M  V30 65 H 39.714810 35.031787 59.930153 0
M  V30 66 H 38.723561 40.639901 61.096063 0
M  V30 67 H 37.920543 39.845321 59.773544 0
M  V30 68 H 37.066137 40.071278 61.309194 0
M  V30 69 H 39.035020 31.224339 61.174075 0
M  V30 70 H 40.645480 30.757801 55.185668 0
M  V30 71 H 36.493621 35.722142 58.457437 0
M  V30 72 H 35.488936 36.037534 59.853449 0
M  V30 73 H 38.127827 34.808621 59.742810 0
M  V30 END ATOM
M  V30 BEGIN BOND
M  V30 1 1 3 2
M  V30 2 1 6 1
M  V30 3 1 8 7
M  V30 4 1 12 11
M  V30 5 2 14 9
M  V30 6 1 16 12
M  V30 7 1 18 7
M  V30 8 1 20 8
M  V30 9 1 20 15
M  V30 10 1 21 9
M  V30 11 2 21 16
M  V30 12 1 21 19
M  V30 13 1 22 4
M  V30 14 1 23 2
M  V30 15 1 24 1
M  V30 16 1 24 22
M  V30 17 1 25 3
M  V30 18 1 25 8
M  V30 19 1 26 10
M  V30 20 1 26 17
M  V30 21 1 26 22
M  V30 22 2 27 13
M  V30 23 1 27 15
M  V30 24 1 28 23
M  V30 25 1 28 24
M  V30 26 2 29 20
M  V30 27 1 31 5
M  V30 28 1 31 23
M  V30 29 1 31 28
M  V30 30 1 32 4
M  V30 31 1 32 10
M  V30 32 2 33 12
M  V30 33 1 33 14
M  V30 34 1 33 32
M  V30 35 1 34 3
M  V30 36 1 34 18
M  V30 37 1 35 7
M  V30 38 1 35 30
M  V30 39 1 36 1
M  V30 40 1 37 1
M  V30 41 1 38 2
M  V30 42 1 39 2
M  V30 43 1 40 5
M  V30 44 1 41 6
M  V30 45 1 7 42 CFG=1
M  V30 46 1 8 43 CFG=1
M  V30 47 1 44 9
M  V30 48 1 45 19
M  V30 49 1 46 10
M  V30 50 1 47 10
M  V30 51 1 48 11
M  V30 52 1 49 14
M  V30 53 1 50 15
M  V30 54 1 51 15
M  V30 55 1 52 16
M  V30 56 1 53 17
M  V30 57 1 54 18
M  V30 58 1 55 18
M  V30 59 1 22 56 CFG=3
M  V30 60 1 23 57 CFG=3
M  V30 61 1 24 58 CFG=1
M  V30 62 1 59 25
M  V30 63 1 60 25
M  V30 64 1 26 61 CFG=1
M  V30 65 1 62 27
M  V30 66 1 28 63 CFG=1
M  V30 67 1 64 29
M  V30 68 1 65 29
M  V30 69 1 66 30
M  V30 70 1 67 30
M  V30 71 1 68 30
M  V30 72 1 31 69 CFG=1
M  V30 73 1 32 70 CFG=1
M  V30 74 1 71 34
M  V30 75 1 72 34
M  V30 76 1 3 73 CFG=3
M  V30 END BOND
M  V30 END CTAB
M  END
>  <i_epik_Tot_Q>  (1) 
1

>  <i_epik_Tot_abs_Q>  (1) 
1

>  <i_i_glide_confnum>  (1) 
1030

>  <i_i_glide_lignum>  (1) 
209

>  <i_i_glide_posenum>  (1) 
328

>  <i_i_glide_rotatable_bonds>  (1) 
15

>  <i_lp_mmshare_version>  (1) 
72125

>  <i_m_source_file_index>  (1) 
81

>  <i_f3d_flags>  (1) 
0

>  <num_sample>  (1) 
100

>  <b_lp_Chiralities_Consistent>  (1) 
1

>  <r_epik_Charging_Adjusted_Penalty>  (1) 
0.034071705691259377

>  <r_epik_Ionization_Penalty>  (1) 
0.043305258844254187

>  <r_epik_Ionization_Penalty_Charging>  (1) 
0.034071705691259377

>  <r_epik_Ionization_Penalty_Neutral>  (1) 
0.009233553152994808

>  <r_epik_State_Penalty>  (1) 
-0

>  <r_glide_ring_energy>  (1) 
0

>  <r_i_docking_score>  (1) 
-7.7906451409120638

>  <r_i_glide_ecoul>  (1) 
-7.8653562041777132

>  <r_i_glide_eff_state_penalty>  (1) 
-0

>  <r_i_glide_einternal>  (1) 
11.969652611364566

>  <r_i_glide_emodel>  (1) 
-59.753016365005927

>  <r_i_glide_emodel_strain>  (1) 
1.182170603418669

>  <r_i_glide_energy>  (1) 
-45.249973916792236

>  <r_i_glide_erotb>  (1) 
0.67144220787932085

>  <r_i_glide_esite>  (1) 
-0.009614999464056001

>  <r_i_glide_evdw>  (1) 
-37.384617712614521

>  <r_i_glide_gscore>  (1) 
-7.7906451409120638

>  <r_i_glide_gscore_strain>  (1) 
0

>  <r_i_glide_hbond>  (1) 
-0.5341504005459472

>  <r_i_glide_ligand_efficiency>  (1) 
-0.2225898611689161

>  <r_i_glide_ligand_efficiency_ln>  (1) 
-1.7102195124832769

>  <r_i_glide_ligand_efficiency_sa>  (1) 
-0.728106195859197

>  <r_i_glide_lipo>  (1) 
-3.9259751042827116

>  <r_i_glide_metal>  (1) 
-0

>  <r_i_glide_rewards>  (1) 
-0.94331252824128642

>  <r_lp_Energy>  (1) 
30.626286999999998

>  <r_lp_tautomer_probability>  (1) 
1

>  <s_epik_cmdline>  (1) 
J2VwaWtfcHl0aG9uJywgJy1waHQnLCAnMS4wJywgJy1waCcsICc3LjQnLCAnLXRuJywgJzgnLCAnLW1hJywgJzUwMCcsICctaW1hZScsICc8aW5maWxlLm1hZT4nLCAnLW9tYWUnLCAnPG91dGZpbGUubWFlPic=

>  <s_epik_input>  (1) 
Tz1bQ0hdW0NIMl1DKD1bQ0gyXSlbQ0BASF0oW0NASF0oW0NIMl1bQ0gyXTEpT1tDSDNdKVtDSDJdTjFbQ0gyXVtDQEBIXTJbQ0BASF0oW0NAQEhdMltPSF0pW0NAQEhdKFtDSDJdW09IXSlbQ0BASF0zT1tDQEhdKFtDSDJdW0NASF0zW09IXSlDND1bQ0hdW0NIMl1DKD1PKVtDSF09QzRbT0hd

>  <s_glide_docking_method>  (1) 
confgen

>  <s_i_glide_gridfile>  (1) 
gpcr_5ht2c_6bqh_protein_autoprepared_prepared

>  <s_lp_Force_Field>  (1) 
S-OPLS

>  <s_lp_Variant>  (1) 
DiffSBDD_80_num_sample_100-5

>  <s_m_source_file>  (1) 
generated__ligand_DiffSBDD_2026-05-06_prepared.sdf

>  <GenAI_Model>  (1) 
DiffSBDD

>  <Protein>  (1) 
GPCR_5HT2C

$$$$
DiffSBDD_80_num_sample_100
     RDKit          3D

  0  0  0  0  0  0  0  0  0  0999 V3000
M  V30 BEGIN CTAB
M  V30 COUNTS 73 76 0 0 1
M  V30 BEGIN ATOM
M  V30 1 C 38.998349 32.911735 57.994063 0
M  V30 2 C 38.851238 29.524127 57.058214 0
M  V30 3 N 38.859938 29.644534 55.607897 0 CFG=2 CHG=1
M  V30 4 O 39.752846 32.982146 60.845291 0
M  V30 5 O 38.267414 28.864891 59.632579 0
M  V30 6 O 37.867365 33.621264 57.531926 0
M  V30 7 C 39.618617 29.794769 52.849351 0 CFG=2
M  V30 8 C 39.304008 28.446937 53.563271 0 CFG=2
M  V30 9 C 41.080226 35.625429 63.817055 0
M  V30 10 C 38.774419 31.945254 62.653499 0
M  V30 11 O 41.644796 31.514228 64.342878 0
M  V30 12 C 41.463619 32.858967 64.168170 0
M  V30 13 O 38.736156 25.287871 55.290571 0
M  V30 14 C 40.556891 34.726781 62.880227 0
M  V30 15 C 37.348362 27.151035 54.703244 0
M  V30 16 C 41.988069 33.766395 65.106392 0
M  V30 17 O 36.598917 31.621749 61.649345 0
M  V30 18 C 38.831615 30.947721 53.530623 0
M  V30 19 O 42.267432 36.021420 65.853555 0
M  V30 20 C 37.828624 27.999780 53.531589 0
M  V30 21 C 41.786650 35.147599 64.934507 0
M  V30 22 C 38.472039 32.521258 60.414575 0 CFG=1
M  V30 23 C 37.515243 29.950417 57.621958 0 CFG=2
M  V30 24 C 38.633416 31.861698 59.058378 0 CFG=1
M  V30 25 C 39.774518 28.671107 55.006738 0
M  V30 26 C 37.993929 31.531214 61.468212 0 CFG=1
M  V30 27 C 37.777723 25.690782 54.634705 0
M  V30 28 C 37.420645 31.030493 58.664999 0 CFG=2
M  V30 29 C 36.999676 28.338497 52.538230 0
M  V30 30 C 40.042989 30.702874 50.672205 0
M  V30 31 C 37.187751 29.579654 59.048156 0 CFG=2
M  V30 32 C 40.110247 32.375554 62.079158 0 CFG=2
M  V30 33 C 40.736873 33.341536 63.055736 0
M  V30 34 C 39.071142 30.996910 55.042525 0
M  V30 35 O 39.467452 29.658352 51.441690 0
M  V30 36 H 39.721807 33.621433 58.389166 0
M  V30 37 H 39.493091 32.450510 57.151046 0
M  V30 38 H 39.706931 30.040005 57.484918 0
M  V30 39 H 38.972090 28.471606 57.315382 0
M  V30 40 H 38.050409 27.944573 59.660784 0
M  V30 41 H 37.200114 33.013772 57.230261 0
M  V30 42 H 40.667426 30.021448 53.007026 0
M  V30 43 H 39.867366 27.637021 53.101496 0
M  V30 44 H 40.927037 36.686982 63.685968 0
M  V30 45 H 42.234556 36.926488 65.542058 0
M  V30 46 H 38.877852 31.165320 63.410500 0
M  V30 47 H 38.273745 32.821291 63.053485 0
M  V30 48 H 42.100136 31.292964 65.141573 0
M  V30 49 H 40.000041 35.098476 62.033443 0
M  V30 50 H 37.600922 27.545851 55.681502 0
M  V30 51 H 36.267427 27.219872 54.653458 0
M  V30 52 H 42.534263 33.404715 65.964605 0
M  V30 53 H 36.186338 31.592153 60.797991 0
M  V30 54 H 37.763167 30.791552 53.453502 0
M  V30 55 H 39.061405 31.915127 53.086050 0
M  V30 56 H 37.801359 33.381835 60.362452 0
M  V30 57 H 36.679044 29.873371 56.927340 0
M  V30 58 H 39.465625 31.177979 59.205359 0
M  V30 59 H 40.749805 29.133072 55.095816 0
M  V30 60 H 39.838735 27.720690 55.537735 0
M  V30 61 H 38.297149 30.513069 61.280471 0
M  V30 62 H 37.184037 25.054660 53.976507 0
M  V30 63 H 36.515184 31.629032 58.653655 0
M  V30 64 H 35.973890 28.021346 52.548189 0
M  V30 65 H 37.331265 28.931607 51.710043 0
M  V30 66 H 39.907104 30.491967 49.611650 0
M  V30 67 H 39.562907 31.656991 50.879286 0
M  V30 68 H 41.112629 30.799989 50.859282 0
M  V30 69 H 36.189596 29.226728 59.301852 0
M  V30 70 H 40.753677 31.516808 61.878706 0
M  V30 71 H 38.355085 31.694249 55.477150 0
M  V30 72 H 40.078505 31.356509 55.257312 0
M  V30 73 H 37.936545 29.358793 55.313322 0
M  V30 END ATOM
M  V30 BEGIN BOND
M  V30 1 1 3 2
M  V30 2 1 6 1
M  V30 3 1 8 7
M  V30 4 1 12 11
M  V30 5 2 14 9
M  V30 6 1 16 12
M  V30 7 1 18 7
M  V30 8 1 20 8
M  V30 9 1 20 15
M  V30 10 1 21 9
M  V30 11 2 21 16
M  V30 12 1 21 19
M  V30 13 1 22 4
M  V30 14 1 23 2
M  V30 15 1 24 1
M  V30 16 1 24 22
M  V30 17 1 25 3
M  V30 18 1 25 8
M  V30 19 1 26 10
M  V30 20 1 26 17
M  V30 21 1 26 22
M  V30 22 2 27 13
M  V30 23 1 27 15
M  V30 24 1 28 23
M  V30 25 1 28 24
M  V30 26 2 29 20
M  V30 27 1 31 5
M  V30 28 1 31 23
M  V30 29 1 31 28
M  V30 30 1 32 4
M  V30 31 1 32 10
M  V30 32 2 33 12
M  V30 33 1 33 14
M  V30 34 1 33 32
M  V30 35 1 34 3
M  V30 36 1 34 18
M  V30 37 1 35 7
M  V30 38 1 35 30
M  V30 39 1 36 1
M  V30 40 1 37 1
M  V30 41 1 38 2
M  V30 42 1 39 2
M  V30 43 1 40 5
M  V30 44 1 41 6
M  V30 45 1 7 42 CFG=3
M  V30 46 1 8 43 CFG=3
M  V30 47 1 44 9
M  V30 48 1 45 19
M  V30 49 1 46 10
M  V30 50 1 47 10
M  V30 51 1 48 11
M  V30 52 1 49 14
M  V30 53 1 50 15
M  V30 54 1 51 15
M  V30 55 1 52 16
M  V30 56 1 53 17
M  V30 57 1 54 18
M  V30 58 1 55 18
M  V30 59 1 22 56 CFG=3
M  V30 60 1 23 57 CFG=3
M  V30 61 1 24 58 CFG=1
M  V30 62 1 59 25
M  V30 63 1 60 25
M  V30 64 1 26 61 CFG=3
M  V30 65 1 62 27
M  V30 66 1 28 63 CFG=3
M  V30 67 1 64 29
M  V30 68 1 65 29
M  V30 69 1 66 30
M  V30 70 1 67 30
M  V30 71 1 68 30
M  V30 72 1 31 69 CFG=3
M  V30 73 1 32 70 CFG=3
M  V30 74 1 71 34
M  V30 75 1 72 34
M  V30 76 1 3 73 CFG=3
M  V30 END BOND
M  V30 END CTAB
M  END
>  <i_epik_Tot_Q>  (1) 
1

>  <i_epik_Tot_abs_Q>  (1) 
1

>  <i_i_glide_confnum>  (1) 
990

>  <i_i_glide_lignum>  (1) 
205

>  <i_i_glide_posenum>  (1) 
165

>  <i_i_glide_rotatable_bonds>  (1) 
15

>  <i_lp_mmshare_version>  (1) 
72125

>  <i_m_source_file_index>  (1) 
81

>  <i_f3d_flags>  (1) 
0

>  <num_sample>  (1) 
100

>  <b_lp_Chiralities_Consistent>  (1) 
1

>  <r_epik_Charging_Adjusted_Penalty>  (1) 
0.034071705691259377

>  <r_epik_Ionization_Penalty>  (1) 
0.043305258844254187

>  <r_epik_Ionization_Penalty_Charging>  (1) 
0.034071705691259377

>  <r_epik_Ionization_Penalty_Neutral>  (1) 
0.009233553152994808

>  <r_epik_State_Penalty>  (1) 
-0

>  <r_glide_ring_energy>  (1) 
0

>  <r_i_docking_score>  (1) 
-7.7849397962290903

>  <r_i_glide_ecoul>  (1) 
-12.844947302453908

>  <r_i_glide_eff_state_penalty>  (1) 
-0

>  <r_i_glide_einternal>  (1) 
25.827507668839026

>  <r_i_glide_emodel>  (1) 
-54.913649347649169

>  <r_i_glide_emodel_strain>  (1) 
1.5400208568309921

>  <r_i_glide_energy>  (1) 
-44.097686648797897

>  <r_i_glide_erotb>  (1) 
0.67144220787932085

>  <r_i_glide_esite>  (1) 
0

>  <r_i_glide_evdw>  (1) 
-31.25273934634399

>  <r_i_glide_gscore>  (1) 
-7.7849397962290903

>  <r_i_glide_gscore_strain>  (1) 
0

>  <r_i_glide_hbond>  (1) 
-0.67311508868958059

>  <r_i_glide_ligand_efficiency>  (1) 
-0.22242685132083115

>  <r_i_glide_ligand_efficiency_ln>  (1) 
-1.708967062702061

>  <r_i_glide_ligand_efficiency_sa>  (1) 
-0.72757297983689728

>  <r_i_glide_lipo>  (1) 
-3.2015835664031078

>  <r_i_glide_metal>  (1) 
-0

>  <r_i_glide_rewards>  (1) 
-1.092304286330436

>  <r_lp_Energy>  (1) 
35.505794999999999

>  <r_lp_tautomer_probability>  (1) 
1

>  <s_epik_cmdline>  (1) 
J2VwaWtfcHl0aG9uJywgJy1waHQnLCAnMS4wJywgJy1waCcsICc3LjQnLCAnLXRuJywgJzgnLCAnLW1hJywgJzUwMCcsICctaW1hZScsICc8aW5maWxlLm1hZT4nLCAnLW9tYWUnLCAnPG91dGZpbGUubWFlPic=

>  <s_epik_input>  (1) 
Tz1bQ0hdW0NIMl1DKD1bQ0gyXSlbQ0BASF0oW0NASF0oW0NIMl1bQ0gyXTEpT1tDSDNdKVtDSDJdTjFbQ0gyXVtDQEBIXTJbQ0BASF0oW0NAQEhdMltPSF0pW0NAQEhdKFtDSDJdW09IXSlbQ0BASF0zT1tDQEhdKFtDSDJdW0NASF0zW09IXSlDND1bQ0hdW0NIMl1DKD1PKVtDSF09QzRbT0hd

>  <s_glide_docking_method>  (1) 
confgen

>  <s_i_glide_gridfile>  (1) 
gpcr_5ht2c_6bqh_protein_autoprepared_prepared

>  <s_lp_Force_Field>  (1) 
S-OPLS

>  <s_lp_Variant>  (1) 
DiffSBDD_80_num_sample_100-1

>  <s_m_source_file>  (1) 
generated__ligand_DiffSBDD_2026-05-06_prepared.sdf

>  <GenAI_Model>  (1) 
DiffSBDD

>  <Protein>  (1) 
GPCR_5HT2C

$$$$
DiffSBDD_63_num_sample_100
     RDKit          3D

  0  0  0  0  0  0  0  0  0  0999 V3000
M  V30 BEGIN CTAB
M  V30 COUNTS 67 70 0 0 1
M  V30 BEGIN ATOM
M  V30 1 C 37.999722 32.011260 58.286596 0
M  V30 2 O 38.100469 27.354723 55.830754 0
M  V30 3 C 38.120445 28.659203 55.327240 0 CFG=2
M  V30 4 O 41.324169 28.156507 59.338075 0
M  V30 5 C 38.456510 32.464395 60.776750 0 CFG=2
M  V30 6 C 41.163123 27.528477 58.081668 0
M  V30 7 C 39.116712 27.892333 51.741445 0
M  V30 8 C 39.342992 26.902923 56.368383 0 CFG=1
M  V30 9 F 41.906086 33.208098 66.546667 0
M  V30 10 C 41.556519 33.405923 65.263598 0
M  V30 11 C 40.976799 32.097449 63.186381 0
M  V30 12 S 40.267175 32.572739 60.653506 0
M  V30 13 C 38.001002 31.016592 61.047377 0
M  V30 14 C 38.360482 27.830020 53.077615 0
M  V30 15 N 38.913466 28.741161 54.088146 0
M  V30 16 O 39.066945 29.221290 51.245631 0
M  V30 17 C 41.346528 32.215699 64.475004 0
M  V30 18 C 39.646099 30.147098 52.153012 0
M  V30 19 F 40.490087 35.257641 61.377288 0
M  V30 20 C 40.771581 34.489905 62.446122 0
M  V30 21 C 41.451048 34.681083 64.868734 0
M  V30 22 C 38.530846 29.600880 56.504494 0 CFG=2
M  V30 23 C 39.748640 27.813572 57.550986 0 CFG=2
M  V30 24 C 37.798363 32.977007 59.476103 0
M  V30 25 C 38.946928 30.091922 53.524055 0
M  V30 26 C 39.165059 25.408787 56.704019 0
M  V30 27 C 38.222937 30.106164 59.823108 0
M  V30 28 O 39.757482 29.160394 57.081801 0
M  V30 29 O 38.353525 25.221238 57.847799 0
M  V30 30 F 40.875939 30.829480 62.747018 0
M  V30 31 N 37.512576 30.652874 58.640089 0 CFG=2 CHG=1
M  V30 32 N 40.685697 33.104548 62.257942 0
M  V30 33 C 41.097099 35.174851 63.559132 0
M  V30 34 F 41.706070 35.614572 65.801950 0
M  V30 35 C 37.357860 29.689435 57.513529 0
M  V30 36 H 39.053430 31.969278 58.008149 0
M  V30 37 H 37.467421 32.390168 57.414347 0
M  V30 38 H 37.089723 28.887588 55.052594 0
M  V30 39 H 42.178868 27.934867 59.685685 0
M  V30 40 H 38.141109 33.104932 61.601927 0
M  V30 41 H 41.309546 26.459156 58.231243 0
M  V30 42 H 41.927884 27.865694 57.380703 0
M  V30 43 H 40.157096 27.594774 51.869695 0
M  V30 44 H 38.669232 27.214720 51.013563 0
M  V30 45 H 40.108580 26.969570 55.593316 0
M  V30 46 H 36.940598 31.016747 61.302092 0
M  V30 47 H 38.518007 30.608212 61.915658 0
M  V30 48 H 38.388971 26.803200 53.442961 0
M  V30 49 H 37.309634 28.062234 52.896566 0
M  V30 50 H 41.512161 31.283414 64.995290 0
M  V30 51 H 40.690106 29.894764 52.265216 0
M  V30 52 H 39.608812 31.152370 51.732718 0
M  V30 53 H 38.691659 30.599944 56.107009 0
M  V30 54 H 39.033747 27.699181 58.364995 0
M  V30 55 H 36.728983 33.112038 59.643158 0
M  V30 56 H 38.185653 33.964902 59.223569 0
M  V30 57 H 37.933771 30.487684 53.453586 0
M  V30 58 H 39.496900 30.762319 54.182306 0
M  V30 59 H 40.133145 24.942622 56.888542 0
M  V30 60 H 38.724633 24.884130 55.855304 0
M  V30 61 H 37.866242 29.102371 60.047997 0
M  V30 62 H 39.286529 30.009689 59.603588 0
M  V30 63 H 38.173337 24.297639 57.940501 0
M  V30 64 H 41.092652 36.251541 63.458745 0
M  V30 65 H 36.484394 30.021231 56.956188 0
M  V30 66 H 37.081778 28.707614 57.898177 0
M  V30 67 H 36.557104 30.806246 58.933925 0
M  V30 END ATOM
M  V30 BEGIN BOND
M  V30 1 1 3 2
M  V30 2 1 6 4
M  V30 3 1 8 2
M  V30 4 1 10 9
M  V30 5 1 12 5
M  V30 6 1 13 5
M  V30 7 1 14 7
M  V30 8 1 15 3
M  V30 9 1 15 14
M  V30 10 1 16 7
M  V30 11 1 17 10
M  V30 12 2 17 11
M  V30 13 1 18 16
M  V30 14 1 20 19
M  V30 15 2 21 10
M  V30 16 1 22 3
M  V30 17 1 23 6
M  V30 18 1 23 8
M  V30 19 1 24 1
M  V30 20 1 24 5
M  V30 21 1 25 15
M  V30 22 1 25 18
M  V30 23 1 26 8
M  V30 24 1 27 13
M  V30 25 1 28 22
M  V30 26 1 28 23
M  V30 27 1 29 26
M  V30 28 1 30 11
M  V30 29 1 31 1
M  V30 30 1 31 27
M  V30 31 1 32 11
M  V30 32 1 32 12
M  V30 33 1 32 20
M  V30 34 2 33 20
M  V30 35 1 33 21
M  V30 36 1 34 21
M  V30 37 1 35 22
M  V30 38 1 35 31
M  V30 39 1 36 1
M  V30 40 1 37 1
M  V30 41 1 3 38 CFG=3
M  V30 42 1 39 4
M  V30 43 1 5 40 CFG=1
M  V30 44 1 41 6
M  V30 45 1 42 6
M  V30 46 1 43 7
M  V30 47 1 44 7
M  V30 48 1 8 45 CFG=3
M  V30 49 1 46 13
M  V30 50 1 47 13
M  V30 51 1 48 14
M  V30 52 1 49 14
M  V30 53 1 50 17
M  V30 54 1 51 18
M  V30 55 1 52 18
M  V30 56 1 22 53 CFG=3
M  V30 57 1 23 54 CFG=1
M  V30 58 1 55 24
M  V30 59 1 56 24
M  V30 60 1 57 25
M  V30 61 1 58 25
M  V30 62 1 59 26
M  V30 63 1 60 26
M  V30 64 1 61 27
M  V30 65 1 62 27
M  V30 66 1 63 29
M  V30 67 1 64 33
M  V30 68 1 65 35
M  V30 69 1 66 35
M  V30 70 1 31 67 CFG=1
M  V30 END BOND
M  V30 END CTAB
M  END
>  <i_epik_Tot_Q>  (1) 
1

>  <i_epik_Tot_abs_Q>  (1) 
1

>  <i_i_glide_confnum>  (1) 
204

>  <i_i_glide_lignum>  (1) 
159

>  <i_i_glide_posenum>  (1) 
270

>  <i_i_glide_rotatable_bonds>  (1) 
9

>  <i_lp_mmshare_version>  (1) 
72125

>  <i_m_source_file_index>  (1) 
64

>  <i_f3d_flags>  (1) 
0

>  <num_sample>  (1) 
100

>  <b_lp_Chiralities_Consistent>  (1) 
1

>  <r_epik_Charging_Adjusted_Penalty>  (1) 
0.6833741402111444

>  <r_epik_Ionization_Penalty>  (1) 
0.34168859396029116

>  <r_epik_Ionization_Penalty_Charging>  (1) 
0.34168707010557214

>  <r_epik_Ionization_Penalty_Neutral>  (1) 
1.5238547190056168e-06

>  <r_epik_State_Penalty>  (1) 
0.3416870701055722

>  <r_glide_ring_energy>  (1) 
0.0045149093831275133

>  <r_i_docking_score>  (1) 
-7.7819143543606968

>  <r_i_glide_ecoul>  (1) 
-4.9958510418065778

>  <r_i_glide_eff_state_penalty>  (1) 
0.3416870701055722

>  <r_i_glide_einternal>  (1) 
15.435668308638334

>  <r_i_glide_emodel>  (1) 
-67.191128694804306

>  <r_i_glide_emodel_strain>  (1) 
0.00042580003808723177

>  <r_i_glide_energy>  (1) 
-49.840594111337751

>  <r_i_glide_erotb>  (1) 
0.51979340436673749

>  <r_i_glide_esite>  (1) 
-0.092538514287793486

>  <r_i_glide_evdw>  (1) 
-44.84474306953117

>  <r_i_glide_gscore>  (1) 
-8.1236014244662691

>  <r_i_glide_gscore_strain>  (1) 
0

>  <r_i_glide_hbond>  (1) 
-0.21014987567254167

>  <r_i_glide_ligand_efficiency>  (1) 
-0.22234041012459133

>  <r_i_glide_ligand_efficiency_ln>  (1) 
-1.7083029110658843

>  <r_i_glide_ligand_efficiency_sa>  (1) 
-0.72729022495206486

>  <r_i_glide_lipo>  (1) 
-3.5945691315332704

>  <r_i_glide_metal>  (1) 
-0

>  <r_i_glide_rewards>  (1) 
-1.7545224975918559

>  <r_lp_Energy>  (1) 
40.670952999999997

>  <s_epik_Chemistry_Notes>  (1) 
This compound contains an acetal/aminal-like group ( X-CH(R)-Y where X, Y are N, S, or O) that may be acid/base labile, releasing an aldehyde. This compound has a N-S or N-O group and may undergo hydrolysis at high or low pH.

>  <s_epik_cmdline>  (1) 
J2VwaWtfcHl0aG9uJywgJy1waHQnLCAnMS4wJywgJy1waCcsICc3LjQnLCAnLXRuJywgJzgnLCAnLW1hJywgJzUwMCcsICctaW1hZScsICc8aW5maWxlLm1hZT4nLCAnLW9tYWUnLCAnPG91dGZpbGUubWFlPic=

>  <s_epik_input>  (1) 
RkMxPUMoRilbQ0hdPUMoRilOKEMoRik9W0NIXTEpU1tDSF0yW0NIMl1bQ0gyXU4oW0NIMl1bQ0gyXTIpW0NIMl1bQ0BIXTNPW0NASF0oW0NIMl1bT0hdKVtDQEBIXShbQ0gyXVtPSF0pT1tDQEBIXTNONFtDSDJdW0NIMl1PW0NIMl1bQ0gyXTQ=

>  <s_glide_docking_method>  (1) 
confgen

>  <s_i_glide_gridfile>  (1) 
gpcr_5ht2c_6bqh_protein_autoprepared_prepared

>  <s_lp_Force_Field>  (1) 
S-OPLS

>  <s_lp_Variant>  (1) 
DiffSBDD_63_num_sample_100-2

>  <s_m_source_file>  (1) 
generated__ligand_DiffSBDD_2026-05-06_prepared.sdf

>  <GenAI_Model>  (1) 
DiffSBDD

>  <Protein>  (1) 
GPCR_5HT2C

$$$$
DiffSBDD_97_num_sample_100
     RDKit          3D

  0  0  0  0  0  0  0  0  0  0999 V3000
M  V30 BEGIN CTAB
M  V30 COUNTS 74 78 0 0 1
M  V30 BEGIN ATOM
M  V30 1 C 38.154236 37.634786 61.463643 0
M  V30 2 C 37.772462 31.373413 56.773560 0
M  V30 3 C 40.049830 30.431154 52.701999 0
M  V30 4 S 37.549062 30.795198 55.053501 0 CHG=1
M  V30 5 C 37.771822 26.667395 57.322236 0
M  V30 6 C 39.044099 28.388434 51.053497 0
M  V30 7 C 39.118282 32.015105 56.979791 0 CFG=2
M  V30 8 C 37.077508 34.567565 60.160377 0
M  V30 9 C 38.332601 32.351323 54.601332 0
M  V30 10 C 38.422930 28.115458 55.340395 0 CFG=1
M  V30 11 N 37.696274 24.277699 56.826398 0 CHG=1
M  V30 12 N 37.550698 34.885901 61.531194 0 CFG=1 CHG=1
M  V30 13 C 40.399026 30.385685 51.341475 0
M  V30 14 C 39.067373 33.111101 58.082488 0
M  V30 15 C 38.985767 35.259057 61.703001 0 CFG=1
M  V30 16 C 39.485023 32.569515 55.598501 0
M  V30 17 N 39.432008 27.104635 55.011241 0
M  V30 18 C 38.267377 28.042802 56.871564 0
M  V30 19 O 36.898181 23.987415 55.940478 0
M  V30 20 C 38.839876 25.782010 55.158621 0
M  V30 21 O 37.867397 23.640509 57.853507 0 CHG=-1
M  V30 22 C 39.906163 29.363315 50.522002 0
M  V30 23 C 39.669832 32.975853 60.626712 0
M  V30 24 C 37.228213 33.066019 59.863431 0
M  V30 25 C 39.964342 34.478916 60.810708 0
M  V30 26 C 39.172975 36.760872 61.530461 0
M  V30 27 C 36.667402 35.838927 62.251702 0
M  V30 28 C 38.671010 28.438420 52.411368 0
M  V30 29 F 40.266371 29.313509 49.221104 0
M  V30 30 C 38.659578 32.626938 59.503651 0 CFG=1
M  V30 31 C 38.832589 29.504614 54.756703 0 CFG=1
M  V30 32 C 36.702530 37.224451 61.578755 0
M  V30 33 C 39.186098 29.459844 53.250308 0
M  V30 34 C 38.515735 25.511557 56.643477 0 CFG=1
M  V30 35 H 38.355958 38.687857 61.329997 0
M  V30 36 H 37.467449 30.703090 57.568676 0
M  V30 37 H 37.137853 32.251330 56.856710 0
M  V30 38 H 40.455777 31.208214 53.324583 0
M  V30 39 H 36.708420 26.580353 57.098144 0
M  V30 40 H 37.867432 26.574642 58.404008 0
M  V30 41 H 38.667404 27.600799 50.418990 0
M  V30 42 H 39.825403 31.228156 57.239177 0
M  V30 43 H 37.555792 35.204309 59.416861 0
M  V30 44 H 36.011901 34.793341 60.092348 0
M  V30 45 H 38.621654 32.396877 53.555662 0
M  V30 46 H 37.591629 33.141078 54.732667 0
M  V30 47 H 37.469004 27.841327 54.887612 0
M  V30 48 H 41.062768 31.132361 50.929470 0
M  V30 49 H 38.382567 33.891433 57.748633 0
M  V30 50 H 40.021410 33.621398 58.133886 0
M  V30 51 H 39.239739 35.035227 62.740619 0
M  V30 52 H 39.745066 33.621413 55.652977 0
M  V30 53 H 40.369572 32.021435 55.274300 0
M  V30 54 H 40.227660 27.187691 55.629568 0
M  V30 55 H 39.199321 28.307680 57.373412 0
M  V30 56 H 37.500372 28.726216 57.206761 0
M  V30 57 H 37.950667 25.713926 54.529356 0
M  V30 58 H 39.538654 25.029620 54.791386 0
M  V30 59 H 40.609247 32.468641 60.415958 0
M  V30 60 H 39.337567 32.548891 61.574151 0
M  V30 61 H 36.557506 32.802586 59.045265 0
M  V30 62 H 36.868182 32.487121 60.714923 0
M  V30 63 H 40.052394 34.979426 59.853499 0
M  V30 64 H 40.954820 34.577422 61.257950 0
M  V30 65 H 40.190658 37.117658 61.453497 0
M  V30 66 H 35.704877 35.355706 62.395008 0
M  V30 67 H 37.030727 36.021434 63.264372 0
M  V30 68 H 38.008117 27.685860 52.808645 0
M  V30 69 H 38.640556 31.537239 59.474171 0
M  V30 70 H 39.743916 29.807446 55.271049 0
M  V30 71 H 36.164729 37.955487 62.183344 0
M  V30 72 H 36.256222 37.225092 60.584445 0
M  V30 73 H 39.448717 25.319487 57.176721 0
M  V30 74 H 37.450599 34.013514 62.029363 0
M  V30 END ATOM
M  V30 BEGIN BOND
M  V30 1 1 4 2 CFG=1
M  V30 2 1 7 2
M  V30 3 1 9 4
M  V30 4 1 12 8
M  V30 5 1 13 3
M  V30 6 1 14 7
M  V30 7 1 15 12
M  V30 8 1 16 7
M  V30 9 1 16 9
M  V30 10 1 17 10
M  V30 11 1 18 5
M  V30 12 1 18 10
M  V30 13 2 19 11
M  V30 14 1 20 17
M  V30 15 1 21 11
M  V30 16 1 22 6
M  V30 17 2 22 13
M  V30 18 1 24 8
M  V30 19 1 25 15
M  V30 20 1 25 23
M  V30 21 2 26 1
M  V30 22 1 26 15
M  V30 23 1 27 12
M  V30 24 2 28 6
M  V30 25 1 29 22
M  V30 26 1 30 14
M  V30 27 1 30 23
M  V30 28 1 30 24
M  V30 29 1 31 4
M  V30 30 1 31 10
M  V30 31 1 32 1
M  V30 32 1 32 27
M  V30 33 2 33 3
M  V30 34 1 33 28
M  V30 35 1 33 31
M  V30 36 1 34 5
M  V30 37 1 34 11
M  V30 38 1 34 20
M  V30 39 1 35 1
M  V30 40 1 36 2
M  V30 41 1 37 2
M  V30 42 1 38 3
M  V30 43 1 39 5
M  V30 44 1 40 5
M  V30 45 1 41 6
M  V30 46 1 7 42 CFG=1
M  V30 47 1 43 8
M  V30 48 1 44 8
M  V30 49 1 45 9
M  V30 50 1 46 9
M  V30 51 1 10 47 CFG=3
M  V30 52 1 48 13
M  V30 53 1 49 14
M  V30 54 1 50 14
M  V30 55 1 15 51 CFG=1
M  V30 56 1 52 16
M  V30 57 1 53 16
M  V30 58 1 54 17
M  V30 59 1 55 18
M  V30 60 1 56 18
M  V30 61 1 57 20
M  V30 62 1 58 20
M  V30 63 1 59 23
M  V30 64 1 60 23
M  V30 65 1 61 24
M  V30 66 1 62 24
M  V30 67 1 63 25
M  V30 68 1 64 25
M  V30 69 1 65 26
M  V30 70 1 66 27
M  V30 71 1 67 27
M  V30 72 1 68 28
M  V30 73 1 30 69 CFG=3
M  V30 74 1 31 70 CFG=1
M  V30 75 1 71 32
M  V30 76 1 72 32
M  V30 77 1 34 73 CFG=1
M  V30 78 1 12 74 CFG=1
M  V30 END BOND
M  V30 END CTAB
M  END
>  <i_epik_Tot_Q>  (1) 
2

>  <i_epik_Tot_abs_Q>  (1) 
4

>  <i_i_glide_confnum>  (1) 
11

>  <i_i_glide_lignum>  (1) 
268

>  <i_i_glide_posenum>  (1) 
261

>  <i_i_glide_rotatable_bonds>  (1) 
6

>  <i_lp_mmshare_version>  (1) 
72125

>  <i_m_source_file_index>  (1) 
98

>  <i_f3d_flags>  (1) 
0

>  <num_sample>  (1) 
100

>  <b_lp_Chiralities_Consistent>  (1) 
1

>  <r_epik_Charging_Adjusted_Penalty>  (1) 
0.028424460748094963

>  <r_epik_Ionization_Penalty>  (1) 
0.031653010901111077

>  <r_epik_Ionization_Penalty_Charging>  (1) 
0.0018620536084809386

>  <r_epik_Ionization_Penalty_Neutral>  (1) 
0.029790957292630139

>  <r_epik_State_Penalty>  (1) 
0.026562407139614025

>  <r_glide_ring_energy>  (1) 
1.3700077463138134

>  <r_i_docking_score>  (1) 
-7.7803438702775489

>  <r_i_glide_ecoul>  (1) 
-3.4292686754739616

>  <r_i_glide_eff_state_penalty>  (1) 
0.026562407139614025

>  <r_i_glide_einternal>  (1) 
9.0088909527206571

>  <r_i_glide_emodel>  (1) 
-40.268050764207338

>  <r_i_glide_emodel_strain>  (1) 
3.8932580766997802

>  <r_i_glide_energy>  (1) 
-34.188057588966366

>  <r_i_glide_erotb>  (1) 
0.42420227184638803

>  <r_i_glide_esite>  (1) 
-0.071905665459047127

>  <r_i_glide_evdw>  (1) 
-30.758788913492406

>  <r_i_glide_gscore>  (1) 
-7.8069062774171627

>  <r_i_glide_gscore_strain>  (1) 
0

>  <r_i_glide_hbond>  (1) 
0

>  <r_i_glide_ligand_efficiency>  (1) 
-0.22883364324345731

>  <r_i_glide_ligand_efficiency_ln>  (1) 
-1.7188961921978867

>  <r_i_glide_ligand_efficiency_sa>  (1) 
-0.74133217118082584

>  <r_i_glide_lipo>  (1) 
-4.5393848563268531

>  <r_i_glide_metal>  (1) 
-0

>  <r_i_glide_rewards>  (1) 
-1.5674882804819357

>  <r_lp_Energy>  (1) 
45.035862999999999

>  <s_epik_cmdline>  (1) 
J2VwaWtfcHl0aG9uJywgJy1waHQnLCAnMS4wJywgJy1waCcsICc3LjQnLCAnLXRuJywgJzgnLCAnLW1hJywgJzUwMCcsICctaW1hZScsICc8aW5maWxlLm1hZT4nLCAnLW9tYWUnLCAnPG91dGZpbGUubWFlPic=

>  <s_epik_input>  (1) 
W0NIMl0xW0NIMl1bQ0hdPVtDSF1bQ0BASF0oTjEyKVtDSDJdW0NIMl1bQ0BASF0oW0NIMl1bQ0gyXTIpW0NIMl1bQ0BIXShbQ0gyXVtDSDJdMylbQ0gyXVtTK10zW0NASF0oYyhbY0hdW2NIXTQpW2NIXVtjSF1jNEYpW0NASF01W05IXVtDSDJdW0NASF0oW04rXSg9TylbTy1dKVtDSDJdW0NIMl01

>  <s_glide_docking_method>  (1) 
confgen

>  <s_i_glide_gridfile>  (1) 
gpcr_5ht2c_6bqh_protein_autoprepared_prepared

>  <s_lp_Force_Field>  (1) 
S-OPLS

>  <s_lp_Variant>  (1) 
DiffSBDD_97_num_sample_100-1

>  <s_m_source_file>  (1) 
generated__ligand_DiffSBDD_2026-05-06_prepared.sdf

>  <GenAI_Model>  (1) 
DiffSBDD

>  <Protein>  (1) 
GPCR_5HT2C

$$$$
DiffSBDD_25_num_sample_100
     RDKit          3D

  0  0  0  0  0  0  0  0  0  0999 V3000
M  V30 BEGIN CTAB
M  V30 COUNTS 57 59 0 0 1
M  V30 BEGIN ATOM
M  V30 1 C 38.640189 32.844079 60.793484 0
M  V30 2 C 40.165735 29.338340 60.499971 0
M  V30 3 C 40.431334 31.085964 62.267601 0
M  V30 4 C 38.000944 25.938423 54.560727 0
M  V30 5 C 37.458378 24.885700 56.778575 0
M  V30 6 C 38.252682 24.122179 57.544570 0
M  V30 7 C 38.217604 29.328141 57.153483 0 CFG=2
M  V30 8 N 42.195913 35.621430 65.853497 0
M  V30 9 O 40.011352 27.668353 58.784939 0
M  V30 10 C 39.648251 28.906564 59.261677 0
M  V30 11 C 38.511047 27.661245 52.667082 0
M  V30 12 C 41.732013 34.248591 65.828986 0 CFG=2
M  V30 13 C 39.078659 26.941950 56.760419 0 CFG=2
M  V30 14 O 39.467415 26.926697 52.340244 0
M  V30 15 O 38.862048 26.949223 58.164858 0
M  V30 16 C 39.559692 33.394489 61.902715 0
M  V30 17 O 38.307918 28.821438 52.253699 0 CHG=-1
M  V30 18 C 40.970821 32.689311 63.992776 0
M  V30 19 C 38.786526 29.764954 58.514505 0
M  V30 20 N 43.680510 32.589164 66.439616 0
M  V30 21 O 40.268287 26.288456 56.384421 0
M  V30 22 C 38.458965 31.037794 59.030873 0
M  V30 23 C 42.823219 33.318061 66.170082 0
M  V30 24 C 37.487108 27.090850 53.657551 0
M  V30 25 C 40.325864 32.348918 62.717878 0
M  V30 26 O 41.000659 28.517483 61.205814 0
M  V30 27 C 39.184227 28.428845 56.348550 0
M  V30 28 O 37.872243 30.422063 56.319863 0
M  V30 29 C 41.067405 33.942675 64.498649 0
M  V30 30 C 39.849340 30.622887 61.000197 0
M  V30 31 C 38.994002 31.468026 60.261477 0
M  V30 32 C 37.894177 26.180253 56.092310 0 CFG=1
M  V30 33 F 40.567757 34.974644 63.798354 0
M  V30 34 H 38.589341 33.556160 59.968681 0
M  V30 35 H 37.626098 32.768809 61.187845 0
M  V30 36 H 40.987947 30.361193 62.844534 0
M  V30 37 H 37.394077 25.069701 54.302557 0
M  V30 38 H 39.011633 25.621413 54.309150 0
M  V30 39 H 36.432845 24.585752 56.620909 0
M  V30 40 H 39.283279 24.387430 57.722550 0
M  V30 41 H 37.877775 23.221476 58.002920 0
M  V30 42 H 37.281783 28.804551 57.346940 0
M  V30 43 H 42.909292 35.776501 65.153693 0
M  V30 44 H 41.443554 36.258174 65.622107 0
M  V30 45 H 40.976603 34.136919 66.607459 0
M  V30 46 H 40.306682 34.042315 61.441693 0
M  V30 47 H 38.938301 34.016882 62.543256 0
M  V30 48 H 41.399001 31.881073 64.568335 0
M  V30 49 H 41.004745 26.740202 56.766427 0
M  V30 50 H 37.803813 31.693533 58.475317 0
M  V30 51 H 36.667324 26.719353 53.053523 0
M  V30 52 H 37.067406 27.906809 54.246092 0
M  V30 53 H 41.211251 27.718406 60.744592 0
M  V30 54 H 39.001728 28.518842 55.282327 0
M  V30 55 H 40.199785 28.808795 56.471481 0
M  V30 56 H 37.089808 30.851730 56.653469 0
M  V30 57 H 37.049034 26.821430 56.263555 0
M  V30 END ATOM
M  V30 BEGIN BOND
M  V30 1 2 6 5
M  V30 2 1 10 2
M  V30 3 1 10 9
M  V30 4 1 12 8
M  V30 5 2 14 11
M  V30 6 1 15 9
M  V30 7 1 15 13
M  V30 8 1 16 1
M  V30 9 1 17 11
M  V30 10 1 19 7
M  V30 11 2 19 10
M  V30 12 1 13 21 CFG=1
M  V30 13 1 22 19
M  V30 14 1 23 12
M  V30 15 3 23 20
M  V30 16 1 24 4
M  V30 17 1 24 11
M  V30 18 2 25 3
M  V30 19 1 25 16
M  V30 20 1 25 18
M  V30 21 1 26 2
M  V30 22 1 27 7
M  V30 23 1 27 13
M  V30 24 1 28 7
M  V30 25 1 29 12
M  V30 26 2 29 18
M  V30 27 2 30 2
M  V30 28 1 30 3
M  V30 29 1 31 1
M  V30 30 2 31 22
M  V30 31 1 31 30
M  V30 32 1 32 4
M  V30 33 1 32 5
M  V30 34 1 32 13
M  V30 35 1 33 29
M  V30 36 1 34 1
M  V30 37 1 35 1
M  V30 38 1 36 3
M  V30 39 1 37 4
M  V30 40 1 38 4
M  V30 41 1 39 5
M  V30 42 1 40 6
M  V30 43 1 41 6
M  V30 44 1 7 42 CFG=1
M  V30 45 1 43 8
M  V30 46 1 44 8
M  V30 47 1 12 45 CFG=1
M  V30 48 1 46 16
M  V30 49 1 47 16
M  V30 50 1 48 18
M  V30 51 1 49 21
M  V30 52 1 50 22
M  V30 53 1 51 24
M  V30 54 1 52 24
M  V30 55 1 53 26
M  V30 56 1 54 27
M  V30 57 1 55 27
M  V30 58 1 56 28
M  V30 59 1 32 57 CFG=3
M  V30 END BOND
M  V30 END CTAB
M  END
>  <i_epik_Tot_Q>  (1) 
-1

>  <i_epik_Tot_abs_Q>  (1) 
1

>  <i_i_glide_confnum>  (1) 
94

>  <i_i_glide_lignum>  (1) 
65

>  <i_i_glide_posenum>  (1) 
114

>  <i_i_glide_rotatable_bonds>  (1) 
10

>  <i_lp_mmshare_version>  (1) 
72125

>  <i_m_source_file_index>  (1) 
26

>  <i_f3d_flags>  (1) 
0

>  <num_sample>  (1) 
100

>  <b_lp_Chiralities_Consistent>  (1) 
1

>  <r_epik_Charging_Adjusted_Penalty>  (1) 
0.0056011124489286045

>  <r_epik_Ionization_Penalty>  (1) 
0.0056278004124673013

>  <r_epik_Ionization_Penalty_Charging>  (1) 
0.0010502183284910153

>  <r_epik_Ionization_Penalty_Neutral>  (1) 
0.0045775820839762862

>  <r_epik_State_Penalty>  (1) 
0.0045508941204375894

>  <r_glide_ring_energy>  (1) 
0

>  <r_i_docking_score>  (1) 
-7.7765777349559322

>  <r_i_glide_ecoul>  (1) 
-7.5230783144102835

>  <r_i_glide_eff_state_penalty>  (1) 
0.0045508941204375894

>  <r_i_glide_einternal>  (1) 
7.6447685614722447

>  <r_i_glide_emodel>  (1) 
-63.881770575789687

>  <r_i_glide_emodel_strain>  (1) 
1.4598343198921953

>  <r_i_glide_energy>  (1) 
-48.032377217462795

>  <r_i_glide_erotb>  (1) 
0.57188489385704211

>  <r_i_glide_esite>  (1) 
0

>  <r_i_glide_evdw>  (1) 
-40.50929890305251

>  <r_i_glide_gscore>  (1) 
-7.7811286290763695

>  <r_i_glide_gscore_strain>  (1) 
0

>  <r_i_glide_hbond>  (1) 
-0.31367877776225989

>  <r_i_glide_ligand_efficiency>  (1) 
-0.23565387075624036

>  <r_i_glide_ligand_efficiency_ln>  (1) 
-1.7294706232896222

>  <r_i_glide_ligand_efficiency_sa>  (1) 
-0.75586788044704056

>  <r_i_glide_lipo>  (1) 
-3.2252252557157788

>  <r_i_glide_metal>  (1) 
-0

>  <r_i_glide_rewards>  (1) 
-1.6601827971412058

>  <r_lp_Energy>  (1) 
34.737321999999999

>  <s_epik_cmdline>  (1) 
J2VwaWtfcHl0aG9uJywgJy1waHQnLCAnMS4wJywgJy1waCcsICc3LjQnLCAnLXRuJywgJzgnLCAnLW1hJywgJzUwMCcsICctaW1hZScsICc8aW5maWxlLm1hZT4nLCAnLW9tYWUnLCAnPG91dGZpbGUubWFlPic=

>  <s_epik_input>  (1) 
TiNDW0NAQEhdKFtOSDJdKVxDKEYpPVtDSF1cQyhbQ0gyXVtDSDJdMSk9W0NIXWMoYzJbT0hdKWMxW2NIXWMoYzIzKVtDQEBIXShbT0hdKVtDSDJdW0NAXShPTzMpKFtPSF0pW0NASF0oW0NIXT1bQ0gyXSlbQ0gyXVtDSDJdQyg9TylbT0hd

>  <s_glide_docking_method>  (1) 
confgen

>  <s_i_glide_gridfile>  (1) 
gpcr_5ht2c_6bqh_protein_autoprepared_prepared

>  <s_lp_Force_Field>  (1) 
S-OPLS

>  <s_lp_Variant>  (1) 
DiffSBDD_25_num_sample_100-1

>  <s_m_source_file>  (1) 
generated__ligand_DiffSBDD_2026-05-06_prepared.sdf

>  <GenAI_Model>  (1) 
DiffSBDD

>  <Protein>  (1) 
GPCR_5HT2C

$$$$
DiffSBDD_84_num_sample_100
     RDKit          3D

  0  0  0  0  0  0  0  0  0  0999 V3000
M  V30 BEGIN CTAB
M  V30 COUNTS 48 50 0 0 1
M  V30 BEGIN ATOM
M  V30 1 C 39.539770 29.906128 52.439799 0
M  V30 2 C 41.057959 28.421189 59.987348 0
M  V30 3 C 40.364154 29.514242 60.819812 0 CFG=2
M  V30 4 C 39.663195 29.767131 55.564061 0
M  V30 5 C 38.667434 28.494715 59.416332 0 CFG=1
M  V30 6 C 39.801994 31.130720 53.132521 0
M  V30 7 C 39.467399 28.156880 50.813577 0
M  V30 8 N 39.234181 29.540658 56.735068 0
M  V30 9 Cl 40.839235 30.421437 50.108670 0
M  V30 10 C 39.972096 27.720176 59.156773 0
M  V30 11 C 37.575373 27.233680 54.058149 0
M  V30 12 O 41.216544 28.995462 63.017421 0
M  V30 13 C 38.789869 30.142075 54.385557 0 CFG=1
M  V30 14 C 38.877663 29.257692 53.251772 0
M  V30 15 C 39.903108 29.456593 51.177309 0
M  V30 16 C 38.386918 27.976871 53.021921 0
M  V30 17 C 40.034445 29.057096 62.251383 0
M  V30 18 C 38.689481 27.400293 51.755301 0
M  V30 19 C 37.841535 29.538782 57.110092 0 CFG=1
M  V30 20 C 39.104202 29.837532 60.017575 0
M  V30 21 C 37.621763 28.532694 58.253611 0
M  V30 22 N 37.467403 30.887276 57.551624 0 CHG=1
M  V30 23 H 41.782975 28.871841 59.308891 0
M  V30 24 H 41.606737 27.717197 60.611837 0
M  V30 25 H 40.989605 30.405898 60.879911 0
M  V30 26 H 40.727284 29.703574 55.331820 0
M  V30 27 H 38.219911 27.950811 60.243289 0
M  V30 28 H 39.308197 31.992163 52.684054 0
M  V30 29 H 40.862187 31.221503 53.359815 0
M  V30 30 H 39.713093 27.746099 49.853504 0
M  V30 31 H 40.262870 27.699798 58.108853 0
M  V30 32 H 39.864185 26.678144 59.453464 0
M  V30 33 H 37.307565 26.236521 53.706891 0
M  V30 34 H 38.133466 27.130916 54.988742 0
M  V30 35 H 36.658206 27.782926 54.253609 0
M  V30 36 H 40.986012 28.706668 63.888734 0
M  V30 37 H 37.803880 30.561617 54.586524 0
M  V30 38 H 39.543444 28.082864 62.253421 0
M  V30 39 H 39.356367 29.764017 62.729994 0
M  V30 40 H 38.346161 26.421428 51.505976 0
M  V30 41 H 37.191389 29.265830 56.279497 0
M  V30 42 H 38.324017 30.308397 60.616885 0
M  V30 43 H 39.394901 30.540910 59.241633 0
M  V30 44 H 37.544598 27.529098 57.832411 0
M  V30 45 H 36.633066 28.759290 58.653498 0
M  V30 46 H 36.480656 31.128214 57.337379 0
M  V30 47 H 37.628617 30.989676 58.540658 0
M  V30 48 H 38.025691 31.562767 57.053366 0
M  V30 END ATOM
M  V30 BEGIN BOND
M  V30 1 1 3 2
M  V30 2 1 6 1
M  V30 3 2 8 4
M  V30 4 1 10 2
M  V30 5 1 10 5
M  V30 6 1 13 4
M  V30 7 1 13 6
M  V30 8 1 14 1
M  V30 9 1 14 13
M  V30 10 2 15 1
M  V30 11 1 15 7
M  V30 12 1 15 9
M  V30 13 1 16 11
M  V30 14 2 16 14
M  V30 15 1 17 3
M  V30 16 1 17 12
M  V30 17 2 18 7
M  V30 18 1 18 16
M  V30 19 1 19 8
M  V30 20 1 20 3
M  V30 21 1 20 5
M  V30 22 1 21 5
M  V30 23 1 21 19
M  V30 24 1 22 19
M  V30 25 1 23 2
M  V30 26 1 24 2
M  V30 27 1 3 25 CFG=1
M  V30 28 1 26 4
M  V30 29 1 5 27 CFG=1
M  V30 30 1 28 6
M  V30 31 1 29 6
M  V30 32 1 30 7
M  V30 33 1 31 10
M  V30 34 1 32 10
M  V30 35 1 33 11
M  V30 36 1 34 11
M  V30 37 1 35 11
M  V30 38 1 36 12
M  V30 39 1 13 37 CFG=1
M  V30 40 1 38 17
M  V30 41 1 39 17
M  V30 42 1 40 18
M  V30 43 1 19 41 CFG=3
M  V30 44 1 42 20
M  V30 45 1 43 20
M  V30 46 1 44 21
M  V30 47 1 45 21
M  V30 48 1 46 22
M  V30 49 1 47 22
M  V30 50 1 48 22
M  V30 END BOND
M  V30 END CTAB
M  END
>  <i_epik_Tot_Q>  (1) 
1

>  <i_epik_Tot_abs_Q>  (1) 
1

>  <i_i_glide_confnum>  (1) 
272

>  <i_i_glide_lignum>  (1) 
219

>  <i_i_glide_posenum>  (1) 
115

>  <i_i_glide_rotatable_bonds>  (1) 
6

>  <i_lp_mmshare_version>  (1) 
72125

>  <i_m_source_file_index>  (1) 
85

>  <i_f3d_flags>  (1) 
0

>  <num_sample>  (1) 
100

>  <b_lp_Chiralities_Consistent>  (1) 
1

>  <r_epik_Charging_Adjusted_Penalty>  (1) 
0.46451758934955678

>  <r_epik_Ionization_Penalty>  (1) 
0.053840736014893024

>  <r_epik_Ionization_Penalty_Charging>  (1) 
0.053837750396952835

>  <r_epik_Ionization_Penalty_Neutral>  (1) 
2.9856179401856363e-06

>  <r_epik_State_Penalty>  (1) 
0.41067983895260396

>  <r_glide_ring_energy>  (1) 
0.79554456132168294

>  <r_i_docking_score>  (1) 
-7.7681523576467901

>  <r_i_glide_ecoul>  (1) 
-9.5904215493153533

>  <r_i_glide_eff_state_penalty>  (1) 
0.41067983895260396

>  <r_i_glide_einternal>  (1) 
6.2734913019056622

>  <r_i_glide_emodel>  (1) 
-61.055357318354055

>  <r_i_glide_emodel_strain>  (1) 
0.69853001148300109

>  <r_i_glide_energy>  (1) 
-39.217104444972584

>  <r_i_glide_erotb>  (1) 
0.90212786361762021

>  <r_i_glide_esite>  (1) 
-0.1473674440794778

>  <r_i_glide_evdw>  (1) 
-29.626682895657233

>  <r_i_glide_gscore>  (1) 
-8.1788321965993944

>  <r_i_glide_gscore_strain>  (1) 
0

>  <r_i_glide_hbond>  (1) 
-0.1379842737831008

>  <r_i_glide_ligand_efficiency>  (1) 
-0.35309783443849047

>  <r_i_glide_ligand_efficiency_ln>  (1) 
-1.8988197864507501

>  <r_i_glide_ligand_efficiency_sa>  (1) 
-0.98939401966589458

>  <r_i_glide_lipo>  (1) 
-3.7024430767159413

>  <r_i_glide_metal>  (1) 
-0

>  <r_i_glide_rewards>  (1) 
-2.1732678884583314

>  <r_lp_Energy>  (1) 
15.401159

>  <r_lp_tautomer_probability>  (1) 
0.49999300000000002

>  <s_epik_Chemistry_Notes>  (1) 
This compound has an imine and may undergo hydrolysis. This compound contains an acetal/aminal-like group ( X-CH(R)-Y where X, Y are N, S, or O) that may be acid/base labile, releasing an aldehyde.

>  <s_epik_cmdline>  (1) 
J2VwaWtfcHl0aG9uJywgJy1waHQnLCAnMS4wJywgJy1waCcsICc3LjQnLCAnLXRuJywgJzgnLCAnLW1hJywgJzUwMCcsICctaW1hZScsICc8aW5maWxlLm1hZT4nLCAnLW9tYWUnLCAnPG91dGZpbGUubWFlPic=

>  <s_epik_input>  (1) 
Q2xjMVtjSF1bY0hdYyhbQ0gzXSljKGMxMilbQ0BIXShbQ0gyXTIpL1tDSF09TlxbQ0BIXShbTkgyXSlbQ0gyXVtDQEhdKFtDSDJdMylbQ0gyXVtDSDJdW0NAQEhdM1tDSDJdW09IXQ==

>  <s_glide_docking_method>  (1) 
confgen

>  <s_i_glide_gridfile>  (1) 
gpcr_5ht2c_6bqh_protein_autoprepared_prepared

>  <s_lp_Force_Field>  (1) 
S-OPLS

>  <s_lp_Variant>  (1) 
DiffSBDD_84_num_sample_100-2

>  <s_m_source_file>  (1) 
generated__ligand_DiffSBDD_2026-05-06_prepared.sdf

>  <GenAI_Model>  (1) 
DiffSBDD

>  <Protein>  (1) 
GPCR_5HT2C

$$$$
DiffSBDD_77_num_sample_100
     RDKit          3D

  0  0  0  0  0  0  0  0  0  0999 V3000
M  V30 BEGIN CTAB
M  V30 COUNTS 77 79 0 0 1
M  V30 BEGIN ATOM
M  V30 1 C 40.946930 30.462759 66.280998 0
M  V30 2 F 43.777295 28.812853 64.615131 0
M  V30 3 C 39.298439 27.329099 59.162422 0
M  V30 4 C 40.671196 31.494469 65.363198 0
M  V30 5 C 39.417040 30.747567 53.454008 0
M  V30 6 C 39.383057 31.224706 62.051573 0
M  V30 7 C 37.450086 29.567799 58.373447 0
M  V30 8 C 38.524066 31.462640 59.604265 0 CFG=2
M  V30 9 O 38.574982 30.980469 55.981496 0
M  V30 10 C 39.953692 31.044777 52.033315 0
M  V30 11 N 38.953089 36.224133 61.495821 0
M  V30 12 C 41.137691 32.731940 63.193240 0
M  V30 13 C 42.768706 29.683057 64.857859 0
M  V30 14 O 41.756641 27.221945 57.844832 0
M  V30 15 C 40.682431 27.612745 57.010098 0
M  V30 16 C 41.442354 31.621009 64.188585 0
M  V30 17 F 42.258775 28.564473 66.911392 0
M  V30 18 C 39.841007 33.531814 60.279029 0
M  V30 19 O 37.067277 37.337024 60.948694 0
M  V30 20 O 37.067225 31.796816 61.506860 0
M  V30 21 C 41.994769 29.556625 66.028495 0
M  V30 22 C 39.630050 28.623079 51.472110 0
M  V30 23 N 39.095088 28.906641 55.165009 0
M  V30 24 C 39.602091 35.114568 62.181697 0
M  V30 25 C 42.493390 30.714335 63.939101 0
M  V30 26 C 39.470114 28.078328 57.846873 0
M  V30 27 C 37.628303 36.406108 61.516487 0
M  V30 28 C 39.409677 28.267860 52.861320 0
M  V30 29 C 38.730804 32.971971 59.390679 0
M  V30 30 F 39.597565 27.654918 50.545654 0
M  V30 31 C 39.287414 26.808291 53.260926 0
M  V30 32 C 39.700708 32.642873 62.610531 0 CFG=1
M  V30 33 C 38.770981 29.780631 56.162950 0
M  V30 34 N 37.467397 30.992097 58.715125 0
M  V30 35 C 38.608020 29.097002 57.472802 0
M  V30 36 C 39.308555 29.247430 53.791516 0
M  V30 37 C 39.866020 29.879649 51.079653 0
M  V30 38 C 38.199888 31.074563 61.069893 0 CFG=2
M  V30 39 N 39.356952 33.741228 61.661689 0 CFG=2 CHG=1
M  V30 40 H 40.354250 30.365842 67.178955 0
M  V30 41 H 39.868407 27.811735 59.956646 0
M  V30 42 H 38.267557 27.217535 59.476235 0
M  V30 43 H 39.665801 26.308352 59.053530 0
M  V30 44 H 39.867387 32.186929 65.558572 0
M  V30 45 H 38.424888 31.193228 53.533941 0
M  V30 46 H 40.083095 31.257492 54.150650 0
M  V30 47 H 40.270152 30.810877 61.570339 0
M  V30 48 H 39.195761 30.566198 62.901605 0
M  V30 49 H 36.527393 29.358800 57.831040 0
M  V30 50 H 37.366958 28.993062 59.286480 0
M  V30 51 H 39.450466 30.957467 59.329130 0
M  V30 52 H 41.012816 31.283621 52.090987 0
M  V30 53 H 39.467406 31.917490 51.603237 0
M  V30 54 H 39.533946 36.881144 60.994868 0
M  V30 55 H 41.874169 32.710475 62.389108 0
M  V30 56 H 41.289499 33.674335 63.720056 0
M  V30 57 H 42.237004 26.515755 57.427424 0
M  V30 58 H 41.115593 28.378605 56.368319 0
M  V30 59 H 40.399058 26.750217 56.407354 0
M  V30 60 H 40.667397 32.826869 60.276782 0
M  V30 61 H 40.198190 34.470756 59.853834 0
M  V30 62 H 36.430979 31.738161 60.802817 0
M  V30 63 H 39.140887 27.925479 55.392280 0
M  V30 64 H 39.312344 35.166469 63.231798 0
M  V30 65 H 40.674540 35.313710 62.162360 0
M  V30 66 H 43.087738 30.808233 63.045655 0
M  V30 67 H 37.121134 35.621228 62.099893 0
M  V30 68 H 39.009094 33.134377 58.347892 0
M  V30 69 H 37.803458 33.529089 59.537166 0
M  V30 70 H 39.670369 26.169662 52.466395 0
M  V30 71 H 39.875711 26.579452 54.147551 0
M  V30 72 H 38.245286 26.545032 53.446147 0
M  V30 73 H 39.038149 32.811969 63.453111 0
M  V30 74 H 37.366709 31.557937 57.869254 0
M  V30 75 H 40.026902 30.094115 50.032784 0
M  V30 76 H 37.931291 30.021404 61.088436 0
M  V30 77 H 38.350575 33.658279 61.582142 0
M  V30 END ATOM
M  V30 BEGIN BOND
M  V30 1 2 4 1
M  V30 2 1 10 5
M  V30 3 1 13 2
M  V30 4 1 15 14
M  V30 5 1 16 4
M  V30 6 1 16 12
M  V30 7 1 21 1
M  V30 8 2 21 13
M  V30 9 1 21 17
M  V30 10 1 24 11
M  V30 11 1 25 13
M  V30 12 2 25 16
M  V30 13 1 26 3
M  V30 14 1 26 15
M  V30 15 1 27 11
M  V30 16 2 27 19
M  V30 17 1 28 22
M  V30 18 1 29 8
M  V30 19 1 29 18
M  V30 20 1 30 22
M  V30 21 1 31 28
M  V30 22 1 32 6
M  V30 23 1 32 12
M  V30 24 2 33 9
M  V30 25 1 33 23
M  V30 26 1 34 7
M  V30 27 1 34 8
M  V30 28 1 35 7
M  V30 29 2 35 26
M  V30 30 1 35 33
M  V30 31 1 36 5
M  V30 32 1 36 23
M  V30 33 2 36 28
M  V30 34 1 37 10
M  V30 35 2 37 22
M  V30 36 1 38 6
M  V30 37 1 38 8
M  V30 38 1 38 20
M  V30 39 1 39 18
M  V30 40 1 39 24
M  V30 41 1 39 32
M  V30 42 1 40 1
M  V30 43 1 41 3
M  V30 44 1 42 3
M  V30 45 1 43 3
M  V30 46 1 44 4
M  V30 47 1 45 5
M  V30 48 1 46 5
M  V30 49 1 47 6
M  V30 50 1 48 6
M  V30 51 1 49 7
M  V30 52 1 50 7
M  V30 53 1 8 51 CFG=3
M  V30 54 1 52 10
M  V30 55 1 53 10
M  V30 56 1 54 11
M  V30 57 1 55 12
M  V30 58 1 56 12
M  V30 59 1 57 14
M  V30 60 1 58 15
M  V30 61 1 59 15
M  V30 62 1 60 18
M  V30 63 1 61 18
M  V30 64 1 62 20
M  V30 65 1 63 23
M  V30 66 1 64 24
M  V30 67 1 65 24
M  V30 68 1 66 25
M  V30 69 1 67 27
M  V30 70 1 68 29
M  V30 71 1 69 29
M  V30 72 1 70 31
M  V30 73 1 71 31
M  V30 74 1 72 31
M  V30 75 1 32 73 CFG=1
M  V30 76 1 74 34
M  V30 77 1 75 37
M  V30 78 1 38 76 CFG=3
M  V30 79 1 39 77 CFG=3
M  V30 END BOND
M  V30 END CTAB
M  END
>  <i_epik_Tot_Q>  (1) 
1

>  <i_epik_Tot_abs_Q>  (1) 
1

>  <i_i_glide_confnum>  (1) 
4030

>  <i_i_glide_lignum>  (1) 
195

>  <i_i_glide_posenum>  (1) 
154

>  <i_i_glide_rotatable_bonds>  (1) 
14

>  <i_lp_mmshare_version>  (1) 
72125

>  <i_m_source_file_index>  (1) 
78

>  <i_f3d_flags>  (1) 
0

>  <num_sample>  (1) 
100

>  <b_lp_Chiralities_Consistent>  (1) 
1

>  <r_epik_Charging_Adjusted_Penalty>  (1) 
1.2599673287133732

>  <r_epik_Ionization_Penalty>  (1) 
0.56885031527891383

>  <r_epik_Ionization_Penalty_Charging>  (1) 
0.52000942162343

>  <r_epik_Ionization_Penalty_Neutral>  (1) 
0.048840893655483872

>  <r_epik_State_Penalty>  (1) 
0.73995790708994325

>  <r_glide_ring_energy>  (1) 
0

>  <r_i_docking_score>  (1) 
-7.7649101956271576

>  <r_i_glide_ecoul>  (1) 
-3.2720036037682942

>  <r_i_glide_eff_state_penalty>  (1) 
0.73995790708994325

>  <r_i_glide_einternal>  (1) 
27.353915335301576

>  <r_i_glide_emodel>  (1) 
-62.264317997996478

>  <r_i_glide_emodel_strain>  (1) 
1.6806787573192423

>  <r_i_glide_energy>  (1) 
-50.310573713976268

>  <r_i_glide_erotb>  (1) 
0.67934156738045093

>  <r_i_glide_esite>  (1) 
0

>  <r_i_glide_evdw>  (1) 
-47.038570110207971

>  <r_i_glide_gscore>  (1) 
-8.5048681027171007

>  <r_i_glide_gscore_strain>  (1) 
0

>  <r_i_glide_hbond>  (1) 
-0.59186348303520508

>  <r_i_glide_ligand_efficiency>  (1) 
-0.19910026142633738

>  <r_i_glide_ligand_efficiency_ln>  (1) 
-1.6650171660261772

>  <r_i_glide_ligand_efficiency_sa>  (1) 
-0.67519108485610746

>  <r_i_glide_lipo>  (1) 
-3.9089825151133599

>  <r_i_glide_metal>  (1) 
-0

>  <r_i_glide_rewards>  (1) 
-1.8406346258733439

>  <r_lp_Energy>  (1) 
52.196855999999997

>  <s_epik_Chemistry_Notes>  (1) 
This compound contains an acetal/aminal-like group ( X-CH(R)-Y where X, Y are N, S, or O) that may be acid/base labile, releasing an aldehyde.

>  <s_epik_cmdline>  (1) 
J2VwaWtfcHl0aG9uJywgJy1waHQnLCAnMS4wJywgJy1waCcsICc3LjQnLCAnLXRuJywgJzgnLCAnLW1hJywgJzUwMCcsICctaW1hZScsICc8aW5maWxlLm1hZT4nLCAnLW9tYWUnLCAnPG91dGZpbGUubWFlPic=

>  <s_epik_input>  (1) 
RmMxYyhGKVtjSF1bY0hdYyhbY0hdMSlbQ0gyXVtDQEhdKFtDSDJdW0NASF0yW09IXSlOKFtDSDJdW05IXVtDSF09TylbQ0gyXVtDSDJdW0NAQEhdMltOSF1bQ0gyXS9DKD1DKFxbQ0gzXSlbQ0gyXVtPSF0pQyg9TylbTkhdQyg9QzNbQ0gzXSlbQ0gyXVtDSDJdW0NIXT1DM0Y=

>  <s_glide_docking_method>  (1) 
confgen

>  <s_i_glide_gridfile>  (1) 
gpcr_5ht2c_6bqh_protein_autoprepared_prepared

>  <s_lp_Force_Field>  (1) 
S-OPLS

>  <s_lp_Variant>  (1) 
DiffSBDD_77_num_sample_100-6

>  <s_m_source_file>  (1) 
generated__ligand_DiffSBDD_2026-05-06_prepared.sdf

>  <GenAI_Model>  (1) 
DiffSBDD

>  <Protein>  (1) 
GPCR_5HT2C

$$$$
DiffSBDD_19_num_sample_100
     RDKit          3D

  0  0  0  0  0  0  0  0  0  0999 V3000
M  V30 BEGIN CTAB
M  V30 COUNTS 71 72 0 0 1
M  V30 BEGIN ATOM
M  V30 1 C 38.808875 32.006636 59.590665 0
M  V30 2 C 39.582762 31.200268 55.414717 0
M  V30 3 C 38.494678 33.858473 61.304015 0
M  V30 4 C 40.473259 35.486916 63.132335 0
M  V30 5 O 38.618948 33.395666 55.800821 0
M  V30 6 C 38.689773 27.276152 57.929903 0
M  V30 7 C 40.826495 34.163884 62.428679 0 CFG=1
M  V30 8 C 38.423918 27.634987 52.674616 0
M  V30 9 C 38.966517 28.618584 53.639106 0
M  V30 10 C 39.468507 32.069703 62.812888 0
M  V30 11 C 38.833281 27.420093 51.424217 0
M  V30 12 C 42.011706 33.462283 63.159499 0
M  V30 13 C 41.664375 32.152070 63.834040 0
M  V30 14 O 35.678465 32.719747 61.453579 0
M  V30 15 O 36.744138 30.822741 60.992387 0 CHG=-1
M  V30 16 O 37.467444 26.899307 53.250767 0
M  V30 17 C 40.499209 31.525227 63.658206 0
M  V30 18 N 38.212015 31.067721 58.613471 0 CFG=2 CHG=1
M  V30 19 C 39.041086 32.214830 56.448169 0 CFG=1
M  V30 20 C 39.866367 28.165695 50.719428 0
M  V30 21 C 38.761779 31.108056 54.121517 0 CFG=1
M  V30 22 C 40.320575 29.420409 50.985872 0
M  V30 23 C 38.904900 29.755771 58.524810 0
M  V30 24 C 37.778798 32.875756 60.339300 0 CFG=2
M  V30 25 C 36.635067 32.070246 60.987179 0
M  V30 26 C 37.867467 31.710383 57.324917 0
M  V30 27 C 39.585482 33.278145 62.222059 0
M  V30 28 C 39.867407 30.338475 52.031983 0
M  V30 29 C 37.843393 26.200053 57.241485 0
M  V30 30 C 39.231885 30.022054 53.176254 0
M  V30 31 C 38.056923 28.671077 57.830252 0
M  V30 32 O 37.393217 30.925227 54.387914 0
M  V30 33 H 39.425405 31.446216 60.290106 0
M  V30 34 H 39.467214 32.708911 59.097368 0
M  V30 35 H 39.690759 30.216968 55.865930 0
M  V30 36 H 40.593912 31.496841 55.131523 0
M  V30 37 H 38.973951 34.611342 60.676547 0
M  V30 38 H 37.758159 34.418854 61.874450 0
M  V30 39 H 39.681332 36.029181 62.615197 0
M  V30 40 H 40.150709 35.314702 64.158871 0
M  V30 41 H 41.339607 36.148628 63.173819 0
M  V30 42 H 37.771001 33.223907 55.404152 0
M  V30 43 H 39.685886 27.289433 57.485639 0
M  V30 44 H 38.823112 27.008420 58.978893 0
M  V30 45 H 41.185118 34.427079 61.433028 0
M  V30 46 H 38.288687 28.647887 54.491000 0
M  V30 47 H 39.867162 28.203928 54.079717 0
M  V30 48 H 38.577266 31.487518 62.652701 0
M  V30 49 H 38.364061 26.612692 50.882771 0
M  V30 50 H 42.479183 34.123336 63.889819 0
M  V30 51 H 42.777818 33.220156 62.425953 0
M  V30 52 H 42.419392 31.714696 64.471782 0
M  V30 53 H 37.074939 26.366666 52.569423 0
M  V30 54 H 40.326248 30.583210 64.159365 0
M  V30 55 H 39.867530 32.539511 57.059151 0
M  V30 56 H 40.286104 27.685035 49.854420 0
M  V30 57 H 38.832250 32.060488 53.598532 0
M  V30 58 H 41.058689 29.810888 50.300406 0
M  V30 59 H 39.876604 29.865315 58.045779 0
M  V30 60 H 39.104530 29.405742 59.538755 0
M  V30 61 H 37.273112 33.502934 59.604787 0
M  V30 62 H 37.235427 32.562404 57.578421 0
M  V30 63 H 37.246303 31.008332 56.783124 0
M  V30 64 H 40.045710 31.389558 51.853645 0
M  V30 65 H 38.312070 25.220468 57.336711 0
M  V30 66 H 36.848617 26.138116 57.683323 0
M  V30 67 H 37.724338 26.412307 56.178224 0
M  V30 68 H 37.058721 28.647506 58.269431 0
M  V30 69 H 37.915793 28.911912 56.778150 0
M  V30 70 H 37.253413 30.048013 54.709489 0
M  V30 71 H 37.324460 30.836382 59.051071 0
M  V30 END ATOM
M  V30 BEGIN BOND
M  V30 1 1 7 4
M  V30 2 1 9 8
M  V30 3 2 11 8
M  V30 4 1 12 7
M  V30 5 1 13 12
M  V30 6 1 16 8
M  V30 7 1 17 10
M  V30 8 2 17 13
M  V30 9 1 18 1
M  V30 10 1 19 2
M  V30 11 1 19 5
M  V30 12 1 20 11
M  V30 13 1 21 2
M  V30 14 2 22 20
M  V30 15 1 23 18
M  V30 16 1 24 1
M  V30 17 1 24 3
M  V30 18 2 25 14
M  V30 19 1 25 15
M  V30 20 1 25 24
M  V30 21 1 26 18
M  V30 22 1 26 19
M  V30 23 1 27 3
M  V30 24 1 27 7
M  V30 25 2 27 10
M  V30 26 1 28 22
M  V30 27 1 29 6
M  V30 28 1 30 9
M  V30 29 1 30 21
M  V30 30 2 30 28
M  V30 31 1 31 6
M  V30 32 1 31 23
M  V30 33 1 32 21
M  V30 34 1 33 1
M  V30 35 1 34 1
M  V30 36 1 35 2
M  V30 37 1 36 2
M  V30 38 1 37 3
M  V30 39 1 38 3
M  V30 40 1 39 4
M  V30 41 1 40 4
M  V30 42 1 41 4
M  V30 43 1 42 5
M  V30 44 1 43 6
M  V30 45 1 44 6
M  V30 46 1 7 45 CFG=3
M  V30 47 1 46 9
M  V30 48 1 47 9
M  V30 49 1 48 10
M  V30 50 1 49 11
M  V30 51 1 50 12
M  V30 52 1 51 12
M  V30 53 1 52 13
M  V30 54 1 53 16
M  V30 55 1 54 17
M  V30 56 1 19 55 CFG=1
M  V30 57 1 56 20
M  V30 58 1 21 57 CFG=3
M  V30 59 1 58 22
M  V30 60 1 59 23
M  V30 61 1 60 23
M  V30 62 1 24 61 CFG=3
M  V30 63 1 62 26
M  V30 64 1 63 26
M  V30 65 1 64 28
M  V30 66 1 65 29
M  V30 67 1 66 29
M  V30 68 1 67 29
M  V30 69 1 68 31
M  V30 70 1 69 31
M  V30 71 1 70 32
M  V30 72 1 18 71 CFG=1
M  V30 END BOND
M  V30 END CTAB
M  END
>  <i_epik_Tot_Q>  (1) 
0

>  <i_epik_Tot_abs_Q>  (1) 
2

>  <i_i_glide_confnum>  (1) 
6585

>  <i_i_glide_lignum>  (1) 
49

>  <i_i_glide_posenum>  (1) 
38

>  <i_i_glide_rotatable_bonds>  (1) 
16

>  <i_lp_mmshare_version>  (1) 
72125

>  <i_m_source_file_index>  (1) 
20

>  <i_f3d_flags>  (1) 
0

>  <num_sample>  (1) 
100

>  <b_lp_Chiralities_Consistent>  (1) 
1

>  <r_epik_Charging_Adjusted_Penalty>  (1) 
0.015037487925518506

>  <r_epik_Ionization_Penalty>  (1) 
0.015045499532085388

>  <r_epik_Ionization_Penalty_Charging>  (1) 
0.0012943130925640431

>  <r_epik_Ionization_Penalty_Neutral>  (1) 
0.013751186439521345

>  <r_epik_State_Penalty>  (1) 
0.013743174832954463

>  <r_glide_ring_energy>  (1) 
0

>  <r_i_docking_score>  (1) 
-7.7566023660810242

>  <r_i_glide_ecoul>  (1) 
-7.9377818152317747

>  <r_i_glide_eff_state_penalty>  (1) 
0.013743174832954463

>  <r_i_glide_einternal>  (1) 
13.538980739299392

>  <r_i_glide_emodel>  (1) 
-68.019670427350135

>  <r_i_glide_emodel_strain>  (1) 
0.14384146275355647

>  <r_i_glide_energy>  (1) 
-46.271177380888254

>  <r_i_glide_erotb>  (1) 
1.1084889849388277

>  <r_i_glide_esite>  (1) 
-0.095320156872899534

>  <r_i_glide_evdw>  (1) 
-38.333395565656481

>  <r_i_glide_gscore>  (1) 
-7.7703455409139783

>  <r_i_glide_gscore_strain>  (1) 
0

>  <r_i_glide_hbond>  (1) 
-0.46911449750649281

>  <r_i_glide_ligand_efficiency>  (1) 
-0.242393823940032

>  <r_i_glide_ligand_efficiency_ln>  (1) 
-1.7369147067604551

>  <r_i_glide_ligand_efficiency_sa>  (1) 
-0.76955242222600284

>  <r_i_glide_lipo>  (1) 
-4.2600009933223593

>  <r_i_glide_metal>  (1) 
-0

>  <r_i_glide_rewards>  (1) 
-0.94706182758346436

>  <r_lp_Energy>  (1) 
25.015605999999998

>  <s_epik_cmdline>  (1) 
J2VwaWtfcHl0aG9uJywgJy1waHQnLCAnMS4wJywgJy1waCcsICc3LjQnLCAnLXRuJywgJzgnLCAnLW1hJywgJzUwMCcsICctaW1hZScsICc8aW5maWxlLm1hZT4nLCAnLW9tYWUnLCAnPG91dGZpbGUubWFlPic=

>  <s_epik_input>  (1) 
W0NIM11bQ0BIXTFbQ0gyXVtDSF09W0NIXVtDSF09QzFbQ0gyXVtDQEhdKEMoPU8pW09IXSlbQ0gyXU4oW0NIMl1bQ0gyXVtDSDJdW0NIM10pW0NIMl1bQ0BIXShbT0hdKVtDSDJdW0NASF0oW09IXSlDKFtDSDJdMik9W0NIXVtDSF09W0NIXVtDSF09QzJbT0hd

>  <s_glide_docking_method>  (1) 
confgen

>  <s_i_glide_gridfile>  (1) 
gpcr_5ht2c_6bqh_protein_autoprepared_prepared

>  <s_lp_Force_Field>  (1) 
S-OPLS

>  <s_lp_Variant>  (1) 
DiffSBDD_19_num_sample_100-1

>  <s_m_source_file>  (1) 
generated__ligand_DiffSBDD_2026-05-06_prepared.sdf

>  <GenAI_Model>  (1) 
DiffSBDD

>  <Protein>  (1) 
GPCR_5HT2C

$$$$
DiffSBDD_19_num_sample_100
     RDKit          3D

  0  0  0  0  0  0  0  0  0  0999 V3000
M  V30 BEGIN CTAB
M  V30 COUNTS 71 72 0 0 1
M  V30 BEGIN ATOM
M  V30 1 C 39.594838 29.652693 56.035635 0
M  V30 2 C 39.073127 30.643367 59.748902 0
M  V30 3 C 39.531797 30.793522 53.666567 0
M  V30 4 C 41.146894 30.475067 51.006428 0
M  V30 5 O 40.784826 28.928544 60.253701 0
M  V30 6 C 37.374074 25.720324 55.612677 0
M  V30 7 C 39.777691 29.854062 51.222638 0 CFG=1
M  V30 8 C 40.845583 33.400087 62.674361 0
M  V30 9 C 39.624217 32.620499 62.326943 0
M  V30 10 C 38.909244 28.417947 53.104916 0
M  V30 11 C 41.781424 33.091595 63.574331 0
M  V30 12 C 39.678729 28.607439 50.303657 0
M  V30 13 C 39.068567 27.384675 50.938088 0
M  V30 14 O 38.673533 32.000188 57.016141 0
M  V30 15 O 38.272406 32.947733 55.048486 0 CHG=-1
M  V30 16 O 40.867345 34.554488 61.992575 0
M  V30 17 C 38.730721 27.318957 52.220876 0
M  V30 18 N 38.763979 29.017857 57.103351 0 CFG=1 CHG=1
M  V30 19 C 40.075036 29.571892 59.215350 0 CFG=1
M  V30 20 C 41.852178 31.874092 64.375902 0
M  V30 21 C 38.634883 30.537508 61.227316 0 CFG=1
M  V30 22 C 41.213214 30.687368 64.174226 0
M  V30 23 C 37.849111 27.989430 56.591836 0
M  V30 24 C 38.828796 30.618327 55.062623 0 CFG=2
M  V30 25 C 38.570887 31.976781 55.769124 0
M  V30 26 C 39.464464 28.497580 58.312773 0
M  V30 27 C 39.386784 29.603262 52.698948 0
M  V30 28 C 40.276171 30.307483 63.102309 0
M  V30 29 C 37.841675 24.289737 55.355353 0
M  V30 30 C 39.595196 31.120186 62.267885 0
M  V30 31 C 38.446368 26.607670 56.263320 0
M  V30 32 O 37.355387 31.134235 61.370131 0
M  V30 33 H 40.266833 30.289348 56.563663 0
M  V30 34 H 40.223437 28.926770 55.523440 0
M  V30 35 H 38.173933 30.593634 59.133227 0
M  V30 36 H 39.466947 31.641554 59.563779 0
M  V30 37 H 39.094914 31.642365 53.141395 0
M  V30 38 H 40.584796 31.030548 53.820650 0
M  V30 39 H 41.354149 31.221944 51.750459 0
M  V30 40 H 41.929676 29.724623 51.053602 0
M  V30 41 H 41.218342 30.947518 50.025593 0
M  V30 42 H 41.506094 28.439223 59.882302 0
M  V30 43 H 36.492571 25.687391 56.255408 0
M  V30 44 H 37.057397 26.164217 54.667348 0
M  V30 45 H 39.067393 30.578247 50.838267 0
M  V30 46 H 38.863126 32.909240 63.049816 0
M  V30 47 H 39.251671 32.994804 61.372278 0
M  V30 48 H 38.639552 28.288993 54.119317 0
M  V30 49 H 42.563353 33.818140 63.735043 0
M  V30 50 H 40.664543 28.314529 49.943287 0
M  V30 51 H 39.076379 28.860222 49.443420 0
M  V30 52 H 38.907233 26.531965 50.298413 0
M  V30 53 H 41.617295 35.052696 62.282380 0
M  V30 54 H 38.300321 26.421274 52.604598 0
M  V30 55 H 40.833291 30.021430 58.595067 0
M  V30 56 H 42.530456 31.905183 65.215715 0
M  V30 57 H 38.528781 29.480877 61.434997 0
M  V30 58 H 41.457879 29.903661 64.876685 0
M  V30 59 H 37.067844 27.858250 57.341196 0
M  V30 60 H 37.400153 28.392157 55.698660 0
M  V30 61 H 37.826652 30.253006 54.846650 0
M  V30 62 H 40.252523 27.813421 57.989465 0
M  V30 63 H 38.764150 27.918013 58.923386 0
M  V30 64 H 40.102557 29.245574 62.983316 0
M  V30 65 H 37.047535 23.696399 54.900835 0
M  V30 66 H 38.695234 24.286863 54.680366 0
M  V30 67 H 38.135899 23.802464 56.285134 0
M  V30 68 H 39.295654 26.699090 55.587243 0
M  V30 69 H 38.822302 26.119021 57.162733 0
M  V30 70 H 37.390086 32.014824 61.024890 0
M  V30 71 H 38.179478 29.781818 57.428813 0
M  V30 END ATOM
M  V30 BEGIN BOND
M  V30 1 1 7 4
M  V30 2 1 9 8
M  V30 3 2 11 8
M  V30 4 1 12 7
M  V30 5 1 13 12
M  V30 6 1 16 8
M  V30 7 1 17 10
M  V30 8 2 17 13
M  V30 9 1 18 1
M  V30 10 1 19 2
M  V30 11 1 19 5
M  V30 12 1 20 11
M  V30 13 1 21 2
M  V30 14 2 22 20
M  V30 15 1 23 18
M  V30 16 1 24 1
M  V30 17 1 24 3
M  V30 18 2 25 14
M  V30 19 1 25 15
M  V30 20 1 25 24
M  V30 21 1 26 18
M  V30 22 1 26 19
M  V30 23 1 27 3
M  V30 24 1 27 7
M  V30 25 2 27 10
M  V30 26 1 28 22
M  V30 27 1 29 6
M  V30 28 1 30 9
M  V30 29 1 30 21
M  V30 30 2 30 28
M  V30 31 1 31 6
M  V30 32 1 31 23
M  V30 33 1 32 21
M  V30 34 1 33 1
M  V30 35 1 34 1
M  V30 36 1 35 2
M  V30 37 1 36 2
M  V30 38 1 37 3
M  V30 39 1 38 3
M  V30 40 1 39 4
M  V30 41 1 40 4
M  V30 42 1 41 4
M  V30 43 1 42 5
M  V30 44 1 43 6
M  V30 45 1 44 6
M  V30 46 1 7 45 CFG=3
M  V30 47 1 46 9
M  V30 48 1 47 9
M  V30 49 1 48 10
M  V30 50 1 49 11
M  V30 51 1 50 12
M  V30 52 1 51 12
M  V30 53 1 52 13
M  V30 54 1 53 16
M  V30 55 1 54 17
M  V30 56 1 19 55 CFG=3
M  V30 57 1 56 20
M  V30 58 1 21 57 CFG=1
M  V30 59 1 58 22
M  V30 60 1 59 23
M  V30 61 1 60 23
M  V30 62 1 24 61 CFG=3
M  V30 63 1 62 26
M  V30 64 1 63 26
M  V30 65 1 64 28
M  V30 66 1 65 29
M  V30 67 1 66 29
M  V30 68 1 67 29
M  V30 69 1 68 31
M  V30 70 1 69 31
M  V30 71 1 70 32
M  V30 72 1 18 71 CFG=1
M  V30 END BOND
M  V30 END CTAB
M  END
>  <i_epik_Tot_Q>  (1) 
0

>  <i_epik_Tot_abs_Q>  (1) 
2

>  <i_i_glide_confnum>  (1) 
4516

>  <i_i_glide_lignum>  (1) 
50

>  <i_i_glide_posenum>  (1) 
83

>  <i_i_glide_rotatable_bonds>  (1) 
16

>  <i_lp_mmshare_version>  (1) 
72125

>  <i_m_source_file_index>  (1) 
20

>  <i_f3d_flags>  (1) 
0

>  <num_sample>  (1) 
100

>  <b_lp_Chiralities_Consistent>  (1) 
1

>  <r_epik_Charging_Adjusted_Penalty>  (1) 
0.015037487925518506

>  <r_epik_Ionization_Penalty>  (1) 
0.015045499532085388

>  <r_epik_Ionization_Penalty_Charging>  (1) 
0.0012943130925640431

>  <r_epik_Ionization_Penalty_Neutral>  (1) 
0.013751186439521345

>  <r_epik_State_Penalty>  (1) 
0.013743174832954463

>  <r_glide_ring_energy>  (1) 
0

>  <r_i_docking_score>  (1) 
-7.7554159413534238

>  <r_i_glide_ecoul>  (1) 
-4.5971205024921176

>  <r_i_glide_eff_state_penalty>  (1) 
0.013743174832954463

>  <r_i_glide_einternal>  (1) 
9.4633997887273154

>  <r_i_glide_emodel>  (1) 
-58.678642696539953

>  <r_i_glide_emodel_strain>  (1) 
3.2705102377797459

>  <r_i_glide_energy>  (1) 
-37.397358360277451

>  <r_i_glide_erotb>  (1) 
1.1084889849388277

>  <r_i_glide_esite>  (1) 
-0.061171144274212663

>  <r_i_glide_evdw>  (1) 
-32.800237857785334

>  <r_i_glide_gscore>  (1) 
-7.769159116186378

>  <r_i_glide_gscore_strain>  (1) 
0

>  <r_i_glide_hbond>  (1) 
-0.36106309131991476

>  <r_i_glide_ligand_efficiency>  (1) 
-0.24235674816729449

>  <r_i_glide_ligand_efficiency_ln>  (1) 
-1.7366490339232288

>  <r_i_glide_ligand_efficiency_sa>  (1) 
-0.76943471398471064

>  <r_i_glide_lipo>  (1) 
-4.9656019261575519

>  <r_i_glide_metal>  (1) 
-0

>  <r_i_glide_rewards>  (1) 
-1.1602319711104423

>  <r_lp_Energy>  (1) 
27.634533999999999

>  <s_epik_cmdline>  (1) 
J2VwaWtfcHl0aG9uJywgJy1waHQnLCAnMS4wJywgJy1waCcsICc3LjQnLCAnLXRuJywgJzgnLCAnLW1hJywgJzUwMCcsICctaW1hZScsICc8aW5maWxlLm1hZT4nLCAnLW9tYWUnLCAnPG91dGZpbGUubWFlPic=

>  <s_epik_input>  (1) 
W0NIM11bQ0BIXTFbQ0gyXVtDSF09W0NIXVtDSF09QzFbQ0gyXVtDQEhdKEMoPU8pW09IXSlbQ0gyXU4oW0NIMl1bQ0gyXVtDSDJdW0NIM10pW0NIMl1bQ0BIXShbT0hdKVtDSDJdW0NASF0oW09IXSlDKFtDSDJdMik9W0NIXVtDSF09W0NIXVtDSF09QzJbT0hd

>  <s_glide_docking_method>  (1) 
confgen

>  <s_i_glide_gridfile>  (1) 
gpcr_5ht2c_6bqh_protein_autoprepared_prepared

>  <s_lp_Force_Field>  (1) 
S-OPLS

>  <s_lp_Variant>  (1) 
DiffSBDD_19_num_sample_100-2

>  <s_m_source_file>  (1) 
generated__ligand_DiffSBDD_2026-05-06_prepared.sdf

>  <GenAI_Model>  (1) 
DiffSBDD

>  <Protein>  (1) 
GPCR_5HT2C

$$$$
DiffSBDD_0_num_sample_100
     RDKit          3D

  0  0  0  0  0  0  0  0  0  0999 V3000
M  V30 BEGIN CTAB
M  V30 COUNTS 60 62 0 0 1
M  V30 BEGIN ATOM
M  V30 1 C 39.158128 28.454473 51.662811 0
M  V30 2 C 38.231762 28.744777 55.937545 0 CFG=1
M  V30 3 C 37.510301 35.436165 61.143223 0
M  V30 4 C 37.515493 33.969828 58.420400 0
M  V30 5 C 39.864734 29.639636 51.258287 0
M  V30 6 C 39.125220 30.719657 53.499446 0
M  V30 7 C 39.667255 34.302800 61.328750 0
M  V30 8 C 37.934670 36.393469 62.085359 0
M  V30 9 C 38.376470 34.386999 60.763473 0
M  V30 10 C 40.078592 27.558479 56.868427 0 CFG=2
M  V30 11 N 37.867395 31.225737 56.366200 0 CHG=1
M  V30 12 C 38.720628 32.265337 56.965467 0
M  V30 13 C 37.867578 33.497800 57.206243 0
M  V30 14 C 39.221487 36.302741 62.650505 0
M  V30 15 F 41.325654 35.176980 62.814264 0
M  V30 16 C 40.087874 35.260200 62.270681 0
M  V30 17 C 37.920959 33.347674 59.751892 0 CFG=1
M  V30 18 C 39.867446 30.718520 52.102464 0
M  V30 19 N 35.989204 31.873971 60.764932 0
M  V30 20 C 37.929880 29.870672 56.960354 0
M  V30 21 C 38.384281 28.517964 52.719607 0
M  V30 22 C 37.533236 28.905801 54.594788 0 CFG=1
M  V30 23 N 39.645074 28.445519 55.803987 0
M  V30 24 O 39.625642 37.221453 63.568165 0
M  V30 25 C 41.347009 28.177881 57.442989 0
M  V30 26 C 40.241876 26.144261 56.292054 0
M  V30 27 C 41.884238 27.409839 58.632848 0
M  V30 28 N 38.146582 29.621464 53.453568 0
M  V30 29 S 37.467388 27.356679 53.573386 0
M  V30 30 C 36.835273 32.525126 60.316038 0
M  V30 31 Cl 40.667485 29.706758 49.741889 0
M  V30 32 H 39.282061 27.526160 51.123353 0
M  V30 33 H 37.773624 27.851741 56.367004 0
M  V30 34 H 36.520645 35.504061 60.714657 0
M  V30 35 H 36.898757 34.853808 58.477104 0
M  V30 36 H 39.849858 30.603127 54.303461 0
M  V30 37 H 38.610745 31.672353 53.623299 0
M  V30 38 H 40.333122 33.502687 61.042727 0
M  V30 39 H 37.271208 37.194299 62.378628 0
M  V30 40 H 39.348068 27.521210 57.679138 0
M  V30 41 H 36.899020 31.542015 56.513900 0
M  V30 42 H 39.517716 32.519188 56.266130 0
M  V30 43 H 39.207431 31.898738 57.858801 0
M  V30 44 H 37.524274 34.017844 56.322740 0
M  V30 45 H 38.751997 32.662492 59.629907 0
M  V30 46 H 40.388247 31.621434 51.823272 0
M  V30 47 H 38.605845 29.817685 57.813740 0
M  V30 48 H 36.935599 29.695034 57.374611 0
M  V30 49 H 36.529788 29.300976 54.716847 0
M  V30 50 H 40.202603 29.285346 55.785171 0
M  V30 51 H 40.522149 37.113815 63.861619 0
M  V30 52 H 42.120516 28.278499 56.680126 0
M  V30 53 H 41.099789 29.178087 57.804191 0
M  V30 54 H 40.441727 25.425095 57.084835 0
M  V30 55 H 39.332530 25.812076 55.789555 0
M  V30 56 H 41.058070 26.088229 55.572020 0
M  V30 57 H 42.712475 27.959872 59.053486 0
M  V30 58 H 41.114360 27.315132 59.397188 0
M  V30 59 H 42.248273 26.422079 58.350517 0
M  V30 60 H 38.019110 31.176010 55.369704 0
M  V30 END ATOM
M  V30 BEGIN BOND
M  V30 1 1 5 1
M  V30 2 2 8 3
M  V30 3 1 9 3
M  V30 4 2 9 7
M  V30 5 1 12 11
M  V30 6 2 13 4
M  V30 7 1 13 12
M  V30 8 1 14 8
M  V30 9 1 16 7
M  V30 10 2 16 14
M  V30 11 1 16 15
M  V30 12 1 17 4
M  V30 13 1 17 9
M  V30 14 2 18 5
M  V30 15 1 18 6
M  V30 16 1 20 2
M  V30 17 1 20 11
M  V30 18 2 21 1
M  V30 19 1 22 2
M  V30 20 1 23 2
M  V30 21 1 23 10
M  V30 22 1 24 14
M  V30 23 1 25 10
M  V30 24 1 26 10
M  V30 25 1 27 25
M  V30 26 1 28 6
M  V30 27 1 28 21
M  V30 28 1 28 22
M  V30 29 1 29 21
M  V30 30 1 29 22
M  V30 31 1 30 17
M  V30 32 3 30 19
M  V30 33 1 31 5
M  V30 34 1 32 1
M  V30 35 1 2 33 CFG=1
M  V30 36 1 34 3
M  V30 37 1 35 4
M  V30 38 1 36 6
M  V30 39 1 37 6
M  V30 40 1 38 7
M  V30 41 1 39 8
M  V30 42 1 10 40 CFG=1
M  V30 43 1 41 11
M  V30 44 1 42 12
M  V30 45 1 43 12
M  V30 46 1 44 13
M  V30 47 1 17 45 CFG=3
M  V30 48 1 46 18
M  V30 49 1 47 20
M  V30 50 1 48 20
M  V30 51 1 22 49 CFG=1
M  V30 52 1 50 23
M  V30 53 1 51 24
M  V30 54 1 52 25
M  V30 55 1 53 25
M  V30 56 1 54 26
M  V30 57 1 55 26
M  V30 58 1 56 26
M  V30 59 1 57 27
M  V30 60 1 58 27
M  V30 61 1 59 27
M  V30 62 1 60 11
M  V30 END BOND
M  V30 END CTAB
M  END
>  <i_epik_Tot_Q>  (1) 
1

>  <i_epik_Tot_abs_Q>  (1) 
1

>  <i_i_glide_confnum>  (1) 
498

>  <i_i_glide_lignum>  (1) 
6

>  <i_i_glide_posenum>  (1) 
155

>  <i_i_glide_rotatable_bonds>  (1) 
11

>  <i_lp_mmshare_version>  (1) 
72125

>  <i_m_source_file_index>  (1) 
1

>  <i_f3d_flags>  (1) 
0

>  <num_sample>  (1) 
100

>  <b_lp_Chiralities_Consistent>  (1) 
1

>  <r_epik_Charging_Adjusted_Penalty>  (1) 
1.8065071523224812

>  <r_epik_Ionization_Penalty>  (1) 
0.92614417087394063

>  <r_epik_Ionization_Penalty_Charging>  (1) 
0.760298405215594

>  <r_epik_Ionization_Penalty_Neutral>  (1) 
0.16584576565834661

>  <r_epik_State_Penalty>  (1) 
1.0462087471068873

>  <r_glide_ring_energy>  (1) 
0

>  <r_i_docking_score>  (1) 
-7.7541170771333574

>  <r_i_glide_ecoul>  (1) 
-9.5041702742937773

>  <r_i_glide_eff_state_penalty>  (1) 
1.0462087471068873

>  <r_i_glide_einternal>  (1) 
22.701656696197482

>  <r_i_glide_emodel>  (1) 
-75.391280330408549

>  <r_i_glide_emodel_strain>  (1) 
2.0447116676663484

>  <r_i_glide_energy>  (1) 
-53.560557928925071

>  <r_i_glide_erotb>  (1) 
0.74887478347211667

>  <r_i_glide_esite>  (1) 
-0.1303422801265072

>  <r_i_glide_evdw>  (1) 
-44.056387654631294

>  <r_i_glide_gscore>  (1) 
-8.8003258242402449

>  <r_i_glide_gscore_strain>  (1) 
0

>  <r_i_glide_hbond>  (1) 
-0.36209694837303541

>  <r_i_glide_ligand_efficiency>  (1) 
-0.25013280893978573

>  <r_i_glide_ligand_efficiency_ln>  (1) 
-1.7487910360430841

>  <r_i_glide_ligand_efficiency_sa>  (1) 
-0.78576236653175591

>  <r_i_glide_lipo>  (1) 
-4.1839783587196218

>  <r_i_glide_metal>  (1) 
-0

>  <r_i_glide_rewards>  (1) 
-1.2443380966175661

>  <r_lp_Energy>  (1) 
39.043923999999997

>  <s_epik_Chemistry_Notes>  (1) 
This compound contains an acetal/aminal-like group ( X-CH(R)-Y where X, Y are N, S, or O) that may be acid/base labile, releasing an aldehyde.

>  <s_epik_cmdline>  (1) 
J2VwaWtfcHl0aG9uJywgJy1waHQnLCAnMS4wJywgJy1waCcsICc3LjQnLCAnLXRuJywgJzgnLCAnLW1hJywgJzUwMCcsICctaW1hZScsICc8aW5maWxlLm1hZT4nLCAnLW9tYWUnLCAnPG91dGZpbGUubWFlPic=

>  <s_epik_input>  (1) 
W0NIXT0xQyhDbCk9W0NIXVtDSDJdTihDMTIpW0NAQEhdKFMyKVtDQEBIXShbTkhdW0NAQEhdKFtDSDNdKVtDSDJdW0NIM10pW0NIMl1bTkhdW0NIMl0vW0NIXT1bQ0hdXFtDQEhdKEMjTiljM1tjSF1bY0hdYyhbT0hdKWMoRilbY0hdMw==

>  <s_glide_docking_method>  (1) 
confgen

>  <s_i_glide_gridfile>  (1) 
gpcr_5ht2c_6bqh_protein_autoprepared_prepared

>  <s_lp_Force_Field>  (1) 
S-OPLS

>  <s_lp_Variant>  (1) 
DiffSBDD_0_num_sample_100-6

>  <s_m_source_file>  (1) 
generated__ligand_DiffSBDD_2026-05-06_prepared.sdf

>  <GenAI_Model>  (1) 
DiffSBDD

>  <Protein>  (1) 
GPCR_5HT2C

$$$$
DiffSBDD_63_num_sample_100
     RDKit          3D

  0  0  0  0  0  0  0  0  0  0999 V3000
M  V30 BEGIN CTAB
M  V30 COUNTS 67 70 0 0 1
M  V30 BEGIN ATOM
M  V30 1 C 36.814510 29.665567 58.230157 0
M  V30 2 O 37.381020 27.615139 54.316648 0
M  V30 3 C 38.098187 28.738985 53.899194 0 CFG=2
M  V30 4 O 39.839103 26.886224 58.329127 0
M  V30 5 C 37.374103 31.376421 60.006003 0 CFG=1
M  V30 6 C 39.705655 26.346785 57.028878 0
M  V30 7 C 39.211236 27.303396 50.653776 0
M  V30 8 C 38.164755 26.596589 54.939754 0 CFG=1
M  V30 9 F 38.291008 37.717827 61.449566 0
M  V30 10 C 38.465412 36.390296 61.572635 0
M  V30 11 C 37.152264 34.243188 61.452825 0
M  V30 12 S 37.573780 31.626370 61.792660 0
M  V30 13 C 38.603215 31.781685 59.184027 0
M  V30 14 C 38.294230 27.734064 51.773515 0
M  V30 15 N 39.036991 28.388952 52.843053 0
M  V30 16 O 39.876681 28.455298 50.152346 0
M  V30 17 C 37.291543 35.578725 61.371979 0
M  V30 18 C 40.664431 29.129010 51.120336 0
M  V30 19 F 40.219269 32.374461 62.238074 0
M  V30 20 C 39.481717 33.476083 62.008173 0
M  V30 21 C 39.706099 35.980068 61.867465 0
M  V30 22 C 38.700895 29.383973 55.164300 0 CFG=2
M  V30 23 C 38.707629 27.213649 56.244713 0 CFG=2
M  V30 24 C 37.070478 29.911793 59.713676 0
M  V30 25 C 39.764373 29.536064 52.292113 0
M  V30 26 C 37.193954 25.417097 55.130085 0
M  V30 27 C 38.277403 31.623563 57.699745 0
M  V30 28 O 39.414129 28.413499 55.929371 0
M  V30 29 O 37.867380 24.226543 55.453518 0
M  V30 30 F 35.905199 33.795132 61.218449 0
M  V30 31 N 37.891623 30.229823 57.364633 0 CFG=2 CHG=1
M  V30 32 N 38.120345 33.273517 61.754922 0
M  V30 33 C 40.169220 34.629698 62.057419 0
M  V30 34 F 40.632323 36.939946 62.002129 0
M  V30 35 C 37.577949 30.101293 55.926769 0
M  V30 36 H 35.828250 30.021455 57.951828 0
M  V30 37 H 36.730076 28.594587 58.090230 0
M  V30 38 H 37.365424 29.422303 53.468697 0
M  V30 39 H 40.535797 26.425865 58.772789 0
M  V30 40 H 36.520642 31.974383 59.685820 0
M  V30 41 H 39.355127 25.323251 57.147435 0
M  V30 42 H 40.672245 26.304264 56.526450 0
M  V30 43 H 39.867404 26.536639 51.039602 0
M  V30 44 H 38.667406 26.821404 49.853502 0
M  V30 45 H 38.984788 26.279571 54.292687 0
M  V30 46 H 39.455922 31.164848 59.470882 0
M  V30 47 H 38.885884 32.819434 59.353449 0
M  V30 48 H 37.806594 26.835549 52.147198 0
M  V30 49 H 37.510654 28.390939 51.400548 0
M  V30 50 H 36.392797 36.123336 61.126203 0
M  V30 51 H 41.467379 28.473990 51.453494 0
M  V30 52 H 41.128121 30.006112 50.667862 0
M  V30 53 H 39.421812 30.151232 54.890210 0
M  V30 54 H 37.853918 27.413509 56.877154 0
M  V30 55 H 37.888193 29.277115 60.059112 0
M  V30 56 H 36.178352 29.621496 60.253503 0
M  V30 57 H 39.067452 30.292946 51.951335 0
M  V30 58 H 40.383663 30.016833 53.046694 0
M  V30 59 H 36.667527 25.221447 54.195782 0
M  V30 60 H 36.442593 25.639775 55.887988 0
M  V30 61 H 39.142277 31.912995 57.101349 0
M  V30 62 H 37.467441 32.306664 57.436005 0
M  V30 63 H 38.368371 23.946596 54.700121 0
M  V30 64 H 41.222268 34.531387 62.275234 0
M  V30 65 H 37.415233 31.081415 55.472965 0
M  V30 66 H 36.616776 29.621431 55.789320 0
M  V30 67 H 38.707169 29.652165 57.526747 0
M  V30 END ATOM
M  V30 BEGIN BOND
M  V30 1 1 3 2
M  V30 2 1 6 4
M  V30 3 1 8 2
M  V30 4 1 10 9
M  V30 5 1 12 5
M  V30 6 1 13 5
M  V30 7 1 14 7
M  V30 8 1 15 3
M  V30 9 1 15 14
M  V30 10 1 16 7
M  V30 11 1 17 10
M  V30 12 2 17 11
M  V30 13 1 18 16
M  V30 14 1 20 19
M  V30 15 2 21 10
M  V30 16 1 22 3
M  V30 17 1 23 6
M  V30 18 1 23 8
M  V30 19 1 24 1
M  V30 20 1 24 5
M  V30 21 1 25 15
M  V30 22 1 25 18
M  V30 23 1 26 8
M  V30 24 1 27 13
M  V30 25 1 28 22
M  V30 26 1 28 23
M  V30 27 1 29 26
M  V30 28 1 30 11
M  V30 29 1 31 1
M  V30 30 1 31 27
M  V30 31 1 32 11
M  V30 32 1 32 12
M  V30 33 1 32 20
M  V30 34 2 33 20
M  V30 35 1 33 21
M  V30 36 1 34 21
M  V30 37 1 35 22
M  V30 38 1 35 31
M  V30 39 1 36 1
M  V30 40 1 37 1
M  V30 41 1 3 38 CFG=3
M  V30 42 1 39 4
M  V30 43 1 5 40 CFG=3
M  V30 44 1 41 6
M  V30 45 1 42 6
M  V30 46 1 43 7
M  V30 47 1 44 7
M  V30 48 1 8 45 CFG=3
M  V30 49 1 46 13
M  V30 50 1 47 13
M  V30 51 1 48 14
M  V30 52 1 49 14
M  V30 53 1 50 17
M  V30 54 1 51 18
M  V30 55 1 52 18
M  V30 56 1 22 53 CFG=3
M  V30 57 1 23 54 CFG=1
M  V30 58 1 55 24
M  V30 59 1 56 24
M  V30 60 1 57 25
M  V30 61 1 58 25
M  V30 62 1 59 26
M  V30 63 1 60 26
M  V30 64 1 61 27
M  V30 65 1 62 27
M  V30 66 1 63 29
M  V30 67 1 64 33
M  V30 68 1 65 35
M  V30 69 1 66 35
M  V30 70 1 31 67 CFG=3
M  V30 END BOND
M  V30 END CTAB
M  END
>  <i_epik_Tot_Q>  (1) 
1

>  <i_epik_Tot_abs_Q>  (1) 
1

>  <i_i_glide_confnum>  (1) 
296

>  <i_i_glide_lignum>  (1) 
158

>  <i_i_glide_posenum>  (1) 
129

>  <i_i_glide_rotatable_bonds>  (1) 
9

>  <i_lp_mmshare_version>  (1) 
72125

>  <i_m_source_file_index>  (1) 
64

>  <i_f3d_flags>  (1) 
0

>  <num_sample>  (1) 
100

>  <b_lp_Chiralities_Consistent>  (1) 
1

>  <r_epik_Charging_Adjusted_Penalty>  (1) 
0.6833741402111444

>  <r_epik_Ionization_Penalty>  (1) 
0.34168859396029116

>  <r_epik_Ionization_Penalty_Charging>  (1) 
0.34168707010557214

>  <r_epik_Ionization_Penalty_Neutral>  (1) 
1.5238547190056168e-06

>  <r_epik_State_Penalty>  (1) 
0.3416870701055722

>  <r_glide_ring_energy>  (1) 
0.0045149093831275133

>  <r_i_docking_score>  (1) 
-7.7538581222076148

>  <r_i_glide_ecoul>  (1) 
-2.8958900768993896

>  <r_i_glide_eff_state_penalty>  (1) 
0.3416870701055722

>  <r_i_glide_einternal>  (1) 
14.952211703572768

>  <r_i_glide_emodel>  (1) 
-56.140525820504834

>  <r_i_glide_emodel_strain>  (1) 
2.6683263832305784

>  <r_i_glide_energy>  (1) 
-46.860851467021114

>  <r_i_glide_erotb>  (1) 
0.51979340436673749

>  <r_i_glide_esite>  (1) 
-0.073537785264807018

>  <r_i_glide_evdw>  (1) 
-43.964961390121722

>  <r_i_glide_gscore>  (1) 
-8.0955451923131871

>  <r_i_glide_gscore_strain>  (1) 
0

>  <r_i_glide_hbond>  (1) 
-0.029614869983349282

>  <r_i_glide_ligand_efficiency>  (1) 
-0.22153880349164615

>  <r_i_glide_ligand_efficiency_ln>  (1) 
-1.7021439454337588

>  <r_i_glide_ligand_efficiency_sa>  (1) 
-0.72466811650101415

>  <r_i_glide_lipo>  (1) 
-3.5485970993505829

>  <r_i_glide_metal>  (1) 
-0

>  <r_i_glide_rewards>  (1) 
-2.3309572610401901

>  <r_lp_Energy>  (1) 
44.144219

>  <s_epik_Chemistry_Notes>  (1) 
This compound contains an acetal/aminal-like group ( X-CH(R)-Y where X, Y are N, S, or O) that may be acid/base labile, releasing an aldehyde. This compound has a N-S or N-O group and may undergo hydrolysis at high or low pH.

>  <s_epik_cmdline>  (1) 
J2VwaWtfcHl0aG9uJywgJy1waHQnLCAnMS4wJywgJy1waCcsICc3LjQnLCAnLXRuJywgJzgnLCAnLW1hJywgJzUwMCcsICctaW1hZScsICc8aW5maWxlLm1hZT4nLCAnLW9tYWUnLCAnPG91dGZpbGUubWFlPic=

>  <s_epik_input>  (1) 
RkMxPUMoRilbQ0hdPUMoRilOKEMoRik9W0NIXTEpU1tDSF0yW0NIMl1bQ0gyXU4oW0NIMl1bQ0gyXTIpW0NIMl1bQ0BIXTNPW0NASF0oW0NIMl1bT0hdKVtDQEBIXShbQ0gyXVtPSF0pT1tDQEBIXTNONFtDSDJdW0NIMl1PW0NIMl1bQ0gyXTQ=

>  <s_glide_docking_method>  (1) 
confgen

>  <s_i_glide_gridfile>  (1) 
gpcr_5ht2c_6bqh_protein_autoprepared_prepared

>  <s_lp_Force_Field>  (1) 
S-OPLS

>  <s_lp_Variant>  (1) 
DiffSBDD_63_num_sample_100-1

>  <s_m_source_file>  (1) 
generated__ligand_DiffSBDD_2026-05-06_prepared.sdf

>  <GenAI_Model>  (1) 
DiffSBDD

>  <Protein>  (1) 
GPCR_5HT2C

$$$$
DiffSBDD_25_num_sample_100
     RDKit          3D

  0  0  0  0  0  0  0  0  0  0999 V3000
M  V30 BEGIN CTAB
M  V30 COUNTS 57 59 0 0 1
M  V30 BEGIN ATOM
M  V30 1 C 38.565567 33.193710 60.892611 0
M  V30 2 C 39.969055 29.636706 60.637825 0
M  V30 3 C 40.255028 31.376570 62.407625 0
M  V30 4 C 37.722660 27.143767 54.501439 0
M  V30 5 C 38.002551 25.178926 56.097035 0
M  V30 6 C 37.090833 24.466171 56.777931 0
M  V30 7 C 38.174558 29.740054 57.216036 0 CFG=2
M  V30 8 N 42.266977 35.854003 65.866646 0
M  V30 9 O 39.840956 27.984907 58.901846 0
M  V30 10 C 39.485639 29.231011 59.378431 0
M  V30 11 C 38.761763 27.864264 52.248918 0
M  V30 12 C 41.666521 34.539330 65.920443 0 CFG=2
M  V30 13 C 39.100455 27.412359 56.746530 0 CFG=2
M  V30 14 O 37.934663 28.803340 52.261711 0
M  V30 15 O 38.760410 27.312280 58.124166 0
M  V30 16 C 39.501582 33.717925 61.995566 0
M  V30 17 O 39.466969 27.525169 51.274404 0 CHG=-1
M  V30 18 C 40.847375 32.980162 64.113409 0
M  V30 19 C 38.683098 30.128755 58.606339 0
M  V30 20 N 43.456330 32.751163 66.638633 0
M  V30 21 O 40.334449 26.797318 56.431303 0
M  V30 22 C 38.377734 31.405522 59.122752 0
M  V30 23 C 42.667112 33.535804 66.322576 0
M  V30 24 C 38.938886 27.060768 53.546805 0
M  V30 25 C 40.201750 32.649236 62.839180 0
M  V30 26 O 40.749429 28.783259 61.367226 0
M  V30 27 C 39.221173 28.922282 56.441475 0
M  V30 28 O 37.867410 30.869172 56.414973 0
M  V30 29 C 40.999197 34.237053 64.594748 0
M  V30 30 C 39.684643 30.931448 61.130851 0
M  V30 31 C 38.883972 31.808644 60.369694 0
M  V30 32 C 37.963967 26.692925 55.966745 0 CFG=1
M  V30 33 F 40.553696 35.277121 63.869459 0
M  V30 34 H 38.539295 33.903212 60.064034 0
M  V30 35 H 37.549544 33.149875 61.284659 0
M  V30 36 H 40.767862 30.633234 63.001230 0
M  V30 37 H 37.319939 28.156340 54.530178 0
M  V30 38 H 36.923190 26.547661 54.067789 0
M  V30 39 H 38.819550 24.671267 55.604203 0
M  V30 40 H 36.267478 24.953134 57.278120 0
M  V30 41 H 37.155756 23.392327 56.843451 0
M  V30 42 H 37.242466 29.185513 57.326478 0
M  V30 43 H 42.992340 35.893767 65.163185 0
M  V30 44 H 41.595131 36.565940 65.600809 0
M  V30 45 H 40.893961 34.544976 66.689985 0
M  V30 46 H 40.288645 34.308810 61.525194 0
M  V30 47 H 38.907872 34.389576 62.611847 0
M  V30 48 H 41.230438 32.163419 64.707749 0
M  V30 49 H 41.015424 27.206138 56.942382 0
M  V30 50 H 37.770393 32.090106 58.547700 0
M  V30 51 H 39.835159 27.448271 54.020722 0
M  V30 52 H 39.160664 26.023243 53.316365 0
M  V30 53 H 40.870312 27.946608 60.942188 0
M  V30 54 H 39.143126 29.111964 55.373038 0
M  V30 55 H 40.216281 29.295804 56.686450 0
M  V30 56 H 36.996059 31.200438 56.652608 0
M  V30 57 H 37.067414 26.969310 56.505480 0
M  V30 END ATOM
M  V30 BEGIN BOND
M  V30 1 2 6 5
M  V30 2 1 10 2
M  V30 3 1 10 9
M  V30 4 1 12 8
M  V30 5 2 14 11
M  V30 6 1 15 9
M  V30 7 1 15 13
M  V30 8 1 16 1
M  V30 9 1 17 11
M  V30 10 1 19 7
M  V30 11 2 19 10
M  V30 12 1 13 21 CFG=1
M  V30 13 1 22 19
M  V30 14 1 23 12
M  V30 15 3 23 20
M  V30 16 1 24 4
M  V30 17 1 24 11
M  V30 18 2 25 3
M  V30 19 1 25 16
M  V30 20 1 25 18
M  V30 21 1 26 2
M  V30 22 1 27 7
M  V30 23 1 27 13
M  V30 24 1 28 7
M  V30 25 1 29 12
M  V30 26 2 29 18
M  V30 27 2 30 2
M  V30 28 1 30 3
M  V30 29 1 31 1
M  V30 30 2 31 22
M  V30 31 1 31 30
M  V30 32 1 32 4
M  V30 33 1 32 5
M  V30 34 1 32 13
M  V30 35 1 33 29
M  V30 36 1 34 1
M  V30 37 1 35 1
M  V30 38 1 36 3
M  V30 39 1 37 4
M  V30 40 1 38 4
M  V30 41 1 39 5
M  V30 42 1 40 6
M  V30 43 1 41 6
M  V30 44 1 7 42 CFG=1
M  V30 45 1 43 8
M  V30 46 1 44 8
M  V30 47 1 12 45 CFG=1
M  V30 48 1 46 16
M  V30 49 1 47 16
M  V30 50 1 48 18
M  V30 51 1 49 21
M  V30 52 1 50 22
M  V30 53 1 51 24
M  V30 54 1 52 24
M  V30 55 1 53 26
M  V30 56 1 54 27
M  V30 57 1 55 27
M  V30 58 1 56 28
M  V30 59 1 32 57 CFG=1
M  V30 END BOND
M  V30 END CTAB
M  END
>  <i_epik_Tot_Q>  (1) 
-1

>  <i_epik_Tot_abs_Q>  (1) 
1

>  <i_i_glide_confnum>  (1) 
7

>  <i_i_glide_lignum>  (1) 
65

>  <i_i_glide_posenum>  (1) 
228

>  <i_i_glide_rotatable_bonds>  (1) 
10

>  <i_lp_mmshare_version>  (1) 
72125

>  <i_m_source_file_index>  (1) 
26

>  <i_f3d_flags>  (1) 
0

>  <num_sample>  (1) 
100

>  <b_lp_Chiralities_Consistent>  (1) 
1

>  <r_epik_Charging_Adjusted_Penalty>  (1) 
0.0056011124489286045

>  <r_epik_Ionization_Penalty>  (1) 
0.0056278004124673013

>  <r_epik_Ionization_Penalty_Charging>  (1) 
0.0010502183284910153

>  <r_epik_Ionization_Penalty_Neutral>  (1) 
0.0045775820839762862

>  <r_epik_State_Penalty>  (1) 
0.0045508941204375894

>  <r_glide_ring_energy>  (1) 
0

>  <r_i_docking_score>  (1) 
-7.7507261054884937

>  <r_i_glide_ecoul>  (1) 
-8.0860167065965545

>  <r_i_glide_eff_state_penalty>  (1) 
0.0045508941204375894

>  <r_i_glide_einternal>  (1) 
9.207871573481853

>  <r_i_glide_emodel>  (1) 
-57.936250105440664

>  <r_i_glide_emodel_strain>  (1) 
3.3833837570260563

>  <r_i_glide_energy>  (1) 
-44.862164292463248

>  <r_i_glide_erotb>  (1) 
0.57188489385704211

>  <r_i_glide_esite>  (1) 
0

>  <r_i_glide_evdw>  (1) 
-36.776147585866696

>  <r_i_glide_gscore>  (1) 
-7.755276999608931

>  <r_i_glide_gscore_strain>  (1) 
0

>  <r_i_glide_hbond>  (1) 
-0.44854903544872821

>  <r_i_glide_ligand_efficiency>  (1) 
-0.23487048804510588

>  <r_i_glide_ligand_efficiency_ln>  (1) 
-1.7237213547486376

>  <r_i_glide_ligand_efficiency_sa>  (1) 
-0.75335515350755144

>  <r_i_glide_lipo>  (1) 
-3.2412376478316878

>  <r_i_glide_metal>  (1) 
-0

>  <r_i_glide_rewards>  (1) 
-1.5856653249027404

>  <r_lp_Energy>  (1) 
34.737321999999999

>  <s_epik_cmdline>  (1) 
J2VwaWtfcHl0aG9uJywgJy1waHQnLCAnMS4wJywgJy1waCcsICc3LjQnLCAnLXRuJywgJzgnLCAnLW1hJywgJzUwMCcsICctaW1hZScsICc8aW5maWxlLm1hZT4nLCAnLW9tYWUnLCAnPG91dGZpbGUubWFlPic=

>  <s_epik_input>  (1) 
TiNDW0NAQEhdKFtOSDJdKVxDKEYpPVtDSF1cQyhbQ0gyXVtDSDJdMSk9W0NIXWMoYzJbT0hdKWMxW2NIXWMoYzIzKVtDQEBIXShbT0hdKVtDSDJdW0NAXShPTzMpKFtPSF0pW0NASF0oW0NIXT1bQ0gyXSlbQ0gyXVtDSDJdQyg9TylbT0hd

>  <s_glide_docking_method>  (1) 
confgen

>  <s_i_glide_gridfile>  (1) 
gpcr_5ht2c_6bqh_protein_autoprepared_prepared

>  <s_lp_Force_Field>  (1) 
S-OPLS

>  <s_lp_Variant>  (1) 
DiffSBDD_25_num_sample_100-1

>  <s_m_source_file>  (1) 
generated__ligand_DiffSBDD_2026-05-06_prepared.sdf

>  <GenAI_Model>  (1) 
DiffSBDD

>  <Protein>  (1) 
GPCR_5HT2C

$$$$
DiffSBDD_63_num_sample_100
     RDKit          3D

  0  0  0  0  0  0  0  0  0  0999 V3000
M  V30 BEGIN CTAB
M  V30 COUNTS 67 70 0 0 1
M  V30 BEGIN ATOM
M  V30 1 C 37.987626 32.047697 58.283787 0
M  V30 2 O 38.136890 27.370477 55.873249 0
M  V30 3 C 38.118762 28.671833 55.361130 0 CFG=2
M  V30 4 O 41.245001 28.188788 59.453369 0
M  V30 5 C 38.452159 32.536373 60.767861 0 CFG=2
M  V30 6 C 41.168030 27.635440 58.155148 0
M  V30 7 C 39.142620 27.898488 51.786208 0
M  V30 8 C 39.394279 26.956019 56.405243 0 CFG=1
M  V30 9 F 41.963835 33.209633 66.532577 0
M  V30 10 C 41.592048 33.419624 65.257911 0
M  V30 11 C 41.008869 32.131876 63.169293 0
M  V30 12 S 40.265229 32.629144 60.653501 0
M  V30 13 C 37.977147 31.099014 61.059714 0
M  V30 14 C 38.384764 27.830039 53.121182 0
M  V30 15 N 38.910624 28.766197 54.123112 0
M  V30 16 O 39.067404 29.221432 51.278710 0
M  V30 17 C 41.393774 32.237692 64.454464 0
M  V30 18 C 39.612783 30.174017 52.181502 0
M  V30 19 F 40.436758 35.308326 61.415173 0
M  V30 20 C 40.747864 34.530464 62.468245 0
M  V30 21 C 41.456138 34.698183 64.884415 0
M  V30 22 C 38.505757 29.632606 56.532313 0 CFG=2
M  V30 23 C 39.756608 27.876115 57.593704 0 CFG=2
M  V30 24 C 37.801810 33.036020 59.457850 0
M  V30 25 C 38.901125 30.110668 53.544764 0
M  V30 26 C 39.270821 25.452970 56.728103 0
M  V30 27 C 38.179652 30.166980 59.847510 0
M  V30 28 O 39.736218 29.221433 57.123722 0
M  V30 29 O 38.446181 25.221429 57.853470 0
M  V30 30 F 40.925433 30.869124 62.711609 0
M  V30 31 N 37.478444 30.700868 58.653420 0 CFG=2 CHG=1
M  V30 32 N 40.687193 33.146272 62.260296 0
M  V30 33 C 41.074325 35.205007 63.587370 0
M  V30 34 F 41.706342 35.621425 65.828458 0
M  V30 35 C 37.331716 29.717503 57.540165 0
M  V30 36 H 39.042371 31.985132 58.013068 0
M  V30 37 H 37.467412 32.421378 57.402107 0
M  V30 38 H 37.083725 28.871804 55.077974 0
M  V30 39 H 42.110146 28.021410 59.806765 0
M  V30 40 H 38.142447 33.193138 61.582028 0
M  V30 41 H 41.380182 26.570653 58.243137 0
M  V30 42 H 41.933703 28.062658 57.506259 0
M  V30 43 H 40.188467 27.621350 51.917722 0
M  V30 44 H 38.707800 27.209453 51.061492 0
M  V30 45 H 40.159897 27.055010 55.633783 0
M  V30 46 H 36.918418 31.118938 61.319994 0
M  V30 47 H 38.492033 30.695747 61.932300 0
M  V30 48 H 38.437222 26.808095 53.497514 0
M  V30 49 H 37.328317 28.033507 52.936189 0
M  V30 50 H 41.584482 31.300916 64.958483 0
M  V30 51 H 40.667410 29.969870 52.307798 0
M  V30 52 H 39.537336 31.172057 51.750347 0
M  V30 53 H 38.650533 30.629351 56.124969 0
M  V30 54 H 39.027120 27.740945 58.391937 0
M  V30 55 H 36.734745 33.191257 59.622545 0
M  V30 56 H 38.206510 34.012462 59.188246 0
M  V30 57 H 37.873854 30.463209 53.453506 0
M  V30 58 H 39.414670 30.811751 54.200733 0
M  V30 59 H 40.252802 25.022969 56.926030 0
M  V30 60 H 38.866482 24.913795 55.870668 0
M  V30 61 H 37.806199 29.173145 60.086287 0
M  V30 62 H 39.241522 30.052144 59.628834 0
M  V30 63 H 38.831048 25.643189 58.605871 0
M  V30 64 H 41.046919 36.282934 63.503597 0
M  V30 65 H 36.451449 30.021379 56.977771 0
M  V30 66 H 37.071028 28.736654 57.937783 0
M  V30 67 H 36.520695 30.866039 58.934149 0
M  V30 END ATOM
M  V30 BEGIN BOND
M  V30 1 1 3 2
M  V30 2 1 6 4
M  V30 3 1 8 2
M  V30 4 1 10 9
M  V30 5 1 12 5
M  V30 6 1 13 5
M  V30 7 1 14 7
M  V30 8 1 15 3
M  V30 9 1 15 14
M  V30 10 1 16 7
M  V30 11 1 17 10
M  V30 12 2 17 11
M  V30 13 1 18 16
M  V30 14 1 20 19
M  V30 15 2 21 10
M  V30 16 1 22 3
M  V30 17 1 23 6
M  V30 18 1 23 8
M  V30 19 1 24 1
M  V30 20 1 24 5
M  V30 21 1 25 15
M  V30 22 1 25 18
M  V30 23 1 26 8
M  V30 24 1 27 13
M  V30 25 1 28 22
M  V30 26 1 28 23
M  V30 27 1 29 26
M  V30 28 1 30 11
M  V30 29 1 31 1
M  V30 30 1 31 27
M  V30 31 1 32 11
M  V30 32 1 32 12
M  V30 33 1 32 20
M  V30 34 2 33 20
M  V30 35 1 33 21
M  V30 36 1 34 21
M  V30 37 1 35 22
M  V30 38 1 35 31
M  V30 39 1 36 1
M  V30 40 1 37 1
M  V30 41 1 3 38 CFG=3
M  V30 42 1 39 4
M  V30 43 1 5 40 CFG=1
M  V30 44 1 41 6
M  V30 45 1 42 6
M  V30 46 1 43 7
M  V30 47 1 44 7
M  V30 48 1 8 45 CFG=3
M  V30 49 1 46 13
M  V30 50 1 47 13
M  V30 51 1 48 14
M  V30 52 1 49 14
M  V30 53 1 50 17
M  V30 54 1 51 18
M  V30 55 1 52 18
M  V30 56 1 22 53 CFG=3
M  V30 57 1 23 54 CFG=1
M  V30 58 1 55 24
M  V30 59 1 56 24
M  V30 60 1 57 25
M  V30 61 1 58 25
M  V30 62 1 59 26
M  V30 63 1 60 26
M  V30 64 1 61 27
M  V30 65 1 62 27
M  V30 66 1 63 29
M  V30 67 1 64 33
M  V30 68 1 65 35
M  V30 69 1 66 35
M  V30 70 1 31 67 CFG=1
M  V30 END BOND
M  V30 END CTAB
M  END
>  <i_epik_Tot_Q>  (1) 
1

>  <i_epik_Tot_abs_Q>  (1) 
1

>  <i_i_glide_confnum>  (1) 
204

>  <i_i_glide_lignum>  (1) 
159

>  <i_i_glide_posenum>  (1) 
270

>  <i_i_glide_rotatable_bonds>  (1) 
9

>  <i_lp_mmshare_version>  (1) 
72125

>  <i_m_source_file_index>  (1) 
64

>  <i_f3d_flags>  (1) 
0

>  <num_sample>  (1) 
100

>  <b_lp_Chiralities_Consistent>  (1) 
1

>  <r_epik_Charging_Adjusted_Penalty>  (1) 
0.6833741402111444

>  <r_epik_Ionization_Penalty>  (1) 
0.34168859396029116

>  <r_epik_Ionization_Penalty_Charging>  (1) 
0.34168707010557214

>  <r_epik_Ionization_Penalty_Neutral>  (1) 
1.5238547190056168e-06

>  <r_epik_State_Penalty>  (1) 
0.3416870701055722

>  <r_glide_ring_energy>  (1) 
0.0045149093831275133

>  <r_i_docking_score>  (1) 
-7.7453666461400461

>  <r_i_glide_ecoul>  (1) 
-5.074912012879996

>  <r_i_glide_eff_state_penalty>  (1) 
0.3416870701055722

>  <r_i_glide_einternal>  (1) 
15.227776102150962

>  <r_i_glide_emodel>  (1) 
-67.054044169973139

>  <r_i_glide_emodel_strain>  (1) 
0

>  <r_i_glide_energy>  (1) 
-49.711921033901326

>  <r_i_glide_erotb>  (1) 
0.51979340436673749

>  <r_i_glide_esite>  (1) 
-0.096062036745074825

>  <r_i_glide_evdw>  (1) 
-44.637009021021328

>  <r_i_glide_gscore>  (1) 
-8.0870537162456184

>  <r_i_glide_gscore_strain>  (1) 
0

>  <r_i_glide_hbond>  (1) 
-0.21431440368034779

>  <r_i_glide_ligand_efficiency>  (1) 
-0.22129618988971561

>  <r_i_glide_ligand_efficiency_ln>  (1) 
-1.70027987797877

>  <r_i_glide_ligand_efficiency_sa>  (1) 
-0.72387451132134562

>  <r_i_glide_lipo>  (1) 
-3.5750877697219647

>  <r_i_glide_metal>  (1) 
-0

>  <r_i_glide_rewards>  (1) 
-1.7282956574819028

>  <r_lp_Energy>  (1) 
40.670952999999997

>  <s_epik_Chemistry_Notes>  (1) 
This compound contains an acetal/aminal-like group ( X-CH(R)-Y where X, Y are N, S, or O) that may be acid/base labile, releasing an aldehyde. This compound has a N-S or N-O group and may undergo hydrolysis at high or low pH.

>  <s_epik_cmdline>  (1) 
J2VwaWtfcHl0aG9uJywgJy1waHQnLCAnMS4wJywgJy1waCcsICc3LjQnLCAnLXRuJywgJzgnLCAnLW1hJywgJzUwMCcsICctaW1hZScsICc8aW5maWxlLm1hZT4nLCAnLW9tYWUnLCAnPG91dGZpbGUubWFlPic=

>  <s_epik_input>  (1) 
RkMxPUMoRilbQ0hdPUMoRilOKEMoRik9W0NIXTEpU1tDSF0yW0NIMl1bQ0gyXU4oW0NIMl1bQ0gyXTIpW0NIMl1bQ0BIXTNPW0NASF0oW0NIMl1bT0hdKVtDQEBIXShbQ0gyXVtPSF0pT1tDQEBIXTNONFtDSDJdW0NIMl1PW0NIMl1bQ0gyXTQ=

>  <s_glide_docking_method>  (1) 
confgen

>  <s_i_glide_gridfile>  (1) 
gpcr_5ht2c_6bqh_protein_autoprepared_prepared

>  <s_lp_Force_Field>  (1) 
S-OPLS

>  <s_lp_Variant>  (1) 
DiffSBDD_63_num_sample_100-2

>  <s_m_source_file>  (1) 
generated__ligand_DiffSBDD_2026-05-06_prepared.sdf

>  <GenAI_Model>  (1) 
DiffSBDD

>  <Protein>  (1) 
GPCR_5HT2C

$$$$
DiffSBDD_76_num_sample_100
     RDKit          3D

  0  0  0  0  0  0  0  0  0  0999 V3000
M  V30 BEGIN CTAB
M  V30 COUNTS 62 64 0 0 1
M  V30 BEGIN ATOM
M  V30 1 C 38.939050 28.915214 53.056775 0
M  V30 2 C 38.169235 27.960129 58.232147 0
M  V30 3 O 37.594896 31.558858 61.339639 0
M  V30 4 C 38.680342 34.878287 61.957181 0
M  V30 5 Cl 37.500046 33.581609 57.480362 0
M  V30 6 C 38.424660 31.453688 59.038655 0
M  V30 7 N 37.809212 33.458313 60.153687 0
M  V30 8 C 37.903025 32.132082 60.289029 0
M  V30 9 C 39.784991 29.738541 60.224324 0
M  V30 10 C 38.140565 32.012938 55.228421 0
M  V30 11 C 38.475651 29.872049 56.593530 0 CFG=2
M  V30 12 C 38.745112 31.378545 56.500379 0 CFG=2
M  V30 13 O 40.667708 36.878194 62.510965 0
M  V30 14 S 39.490628 26.183993 54.917290 0
M  V30 15 C 40.296406 30.263728 51.537565 0
M  V30 16 C 38.267822 32.028202 57.792399 0
M  V30 17 C 37.423846 34.354635 61.225669 0
M  V30 18 C 38.632857 28.039683 51.988719 0
M  V30 19 C 39.993010 29.390591 50.484787 0
M  V30 20 C 38.983540 29.241684 57.928746 0 CFG=1
M  V30 21 O 40.289646 28.592944 60.226009 0 CHG=-1
M  V30 22 C 41.067351 35.700895 61.827693 0
M  V30 23 C 39.638136 36.664170 63.463469 0
M  V30 24 C 37.997706 27.211880 54.793650 0
M  V30 25 C 39.170096 28.274679 50.710723 0
M  V30 26 C 39.888117 35.137090 61.035163 0
M  V30 27 N 39.026905 30.134462 59.131726 0
M  V30 28 O 39.152030 29.235642 55.498147 0
M  V30 29 C 38.384540 36.177435 62.727566 0
M  V30 30 C 39.786688 30.022573 52.823994 0
M  V30 31 F 40.495846 29.621612 49.252075 0
M  V30 32 O 39.992865 30.528144 61.169519 0
M  V30 33 C 38.338562 28.683098 54.454642 0 CFG=1
M  V30 34 H 38.509746 27.136583 57.607877 0
M  V30 35 H 38.267404 27.609539 59.256911 0
M  V30 36 H 37.104004 28.112310 58.061562 0
M  V30 37 H 38.995638 34.103529 62.658110 0
M  V30 38 H 38.056772 33.872094 59.265493 0
M  V30 39 H 38.492849 33.030960 55.066771 0
M  V30 40 H 38.322944 31.468116 54.319071 0
M  V30 41 H 37.067243 32.026494 55.302365 0
M  V30 42 H 37.393860 29.732236 56.533768 0
M  V30 43 H 39.825373 31.525369 56.462408 0
M  V30 44 H 38.871489 25.072306 55.322398 0
M  V30 45 H 40.933679 31.118535 51.361875 0
M  V30 46 H 36.898501 35.186414 60.755727 0
M  V30 47 H 36.706449 33.890249 61.901848 0
M  V30 48 H 37.988734 27.190652 52.145201 0
M  V30 49 H 40.019345 28.945558 57.746445 0
M  V30 50 H 41.456407 34.963104 62.531302 0
M  V30 51 H 41.867501 35.955149 61.137269 0
M  V30 52 H 39.959178 35.946415 64.219748 0
M  V30 53 H 39.435761 37.602792 63.980548 0
M  V30 54 H 37.303158 26.772612 54.079680 0
M  V30 55 H 37.468114 27.165697 55.738945 0
M  V30 56 H 38.943626 27.602567 49.900213 0
M  V30 57 H 40.215511 34.220851 60.541401 0
M  V30 58 H 39.606874 35.838790 60.254223 0
M  V30 59 H 38.054427 36.953767 62.035371 0
M  V30 60 H 37.572103 36.040379 63.435850 0
M  V30 61 H 40.042613 30.690190 53.629734 0
M  V30 62 H 37.396608 29.232081 54.412456 0
M  V30 END ATOM
M  V30 BEGIN BOND
M  V30 1 2 8 3
M  V30 2 1 8 6
M  V30 3 1 8 7
M  V30 4 1 12 10
M  V30 5 1 12 11
M  V30 6 1 16 5
M  V30 7 2 16 6
M  V30 8 1 16 12
M  V30 9 1 17 4
M  V30 10 1 17 7
M  V30 11 2 18 1
M  V30 12 1 19 15
M  V30 13 1 20 2
M  V30 14 1 20 11
M  V30 15 1 21 9
M  V30 16 1 22 13
M  V30 17 1 23 13
M  V30 18 1 24 14
M  V30 19 1 25 18
M  V30 20 2 25 19
M  V30 21 1 26 4
M  V30 22 1 26 22
M  V30 23 1 27 6
M  V30 24 1 27 9
M  V30 25 1 27 20
M  V30 26 1 28 11
M  V30 27 1 29 4
M  V30 28 1 29 23
M  V30 29 1 30 1
M  V30 30 2 30 15
M  V30 31 1 31 19
M  V30 32 2 32 9
M  V30 33 1 33 1
M  V30 34 1 33 24
M  V30 35 1 33 28
M  V30 36 1 34 2
M  V30 37 1 35 2
M  V30 38 1 36 2
M  V30 39 1 37 4
M  V30 40 1 38 7
M  V30 41 1 39 10
M  V30 42 1 40 10
M  V30 43 1 41 10
M  V30 44 1 11 42 CFG=3
M  V30 45 1 12 43 CFG=3
M  V30 46 1 44 14
M  V30 47 1 45 15
M  V30 48 1 46 17
M  V30 49 1 47 17
M  V30 50 1 48 18
M  V30 51 1 20 49 CFG=3
M  V30 52 1 50 22
M  V30 53 1 51 22
M  V30 54 1 52 23
M  V30 55 1 53 23
M  V30 56 1 54 24
M  V30 57 1 55 24
M  V30 58 1 56 25
M  V30 59 1 57 26
M  V30 60 1 58 26
M  V30 61 1 59 29
M  V30 62 1 60 29
M  V30 63 1 61 30
M  V30 64 1 33 62 CFG=3
M  V30 END BOND
M  V30 END CTAB
M  END
>  <i_epik_Tot_Q>  (1) 
-1

>  <i_epik_Tot_abs_Q>  (1) 
1

>  <i_i_glide_confnum>  (1) 
53

>  <i_i_glide_lignum>  (1) 
189

>  <i_i_glide_posenum>  (1) 
28

>  <i_i_glide_rotatable_bonds>  (1) 
10

>  <i_lp_mmshare_version>  (1) 
72125

>  <i_m_source_file_index>  (1) 
77

>  <i_f3d_flags>  (1) 
0

>  <num_sample>  (1) 
100

>  <b_lp_Chiralities_Consistent>  (1) 
1

>  <r_epik_Charging_Adjusted_Penalty>  (1) 
0.0069450066625796414

>  <r_epik_Ionization_Penalty>  (1) 
0.006947181281074642

>  <r_epik_Ionization_Penalty_Charging>  (1) 
2.7704327777150034e-06

>  <r_epik_Ionization_Penalty_Neutral>  (1) 
0.0069444108482969273

>  <r_epik_State_Penalty>  (1) 
0.0069422362298019267

>  <r_glide_ring_energy>  (1) 
0

>  <r_i_docking_score>  (1) 
-7.7267793022480173

>  <r_i_glide_ecoul>  (1) 
-2.5122362603617256

>  <r_i_glide_eff_state_penalty>  (1) 
0.0069422362298019267

>  <r_i_glide_einternal>  (1) 
10.698253847386397

>  <r_i_glide_emodel>  (1) 
-66.263009665874606

>  <r_i_glide_emodel_strain>  (1) 
1.5178794023540974

>  <r_i_glide_energy>  (1) 
-50.575892600239008

>  <r_i_glide_erotb>  (1) 
0.57163862173476065

>  <r_i_glide_esite>  (1) 
-0.0047053099389428553

>  <r_i_glide_evdw>  (1) 
-48.063656339877284

>  <r_i_glide_gscore>  (1) 
-7.7337215384778188

>  <r_i_glide_gscore_strain>  (1) 
0

>  <r_i_glide_hbond>  (1) 
-0.05650842594966763

>  <r_i_glide_ligand_efficiency>  (1) 
-0.23414482734084902

>  <r_i_glide_ligand_efficiency_ln>  (1) 
-1.718395709697867

>  <r_i_glide_ligand_efficiency_sa>  (1) 
-0.75102757188671865

>  <r_i_glide_lipo>  (1) 
-3.744309738357058

>  <r_i_glide_metal>  (1) 
-0

>  <r_i_glide_rewards>  (1) 
-1.7198184299187889

>  <r_lp_Energy>  (1) 
51.555678999999998

>  <s_epik_cmdline>  (1) 
J2VwaWtfcHl0aG9uJywgJy1waHQnLCAnMS4wJywgJy1waCcsICc3LjQnLCAnLXRuJywgJzgnLCAnLW1hJywgJzUwMCcsICctaW1hZScsICc8aW5maWxlLm1hZT4nLCAnLW9tYWUnLCAnPG91dGZpbGUubWFlPic=

>  <s_epik_input>  (1) 
W2NIXTFbY0hdYyhGKVtjSF1bY0hdYzFbQ0BASF0oW0NIMl1bU0hdKU9bQ0BASF0oW0NASF0oW0NIM10pTjJDKD1PKVtPSF0pW0NAQEhdKFtDSDNdKUMoQ2wpPUMyQyg9TylbTkhdW0NIMl1bQ0hdM1tDSDJdW0NIMl1PW0NIMl1bQ0gyXTM=

>  <s_glide_docking_method>  (1) 
confgen

>  <s_i_glide_gridfile>  (1) 
gpcr_5ht2c_6bqh_protein_autoprepared_prepared

>  <s_lp_Force_Field>  (1) 
S-OPLS

>  <s_lp_Variant>  (1) 
DiffSBDD_76_num_sample_100-1

>  <s_m_source_file>  (1) 
generated__ligand_DiffSBDD_2026-05-06_prepared.sdf

>  <GenAI_Model>  (1) 
DiffSBDD

>  <Protein>  (1) 
GPCR_5HT2C

$$$$
DiffSBDD_23_num_sample_100
     RDKit          3D

  0  0  0  0  0  0  0  0  0  0999 V3000
M  V30 BEGIN CTAB
M  V30 COUNTS 83 87 0 0 1
M  V30 BEGIN ATOM
M  V30 1 C 37.930287 26.769783 54.242128 0
M  V30 2 C 38.354466 30.547117 61.752836 0
M  V30 3 C 36.731192 32.407988 60.235793 0
M  V30 4 O 36.667886 36.518152 61.034748 0
M  V30 5 N 40.343646 34.353345 61.153795 0
M  V30 6 C 38.778254 30.101526 59.177953 0
M  V30 7 C 40.225610 29.454829 55.617927 0
M  V30 8 N 38.642304 31.995229 61.826475 0
M  V30 9 C 37.618169 34.329756 61.454029 0
M  V30 10 C 35.799140 33.244393 59.612313 0
M  V30 11 C 41.239501 33.944209 64.728422 0
M  V30 12 C 41.062061 34.444254 63.301600 0
M  V30 13 C 39.645959 28.083506 55.381893 0 CFG=2
M  V30 14 C 41.472892 35.532317 62.784718 0
M  V30 15 N 38.269141 28.097898 54.797101 0 CFG=1 CHG=1
M  V30 16 C 40.666360 29.756282 60.872678 0
M  V30 17 C 37.907748 37.152356 61.262383 0
M  V30 18 C 36.700758 35.166026 60.781428 0
M  V30 19 C 39.144976 29.743850 60.654762 0 CFG=1
M  V30 20 C 37.041020 26.175076 57.733859 0
M  V30 21 C 40.371378 33.735479 62.297935 0
M  V30 22 C 39.536618 28.017691 58.040696 0
M  V30 23 C 36.605559 23.622988 55.780003 0
M  V30 24 O 39.457785 27.356297 59.073025 0
M  V30 25 C 37.673894 24.028505 56.779839 0
M  V30 26 C 37.678548 32.934991 61.152471 0
M  V30 27 C 39.759444 32.359137 62.590490 0
M  V30 28 C 38.068203 29.132218 53.745704 0
M  V30 29 C 41.144111 35.669868 61.324980 0
M  V30 30 C 39.386066 25.844505 56.664904 0
M  V30 31 C 37.196622 25.889985 55.249963 0 CFG=2
M  V30 32 C 35.800489 34.616726 59.860417 0
M  V30 33 C 39.447279 30.139940 56.762628 0
M  V30 34 C 37.856358 25.551210 56.606700 0 CFG=2
M  V30 35 C 36.934528 24.532902 54.629432 0
M  V30 36 O 40.274889 31.610402 63.422759 0
M  V30 37 N 39.314613 29.359853 58.005867 0
M  V30 38 C 39.869890 27.306100 56.703042 0 CFG=1
M  V30 39 H 37.253027 26.872650 53.394139 0
M  V30 40 H 38.805258 26.278342 53.818661 0
M  V30 41 H 37.281707 30.418547 61.683884 0
M  V30 42 H 38.559409 30.068268 62.712250 0
M  V30 43 H 36.704994 31.365599 60.017291 0
M  V30 44 H 38.961343 31.166748 59.031070 0
M  V30 45 H 37.710040 29.931774 59.060386 0
M  V30 46 H 41.264058 29.221496 55.853757 0
M  V30 47 H 40.263478 30.082794 54.727135 0
M  V30 48 H 38.252182 34.760837 62.195993 0
M  V30 49 H 35.076051 32.824004 58.941990 0
M  V30 50 H 42.011749 33.175769 64.760426 0
M  V30 51 H 40.327702 33.531320 65.157635 0
M  V30 52 H 41.557504 34.762096 65.370675 0
M  V30 53 H 40.266590 27.584035 54.652196 0
M  V30 54 H 42.033874 36.294223 63.312450 0
M  V30 55 H 41.071468 30.745198 60.670264 0
M  V30 56 H 41.178682 29.062979 60.207870 0
M  V30 57 H 40.927648 29.475310 61.894093 0
M  V30 58 H 37.785890 38.233971 61.190354 0
M  V30 59 H 38.592197 36.832396 60.476432 0
M  V30 60 H 38.320827 36.916456 62.245442 0
M  V30 61 H 38.816584 28.727813 60.848965 0
M  V30 62 H 36.948640 27.256633 57.665313 0
M  V30 63 H 37.546822 25.922306 58.650906 0
M  V30 64 H 36.036529 25.750151 57.790153 0
M  V30 65 H 35.612080 23.871693 56.147145 0
M  V30 66 H 36.640228 22.571303 55.502910 0
M  V30 67 H 38.634071 23.621556 56.500376 0
M  V30 68 H 37.440114 23.711536 57.799792 0
M  V30 69 H 38.809267 29.013782 52.954373 0
M  V30 70 H 38.120501 30.149742 54.134083 0
M  V30 71 H 37.083196 29.036194 53.292184 0
M  V30 72 H 42.040226 35.625245 60.707466 0
M  V30 73 H 40.575870 36.565151 61.114334 0
M  V30 74 H 39.788500 25.345250 57.547810 0
M  V30 75 H 39.883620 25.345174 55.830508 0
M  V30 76 H 36.266491 26.406541 55.453873 0
M  V30 77 H 35.084869 35.253145 59.359171 0
M  V30 78 H 39.889260 31.110554 56.975874 0
M  V30 79 H 38.435133 30.372347 56.430782 0
M  V30 80 H 37.898387 24.232710 54.250559 0
M  V30 81 H 36.216412 24.514922 53.813736 0
M  V30 82 H 40.955305 27.209254 56.776597 0
M  V30 83 H 37.609763 28.313070 55.531267 0
M  V30 END ATOM
M  V30 BEGIN BOND
M  V30 1 1 8 2
M  V30 2 1 10 3
M  V30 3 1 12 11
M  V30 4 1 13 7
M  V30 5 2 14 12
M  V30 6 1 15 1
M  V30 7 1 15 13
M  V30 8 1 17 4
M  V30 9 1 18 4
M  V30 10 2 18 9
M  V30 11 1 19 2
M  V30 12 1 19 6
M  V30 13 1 19 16
M  V30 14 2 21 5
M  V30 15 1 21 12
M  V30 16 2 24 22
M  V30 17 1 25 23
M  V30 18 2 26 3
M  V30 19 1 26 8
M  V30 20 1 26 9
M  V30 21 1 27 8
M  V30 22 1 27 21
M  V30 23 1 28 15
M  V30 24 1 29 5
M  V30 25 1 29 14
M  V30 26 1 31 1
M  V30 27 2 32 10
M  V30 28 1 32 18
M  V30 29 1 33 7
M  V30 30 1 34 20 CFG=1
M  V30 31 1 34 25
M  V30 32 1 34 30
M  V30 33 1 34 31
M  V30 34 1 35 23
M  V30 35 1 35 31
M  V30 36 2 36 27
M  V30 37 1 37 6
M  V30 38 1 37 22
M  V30 39 1 37 33
M  V30 40 1 38 13
M  V30 41 1 38 22
M  V30 42 1 38 30
M  V30 43 1 39 1
M  V30 44 1 40 1
M  V30 45 1 41 2
M  V30 46 1 42 2
M  V30 47 1 43 3
M  V30 48 1 44 6
M  V30 49 1 45 6
M  V30 50 1 46 7
M  V30 51 1 47 7
M  V30 52 1 48 9
M  V30 53 1 49 10
M  V30 54 1 50 11
M  V30 55 1 51 11
M  V30 56 1 52 11
M  V30 57 1 13 53 CFG=3
M  V30 58 1 54 14
M  V30 59 1 55 16
M  V30 60 1 56 16
M  V30 61 1 57 16
M  V30 62 1 58 17
M  V30 63 1 59 17
M  V30 64 1 60 17
M  V30 65 1 19 61 CFG=1
M  V30 66 1 62 20
M  V30 67 1 63 20
M  V30 68 1 64 20
M  V30 69 1 65 23
M  V30 70 1 66 23
M  V30 71 1 67 25
M  V30 72 1 68 25
M  V30 73 1 69 28
M  V30 74 1 70 28
M  V30 75 1 71 28
M  V30 76 1 72 29
M  V30 77 1 73 29
M  V30 78 1 74 30
M  V30 79 1 75 30
M  V30 80 1 31 76 CFG=1
M  V30 81 1 77 32
M  V30 82 1 78 33
M  V30 83 1 79 33
M  V30 84 1 80 35
M  V30 85 1 81 35
M  V30 86 1 38 82 CFG=1
M  V30 87 1 15 83 CFG=1
M  V30 END BOND
M  V30 END CTAB
M  END
>  <i_epik_Tot_Q>  (1) 
1

>  <i_epik_Tot_abs_Q>  (1) 
1

>  <i_i_glide_confnum>  (1) 
58

>  <i_i_glide_lignum>  (1) 
60

>  <i_i_glide_posenum>  (1) 
200

>  <i_i_glide_rotatable_bonds>  (1) 
8

>  <i_lp_mmshare_version>  (1) 
72125

>  <i_m_source_file_index>  (1) 
24

>  <i_f3d_flags>  (1) 
0

>  <num_sample>  (1) 
100

>  <b_lp_Chiralities_Consistent>  (1) 
1

>  <r_epik_Charging_Adjusted_Penalty>  (1) 
0.0029773975431382485

>  <r_epik_Ionization_Penalty>  (1) 
0.013183626931022738

>  <r_epik_Ionization_Penalty_Charging>  (1) 
0.0029773975431382485

>  <r_epik_Ionization_Penalty_Neutral>  (1) 
0.010206229387884489

>  <r_epik_State_Penalty>  (1) 
-0

>  <r_glide_ring_energy>  (1) 
0

>  <r_i_docking_score>  (1) 
-7.7226150923096828

>  <r_i_glide_ecoul>  (1) 
-1.1084633489912279

>  <r_i_glide_eff_state_penalty>  (1) 
-0

>  <r_i_glide_einternal>  (1) 
13.005779295809724

>  <r_i_glide_emodel>  (1) 
-46.688807394505091

>  <r_i_glide_emodel_strain>  (1) 
3.4627608324423704

>  <r_i_glide_energy>  (1) 
-43.095978160089565

>  <r_i_glide_erotb>  (1) 
0.5287100460970352

>  <r_i_glide_esite>  (1) 
0

>  <r_i_glide_evdw>  (1) 
-41.987514811098336

>  <r_i_glide_gscore>  (1) 
-7.7226150923096828

>  <r_i_glide_gscore_strain>  (1) 
0

>  <r_i_glide_hbond>  (1) 
0

>  <r_i_glide_ligand_efficiency>  (1) 
-0.20322671295551797

>  <r_i_glide_ligand_efficiency_ln>  (1) 
-1.6652229902215578

>  <r_i_glide_ligand_efficiency_sa>  (1) 
-0.68324321096104379

>  <r_i_glide_lipo>  (1) 
-4.6820729106697385

>  <r_i_glide_metal>  (1) 
-0

>  <r_i_glide_rewards>  (1) 
-1.3036069848333778

>  <r_lp_Energy>  (1) 
93.987067999999994

>  <r_lp_tautomer_probability>  (1) 
1

>  <s_epik_Chemistry_Notes>  (1) 
This compound has an imine and may undergo hydrolysis.

>  <s_epik_cmdline>  (1) 
J2VwaWtfcHl0aG9uJywgJy1waHQnLCAnMS4wJywgJy1waCcsICc3LjQnLCAnLXRuJywgJzgnLCAnLW1hJywgJzUwMCcsICctaW1hZScsICc8aW5maWxlLm1hZT4nLCAnLW9tYWUnLCAnPG91dGZpbGUubWFlPic=

>  <s_epik_input>  (1) 
W0NIMl0xW0NIMl1bQ0gyXVtDQEBIXShbQ0BAXTEyW0NIM10pW0NIMl1OKFtDSDNdKVtDQEhdM1tDQEhdKFtDSDJdMilDKD1PKU4oW0NIMl1bQ0gyXTMpW0NIMl1bQ0BASF0oW0NIM10pW0NIMl1OKGMoW2NIXVtjSF1bY0hdNClbY0hdYzRPW0NIM10pQyg9TylDNT1OW0NIMl1bQ0hdPUM1W0NIM10=

>  <s_glide_docking_method>  (1) 
confgen

>  <s_i_glide_gridfile>  (1) 
gpcr_5ht2c_6bqh_protein_autoprepared_prepared

>  <s_lp_Force_Field>  (1) 
S-OPLS

>  <s_lp_Variant>  (1) 
DiffSBDD_23_num_sample_100-3

>  <s_m_source_file>  (1) 
generated__ligand_DiffSBDD_2026-05-06_prepared.sdf

>  <GenAI_Model>  (1) 
DiffSBDD

>  <Protein>  (1) 
GPCR_5HT2C

$$$$
DiffSBDD_80_num_sample_100
     RDKit          3D

  0  0  0  0  0  0  0  0  0  0999 V3000
M  V30 BEGIN CTAB
M  V30 COUNTS 73 76 0 0 1
M  V30 BEGIN ATOM
M  V30 1 C 37.535934 35.042326 61.178948 0
M  V30 2 C 37.971264 30.918806 58.218830 0
M  V30 3 N 37.886390 30.666517 56.748819 0 CFG=2 CHG=1
M  V30 4 O 39.460168 32.553781 62.339517 0
M  V30 5 O 35.398316 31.843669 59.453614 0
M  V30 6 O 37.924398 36.326016 60.736006 0
M  V30 7 C 39.064568 29.809213 54.127065 0 CFG=2
M  V30 8 C 38.129614 28.891256 54.937724 0 CFG=1
M  V30 9 C 42.168294 30.319355 65.815616 0
M  V30 10 C 41.402733 33.797061 62.867836 0
M  V30 11 O 40.825794 30.276815 61.847917 0
M  V30 12 C 41.256539 30.301183 63.144789 0
M  V30 13 O 39.442801 26.175702 57.514113 0
M  V30 14 C 41.556002 31.467702 65.277920 0
M  V30 15 C 39.674410 26.818369 55.213199 0
M  V30 16 C 41.871172 29.156162 63.693818 0
M  V30 17 O 41.077084 35.561881 61.189214 0
M  V30 18 C 38.683071 31.263160 54.430538 0
M  V30 19 O 42.919763 28.055746 65.552732 0
M  V30 20 C 38.397252 27.413284 54.629122 0
M  V30 21 C 42.325398 29.166617 65.026529 0
M  V30 22 C 39.676980 33.545318 61.333034 0 CFG=1
M  V30 23 C 37.655810 32.353999 58.640352 0 CFG=2
M  V30 24 C 38.413854 33.952553 60.529236 0 CFG=1
M  V30 25 C 38.171988 29.229878 56.451083 0
M  V30 26 C 40.446381 34.650464 62.059520 0 CFG=1
M  V30 27 C 39.359503 25.831519 56.335894 0
M  V30 28 C 37.603802 32.731085 60.110285 0 CFG=1
M  V30 29 C 37.553190 26.683683 53.878678 0
M  V30 30 C 39.851789 29.995893 51.851178 0
M  V30 31 C 36.363216 32.855453 59.258053 0 CFG=2
M  V30 32 C 40.430035 32.727874 63.379354 0 CFG=2
M  V30 33 C 41.094012 31.467591 63.942809 0
M  V30 34 C 38.754459 31.568987 55.932153 0
M  V30 35 O 38.856429 29.520041 52.747319 0
M  V30 36 H 36.480332 34.915915 60.944606 0
M  V30 37 H 37.612925 35.014804 62.252735 0
M  V30 38 H 38.989700 30.703227 58.540259 0
M  V30 39 H 37.324497 30.223384 58.753429 0
M  V30 40 H 35.067858 31.694545 58.549083 0
M  V30 41 H 38.852430 36.436541 60.890080 0
M  V30 42 H 40.103119 29.629729 54.408177 0
M  V30 43 H 37.113586 29.099827 54.599997 0
M  V30 44 H 42.516841 30.324724 66.837135 0
M  V30 45 H 42.995606 27.343848 64.936422 0
M  V30 46 H 41.916442 34.340552 63.660601 0
M  V30 47 H 42.155883 33.339286 62.223894 0
M  V30 48 H 40.662558 29.395138 61.547173 0
M  V30 49 H 41.437865 32.351887 65.887994 0
M  V30 50 H 40.202335 26.279168 54.424125 0
M  V30 51 H 40.349320 27.594538 55.570610 0
M  V30 52 H 41.996112 28.268962 63.089504 0
M  V30 53 H 41.803107 35.132355 60.764533 0
M  V30 54 H 37.675490 31.467255 54.067133 0
M  V30 55 H 39.344755 31.945138 53.900638 0
M  V30 56 H 40.355894 33.066391 60.623847 0
M  V30 57 H 38.161620 33.092327 58.027833 0
M  V30 58 H 38.785149 34.402340 59.609610 0
M  V30 59 H 39.160186 28.990753 56.846455 0
M  V30 60 H 37.465996 28.597798 56.993071 0
M  V30 61 H 39.802385 35.208051 62.739882 0
M  V30 62 H 39.063653 24.831736 56.017612 0
M  V30 63 H 37.582737 31.920275 60.837924 0
M  V30 64 H 37.751326 25.644515 53.668664 0
M  V30 65 H 36.661260 27.120523 53.465314 0
M  V30 66 H 39.534410 29.801963 50.826173 0
M  V30 67 H 40.023995 31.068380 51.940658 0
M  V30 68 H 40.791374 29.470409 51.997979 0
M  V30 69 H 35.974368 33.817651 58.920672 0
M  V30 70 H 39.868647 33.166784 64.201643 0
M  V30 71 H 38.443926 32.605094 56.036266 0
M  V30 72 H 39.789313 31.506228 56.272498 0
M  V30 73 H 36.920072 30.878297 56.505590 0
M  V30 END ATOM
M  V30 BEGIN BOND
M  V30 1 1 3 2
M  V30 2 1 6 1
M  V30 3 1 8 7
M  V30 4 1 12 11
M  V30 5 2 14 9
M  V30 6 1 16 12
M  V30 7 1 18 7
M  V30 8 1 20 8
M  V30 9 1 20 15
M  V30 10 1 21 9
M  V30 11 2 21 16
M  V30 12 1 21 19
M  V30 13 1 22 4
M  V30 14 1 23 2
M  V30 15 1 24 1
M  V30 16 1 24 22
M  V30 17 1 25 3
M  V30 18 1 25 8
M  V30 19 1 26 10
M  V30 20 1 26 17
M  V30 21 1 26 22
M  V30 22 2 27 13
M  V30 23 1 27 15
M  V30 24 1 28 23
M  V30 25 1 28 24
M  V30 26 2 29 20
M  V30 27 1 31 5
M  V30 28 1 31 23
M  V30 29 1 31 28
M  V30 30 1 32 4
M  V30 31 1 32 10
M  V30 32 2 33 12
M  V30 33 1 33 14
M  V30 34 1 33 32
M  V30 35 1 34 3
M  V30 36 1 34 18
M  V30 37 1 35 7
M  V30 38 1 35 30
M  V30 39 1 36 1
M  V30 40 1 37 1
M  V30 41 1 38 2
M  V30 42 1 39 2
M  V30 43 1 40 5
M  V30 44 1 41 6
M  V30 45 1 7 42 CFG=1
M  V30 46 1 8 43 CFG=3
M  V30 47 1 44 9
M  V30 48 1 45 19
M  V30 49 1 46 10
M  V30 50 1 47 10
M  V30 51 1 48 11
M  V30 52 1 49 14
M  V30 53 1 50 15
M  V30 54 1 51 15
M  V30 55 1 52 16
M  V30 56 1 53 17
M  V30 57 1 54 18
M  V30 58 1 55 18
M  V30 59 1 22 56 CFG=3
M  V30 60 1 23 57 CFG=3
M  V30 61 1 24 58 CFG=3
M  V30 62 1 59 25
M  V30 63 1 60 25
M  V30 64 1 26 61 CFG=1
M  V30 65 1 62 27
M  V30 66 1 28 63 CFG=1
M  V30 67 1 64 29
M  V30 68 1 65 29
M  V30 69 1 66 30
M  V30 70 1 67 30
M  V30 71 1 68 30
M  V30 72 1 31 69 CFG=3
M  V30 73 1 32 70 CFG=1
M  V30 74 1 71 34
M  V30 75 1 72 34
M  V30 76 1 3 73 CFG=3
M  V30 END BOND
M  V30 END CTAB
M  END
>  <i_epik_Tot_Q>  (1) 
1

>  <i_epik_Tot_abs_Q>  (1) 
1

>  <i_i_glide_confnum>  (1) 
2113

>  <i_i_glide_lignum>  (1) 
211

>  <i_i_glide_posenum>  (1) 
79

>  <i_i_glide_rotatable_bonds>  (1) 
15

>  <i_lp_mmshare_version>  (1) 
72125

>  <i_m_source_file_index>  (1) 
81

>  <i_f3d_flags>  (1) 
0

>  <num_sample>  (1) 
100

>  <b_lp_Chiralities_Consistent>  (1) 
1

>  <r_epik_Charging_Adjusted_Penalty>  (1) 
0.034071705691259377

>  <r_epik_Ionization_Penalty>  (1) 
0.043305258844254187

>  <r_epik_Ionization_Penalty_Charging>  (1) 
0.034071705691259377

>  <r_epik_Ionization_Penalty_Neutral>  (1) 
0.009233553152994808

>  <r_epik_State_Penalty>  (1) 
-0

>  <r_glide_ring_energy>  (1) 
0

>  <r_i_docking_score>  (1) 
-7.7218090963351136

>  <r_i_glide_ecoul>  (1) 
-10.095522748461859

>  <r_i_glide_eff_state_penalty>  (1) 
-0

>  <r_i_glide_einternal>  (1) 
20.318024184084166

>  <r_i_glide_emodel>  (1) 
-63.386486288592131

>  <r_i_glide_emodel_strain>  (1) 
3.7290047355768294

>  <r_i_glide_energy>  (1) 
-52.078411541789478

>  <r_i_glide_erotb>  (1) 
0.67144220787932085

>  <r_i_glide_esite>  (1) 
-0.10000000000000001

>  <r_i_glide_evdw>  (1) 
-41.982888793327618

>  <r_i_glide_gscore>  (1) 
-7.7218090963351136

>  <r_i_glide_gscore_strain>  (1) 
0

>  <r_i_glide_hbond>  (1) 
-0.65126832762328601

>  <r_i_glide_ligand_efficiency>  (1) 
-0.2206231170381461

>  <r_i_glide_ligand_efficiency_ln>  (1) 
-1.6951084729649388

>  <r_i_glide_ligand_efficiency_sa>  (1) 
-0.72167284539227405

>  <r_i_glide_lipo>  (1) 
-3.0732450160364708

>  <r_i_glide_metal>  (1) 
-0

>  <r_i_glide_rewards>  (1) 
-0.95526510861901681

>  <r_lp_Energy>  (1) 
32.799517000000002

>  <r_lp_tautomer_probability>  (1) 
1

>  <s_epik_cmdline>  (1) 
J2VwaWtfcHl0aG9uJywgJy1waHQnLCAnMS4wJywgJy1waCcsICc3LjQnLCAnLXRuJywgJzgnLCAnLW1hJywgJzUwMCcsICctaW1hZScsICc8aW5maWxlLm1hZT4nLCAnLW9tYWUnLCAnPG91dGZpbGUubWFlPic=

>  <s_epik_input>  (1) 
Tz1bQ0hdW0NIMl1DKD1bQ0gyXSlbQ0BASF0oW0NASF0oW0NIMl1bQ0gyXTEpT1tDSDNdKVtDSDJdTjFbQ0gyXVtDQEBIXTJbQ0BASF0oW0NAQEhdMltPSF0pW0NAQEhdKFtDSDJdW09IXSlbQ0BASF0zT1tDQEhdKFtDSDJdW0NASF0zW09IXSlDND1bQ0hdW0NIMl1DKD1PKVtDSF09QzRbT0hd

>  <s_glide_docking_method>  (1) 
confgen

>  <s_i_glide_gridfile>  (1) 
gpcr_5ht2c_6bqh_protein_autoprepared_prepared

>  <s_lp_Force_Field>  (1) 
S-OPLS

>  <s_lp_Variant>  (1) 
DiffSBDD_80_num_sample_100-7

>  <s_m_source_file>  (1) 
generated__ligand_DiffSBDD_2026-05-06_prepared.sdf

>  <GenAI_Model>  (1) 
DiffSBDD

>  <Protein>  (1) 
GPCR_5HT2C

$$$$
DiffSBDD_6_num_sample_100
     RDKit          3D

  0  0  0  0  0  0  0  0  0  0999 V3000
M  V30 BEGIN CTAB
M  V30 COUNTS 67 70 0 0 1
M  V30 BEGIN ATOM
M  V30 1 C 38.859202 31.876102 60.819245 0 CFG=1
M  V30 2 C 39.435334 28.409279 50.607109 0
M  V30 3 O 40.230493 29.621414 58.412361 0
M  V30 4 C 38.688483 26.544839 56.856048 0 CFG=2
M  V30 5 N 38.477820 30.691226 61.588265 0
M  V30 6 N 38.690306 28.951281 54.904984 0
M  V30 7 O 37.867405 24.754206 58.253497 0
M  V30 8 C 38.309147 27.863080 57.570053 0 CFG=1
M  V30 9 O 37.503843 26.078176 56.192747 0
M  V30 10 O 38.801435 31.185772 54.455474 0
M  V30 11 S 41.524247 33.288502 62.815005 0
M  V30 12 S 39.596538 28.301587 58.837044 0
M  V30 13 O 40.837447 27.706154 56.253458 0
M  V30 14 C 39.053169 25.353000 57.783390 0
M  V30 15 C 37.789397 32.019132 59.710480 0
M  V30 16 C 40.267396 29.353877 49.986372 0
M  V30 17 C 39.317703 34.399559 61.309407 0
M  V30 18 S 40.901457 35.021392 61.853416 0
M  V30 19 C 41.856112 27.221420 57.133250 0
M  V30 20 O 42.213141 32.421442 61.848913 0
M  V30 21 C 39.253968 29.507119 61.263797 0
M  V30 22 C 39.009308 28.604557 51.929429 0
M  V30 23 C 37.761489 33.358646 58.966680 0
M  V30 24 S 37.867424 29.229781 56.435544 0
M  V30 25 C 39.826254 32.683399 63.069244 0
M  V30 26 C 39.441047 29.747362 52.657454 0
M  V30 27 C 38.900413 33.022978 61.861179 0 CFG=2
M  V30 28 C 37.408214 34.537331 59.892424 0
M  V30 29 O 42.125942 33.625449 64.113622 0
M  V30 30 C 39.122322 27.564407 54.610079 0
M  V30 31 C 38.956807 30.022446 54.085086 0
M  V30 32 C 40.680305 30.493328 50.686457 0
M  V30 33 C 40.267003 30.695275 52.015298 0
M  V30 34 C 39.782855 26.839073 55.803107 0 CFG=2
M  V30 35 N 38.597516 35.078717 60.513615 0
M  V30 36 C 38.494725 28.644110 60.253497 0
M  V30 37 H 39.850912 31.773333 60.374204 0
M  V30 38 H 39.104836 27.539213 50.058898 0
M  V30 39 H 38.633098 30.894430 62.563500 0
M  V30 40 H 37.252913 24.839727 57.532208 0
M  V30 41 H 37.404154 27.656637 58.137352 0
M  V30 42 H 37.162087 26.781691 55.659417 0
M  V30 43 H 39.673912 25.621421 58.635008 0
M  V30 44 H 39.597479 24.590117 57.224333 0
M  V30 45 H 37.945830 31.234305 58.970346 0
M  V30 46 H 36.792794 31.844462 60.119427 0
M  V30 47 H 40.582990 29.207550 48.964848 0
M  V30 48 H 42.734905 26.821444 56.653504 0
M  V30 49 H 42.232553 28.057448 57.721795 0
M  V30 50 H 41.501026 26.473039 57.835001 0
M  V30 51 H 39.368242 28.931805 62.183155 0
M  V30 52 H 40.264924 29.761046 60.942410 0
M  V30 53 H 38.336293 27.894449 52.368642 0
M  V30 54 H 38.704544 33.533767 58.445710 0
M  V30 55 H 37.002792 33.291467 58.185616 0
M  V30 56 H 39.895297 31.643899 63.378887 0
M  V30 57 H 39.467411 33.221411 63.925390 0
M  V30 58 H 36.964412 35.324491 59.280262 0
M  V30 59 H 36.641984 34.271635 60.623321 0
M  V30 60 H 38.289634 26.999103 54.199548 0
M  V30 61 H 39.867410 27.497409 53.843524 0
M  V30 62 H 41.313850 31.221437 50.202398 0
M  V30 63 H 40.580165 31.582282 52.544680 0
M  V30 64 H 40.215380 25.907181 55.437713 0
M  V30 65 H 37.888505 33.129601 62.253454 0
M  V30 66 H 37.579002 29.116336 59.894377 0
M  V30 67 H 38.267398 27.661579 60.659325 0
M  V30 END ATOM
M  V30 BEGIN BOND
M  V30 1 1 5 1
M  V30 2 1 8 4
M  V30 3 1 4 9 CFG=3
M  V30 4 2 12 3
M  V30 5 1 12 8
M  V30 6 1 14 4
M  V30 7 1 14 7
M  V30 8 1 15 1
M  V30 9 2 16 2
M  V30 10 1 18 11
M  V30 11 1 18 17
M  V30 12 1 19 13
M  V30 13 2 20 11
M  V30 14 1 21 5
M  V30 15 1 22 2
M  V30 16 1 23 15
M  V30 17 1 24 6
M  V30 18 1 24 8
M  V30 19 1 25 11
M  V30 20 2 26 22
M  V30 21 1 27 1
M  V30 22 1 27 17
M  V30 23 1 27 25
M  V30 24 1 28 23
M  V30 25 2 29 11
M  V30 26 1 30 6
M  V30 27 1 31 6
M  V30 28 2 31 10
M  V30 29 1 31 26
M  V30 30 1 32 16
M  V30 31 1 33 26
M  V30 32 2 33 32
M  V30 33 1 34 4
M  V30 34 1 34 13
M  V30 35 1 34 30
M  V30 36 2 35 17
M  V30 37 1 35 28
M  V30 38 1 12 36 CFG=1
M  V30 39 1 36 21
M  V30 40 1 1 37 CFG=3
M  V30 41 1 38 2
M  V30 42 1 39 5
M  V30 43 1 40 7
M  V30 44 1 8 41 CFG=1
M  V30 45 1 42 9
M  V30 46 1 43 14
M  V30 47 1 44 14
M  V30 48 1 45 15
M  V30 49 1 46 15
M  V30 50 1 47 16
M  V30 51 1 48 19
M  V30 52 1 49 19
M  V30 53 1 50 19
M  V30 54 1 51 21
M  V30 55 1 52 21
M  V30 56 1 53 22
M  V30 57 1 54 23
M  V30 58 1 55 23
M  V30 59 1 56 25
M  V30 60 1 57 25
M  V30 61 1 58 28
M  V30 62 1 59 28
M  V30 63 1 60 30
M  V30 64 1 61 30
M  V30 65 1 62 32
M  V30 66 1 63 33
M  V30 67 1 34 64 CFG=3
M  V30 68 1 27 65 CFG=1
M  V30 69 1 66 36
M  V30 70 1 67 36
M  V30 END BOND
M  V30 END CTAB
M  END
>  <i_epik_Tot_Q>  (1) 
0

>  <i_epik_Tot_abs_Q>  (1) 
0

>  <i_i_glide_confnum>  (1) 
475

>  <i_i_glide_lignum>  (1) 
26

>  <i_i_glide_posenum>  (1) 
25

>  <i_i_glide_rotatable_bonds>  (1) 
11

>  <i_lp_mmshare_version>  (1) 
72125

>  <i_m_source_file_index>  (1) 
7

>  <i_f3d_flags>  (1) 
0

>  <num_sample>  (1) 
100

>  <b_lp_Chiralities_Consistent>  (1) 
1

>  <r_epik_Charging_Adjusted_Penalty>  (1) 
0.04024977574551479

>  <r_epik_Ionization_Penalty>  (1) 
0.04050266925573108

>  <r_epik_Ionization_Penalty_Charging>  (1) 
0

>  <r_epik_Ionization_Penalty_Neutral>  (1) 
0.04050266925573108

>  <r_epik_State_Penalty>  (1) 
0.04024977574551479

>  <r_glide_ring_energy>  (1) 
1.1347446578081875

>  <r_i_docking_score>  (1) 
-7.7185981623718973

>  <r_i_glide_ecoul>  (1) 
-3.8711942629614531

>  <r_i_glide_eff_state_penalty>  (1) 
0.04024977574551479

>  <r_i_glide_einternal>  (1) 
20.997795366411118

>  <r_i_glide_emodel>  (1) 
-58.558509485028054

>  <r_i_glide_emodel_strain>  (1) 
8.6568970866710799

>  <r_i_glide_energy>  (1) 
-52.71270188329737

>  <r_i_glide_erotb>  (1) 
0.34065271397431773

>  <r_i_glide_esite>  (1) 
0

>  <r_i_glide_evdw>  (1) 
-48.841507620335918

>  <r_i_glide_gscore>  (1) 
-7.7588479381174125

>  <r_i_glide_gscore_strain>  (1) 
1.16422427166777

>  <r_i_glide_hbond>  (1) 
0

>  <r_i_glide_ligand_efficiency>  (1) 
-0.21440550451033047

>  <r_i_glide_ligand_efficiency_ln>  (1) 
-1.6839895866060919

>  <r_i_glide_ligand_efficiency_sa>  (1) 
-0.70795137765566019

>  <r_i_glide_lipo>  (1) 
-4.006659505539985

>  <r_i_glide_metal>  (1) 
-0

>  <r_i_glide_rewards>  (1) 
-2.2343108977584998

>  <r_lp_Energy>  (1) 
36.868558999999998

>  <r_lp_tautomer_probability>  (1) 
0.99960115913750414

>  <s_epik_Chemistry_Notes>  (1) 
This compound has an imine and may undergo hydrolysis. This compound contains an acetal/aminal-like group ( X-CH(R)-Y where X, Y are N, S, or O) that may be acid/base labile, releasing an aldehyde. This compound has a N-S or N-O group and may undergo hydrolysis at high or low pH.

>  <s_epik_cmdline>  (1) 
J2VwaWtfcHl0aG9uJywgJy1waHQnLCAnMS4wJywgJy1waCcsICc3LjQnLCAnLXRuJywgJzgnLCAnLW1hJywgJzUwMCcsICctaW1hZScsICc8aW5maWxlLm1hZT4nLCAnLW9tYWUnLCAnPG91dGZpbGUubWFlPic=

>  <s_epik_input>  (1) 
UzFTKD1PKSg9TylbQ0gyXUMoPUMxMilbQ0BIXShbQ0gyXVtDSDJdW0NIMl1bTkhdMilbTkhdW0NIMl1bQ0gyXVtTQF0oPU8pW0NASF0oW0NAXTMoW09IXSlbQ0gyXVtPSF0pU04oW0NIMl1bQ0BIXTNPW0NIM10pQyg9TyljNFtjSF1bY0hdW2NIXVtjSF1bY0hdNA==

>  <s_glide_docking_method>  (1) 
confgen

>  <s_i_glide_gridfile>  (1) 
gpcr_5ht2c_6bqh_protein_autoprepared_prepared

>  <s_lp_Force_Field>  (1) 
S-OPLS

>  <s_lp_Variant>  (1) 
DiffSBDD_6_num_sample_100-2

>  <s_m_source_file>  (1) 
generated__ligand_DiffSBDD_2026-05-06_prepared.sdf

>  <GenAI_Model>  (1) 
DiffSBDD

>  <Protein>  (1) 
GPCR_5HT2C

$$$$
DiffSBDD_63_num_sample_100
     RDKit          3D

  0  0  0  0  0  0  0  0  0  0999 V3000
M  V30 BEGIN CTAB
M  V30 COUNTS 66 69 0 0 1
M  V30 BEGIN ATOM
M  V30 1 C 39.144978 28.775605 59.208310 0
M  V30 2 O 41.769631 31.481390 62.356401 0
M  V30 3 C 40.569104 32.108095 61.984035 0 CFG=2
M  V30 4 O 39.488955 29.621426 66.253504 0
M  V30 5 C 38.207653 29.997271 57.189908 0
M  V30 6 C 40.487081 30.469171 65.736377 0
M  V30 7 C 41.349642 35.689463 63.035615 0
M  V30 8 C 41.889498 31.070852 63.721164 0 CFG=1
M  V30 9 F 40.693764 30.023394 50.805063 0
M  V30 10 C 39.935769 29.659085 51.853499 0
M  V30 11 C 38.943325 30.630595 53.959772 0
M  V30 12 S 37.075043 29.962101 55.763469 0
M  V30 13 C 37.669139 31.024636 58.194463 0
M  V30 14 C 41.549841 34.262707 62.494864 0
M  V30 15 N 40.354683 33.434562 62.596008 0
M  V30 16 O 40.310686 36.314954 62.295270 0
M  V30 17 C 39.731770 30.666321 52.868595 0
M  V30 18 C 39.085233 35.604626 62.415410 0
M  V30 19 F 37.358215 27.398693 54.652610 0
M  V30 20 C 38.076925 28.276127 53.933986 0
M  V30 21 C 39.467405 28.405715 51.837968 0
M  V30 22 C 39.444023 31.090978 62.268651 0 CFG=2
M  V30 23 C 40.650737 30.286316 64.214627 0 CFG=2
M  V30 24 C 38.293675 28.646845 57.923763 0
M  V30 25 C 39.263887 34.154802 61.921535 0
M  V30 26 C 43.165663 30.208748 63.853458 0
M  V30 27 C 38.512468 31.093418 59.465523 0
M  V30 28 O 39.467401 30.821430 63.659229 0
M  V30 29 O 43.821280 30.440338 65.083005 0
M  V30 30 F 38.946579 31.758347 54.692751 0
M  V30 31 N 38.675664 29.804912 60.150742 0
M  V30 32 N 38.122459 29.592171 54.413113 0
M  V30 33 C 38.651383 27.758185 52.833178 0
M  V30 34 F 39.808825 27.656305 50.775739 0
M  V30 35 C 39.576341 29.861254 61.323391 0
M  V30 36 H 40.173790 28.992453 58.915124 0
M  V30 37 H 39.172807 27.808728 59.712755 0
M  V30 38 H 40.664339 32.258850 60.909198 0
M  V30 39 H 38.949571 29.316461 65.529411 0
M  V30 40 H 39.199747 30.302936 56.856841 0
M  V30 41 H 41.414371 30.235549 66.258779 0
M  V30 42 H 40.243317 31.505306 65.974193 0
M  V30 43 H 41.100922 35.674057 64.098301 0
M  V30 44 H 42.265117 36.271821 62.934127 0
M  V30 45 H 42.000140 31.984263 64.306273 0
M  V30 46 H 37.616602 32.010944 57.731317 0
M  V30 47 H 36.650350 30.760019 58.473919 0
M  V30 48 H 42.363633 33.801678 63.053328 0
M  V30 49 H 41.867402 34.318630 61.453532 0
M  V30 50 H 40.267386 31.591281 52.714565 0
M  V30 51 H 38.757860 35.625166 63.453501 0
M  V30 52 H 38.318147 36.111876 61.830175 0
M  V30 53 H 38.468995 31.545127 62.121484 0
M  V30 54 H 40.714735 29.232228 63.941265 0
M  V30 55 H 38.722441 27.889982 57.266618 0
M  V30 56 H 37.291726 28.302999 58.183557 0
M  V30 57 H 39.444153 34.176921 60.845470 0
M  V30 58 H 38.317497 33.635988 62.061430 0
M  V30 59 H 43.867399 30.421404 63.053519 0
M  V30 60 H 42.944164 29.145702 63.754956 0
M  V30 61 H 38.023314 31.813114 60.118549 0
M  V30 62 H 39.467402 31.520883 59.217976 0
M  V30 63 H 44.143983 31.328555 65.095886 0
M  V30 64 H 38.460484 26.709210 52.661828 0
M  V30 65 H 40.612226 29.780187 60.992195 0
M  V30 66 H 39.402839 28.960636 61.913646 0
M  V30 END ATOM
M  V30 BEGIN BOND
M  V30 1 1 3 2
M  V30 2 1 6 4
M  V30 3 1 8 2
M  V30 4 1 10 9
M  V30 5 1 12 5
M  V30 6 1 13 5
M  V30 7 1 14 7
M  V30 8 1 15 3
M  V30 9 1 15 14
M  V30 10 1 16 7
M  V30 11 1 17 10
M  V30 12 2 17 11
M  V30 13 1 18 16
M  V30 14 1 20 19
M  V30 15 2 21 10
M  V30 16 1 22 3
M  V30 17 1 23 6
M  V30 18 1 23 8
M  V30 19 1 24 1
M  V30 20 1 24 5
M  V30 21 1 25 15
M  V30 22 1 25 18
M  V30 23 1 26 8
M  V30 24 1 27 13
M  V30 25 1 28 22
M  V30 26 1 28 23
M  V30 27 1 29 26
M  V30 28 1 30 11
M  V30 29 1 31 1
M  V30 30 1 31 27
M  V30 31 1 32 11
M  V30 32 1 32 12
M  V30 33 1 32 20
M  V30 34 2 33 20
M  V30 35 1 33 21
M  V30 36 1 34 21
M  V30 37 1 35 22
M  V30 38 1 35 31
M  V30 39 1 36 1
M  V30 40 1 37 1
M  V30 41 1 3 38 CFG=3
M  V30 42 1 39 4
M  V30 43 1 40 5
M  V30 44 1 41 6
M  V30 45 1 42 6
M  V30 46 1 43 7
M  V30 47 1 44 7
M  V30 48 1 8 45 CFG=1
M  V30 49 1 46 13
M  V30 50 1 47 13
M  V30 51 1 48 14
M  V30 52 1 49 14
M  V30 53 1 50 17
M  V30 54 1 51 18
M  V30 55 1 52 18
M  V30 56 1 22 53 CFG=3
M  V30 57 1 23 54 CFG=1
M  V30 58 1 55 24
M  V30 59 1 56 24
M  V30 60 1 57 25
M  V30 61 1 58 25
M  V30 62 1 59 26
M  V30 63 1 60 26
M  V30 64 1 61 27
M  V30 65 1 62 27
M  V30 66 1 63 29
M  V30 67 1 64 33
M  V30 68 1 65 35
M  V30 69 1 66 35
M  V30 END BOND
M  V30 END CTAB
M  END
>  <i_epik_Tot_Q>  (1) 
0

>  <i_epik_Tot_abs_Q>  (1) 
0

>  <i_i_glide_confnum>  (1) 
490

>  <i_i_glide_lignum>  (1) 
160

>  <i_i_glide_posenum>  (1) 
377

>  <i_i_glide_rotatable_bonds>  (1) 
9

>  <i_lp_mmshare_version>  (1) 
72125

>  <i_m_source_file_index>  (1) 
64

>  <i_f3d_flags>  (1) 
0

>  <num_sample>  (1) 
100

>  <b_lp_Chiralities_Consistent>  (1) 
1

>  <r_epik_Charging_Adjusted_Penalty>  (1) 
0.48877855165897433

>  <r_epik_Ionization_Penalty>  (1) 
0.48879775138492404

>  <r_epik_Ionization_Penalty_Charging>  (1) 
0

>  <r_epik_Ionization_Penalty_Neutral>  (1) 
0.48879775138492404

>  <r_epik_State_Penalty>  (1) 
0.48877855165897433

>  <r_glide_ring_energy>  (1) 
0.0045149093831275133

>  <r_i_docking_score>  (1) 
-7.7059415699166713

>  <r_i_glide_ecoul>  (1) 
-3.3527673616768765

>  <r_i_glide_eff_state_penalty>  (1) 
0.48877855165897433

>  <r_i_glide_einternal>  (1) 
9.5034817575813335

>  <r_i_glide_emodel>  (1) 
-56.509465496684157

>  <r_i_glide_emodel_strain>  (1) 
2.0095326849823465

>  <r_i_glide_energy>  (1) 
-46.143361716207579

>  <r_i_glide_erotb>  (1) 
0.52162944545335954

>  <r_i_glide_esite>  (1) 
0

>  <r_i_glide_evdw>  (1) 
-42.790594354530704

>  <r_i_glide_gscore>  (1) 
-8.1947201215756458

>  <r_i_glide_gscore_strain>  (1) 
0

>  <r_i_glide_hbond>  (1) 
-0.46369974200487646

>  <r_i_glide_ligand_efficiency>  (1) 
-0.22016975914047632

>  <r_i_glide_ligand_efficiency_ln>  (1) 
-1.6916251987553159

>  <r_i_glide_ligand_efficiency_sa>  (1) 
-0.72018988164674858

>  <r_i_glide_lipo>  (1) 
-3.4335726010077523

>  <r_i_glide_metal>  (1) 
-0

>  <r_i_glide_rewards>  (1) 
-2.1766324020383094

>  <r_lp_Energy>  (1) 
32.449697999999998

>  <s_epik_Chemistry_Notes>  (1) 
This compound contains an acetal/aminal-like group ( X-CH(R)-Y where X, Y are N, S, or O) that may be acid/base labile, releasing an aldehyde. This compound has a N-S or N-O group and may undergo hydrolysis at high or low pH.

>  <s_epik_cmdline>  (1) 
J2VwaWtfcHl0aG9uJywgJy1waHQnLCAnMS4wJywgJy1waCcsICc3LjQnLCAnLXRuJywgJzgnLCAnLW1hJywgJzUwMCcsICctaW1hZScsICc8aW5maWxlLm1hZT4nLCAnLW9tYWUnLCAnPG91dGZpbGUubWFlPic=

>  <s_epik_input>  (1) 
RkMxPUMoRilbQ0hdPUMoRilOKEMoRik9W0NIXTEpU1tDSF0yW0NIMl1bQ0gyXU4oW0NIMl1bQ0gyXTIpW0NIMl1bQ0BIXTNPW0NASF0oW0NIMl1bT0hdKVtDQEBIXShbQ0gyXVtPSF0pT1tDQEBIXTNONFtDSDJdW0NIMl1PW0NIMl1bQ0gyXTQ=

>  <s_glide_docking_method>  (1) 
confgen

>  <s_i_glide_gridfile>  (1) 
gpcr_5ht2c_6bqh_protein_autoprepared_prepared

>  <s_lp_Force_Field>  (1) 
S-OPLS

>  <s_lp_Variant>  (1) 
DiffSBDD_63_num_sample_100-3

>  <s_m_source_file>  (1) 
generated__ligand_DiffSBDD_2026-05-06_prepared.sdf

>  <GenAI_Model>  (1) 
DiffSBDD

>  <Protein>  (1) 
GPCR_5HT2C

$$$$
DiffSBDD_63_num_sample_100
     RDKit          3D

  0  0  0  0  0  0  0  0  0  0999 V3000
M  V30 BEGIN CTAB
M  V30 COUNTS 67 70 0 0 1
M  V30 BEGIN ATOM
M  V30 1 C 37.989934 32.149161 58.346179 0
M  V30 2 O 38.077642 27.497715 56.078537 0
M  V30 3 C 38.094228 28.760533 55.491699 0 CFG=2
M  V30 4 O 41.467394 28.278605 59.396663 0
M  V30 5 C 38.458447 32.707936 60.805345 0 CFG=2
M  V30 6 C 41.273734 27.754924 58.099431 0
M  V30 7 C 39.069689 27.758075 51.963898 0
M  V30 8 C 39.346296 27.045031 56.547119 0 CFG=1
M  V30 9 F 42.019297 33.187769 66.533646 0
M  V30 10 C 41.634385 33.443646 65.271261 0
M  V30 11 C 41.062644 32.233627 63.133636 0
M  V30 12 S 40.267361 32.821420 60.653504 0
M  V30 13 C 38.008485 31.273790 61.144819 0
M  V30 14 C 38.314814 27.791096 53.300757 0
M  V30 15 N 38.876450 28.765837 54.244357 0
M  V30 16 O 39.049266 29.053745 51.380635 0
M  V30 17 C 41.457947 32.293098 64.418702 0
M  V30 18 C 39.616136 30.041989 52.230218 0
M  V30 19 F 40.411962 35.468885 61.520756 0
M  V30 20 C 40.744947 34.653414 62.538073 0
M  V30 21 C 41.467398 34.733457 64.953634 0
M  V30 22 C 38.511799 29.742321 56.621508 0 CFG=2
M  V30 23 C 39.818085 28.004627 57.663203 0 CFG=2
M  V30 24 C 37.778914 33.159329 59.494277 0
M  V30 25 C 38.892978 30.073417 53.589650 0
M  V30 26 C 39.083934 25.617670 57.042705 0
M  V30 27 C 38.218989 30.309673 59.959784 0
M  V30 28 O 39.767824 29.343744 57.168971 0
M  V30 29 O 38.784725 24.821427 55.920385 0
M  V30 30 F 41.004564 30.990063 62.622159 0
M  V30 31 N 37.507004 30.804719 58.753895 0 CFG=2 CHG=1
M  V30 32 N 40.706755 33.278589 62.273096 0
M  V30 33 C 41.067811 35.286202 63.681765 0
M  V30 34 F 41.703597 35.621334 65.934366 0
M  V30 35 C 37.371319 29.791631 57.672214 0
M  V30 36 H 39.046159 32.100680 58.078654 0
M  V30 37 H 37.467401 32.489330 57.453080 0
M  V30 38 H 37.067405 28.984290 55.207496 0
M  V30 39 H 42.327627 28.021569 59.709277 0
M  V30 40 H 38.153112 33.384510 61.605165 0
M  V30 41 H 41.494476 26.689750 58.148924 0
M  V30 42 H 41.982040 28.191443 57.394157 0
M  V30 43 H 40.098724 27.434919 52.117805 0
M  V30 44 H 38.604979 27.049174 51.277669 0
M  V30 45 H 40.083326 27.022817 55.742154 0
M  V30 46 H 36.950599 31.285979 61.408998 0
M  V30 47 H 38.531450 30.906061 62.027599 0
M  V30 48 H 38.336575 26.790607 53.734609 0
M  V30 49 H 37.264365 28.017808 53.109289 0
M  V30 50 H 41.676135 31.340520 64.879882 0
M  V30 51 H 40.667403 29.821393 52.369800 0
M  V30 52 H 39.562237 31.015138 51.742339 0
M  V30 53 H 38.622449 30.733205 56.187647 0
M  V30 54 H 39.162031 27.889656 58.526319 0
M  V30 55 H 36.708343 33.282400 59.665359 0
M  V30 56 H 38.148244 34.141172 59.198205 0
M  V30 57 H 37.871393 30.427927 53.453573 0
M  V30 58 H 39.400106 30.806352 54.215547 0
M  V30 59 H 38.258882 25.586371 57.755734 0
M  V30 60 H 39.957595 25.191218 57.533884 0
M  V30 61 H 37.856126 29.319858 60.233484 0
M  V30 62 H 39.281163 30.193603 59.739468 0
M  V30 63 H 39.505859 24.869669 55.311442 0
M  V30 64 H 41.020521 36.365727 63.643316 0
M  V30 65 H 36.447576 30.021429 57.146689 0
M  V30 66 H 37.177921 28.811684 58.107813 0
M  V30 67 H 36.547699 30.960453 59.033459 0
M  V30 END ATOM
M  V30 BEGIN BOND
M  V30 1 1 3 2
M  V30 2 1 6 4
M  V30 3 1 8 2
M  V30 4 1 10 9
M  V30 5 1 12 5
M  V30 6 1 13 5
M  V30 7 1 14 7
M  V30 8 1 15 3
M  V30 9 1 15 14
M  V30 10 1 16 7
M  V30 11 1 17 10
M  V30 12 2 17 11
M  V30 13 1 18 16
M  V30 14 1 20 19
M  V30 15 2 21 10
M  V30 16 1 22 3
M  V30 17 1 23 6
M  V30 18 1 23 8
M  V30 19 1 24 1
M  V30 20 1 24 5
M  V30 21 1 25 15
M  V30 22 1 25 18
M  V30 23 1 26 8
M  V30 24 1 27 13
M  V30 25 1 28 22
M  V30 26 1 28 23
M  V30 27 1 29 26
M  V30 28 1 30 11
M  V30 29 1 31 1
M  V30 30 1 31 27
M  V30 31 1 32 11
M  V30 32 1 32 12
M  V30 33 1 32 20
M  V30 34 2 33 20
M  V30 35 1 33 21
M  V30 36 1 34 21
M  V30 37 1 35 22
M  V30 38 1 35 31
M  V30 39 1 36 1
M  V30 40 1 37 1
M  V30 41 1 3 38 CFG=3
M  V30 42 1 39 4
M  V30 43 1 5 40 CFG=1
M  V30 44 1 41 6
M  V30 45 1 42 6
M  V30 46 1 43 7
M  V30 47 1 44 7
M  V30 48 1 8 45 CFG=3
M  V30 49 1 46 13
M  V30 50 1 47 13
M  V30 51 1 48 14
M  V30 52 1 49 14
M  V30 53 1 50 17
M  V30 54 1 51 18
M  V30 55 1 52 18
M  V30 56 1 22 53 CFG=3
M  V30 57 1 23 54 CFG=1
M  V30 58 1 55 24
M  V30 59 1 56 24
M  V30 60 1 57 25
M  V30 61 1 58 25
M  V30 62 1 59 26
M  V30 63 1 60 26
M  V30 64 1 61 27
M  V30 65 1 62 27
M  V30 66 1 63 29
M  V30 67 1 64 33
M  V30 68 1 65 35
M  V30 69 1 66 35
M  V30 70 1 31 67 CFG=1
M  V30 END BOND
M  V30 END CTAB
M  END
>  <i_epik_Tot_Q>  (1) 
1

>  <i_epik_Tot_abs_Q>  (1) 
1

>  <i_i_glide_confnum>  (1) 
235

>  <i_i_glide_lignum>  (1) 
159

>  <i_i_glide_posenum>  (1) 
265

>  <i_i_glide_rotatable_bonds>  (1) 
9

>  <i_lp_mmshare_version>  (1) 
72125

>  <i_m_source_file_index>  (1) 
64

>  <i_f3d_flags>  (1) 
0

>  <num_sample>  (1) 
100

>  <b_lp_Chiralities_Consistent>  (1) 
1

>  <r_epik_Charging_Adjusted_Penalty>  (1) 
0.6833741402111444

>  <r_epik_Ionization_Penalty>  (1) 
0.34168859396029116

>  <r_epik_Ionization_Penalty_Charging>  (1) 
0.34168707010557214

>  <r_epik_Ionization_Penalty_Neutral>  (1) 
1.5238547190056168e-06

>  <r_epik_State_Penalty>  (1) 
0.3416870701055722

>  <r_glide_ring_energy>  (1) 
0.0045149093831275133

>  <r_i_docking_score>  (1) 
-7.7005637982849953

>  <r_i_glide_ecoul>  (1) 
-5.6894715376143434

>  <r_i_glide_eff_state_penalty>  (1) 
0.3416870701055722

>  <r_i_glide_einternal>  (1) 
13.277120250667586

>  <r_i_glide_emodel>  (1) 
-67.700202110187405

>  <r_i_glide_emodel_strain>  (1) 
0.055182178695019957

>  <r_i_glide_energy>  (1) 
-49.57619128884496

>  <r_i_glide_erotb>  (1) 
0.51979340436673749

>  <r_i_glide_esite>  (1) 
-0.092117530078814638

>  <r_i_glide_evdw>  (1) 
-43.886719751230615

>  <r_i_glide_gscore>  (1) 
-8.0422508683905676

>  <r_i_glide_gscore_strain>  (1) 
0

>  <r_i_glide_hbond>  (1) 
-0.31759764986096151

>  <r_i_glide_ligand_efficiency>  (1) 
-0.22001610852242845

>  <r_i_glide_ligand_efficiency_ln>  (1) 
-1.6904446585289523

>  <r_i_glide_ligand_efficiency_sa>  (1) 
-0.71968728028651241

>  <r_i_glide_lipo>  (1) 
-3.5772072297107913

>  <r_i_glide_metal>  (1) 
-0

>  <r_i_glide_rewards>  (1) 
-1.5273651449030541

>  <r_lp_Energy>  (1) 
40.670952999999997

>  <s_epik_Chemistry_Notes>  (1) 
This compound contains an acetal/aminal-like group ( X-CH(R)-Y where X, Y are N, S, or O) that may be acid/base labile, releasing an aldehyde. This compound has a N-S or N-O group and may undergo hydrolysis at high or low pH.

>  <s_epik_cmdline>  (1) 
J2VwaWtfcHl0aG9uJywgJy1waHQnLCAnMS4wJywgJy1waCcsICc3LjQnLCAnLXRuJywgJzgnLCAnLW1hJywgJzUwMCcsICctaW1hZScsICc8aW5maWxlLm1hZT4nLCAnLW9tYWUnLCAnPG91dGZpbGUubWFlPic=

>  <s_epik_input>  (1) 
RkMxPUMoRilbQ0hdPUMoRilOKEMoRik9W0NIXTEpU1tDSF0yW0NIMl1bQ0gyXU4oW0NIMl1bQ0gyXTIpW0NIMl1bQ0BIXTNPW0NASF0oW0NIMl1bT0hdKVtDQEBIXShbQ0gyXVtPSF0pT1tDQEBIXTNONFtDSDJdW0NIMl1PW0NIMl1bQ0gyXTQ=

>  <s_glide_docking_method>  (1) 
confgen

>  <s_i_glide_gridfile>  (1) 
gpcr_5ht2c_6bqh_protein_autoprepared_prepared

>  <s_lp_Force_Field>  (1) 
S-OPLS

>  <s_lp_Variant>  (1) 
DiffSBDD_63_num_sample_100-2

>  <s_m_source_file>  (1) 
generated__ligand_DiffSBDD_2026-05-06_prepared.sdf

>  <GenAI_Model>  (1) 
DiffSBDD

>  <Protein>  (1) 
GPCR_5HT2C

$$$$
DiffSBDD_26_num_sample_100
     RDKit          3D

  0  0  0  0  0  0  0  0  0  0999 V3000
M  V30 BEGIN CTAB
M  V30 COUNTS 63 66 0 0 1
M  V30 BEGIN ATOM
M  V30 1 C 37.285667 31.113377 59.324689 0
M  V30 2 C 38.091012 35.138771 61.143083 0
M  V30 3 N 38.705660 28.634682 57.243529 0
M  V30 4 C 39.051971 29.752795 56.484986 0
M  V30 5 C 38.941708 37.270019 61.956516 0
M  V30 6 O 39.585863 28.763251 61.836339 0
M  V30 7 C 39.887265 30.488689 54.210178 0
M  V30 8 C 39.078104 31.030767 61.211784 0
M  V30 9 C 39.412777 25.557743 55.187448 0
M  V30 10 C 37.237938 32.820334 61.049214 0
M  V30 11 C 39.041716 29.644467 54.958307 0
M  V30 12 C 37.459968 25.144541 56.587985 0
M  V30 13 C 36.911485 37.221455 60.615118 0
M  V30 14 O 36.089691 35.161092 59.750409 0
M  V30 15 C 37.134842 29.643192 58.943768 0
M  V30 16 C 39.467307 29.582455 60.930607 0
M  V30 17 C 39.713385 29.199428 59.478654 0
M  V30 18 C 39.067409 29.506376 52.139100 0
M  V30 19 O 39.067398 29.445310 50.776278 0
M  V30 20 C 37.010683 35.826882 60.501042 0
M  V30 21 C 39.058327 35.874027 61.850425 0
M  V30 22 N 40.352865 29.221498 50.259916 0
M  V30 23 C 38.367968 24.712741 55.608482 0
M  V30 24 N 38.250295 33.715352 61.053395 0
M  V30 25 O 39.370281 30.820691 56.998016 0
M  V30 26 C 38.431236 28.819057 58.693724 0 CFG=2
M  V30 27 C 37.868171 37.940876 61.343068 0
M  V30 28 C 38.191651 28.687623 52.868953 0
M  V30 29 C 38.604870 27.297594 56.694700 0
M  V30 30 C 39.540261 26.841436 55.732390 0
M  V30 31 C 37.577002 26.431687 57.135508 0
M  V30 32 O 39.867405 37.977238 62.653508 0
M  V30 33 C 37.619589 31.362896 60.811650 0 CFG=1
M  V30 34 O 36.058868 33.120868 61.231594 0
M  V30 35 C 38.158360 28.764307 54.270005 0
M  V30 36 C 39.898310 30.421418 52.808706 0
M  V30 37 H 36.320498 31.566381 59.085124 0
M  V30 38 H 37.988468 31.647322 58.694609 0
M  V30 39 H 40.537956 31.187426 54.717190 0
M  V30 40 H 39.778870 31.663417 60.667026 0
M  V30 41 H 39.228922 31.228934 62.273686 0
M  V30 42 H 40.114924 25.221134 54.441940 0
M  V30 43 H 36.666301 24.489791 56.912569 0
M  V30 44 H 36.097713 37.741026 60.136499 0
M  V30 45 H 35.955796 34.279639 60.091709 0
M  V30 46 H 36.488790 29.568923 58.066790 0
M  V30 47 H 36.546880 29.221416 59.751849 0
M  V30 48 H 40.246847 30.021430 59.015532 0
M  V30 49 H 40.407644 28.358500 59.460743 0
M  V30 50 H 39.885412 35.363913 62.322866 0
M  V30 51 H 40.470674 37.460040 63.169462 0
M  V30 52 H 40.637009 30.119316 49.893785 0
M  V30 53 H 40.926054 29.047594 51.073048 0
M  V30 54 H 38.267409 23.726670 55.182159 0
M  V30 55 H 39.194069 33.361041 61.042390 0
M  V30 56 H 38.234019 27.837385 59.116347 0
M  V30 57 H 37.784344 39.013916 61.425370 0
M  V30 58 H 37.530933 28.007634 52.349778 0
M  V30 59 H 40.345437 27.481967 55.407853 0
M  V30 60 H 36.862791 26.764959 57.867244 0
M  V30 61 H 36.949866 30.769754 61.433768 0
M  V30 62 H 37.461435 28.149208 54.810942 0
M  V30 63 H 40.551797 31.071723 52.245418 0
M  V30 END ATOM
M  V30 BEGIN BOND
M  V30 1 1 4 3
M  V30 2 1 11 4
M  V30 3 2 11 7
M  V30 4 1 15 1
M  V30 5 2 16 6
M  V30 6 1 16 8
M  V30 7 1 17 16
M  V30 8 1 19 18
M  V30 9 1 20 2
M  V30 10 2 20 13
M  V30 11 1 20 14
M  V30 12 2 21 2
M  V30 13 1 21 5
M  V30 14 1 22 19
M  V30 15 2 23 9
M  V30 16 1 23 12
M  V30 17 1 24 2
M  V30 18 1 24 10
M  V30 19 2 25 4
M  V30 20 1 26 3
M  V30 21 1 26 15
M  V30 22 1 26 17
M  V30 23 2 27 5
M  V30 24 1 27 13
M  V30 25 1 28 18
M  V30 26 1 29 3
M  V30 27 1 30 9
M  V30 28 2 30 29
M  V30 29 2 31 12
M  V30 30 1 31 29
M  V30 31 1 32 5
M  V30 32 1 33 1
M  V30 33 1 33 8
M  V30 34 1 33 10
M  V30 35 2 34 10
M  V30 36 1 35 11
M  V30 37 2 35 28
M  V30 38 1 36 7
M  V30 39 2 36 18
M  V30 40 1 37 1
M  V30 41 1 38 1
M  V30 42 1 39 7
M  V30 43 1 40 8
M  V30 44 1 41 8
M  V30 45 1 42 9
M  V30 46 1 43 12
M  V30 47 1 44 13
M  V30 48 1 45 14
M  V30 49 1 46 15
M  V30 50 1 47 15
M  V30 51 1 48 17
M  V30 52 1 49 17
M  V30 53 1 50 21
M  V30 54 1 51 32
M  V30 55 1 52 22
M  V30 56 1 53 22
M  V30 57 1 54 23
M  V30 58 1 55 24
M  V30 59 1 26 56 CFG=1
M  V30 60 1 57 27
M  V30 61 1 58 28
M  V30 62 1 59 30
M  V30 63 1 60 31
M  V30 64 1 33 61 CFG=1
M  V30 65 1 62 35
M  V30 66 1 63 36
M  V30 END BOND
M  V30 END CTAB
M  END
>  <i_epik_Tot_Q>  (1) 
0

>  <i_epik_Tot_abs_Q>  (1) 
0

>  <i_i_glide_confnum>  (1) 
704

>  <i_i_glide_lignum>  (1) 
67

>  <i_i_glide_posenum>  (1) 
329

>  <i_i_glide_rotatable_bonds>  (1) 
10

>  <i_lp_mmshare_version>  (1) 
72125

>  <i_m_source_file_index>  (1) 
27

>  <i_f3d_flags>  (1) 
0

>  <num_sample>  (1) 
100

>  <b_lp_Chiralities_Consistent>  (1) 
1

>  <r_epik_Charging_Adjusted_Penalty>  (1) 
0

>  <r_epik_Ionization_Penalty>  (1) 
0.0023635104904880574

>  <r_epik_Ionization_Penalty_Charging>  (1) 
0

>  <r_epik_Ionization_Penalty_Neutral>  (1) 
0.0023635104904880574

>  <r_epik_State_Penalty>  (1) 
-0

>  <r_glide_ring_energy>  (1) 
1.5907419423697626

>  <r_i_docking_score>  (1) 
-7.694081015335831

>  <r_i_glide_ecoul>  (1) 
0.16020924527457112

>  <r_i_glide_eff_state_penalty>  (1) 
-0

>  <r_i_glide_einternal>  (1) 
29.842107657076482

>  <r_i_glide_emodel>  (1) 
-60.067207152289932

>  <r_i_glide_emodel_strain>  (1) 
0.7025559701184676

>  <r_i_glide_energy>  (1) 
-50.900208732893923

>  <r_i_glide_erotb>  (1) 
0.59425720056655684

>  <r_i_glide_esite>  (1) 
0

>  <r_i_glide_evdw>  (1) 
-51.060417978168495

>  <r_i_glide_gscore>  (1) 
-7.694081015335831

>  <r_i_glide_gscore_strain>  (1) 
0

>  <r_i_glide_hbond>  (1) 
-0.020533866337302906

>  <r_i_glide_ligand_efficiency>  (1) 
-0.21372447264821753

>  <r_i_glide_ligand_efficiency_ln>  (1) 
-1.6786406074995879

>  <r_i_glide_ligand_efficiency_sa>  (1) 
-0.70570265999278392

>  <r_i_glide_lipo>  (1) 
-4.9896925589233536

>  <r_i_glide_metal>  (1) 
-0

>  <r_i_glide_rewards>  (1) 
-0.74912227852449353

>  <r_lp_Energy>  (1) 
69.479281999999998

>  <r_lp_tautomer_probability>  (1) 
1

>  <s_epik_Chemistry_Notes>  (1) 
This compound has a N-S or N-O group and may undergo hydrolysis at high or low pH.

>  <s_epik_cmdline>  (1) 
J2VwaWtfcHl0aG9uJywgJy1waHQnLCAnMS4wJywgJy1waCcsICc3LjQnLCAnLXRuJywgJzgnLCAnLW1hJywgJzUwMCcsICctaW1hZScsICc8aW5maWxlLm1hZT4nLCAnLW9tYWUnLCAnPG91dGZpbGUubWFlPic=

>  <s_epik_input>  (1) 
W0NIMl0xQyg9TylbQ0hdPVtDSF1DKFtPSF0pPUMxW05IXUMoPU8pW0NASF0oW0NIMl1DMj1PKVtDSDJdW0NIMl1bQ0BIXShbQ0gyXTIpTihjM1tjSF1bY0hdW2NIXVtjSF1bY0hdMylDKD1PKWM0W2NIXVtjSF1jKE9bTkgyXSlbY0hdW2NIXTQ=

>  <s_glide_docking_method>  (1) 
confgen

>  <s_i_glide_gridfile>  (1) 
gpcr_5ht2c_6bqh_protein_autoprepared_prepared

>  <s_lp_Force_Field>  (1) 
S-OPLS

>  <s_lp_Variant>  (1) 
DiffSBDD_26_num_sample_100-1

>  <s_m_source_file>  (1) 
generated__ligand_DiffSBDD_2026-05-06_prepared.sdf

>  <GenAI_Model>  (1) 
DiffSBDD

>  <Protein>  (1) 
GPCR_5HT2C

$$$$
DiffSBDD_29_num_sample_100
     RDKit          3D

  0  0  0  0  0  0  0  0  0  0999 V3000
M  V30 BEGIN CTAB
M  V30 COUNTS 86 90 0 0 1
M  V30 BEGIN ATOM
M  V30 1 F 40.313469 34.633109 62.084027 0
M  V30 2 C 36.396797 33.943830 59.126157 0
M  V30 3 C 39.227331 31.846094 62.031235 0
M  V30 4 C 38.674565 28.903517 57.308766 0 CFG=2
M  V30 5 C 39.600495 29.659511 53.094209 0
M  V30 6 C 39.623546 28.499690 58.474283 0
M  V30 7 C 41.475078 33.986002 63.955919 0
M  V30 8 N 37.389361 32.921803 58.710136 0 CFG=2 CHG=1
M  V30 9 C 37.920668 26.447074 56.993336 0 CFG=1
M  V30 10 C 38.762553 27.303234 51.361017 0
M  V30 11 C 38.092331 33.944478 56.529665 0
M  V30 12 C 38.036934 27.809529 52.587354 0 CFG=1
M  V30 13 C 40.652440 33.703319 62.992390 0
M  V30 14 C 38.902501 32.694227 56.649751 0 CFG=2
M  V30 15 C 35.697177 32.391129 60.984988 0
M  V30 16 C 39.466886 24.884269 55.686903 0
M  V30 17 C 38.535397 27.728448 56.285247 0 CFG=1
M  V30 18 C 38.293010 31.350213 56.318105 0 CFG=1
M  V30 19 C 40.681168 31.567095 64.086969 0
M  V30 20 N 36.659850 31.414888 60.481940 0
M  V30 21 N 40.180353 32.427437 62.987849 0
M  V30 22 F 42.043864 35.190599 64.128564 0
M  V30 23 S 37.467500 26.684113 53.832877 0
M  V30 24 C 37.825215 32.039879 59.842634 0 CFG=2
M  V30 25 C 35.211211 33.264284 59.823097 0
M  V30 26 C 38.267797 24.025605 57.725110 0
M  V30 27 O 37.869224 31.351728 54.981542 0
M  V30 28 C 38.006622 28.114589 54.852129 0 CFG=2
M  V30 29 C 39.250900 30.206602 56.689872 0
M  V30 30 C 39.442631 28.528988 50.716905 0
M  V30 31 C 40.270934 29.381914 51.712819 0
M  V30 32 C 38.738899 32.751149 60.880503 0
M  V30 33 O 36.667676 25.974546 56.555937 0
M  V30 34 C 38.991509 28.371304 53.637823 0 CFG=2
M  V30 35 C 38.516831 33.470850 57.904435 0 CFG=2
M  V30 36 C 38.892821 25.259340 57.050933 0
M  V30 37 O 37.426318 29.159946 57.934458 0
M  V30 38 S 41.845198 32.719379 65.076109 0
M  V30 39 H 36.860859 34.683893 59.777973 0
M  V30 40 H 36.022019 34.474795 58.253688 0
M  V30 41 H 38.367169 31.493158 62.602430 0
M  V30 42 H 39.691411 30.955284 61.606085 0
M  V30 43 H 40.328890 30.093680 53.775013 0
M  V30 44 H 38.827746 30.406668 52.950992 0
M  V30 45 H 40.628155 28.282889 58.108509 0
M  V30 46 H 39.715739 29.294944 59.214787 0
M  V30 47 H 39.293268 27.625322 59.031753 0
M  V30 48 H 37.691495 26.676376 58.030804 0
M  V30 49 H 39.509737 26.558525 51.634014 0
M  V30 50 H 38.096264 26.819373 50.653502 0
M  V30 51 H 38.584874 34.764705 56.016163 0
M  V30 52 H 37.067401 33.805096 56.253221 0
M  V30 53 H 37.232962 28.506836 52.346351 0
M  V30 54 H 39.929086 32.804361 56.302932 0
M  V30 55 H 36.140204 33.003260 61.770796 0
M  V30 56 H 34.859110 31.860665 61.436241 0
M  V30 57 H 39.729012 25.713302 55.040699 0
M  V30 58 H 40.410162 24.421451 55.883945 0
M  V30 59 H 38.807960 24.222442 55.124832 0
M  V30 60 H 39.585997 27.497892 56.121529 0
M  V30 61 H 37.395360 31.252805 56.891763 0
M  V30 62 H 39.867530 31.215144 64.720526 0
M  V30 63 H 41.230766 30.709248 63.697698 0
M  V30 64 H 36.205627 30.802719 59.813448 0
M  V30 65 H 38.404759 31.226995 59.407061 0
M  V30 66 H 34.511146 34.016112 60.185826 0
M  V30 67 H 34.658136 32.654035 59.106579 0
M  V30 68 H 37.447546 23.621421 57.132555 0
M  V30 69 H 39.001384 23.229286 57.853315 0
M  V30 70 H 37.866644 24.280802 58.702641 0
M  V30 71 H 37.125880 31.938948 54.917422 0
M  V30 72 H 37.186003 28.831013 54.878084 0
M  V30 73 H 39.868851 30.650030 57.457758 0
M  V30 74 H 39.959035 29.988474 55.895367 0
M  V30 75 H 40.070632 28.222994 49.880999 0
M  V30 76 H 38.667617 29.159876 50.290353 0
M  V30 77 H 41.203150 28.841194 51.853494 0
M  V30 78 H 40.550365 30.326552 51.244858 0
M  V30 79 H 39.627894 33.110934 60.366740 0
M  V30 80 H 38.235466 33.623172 61.296280 0
M  V30 81 H 36.064714 26.699955 56.511581 0
M  V30 82 H 39.811903 27.661244 53.769715 0
M  V30 83 H 39.266507 34.021323 58.460640 0
M  V30 84 H 39.735351 25.575555 57.667828 0
M  V30 85 H 36.801450 29.421939 57.271086 0
M  V30 86 H 36.856108 32.337765 58.071068 0
M  V30 END ATOM
M  V30 BEGIN BOND
M  V30 1 1 6 4
M  V30 2 1 8 2
M  V30 3 1 12 10
M  V30 4 1 13 1
M  V30 5 2 13 7
M  V30 6 1 14 11
M  V30 7 1 17 4
M  V30 8 1 17 9
M  V30 9 1 18 14
M  V30 10 1 20 15
M  V30 11 1 21 3
M  V30 12 1 21 13
M  V30 13 1 21 19
M  V30 14 1 22 7
M  V30 15 1 23 12
M  V30 16 1 24 8
M  V30 17 1 24 20
M  V30 18 1 25 2
M  V30 19 1 25 15
M  V30 20 1 27 18
M  V30 21 1 28 17
M  V30 22 1 28 23
M  V30 23 1 29 4
M  V30 24 1 29 18
M  V30 25 1 30 10
M  V30 26 1 31 5
M  V30 27 1 31 30
M  V30 28 1 32 3
M  V30 29 1 32 24
M  V30 30 1 33 9
M  V30 31 1 34 5
M  V30 32 1 34 12
M  V30 33 1 34 28
M  V30 34 1 35 8
M  V30 35 1 35 11
M  V30 36 1 35 14
M  V30 37 1 36 9
M  V30 38 1 36 16
M  V30 39 1 36 26
M  V30 40 1 4 37 CFG=1
M  V30 41 1 38 7
M  V30 42 1 38 19
M  V30 43 1 39 2
M  V30 44 1 40 2
M  V30 45 1 41 3
M  V30 46 1 42 3
M  V30 47 1 43 5
M  V30 48 1 44 5
M  V30 49 1 45 6
M  V30 50 1 46 6
M  V30 51 1 47 6
M  V30 52 1 9 48 CFG=1
M  V30 53 1 49 10
M  V30 54 1 50 10
M  V30 55 1 51 11
M  V30 56 1 52 11
M  V30 57 1 12 53 CFG=3
M  V30 58 1 14 54 CFG=3
M  V30 59 1 55 15
M  V30 60 1 56 15
M  V30 61 1 57 16
M  V30 62 1 58 16
M  V30 63 1 59 16
M  V30 64 1 17 60 CFG=3
M  V30 65 1 18 61 CFG=1
M  V30 66 1 62 19
M  V30 67 1 63 19
M  V30 68 1 64 20
M  V30 69 1 24 65 CFG=3
M  V30 70 1 66 25
M  V30 71 1 67 25
M  V30 72 1 68 26
M  V30 73 1 69 26
M  V30 74 1 70 26
M  V30 75 1 71 27
M  V30 76 1 28 72 CFG=1
M  V30 77 1 73 29
M  V30 78 1 74 29
M  V30 79 1 75 30
M  V30 80 1 76 30
M  V30 81 1 77 31
M  V30 82 1 78 31
M  V30 83 1 79 32
M  V30 84 1 80 32
M  V30 85 1 81 33
M  V30 86 1 34 82 CFG=1
M  V30 87 1 35 83 CFG=1
M  V30 88 1 84 36
M  V30 89 1 85 37
M  V30 90 1 8 86 CFG=3
M  V30 END BOND
M  V30 END CTAB
M  END
>  <i_epik_Tot_Q>  (1) 
1

>  <i_epik_Tot_abs_Q>  (1) 
1

>  <i_i_glide_confnum>  (1) 
1271

>  <i_i_glide_lignum>  (1) 
78

>  <i_i_glide_posenum>  (1) 
121

>  <i_i_glide_rotatable_bonds>  (1) 
14

>  <i_lp_mmshare_version>  (1) 
72125

>  <i_m_source_file_index>  (1) 
30

>  <i_f3d_flags>  (1) 
0

>  <num_sample>  (1) 
100

>  <b_lp_Chiralities_Consistent>  (1) 
1

>  <r_epik_Charging_Adjusted_Penalty>  (1) 
1.7477768688038313

>  <r_epik_Ionization_Penalty>  (1) 
0.56833185219894722

>  <r_epik_Ionization_Penalty_Charging>  (1) 
0.56833130032608237

>  <r_epik_Ionization_Penalty_Neutral>  (1) 
5.5187286482775955e-07

>  <r_epik_State_Penalty>  (1) 
1.179445568477749

>  <r_glide_ring_energy>  (1) 
2.3029442833191154

>  <r_i_docking_score>  (1) 
-7.6931186158106266

>  <r_i_glide_ecoul>  (1) 
-5.4143594107513486

>  <r_i_glide_eff_state_penalty>  (1) 
1.179445568477749

>  <r_i_glide_einternal>  (1) 
16.61774904090851

>  <r_i_glide_emodel>  (1) 
-59.361396544029176

>  <r_i_glide_emodel_strain>  (1) 
1.3863494768458224

>  <r_i_glide_energy>  (1) 
-48.703058608644767

>  <r_i_glide_erotb>  (1) 
0.46833353265868582

>  <r_i_glide_esite>  (1) 
-0.11268048071471447

>  <r_i_glide_evdw>  (1) 
-43.288699197893422

>  <r_i_glide_gscore>  (1) 
-8.8725641842883753

>  <r_i_glide_gscore_strain>  (1) 
0

>  <r_i_glide_hbond>  (1) 
-0.21584707727688374

>  <r_i_glide_ligand_efficiency>  (1) 
-0.20245048988975334

>  <r_i_glide_ligand_efficiency_ln>  (1) 
-1.6588626821899337

>  <r_i_glide_ligand_efficiency_sa>  (1) 
-0.68063356810375297

>  <r_i_glide_lipo>  (1) 
-4.7453044070325348

>  <r_i_glide_metal>  (1) 
-0

>  <r_i_glide_rewards>  (1) 
-1.2904768804155555

>  <r_lp_Energy>  (1) 
47.259627999999999

>  <s_epik_Chemistry_Notes>  (1) 
This compound has an imine and may undergo hydrolysis. This compound contains an acetal/aminal-like group ( X-CH(R)-Y where X, Y are N, S, or O) that may be acid/base labile, releasing an aldehyde.

>  <s_epik_cmdline>  (1) 
J2VwaWtfcHl0aG9uJywgJy1waHQnLCAnMS4wJywgJy1waCcsICc3LjQnLCAnLXRuJywgJzgnLCAnLW1hJywgJzUwMCcsICctaW1hZScsICc8aW5maWxlLm1hZT4nLCAnLW9tYWUnLCAnPG91dGZpbGUubWFlPic=

>  <s_epik_input>  (1) 
RkMxPUMoRilOKFtDSDJdUzEpW0NIMl1bQ0gyXVtDQEhdMltOSF1bQ0gyXVtDSDJdW0NIMl1OMltDQEBIXTNbQ0gyXVtDQEBIXTNbQ0BASF0oW09IXSlbQ0gyXVtDQEBdKFtDSDNdKShbT0hdKVtDQEBIXShbQ0BASF0oW09IXSlbQ0hdKFtDSDNdKVtDSDNdKVtDQEhdKFM0KVtDQEBIXShbQ0BASF00NSlbQ0gyXVtDSDJdW0NIMl1bQ0gyXTU=

>  <s_glide_docking_method>  (1) 
confgen

>  <s_i_glide_gridfile>  (1) 
gpcr_5ht2c_6bqh_protein_autoprepared_prepared

>  <s_lp_Force_Field>  (1) 
S-OPLS

>  <s_lp_Variant>  (1) 
DiffSBDD_29_num_sample_100-8

>  <s_m_source_file>  (1) 
generated__ligand_DiffSBDD_2026-05-06_prepared.sdf

>  <GenAI_Model>  (1) 
DiffSBDD

>  <Protein>  (1) 
GPCR_5HT2C

$$$$
DiffSBDD_19_num_sample_100
     RDKit          3D

  0  0  0  0  0  0  0  0  0  0999 V3000
M  V30 BEGIN CTAB
M  V30 COUNTS 71 72 0 0 1
M  V30 BEGIN ATOM
M  V30 1 C 37.067288 31.241758 58.954133 0
M  V30 2 C 38.426379 28.324205 55.580662 0
M  V30 3 C 38.618630 33.104966 59.988201 0
M  V30 4 C 41.006537 34.466687 61.469124 0
M  V30 5 O 39.953039 29.221293 57.168606 0
M  V30 6 C 40.459566 28.919294 61.727274 0
M  V30 7 C 39.534657 34.688256 61.850504 0 CFG=1
M  V30 8 C 39.016226 28.081213 51.407438 0
M  V30 9 C 38.215528 28.675346 52.507973 0
M  V30 10 C 37.746941 35.450319 60.234878 0
M  V30 11 C 39.910561 28.670714 50.636565 0
M  V30 12 C 39.404971 36.067314 62.569399 0
M  V30 13 C 38.448917 37.044006 61.916400 0
M  V30 14 O 37.496388 32.021460 62.253497 0
M  V30 15 O 35.467395 31.777997 61.397151 0 CHG=-1
M  V30 16 O 38.667415 26.821442 51.217094 0
M  V30 17 C 37.696941 36.744187 60.855479 0
M  V30 18 N 38.083635 30.143573 58.883838 0 CFG=1 CHG=1
M  V30 19 C 38.754058 28.484069 57.076058 0 CFG=1
M  V30 20 C 40.377681 30.029489 50.736995 0
M  V30 21 C 38.190638 29.670408 54.844586 0 CFG=1
M  V30 22 C 40.267252 30.873811 51.787564 0
M  V30 23 C 38.508109 29.486188 60.154940 0
M  V30 24 C 37.227559 32.416919 59.938974 0 CFG=2
M  V30 25 C 36.683067 32.047894 61.315160 0
M  V30 26 C 37.617969 29.162338 57.864575 0
M  V30 27 C 38.576999 34.479412 60.660863 0
M  V30 28 C 39.644795 30.657945 53.095464 0
M  V30 29 C 40.213965 29.893175 62.887657 0
M  V30 30 C 38.767626 29.703869 53.443706 0
M  V30 31 C 40.035457 29.477729 60.360376 0
M  V30 32 O 36.822697 30.021275 54.779628 0
M  V30 33 H 37.067789 31.708872 57.971330 0
M  V30 34 H 36.073584 30.801059 59.069616 0
M  V30 35 H 37.565657 27.665514 55.449126 0
M  V30 36 H 39.261440 27.798540 55.114901 0
M  V30 37 H 39.326349 32.453716 60.497500 0
M  V30 38 H 39.003586 33.239847 58.977730 0
M  V30 39 H 41.176631 33.475399 61.054155 0
M  V30 40 H 41.332639 35.221084 60.748842 0
M  V30 41 H 41.646116 34.546682 62.348939 0
M  V30 42 H 40.636721 28.740019 56.723649 0
M  V30 43 H 39.946224 27.978589 61.925940 0
M  V30 44 H 41.521836 28.677254 61.696473 0
M  V30 45 H 39.270949 33.922679 62.580968 0
M  V30 46 H 37.334135 29.103700 52.042774 0
M  V30 47 H 37.822651 27.850780 53.103834 0
M  V30 48 H 37.099454 35.254817 59.392810 0
M  V30 49 H 40.329288 28.074402 49.853508 0
M  V30 50 H 40.375034 36.560351 62.653192 0
M  V30 51 H 39.066408 35.916428 63.593925 0
M  V30 52 H 38.386570 38.021373 62.349613 0
M  V30 53 H 39.132993 26.496291 50.459758 0
M  V30 54 H 37.034598 37.495398 60.450427 0
M  V30 55 H 38.951513 27.505075 57.514444 0
M  V30 56 H 40.920893 30.407699 49.881775 0
M  V30 57 H 38.660518 30.477487 55.406276 0
M  V30 58 H 40.721859 31.827221 51.656389 0
M  V30 59 H 38.058920 29.960363 61.011397 0
M  V30 60 H 38.161346 28.454528 60.185870 0
M  V30 61 H 36.509495 33.151997 59.575697 0
M  V30 62 H 36.969275 29.682184 57.167794 0
M  V30 63 H 36.947516 28.421041 58.291986 0
M  V30 64 H 39.905194 31.371582 53.863445 0
M  V30 65 H 40.629304 29.502184 63.817843 0
M  V30 66 H 40.671779 30.864505 62.700259 0
M  V30 67 H 39.149472 30.053475 63.053902 0
M  V30 68 H 40.503219 28.860754 59.593148 0
M  V30 69 H 40.445749 30.479287 60.253576 0
M  V30 70 H 36.634300 30.734186 55.380388 0
M  V30 71 H 38.920000 30.549743 58.485647 0
M  V30 END ATOM
M  V30 BEGIN BOND
M  V30 1 1 7 4
M  V30 2 1 9 8
M  V30 3 2 11 8
M  V30 4 1 12 7
M  V30 5 1 13 12
M  V30 6 1 16 8
M  V30 7 1 17 10
M  V30 8 2 17 13
M  V30 9 1 18 1
M  V30 10 1 19 2
M  V30 11 1 19 5
M  V30 12 1 20 11
M  V30 13 1 21 2
M  V30 14 2 22 20
M  V30 15 1 23 18
M  V30 16 1 24 1
M  V30 17 1 24 3
M  V30 18 2 25 14
M  V30 19 1 25 15
M  V30 20 1 25 24
M  V30 21 1 26 18
M  V30 22 1 26 19
M  V30 23 1 27 3
M  V30 24 1 27 7
M  V30 25 2 27 10
M  V30 26 1 28 22
M  V30 27 1 29 6
M  V30 28 1 30 9
M  V30 29 1 30 21
M  V30 30 2 30 28
M  V30 31 1 31 6
M  V30 32 1 31 23
M  V30 33 1 32 21
M  V30 34 1 33 1
M  V30 35 1 34 1
M  V30 36 1 35 2
M  V30 37 1 36 2
M  V30 38 1 37 3
M  V30 39 1 38 3
M  V30 40 1 39 4
M  V30 41 1 40 4
M  V30 42 1 41 4
M  V30 43 1 42 5
M  V30 44 1 43 6
M  V30 45 1 44 6
M  V30 46 1 7 45 CFG=1
M  V30 47 1 46 9
M  V30 48 1 47 9
M  V30 49 1 48 10
M  V30 50 1 49 11
M  V30 51 1 50 12
M  V30 52 1 51 12
M  V30 53 1 52 13
M  V30 54 1 53 16
M  V30 55 1 54 17
M  V30 56 1 19 55 CFG=1
M  V30 57 1 56 20
M  V30 58 1 21 57 CFG=1
M  V30 59 1 58 22
M  V30 60 1 59 23
M  V30 61 1 60 23
M  V30 62 1 24 61 CFG=3
M  V30 63 1 62 26
M  V30 64 1 63 26
M  V30 65 1 64 28
M  V30 66 1 65 29
M  V30 67 1 66 29
M  V30 68 1 67 29
M  V30 69 1 68 31
M  V30 70 1 69 31
M  V30 71 1 70 32
M  V30 72 1 18 71 CFG=3
M  V30 END BOND
M  V30 END CTAB
M  END
>  <i_epik_Tot_Q>  (1) 
0

>  <i_epik_Tot_abs_Q>  (1) 
2

>  <i_i_glide_confnum>  (1) 
544

>  <i_i_glide_lignum>  (1) 
50

>  <i_i_glide_posenum>  (1) 
232

>  <i_i_glide_rotatable_bonds>  (1) 
16

>  <i_lp_mmshare_version>  (1) 
72125

>  <i_m_source_file_index>  (1) 
20

>  <i_f3d_flags>  (1) 
0

>  <num_sample>  (1) 
100

>  <b_lp_Chiralities_Consistent>  (1) 
1

>  <r_epik_Charging_Adjusted_Penalty>  (1) 
0.015037487925518506

>  <r_epik_Ionization_Penalty>  (1) 
0.015045499532085388

>  <r_epik_Ionization_Penalty_Charging>  (1) 
0.0012943130925640431

>  <r_epik_Ionization_Penalty_Neutral>  (1) 
0.013751186439521345

>  <r_epik_State_Penalty>  (1) 
0.013743174832954463

>  <r_glide_ring_energy>  (1) 
0

>  <r_i_docking_score>  (1) 
-7.6908931624562342

>  <r_i_glide_ecoul>  (1) 
-7.4789101207005029

>  <r_i_glide_eff_state_penalty>  (1) 
0.013743174832954463

>  <r_i_glide_einternal>  (1) 
9.1933618418657268

>  <r_i_glide_emodel>  (1) 
-63.09146981150981

>  <r_i_glide_emodel_strain>  (1) 
3.5870417713200595

>  <r_i_glide_energy>  (1) 
-42.234897126875694

>  <r_i_glide_erotb>  (1) 
1.1084889849388277

>  <r_i_glide_esite>  (1) 
-0.072172742768389239

>  <r_i_glide_evdw>  (1) 
-34.755987006175189

>  <r_i_glide_gscore>  (1) 
-7.7046363372891884

>  <r_i_glide_gscore_strain>  (1) 
0

>  <r_i_glide_hbond>  (1) 
-0.52570416448888468

>  <r_i_glide_ligand_efficiency>  (1) 
-0.24034041132675732

>  <r_i_glide_ligand_efficiency_ln>  (1) 
-1.7222006249036228

>  <r_i_glide_ligand_efficiency_sa>  (1) 
-0.76303324354112878

>  <r_i_glide_lipo>  (1) 
-4.0847336601932698

>  <r_i_glide_metal>  (1) 
-0

>  <r_i_glide_rewards>  (1) 
-1.2708788863636373

>  <r_lp_Energy>  (1) 
27.634533999999999

>  <s_epik_cmdline>  (1) 
J2VwaWtfcHl0aG9uJywgJy1waHQnLCAnMS4wJywgJy1waCcsICc3LjQnLCAnLXRuJywgJzgnLCAnLW1hJywgJzUwMCcsICctaW1hZScsICc8aW5maWxlLm1hZT4nLCAnLW9tYWUnLCAnPG91dGZpbGUubWFlPic=

>  <s_epik_input>  (1) 
W0NIM11bQ0BIXTFbQ0gyXVtDSF09W0NIXVtDSF09QzFbQ0gyXVtDQEhdKEMoPU8pW09IXSlbQ0gyXU4oW0NIMl1bQ0gyXVtDSDJdW0NIM10pW0NIMl1bQ0BIXShbT0hdKVtDSDJdW0NASF0oW09IXSlDKFtDSDJdMik9W0NIXVtDSF09W0NIXVtDSF09QzJbT0hd

>  <s_glide_docking_method>  (1) 
confgen

>  <s_i_glide_gridfile>  (1) 
gpcr_5ht2c_6bqh_protein_autoprepared_prepared

>  <s_lp_Force_Field>  (1) 
S-OPLS

>  <s_lp_Variant>  (1) 
DiffSBDD_19_num_sample_100-2

>  <s_m_source_file>  (1) 
generated__ligand_DiffSBDD_2026-05-06_prepared.sdf

>  <GenAI_Model>  (1) 
DiffSBDD

>  <Protein>  (1) 
GPCR_5HT2C

$$$$
DiffSBDD_42_num_sample_100
     RDKit          3D

  0  0  0  0  0  0  0  0  0  0999 V3000
M  V30 BEGIN CTAB
M  V30 COUNTS 70 74 0 0 1
M  V30 BEGIN ATOM
M  V30 1 O 39.270948 31.067506 54.377086 0
M  V30 2 C 37.762427 27.785388 53.608338 0
M  V30 3 C 41.834917 33.295154 66.609356 0
M  V30 4 C 39.071668 30.114906 62.238505 0
M  V30 5 O 40.235738 34.924082 63.136138 0
M  V30 6 C 38.513656 29.075799 53.723519 0
M  V30 7 C 40.972169 32.880717 61.853098 0
M  V30 8 C 37.741204 34.554425 60.303637 0
M  V30 9 C 37.506663 30.220139 55.870293 0
M  V30 10 C 39.392281 30.647219 60.855552 0 CFG=2
M  V30 11 C 39.867377 30.625704 53.232957 0
M  V30 12 C 38.395521 30.058460 54.671283 0
M  V30 13 O 39.015219 31.969701 60.478647 0
M  V30 14 C 42.601881 33.621398 68.868254 0
M  V30 15 C 39.798773 33.122783 60.879276 0 CFG=1
M  V30 16 C 43.428364 33.298740 69.875632 0
M  V30 17 C 39.189729 29.970427 57.704225 0
M  V30 18 Cl 43.785025 31.071672 65.882946 0
M  V30 19 C 40.964030 33.627802 65.684332 0
M  V30 20 O 41.818453 32.021452 61.626070 0
M  V30 21 N 38.093889 30.789987 57.119021 0 CFG=1 CHG=1
M  V30 22 C 43.662149 31.901467 67.398934 0
M  V30 23 C 38.927666 34.314574 61.231231 0
M  V30 24 C 37.116150 35.951701 60.470105 0
M  V30 25 C 42.659193 32.956934 67.577240 0
M  V30 26 P 38.962687 29.486699 59.501814 0 CFG=2
M  V30 27 C 44.493752 32.223409 69.775011 0
M  V30 28 C 38.339722 36.340022 62.650085 0
M  V30 29 C 44.500339 31.566139 68.400929 0
M  V30 30 O 38.667403 28.058381 59.795513 0
M  V30 31 C 41.066360 33.760423 63.104528 0 CFG=2
M  V30 32 C 36.972468 36.332727 61.950170 0
M  V30 33 C 39.176436 35.125545 62.284021 0
M  V30 34 C 40.853986 32.891867 64.359922 0
M  V30 35 C 38.418611 32.233019 57.028256 0
M  V30 36 N 39.467392 29.434704 52.788315 0
M  V30 37 O 40.397955 29.983925 60.093730 0
M  V30 38 H 37.005773 27.681357 54.383260 0
M  V30 39 H 38.434559 26.931475 53.692458 0
M  V30 40 H 37.257234 27.711624 52.645148 0
M  V30 41 H 39.794612 30.477237 62.966722 0
M  V30 42 H 39.105399 29.025508 62.253268 0
M  V30 43 H 38.078599 30.438755 62.544973 0
M  V30 44 H 36.992054 33.789082 60.510505 0
M  V30 45 H 38.048572 34.421435 59.267660 0
M  V30 46 H 36.667403 30.821400 55.542465 0
M  V30 47 H 37.082566 29.253043 56.132777 0
M  V30 48 H 40.622817 31.221404 52.742591 0
M  V30 49 H 41.867315 34.400660 69.025091 0
M  V30 50 H 40.267416 33.422876 59.945908 0
M  V30 51 H 43.351013 33.819072 70.819355 0
M  V30 52 H 40.159350 30.421413 57.516764 0
M  V30 53 H 39.235682 29.016305 57.177536 0
M  V30 54 H 40.276321 34.447302 65.840879 0
M  V30 55 H 37.745802 36.690552 59.972437 0
M  V30 56 H 36.149721 35.989405 59.966517 0
M  V30 57 H 45.467356 32.670197 69.969922 0
M  V30 58 H 44.316604 31.464173 70.536410 0
M  V30 59 H 38.219255 36.411595 63.731694 0
M  V30 60 H 38.902132 37.223449 62.346042 0
M  V30 61 H 45.231821 30.786616 68.243939 0
M  V30 62 H 42.090613 34.132349 63.133721 0
M  V30 63 H 36.306477 35.622558 62.442830 0
M  V30 64 H 36.504389 37.312810 62.045397 0
M  V30 65 H 41.558286 32.058140 64.348967 0
M  V30 66 H 39.867271 32.439828 64.326949 0
M  V30 67 H 39.294978 32.422561 56.409796 0
M  V30 68 H 38.632389 32.627872 58.018421 0
M  V30 69 H 37.579104 32.799754 56.620838 0
M  V30 70 H 37.313063 30.757211 57.763274 0
M  V30 END ATOM
M  V30 BEGIN BOND
M  V30 1 1 6 2
M  V30 2 1 10 4
M  V30 3 1 11 1
M  V30 4 1 12 1
M  V30 5 2 12 6
M  V30 6 1 12 9
M  V30 7 1 10 13 CFG=3
M  V30 8 1 15 7
M  V30 9 1 15 13
M  V30 10 2 16 14
M  V30 11 2 19 3
M  V30 12 2 20 7
M  V30 13 1 21 9
M  V30 14 1 21 17
M  V30 15 1 22 18
M  V30 16 1 23 8
M  V30 17 1 23 15
M  V30 18 1 24 8
M  V30 19 2 25 3
M  V30 20 1 25 14
M  V30 21 1 25 22
M  V30 22 1 26 10
M  V30 23 1 26 17 CFG=1
M  V30 24 1 27 16
M  V30 25 2 29 22
M  V30 26 1 29 27
M  V30 27 2 30 26
M  V30 28 1 31 5
M  V30 29 1 31 7
M  V30 30 1 32 24
M  V30 31 1 32 28
M  V30 32 1 33 5
M  V30 33 2 33 23
M  V30 34 1 33 28
M  V30 35 1 34 19
M  V30 36 1 34 31
M  V30 37 1 35 21
M  V30 38 1 36 6
M  V30 39 2 36 11
M  V30 40 1 37 10
M  V30 41 1 37 26
M  V30 42 1 38 2
M  V30 43 1 39 2
M  V30 44 1 40 2
M  V30 45 1 41 4
M  V30 46 1 42 4
M  V30 47 1 43 4
M  V30 48 1 44 8
M  V30 49 1 45 8
M  V30 50 1 46 9
M  V30 51 1 47 9
M  V30 52 1 48 11
M  V30 53 1 49 14
M  V30 54 1 15 50 CFG=3
M  V30 55 1 51 16
M  V30 56 1 52 17
M  V30 57 1 53 17
M  V30 58 1 54 19
M  V30 59 1 55 24
M  V30 60 1 56 24
M  V30 61 1 57 27
M  V30 62 1 58 27
M  V30 63 1 59 28
M  V30 64 1 60 28
M  V30 65 1 61 29
M  V30 66 1 31 62 CFG=1
M  V30 67 1 63 32
M  V30 68 1 64 32
M  V30 69 1 65 34
M  V30 70 1 66 34
M  V30 71 1 67 35
M  V30 72 1 68 35
M  V30 73 1 69 35
M  V30 74 1 21 70 CFG=1
M  V30 END BOND
M  V30 END CTAB
M  END
>  <i_epik_Tot_Q>  (1) 
1

>  <i_epik_Tot_abs_Q>  (1) 
1

>  <i_i_glide_confnum>  (1) 
642

>  <i_i_glide_lignum>  (1) 
105

>  <i_i_glide_posenum>  (1) 
316

>  <i_i_glide_rotatable_bonds>  (1) 
8

>  <i_lp_mmshare_version>  (1) 
72125

>  <i_m_source_file_index>  (1) 
43

>  <i_f3d_flags>  (1) 
0

>  <num_sample>  (1) 
100

>  <b_lp_Chiralities_Consistent>  (1) 
1

>  <r_epik_Charging_Adjusted_Penalty>  (1) 
0.2152556309207356

>  <r_epik_Ionization_Penalty>  (1) 
0.1076280395274669

>  <r_epik_Ionization_Penalty_Charging>  (1) 
0.10762781546036781

>  <r_epik_Ionization_Penalty_Neutral>  (1) 
2.2406709908736756e-07

>  <r_epik_State_Penalty>  (1) 
0.10762781546036779

>  <r_glide_ring_energy>  (1) 
0

>  <r_i_docking_score>  (1) 
-7.6898300809818361

>  <r_i_glide_ecoul>  (1) 
-4.8037759600266314

>  <r_i_glide_eff_state_penalty>  (1) 
0.10762781546036779

>  <r_i_glide_einternal>  (1) 
17.260446461094421

>  <r_i_glide_emodel>  (1) 
-62.823369736440796

>  <r_i_glide_emodel_strain>  (1) 
1.4399587052684382

>  <r_i_glide_energy>  (1) 
-46.378137636633703

>  <r_i_glide_erotb>  (1) 
0.55194975081301367

>  <r_i_glide_esite>  (1) 
-0.094699176112885891

>  <r_i_glide_evdw>  (1) 
-41.574361676607069

>  <r_i_glide_gscore>  (1) 
-7.7974578964422037

>  <r_i_glide_gscore_strain>  (1) 
0

>  <r_i_glide_hbond>  (1) 
-0.048655602236124543

>  <r_i_glide_ligand_efficiency>  (1) 
-0.20783324543194151

>  <r_i_glide_ligand_efficiency_ln>  (1) 
-1.6677438693702418

>  <r_i_glide_ligand_efficiency_sa>  (1) 
-0.69254648192681212

>  <r_i_glide_lipo>  (1) 
-4.2123901525039766

>  <r_i_glide_metal>  (1) 
-0

>  <r_i_glide_rewards>  (1) 
-1.1943782385678829

>  <r_lp_Energy>  (1) 
6.0054069999999999

>  <r_lp_tautomer_probability>  (1) 
0.99995000000000001

>  <s_epik_cmdline>  (1) 
J2VwaWtfcHl0aG9uJywgJy1waHQnLCAnMS4wJywgJy1waCcsICc3LjQnLCAnLXRuJywgJzgnLCAnLW1hJywgJzUwMCcsICctaW1hZScsICc8aW5maWxlLm1hZT4nLCAnLW9tYWUnLCAnPG91dGZpbGUubWFlPic=

>  <s_epik_input>  (1) 
bjFbY0hdb2MoYzFbQ0gzXSlbQ0gyXU4oW0NIM10pW0NIMl1bUEBAXSg9TykoTzIpW0NAXTIoW0NIM10pT1tDQEBIXTNDKD1PKVtDQEBIXShPQyg9QzM0KVtDSDJdW0NIMl1bQ0gyXVtDSDJdNClbQ0gyXVtDSF09Qz1DNVtDSF09W0NIXVtDSDJdW0NIXT1DNUNs

>  <s_glide_docking_method>  (1) 
confgen

>  <s_i_glide_gridfile>  (1) 
gpcr_5ht2c_6bqh_protein_autoprepared_prepared

>  <s_lp_Force_Field>  (1) 
S-OPLS

>  <s_lp_Variant>  (1) 
DiffSBDD_42_num_sample_100-2

>  <s_m_source_file>  (1) 
generated__ligand_DiffSBDD_2026-05-06_prepared.sdf

>  <GenAI_Model>  (1) 
DiffSBDD

>  <Protein>  (1) 
GPCR_5HT2C

$$$$
DiffSBDD_80_num_sample_100
     RDKit          3D

  0  0  0  0  0  0  0  0  0  0999 V3000
M  V30 BEGIN CTAB
M  V30 COUNTS 73 76 0 0 1
M  V30 BEGIN ATOM
M  V30 1 C 40.736418 28.006845 58.931711 0
M  V30 2 C 40.794115 30.478573 61.669311 0
M  V30 3 N 40.745371 31.638443 62.594569 0 CFG=2 CHG=1
M  V30 4 O 39.592418 29.082763 56.509173 0
M  V30 5 O 38.587251 31.641280 60.218526 0
M  V30 6 O 40.110576 26.776133 58.653503 0
M  V30 7 C 41.444039 34.040873 64.113536 0 CFG=2
M  V30 8 C 40.535997 34.076882 62.871458 0 CFG=1
M  V30 9 C 39.868164 29.835886 51.822551 0
M  V30 10 C 37.691088 30.363876 56.007814 0
M  V30 11 O 38.173327 27.424041 54.789117 0
M  V30 12 C 38.724459 28.217753 53.824638 0
M  V30 13 O 37.768888 36.977744 60.905255 0
M  V30 14 C 39.763190 30.323714 53.137217 0
M  V30 15 C 39.343499 36.344972 62.602873 0
M  V30 16 C 38.829750 27.740699 52.511496 0
M  V30 17 O 36.642248 30.021510 58.167188 0
M  V30 18 C 41.327520 32.663566 64.791947 0
M  V30 19 O 39.513284 28.069744 50.253750 0
M  V30 20 C 40.503795 35.449349 62.207396 0
M  V30 21 C 39.404000 28.543771 51.514241 0
M  V30 22 C 38.793966 29.087833 57.686402 0 CFG=1
M  V30 23 C 39.439218 29.793293 61.559119 0 CFG=2
M  V30 24 C 39.693051 29.128180 58.940469 0 CFG=1
M  V30 25 C 40.966895 32.945709 61.925330 0
M  V30 26 C 37.857557 30.274802 57.505570 0 CFG=1
M  V30 27 C 38.163526 36.096243 61.665896 0
M  V30 28 C 38.917003 29.168145 60.261598 0 CFG=2
M  V30 29 C 41.435307 35.844583 61.324963 0
M  V30 30 C 42.143565 35.608104 65.740740 0
M  V30 31 C 38.269321 30.420542 60.834441 0 CFG=2
M  V30 32 C 39.108262 30.034689 55.564651 0 CFG=2
M  V30 33 C 39.197454 29.515375 54.144629 0
M  V30 34 C 41.601243 31.511043 63.803033 0
M  V30 35 O 41.054115 35.051477 65.026756 0
M  V30 36 H 41.496967 28.206466 58.174698 0
M  V30 37 H 41.253985 27.952012 59.888464 0
M  V30 38 H 41.504039 29.731717 62.024219 0
M  V30 39 H 41.131393 30.800853 60.685768 0
M  V30 40 H 37.917300 31.814841 59.570490 0
M  V30 41 H 39.923865 26.747465 57.726474 0
M  V30 42 H 42.470609 34.206273 63.785829 0
M  V30 43 H 39.510657 33.860075 63.173344 0
M  V30 44 H 40.309840 30.450972 51.049752 0
M  V30 45 H 39.221249 27.174288 50.159621 0
M  V30 46 H 37.359387 31.341032 55.655497 0
M  V30 47 H 36.979139 29.621443 55.651090 0
M  V30 48 H 38.251820 27.819914 55.644589 0
M  V30 49 H 40.122387 31.312711 53.374822 0
M  V30 50 H 39.050604 36.160563 63.637052 0
M  V30 51 H 39.641173 37.390990 62.530385 0
M  V30 52 H 38.472710 26.753138 52.269790 0
M  V30 53 H 36.002790 30.641225 57.796478 0
M  V30 54 H 40.326753 32.550891 65.213449 0
M  V30 55 H 42.014770 32.600670 65.635288 0
M  V30 56 H 38.200385 28.173168 57.665611 0
M  V30 57 H 39.179505 29.254513 62.467697 0
M  V30 58 H 40.271575 30.021442 58.867721 0
M  V30 59 H 42.016691 33.035292 61.641798 0
M  V30 60 H 40.402878 33.026342 61.001011 0
M  V30 61 H 38.317967 31.205060 57.829649 0
M  V30 62 H 37.713673 35.104570 61.727555 0
M  V30 63 H 38.360174 28.245122 60.401793 0
M  V30 64 H 41.388145 36.821670 60.870079 0
M  V30 65 H 42.252226 35.202910 61.046810 0
M  V30 66 H 41.796320 36.419453 66.379452 0
M  V30 67 H 42.635116 34.859471 66.364652 0
M  V30 68 H 42.873241 36.022949 65.045619 0
M  V30 69 H 37.282589 30.422464 61.290131 0
M  V30 70 H 39.726127 30.929668 55.666681 0
M  V30 71 H 41.404306 30.560216 64.297920 0
M  V30 72 H 42.653994 31.505103 63.514261 0
M  V30 73 H 39.790827 31.657823 62.923490 0
M  V30 END ATOM
M  V30 BEGIN BOND
M  V30 1 1 3 2
M  V30 2 1 6 1
M  V30 3 1 8 7
M  V30 4 1 12 11
M  V30 5 2 14 9
M  V30 6 1 16 12
M  V30 7 1 18 7
M  V30 8 1 20 8
M  V30 9 1 20 15
M  V30 10 1 21 9
M  V30 11 2 21 16
M  V30 12 1 21 19
M  V30 13 1 22 4
M  V30 14 1 23 2
M  V30 15 1 24 1
M  V30 16 1 24 22
M  V30 17 1 25 3
M  V30 18 1 25 8
M  V30 19 1 26 10
M  V30 20 1 26 17
M  V30 21 1 26 22
M  V30 22 2 27 13
M  V30 23 1 27 15
M  V30 24 1 28 23
M  V30 25 1 28 24
M  V30 26 2 29 20
M  V30 27 1 31 5
M  V30 28 1 31 23
M  V30 29 1 31 28
M  V30 30 1 32 4
M  V30 31 1 32 10
M  V30 32 2 33 12
M  V30 33 1 33 14
M  V30 34 1 33 32
M  V30 35 1 34 3
M  V30 36 1 34 18
M  V30 37 1 35 7
M  V30 38 1 35 30
M  V30 39 1 36 1
M  V30 40 1 37 1
M  V30 41 1 38 2
M  V30 42 1 39 2
M  V30 43 1 40 5
M  V30 44 1 41 6
M  V30 45 1 7 42 CFG=3
M  V30 46 1 8 43 CFG=1
M  V30 47 1 44 9
M  V30 48 1 45 19
M  V30 49 1 46 10
M  V30 50 1 47 10
M  V30 51 1 48 11
M  V30 52 1 49 14
M  V30 53 1 50 15
M  V30 54 1 51 15
M  V30 55 1 52 16
M  V30 56 1 53 17
M  V30 57 1 54 18
M  V30 58 1 55 18
M  V30 59 1 22 56 CFG=1
M  V30 60 1 23 57 CFG=1
M  V30 61 1 24 58 CFG=3
M  V30 62 1 59 25
M  V30 63 1 60 25
M  V30 64 1 26 61 CFG=1
M  V30 65 1 62 27
M  V30 66 1 28 63 CFG=1
M  V30 67 1 64 29
M  V30 68 1 65 29
M  V30 69 1 66 30
M  V30 70 1 67 30
M  V30 71 1 68 30
M  V30 72 1 31 69 CFG=1
M  V30 73 1 32 70 CFG=3
M  V30 74 1 71 34
M  V30 75 1 72 34
M  V30 76 1 3 73 CFG=1
M  V30 END BOND
M  V30 END CTAB
M  END
>  <i_epik_Tot_Q>  (1) 
1

>  <i_epik_Tot_abs_Q>  (1) 
1

>  <i_i_glide_confnum>  (1) 
139

>  <i_i_glide_lignum>  (1) 
207

>  <i_i_glide_posenum>  (1) 
261

>  <i_i_glide_rotatable_bonds>  (1) 
15

>  <i_lp_mmshare_version>  (1) 
72125

>  <i_m_source_file_index>  (1) 
81

>  <i_f3d_flags>  (1) 
0

>  <num_sample>  (1) 
100

>  <b_lp_Chiralities_Consistent>  (1) 
1

>  <r_epik_Charging_Adjusted_Penalty>  (1) 
0.034071705691259377

>  <r_epik_Ionization_Penalty>  (1) 
0.043305258844254187

>  <r_epik_Ionization_Penalty_Charging>  (1) 
0.034071705691259377

>  <r_epik_Ionization_Penalty_Neutral>  (1) 
0.009233553152994808

>  <r_epik_State_Penalty>  (1) 
-0

>  <r_glide_ring_energy>  (1) 
0

>  <r_i_docking_score>  (1) 
-7.6887208307013024

>  <r_i_glide_ecoul>  (1) 
-5.8967829458651693

>  <r_i_glide_eff_state_penalty>  (1) 
-0

>  <r_i_glide_einternal>  (1) 
6.7751338558256222

>  <r_i_glide_emodel>  (1) 
-75.8028888971253

>  <r_i_glide_emodel_strain>  (1) 
1.7390652253293553

>  <r_i_glide_energy>  (1) 
-49.646024802973407

>  <r_i_glide_erotb>  (1) 
0.67144220787932085

>  <r_i_glide_esite>  (1) 
0

>  <r_i_glide_evdw>  (1) 
-43.749241857108238

>  <r_i_glide_gscore>  (1) 
-7.6887208307013024

>  <r_i_glide_gscore_strain>  (1) 
0

>  <r_i_glide_hbond>  (1) 
-0.16

>  <r_i_glide_ligand_efficiency>  (1) 
-0.21967773802003721

>  <r_i_glide_ligand_efficiency_ln>  (1) 
-1.6878448643038275

>  <r_i_glide_ligand_efficiency_sa>  (1) 
-0.71858044793577891

>  <r_i_glide_lipo>  (1) 
-4.3794215352854424

>  <r_i_glide_metal>  (1) 
-0

>  <r_i_glide_rewards>  (1) 
-0.74876196855999277

>  <r_lp_Energy>  (1) 
41.479424999999999

>  <r_lp_tautomer_probability>  (1) 
1

>  <s_epik_cmdline>  (1) 
J2VwaWtfcHl0aG9uJywgJy1waHQnLCAnMS4wJywgJy1waCcsICc3LjQnLCAnLXRuJywgJzgnLCAnLW1hJywgJzUwMCcsICctaW1hZScsICc8aW5maWxlLm1hZT4nLCAnLW9tYWUnLCAnPG91dGZpbGUubWFlPic=

>  <s_epik_input>  (1) 
Tz1bQ0hdW0NIMl1DKD1bQ0gyXSlbQ0BASF0oW0NASF0oW0NIMl1bQ0gyXTEpT1tDSDNdKVtDSDJdTjFbQ0gyXVtDQEBIXTJbQ0BASF0oW0NAQEhdMltPSF0pW0NAQEhdKFtDSDJdW09IXSlbQ0BASF0zT1tDQEhdKFtDSDJdW0NASF0zW09IXSlDND1bQ0hdW0NIMl1DKD1PKVtDSF09QzRbT0hd

>  <s_glide_docking_method>  (1) 
confgen

>  <s_i_glide_gridfile>  (1) 
gpcr_5ht2c_6bqh_protein_autoprepared_prepared

>  <s_lp_Force_Field>  (1) 
S-OPLS

>  <s_lp_Variant>  (1) 
DiffSBDD_80_num_sample_100-3

>  <s_m_source_file>  (1) 
generated__ligand_DiffSBDD_2026-05-06_prepared.sdf

>  <GenAI_Model>  (1) 
DiffSBDD

>  <Protein>  (1) 
GPCR_5HT2C

$$$$
DiffSBDD_1_num_sample_100
     RDKit          3D

  0  0  0  0  0  0  0  0  0  0999 V3000
M  V30 BEGIN CTAB
M  V30 COUNTS 63 66 0 0 1
M  V30 BEGIN ATOM
M  V30 1 C 38.868621 26.730635 56.951865 0
M  V30 2 C 39.326528 34.742276 61.962018 0
M  V30 3 O 38.104269 24.765718 57.705933 0
M  V30 4 C 37.364365 33.211964 61.268955 0 CFG=1
M  V30 5 C 38.965486 28.204114 56.920512 0
M  V30 6 C 38.014309 30.906512 60.650359 0
M  V30 7 C 37.269795 36.813946 63.406365 0
M  V30 8 C 41.066519 36.292404 62.054419 0
M  V30 9 N 39.786133 37.004906 61.853578 0 CHG=1
M  V30 10 C 37.995231 32.816810 57.456196 0
M  V30 11 C 38.069555 29.000145 57.884069 0
M  V30 12 C 37.335088 36.518519 61.893359 0 CFG=2
M  V30 13 C 38.737246 36.041409 61.423003 0 CFG=2
M  V30 14 C 37.676170 31.186960 59.186343 0 CFG=2
M  V30 15 C 38.295115 31.419610 56.871430 0
M  V30 16 C 38.105049 26.099997 57.784207 0
M  V30 17 N 37.131102 31.764036 61.475393 0
M  V30 18 C 38.735925 33.524918 61.882643 0
M  V30 19 O 39.723739 28.804934 56.158983 0
M  V30 20 C 36.884479 37.737624 61.064805 0
M  V30 21 C 39.080605 24.557373 56.618418 0
M  V30 22 C 37.148068 33.553532 59.757847 0
M  V30 23 C 40.676365 34.923212 62.589723 0
M  V30 24 N 37.927771 32.617213 58.916430 0 CFG=2 CHG=1
M  V30 25 O 36.267404 31.003596 59.053502 0
M  V30 26 C 39.655801 25.931397 56.018457 0
M  V30 27 C 38.459524 30.473957 58.084947 0 CFG=2
M  V30 28 O 35.945759 37.037773 63.850411 0
M  V30 29 H 36.612884 33.731257 61.857246 0
M  V30 30 H 39.068886 31.095053 60.847093 0
M  V30 31 H 37.867318 29.854364 60.869906 0
M  V30 32 H 37.875045 37.668650 63.662508 0
M  V30 33 H 37.731689 36.021473 63.975716 0
M  V30 34 H 41.741276 36.821323 62.726658 0
M  V30 35 H 41.555044 36.186801 61.085786 0
M  V30 36 H 39.885766 37.762416 61.193639 0
M  V30 37 H 38.779309 33.533662 57.215501 0
M  V30 38 H 37.067396 33.221563 57.062971 0
M  V30 39 H 38.109030 28.515926 58.858887 0
M  V30 40 H 37.038820 28.930957 57.537153 0
M  V30 41 H 36.607336 35.746565 61.673591 0
M  V30 42 H 38.790704 36.002978 60.336114 0
M  V30 43 H 39.188111 31.434635 56.244679 0
M  V30 44 H 37.467626 31.094922 56.240710 0
M  V30 45 H 37.467333 26.502897 58.540141 0
M  V30 46 H 36.191324 31.567791 61.128952 0
M  V30 47 H 39.261939 32.680055 62.302472 0
M  V30 48 H 37.529211 38.602653 61.225517 0
M  V30 49 H 36.884312 37.515751 59.996374 0
M  V30 50 H 35.869356 38.041205 61.322516 0
M  V30 51 H 39.882428 23.966605 57.053312 0
M  V30 52 H 38.606513 23.988393 55.821727 0
M  V30 53 H 36.089170 33.482903 59.503582 0
M  V30 54 H 37.428257 34.574401 59.515329 0
M  V30 55 H 40.570587 34.945197 63.675085 0
M  V30 56 H 41.384792 34.139605 62.318751 0
M  V30 57 H 35.968996 31.250539 58.161835 0
M  V30 58 H 39.368834 26.103907 54.979750 0
M  V30 59 H 40.729033 26.055448 56.163796 0
M  V30 60 H 39.502129 30.478438 58.381236 0
M  V30 61 H 35.521192 36.209686 64.053993 0
M  V30 62 H 39.518246 37.381987 62.751466 0
M  V30 63 H 38.881382 32.742688 59.219994 0
M  V30 END ATOM
M  V30 BEGIN BOND
M  V30 1 1 5 1
M  V30 2 1 9 8
M  V30 3 1 11 5
M  V30 4 1 12 7
M  V30 5 1 13 2
M  V30 6 1 13 9
M  V30 7 1 13 12
M  V30 8 1 14 6
M  V30 9 1 15 10
M  V30 10 2 16 1
M  V30 11 1 16 3
M  V30 12 1 17 4
M  V30 13 1 17 6
M  V30 14 2 18 2
M  V30 15 1 18 4
M  V30 16 2 19 5
M  V30 17 1 20 12
M  V30 18 1 21 3
M  V30 19 1 22 4
M  V30 20 1 23 2
M  V30 21 1 23 8
M  V30 22 1 24 10
M  V30 23 1 24 14
M  V30 24 1 24 22
M  V30 25 1 14 25 CFG=1
M  V30 26 1 26 1
M  V30 27 1 26 21
M  V30 28 1 27 11
M  V30 29 1 27 14
M  V30 30 1 27 15
M  V30 31 1 28 7
M  V30 32 1 4 29 CFG=1
M  V30 33 1 30 6
M  V30 34 1 31 6
M  V30 35 1 32 7
M  V30 36 1 33 7
M  V30 37 1 34 8
M  V30 38 1 35 8
M  V30 39 1 36 9
M  V30 40 1 37 10
M  V30 41 1 38 10
M  V30 42 1 39 11
M  V30 43 1 40 11
M  V30 44 1 12 41 CFG=1
M  V30 45 1 13 42 CFG=3
M  V30 46 1 43 15
M  V30 47 1 44 15
M  V30 48 1 45 16
M  V30 49 1 46 17
M  V30 50 1 47 18
M  V30 51 1 48 20
M  V30 52 1 49 20
M  V30 53 1 50 20
M  V30 54 1 51 21
M  V30 55 1 52 21
M  V30 56 1 53 22
M  V30 57 1 54 22
M  V30 58 1 55 23
M  V30 59 1 56 23
M  V30 60 1 57 25
M  V30 61 1 58 26
M  V30 62 1 59 26
M  V30 63 1 27 60 CFG=1
M  V30 64 1 61 28
M  V30 65 1 62 9
M  V30 66 1 24 63 CFG=1
M  V30 END BOND
M  V30 END CTAB
M  END
>  <i_epik_Tot_Q>  (1) 
2

>  <i_epik_Tot_abs_Q>  (1) 
2

>  <i_i_glide_confnum>  (1) 
221

>  <i_i_glide_lignum>  (1) 
17

>  <i_i_glide_posenum>  (1) 
264

>  <i_i_glide_rotatable_bonds>  (1) 
8

>  <i_lp_mmshare_version>  (1) 
72125

>  <i_m_source_file_index>  (1) 
2

>  <i_f3d_flags>  (1) 
0

>  <num_sample>  (1) 
100

>  <b_lp_Chiralities_Consistent>  (1) 
1

>  <r_epik_Charging_Adjusted_Penalty>  (1) 
2.3622130296898831

>  <r_epik_Ionization_Penalty>  (1) 
1.4312966064593899

>  <r_epik_Ionization_Penalty_Charging>  (1) 
1.1852885594971458

>  <r_epik_Ionization_Penalty_Neutral>  (1) 
0.24600804696224418

>  <r_epik_State_Penalty>  (1) 
1.176924470192737

>  <r_glide_ring_energy>  (1) 
0

>  <r_i_docking_score>  (1) 
-7.685837796362093

>  <r_i_glide_ecoul>  (1) 
-12.516922653050862

>  <r_i_glide_eff_state_penalty>  (1) 
1.176924470192737

>  <r_i_glide_einternal>  (1) 
11.83722289852385

>  <r_i_glide_emodel>  (1) 
-59.390058188047242

>  <r_i_glide_emodel_strain>  (1) 
0.50652100027470226

>  <r_i_glide_energy>  (1) 
-40.93367891582929

>  <r_i_glide_erotb>  (1) 
0.75687532201182384

>  <r_i_glide_esite>  (1) 
-0.11152780992101281

>  <r_i_glide_evdw>  (1) 
-28.416756262778431

>  <r_i_glide_gscore>  (1) 
-8.8627622665548298

>  <r_i_glide_gscore_strain>  (1) 
0

>  <r_i_glide_hbond>  (1) 
-0.65882702284426953

>  <r_i_glide_ligand_efficiency>  (1) 
-0.27449420701293187

>  <r_i_glide_ligand_efficiency_ln>  (1) 
-1.7741170294038728

>  <r_i_glide_ligand_efficiency_sa>  (1) 
-0.83352608185922428

>  <r_i_glide_lipo>  (1) 
-3.1863569600296073

>  <r_i_glide_metal>  (1) 
-0

>  <r_i_glide_rewards>  (1) 
-2.3645495846752134

>  <r_lp_Energy>  (1) 
22.123918

>  <s_epik_cmdline>  (1) 
J2VwaWtfcHl0aG9uJywgJy1waHQnLCAnMS4wJywgJy1waCcsICc3LjQnLCAnLXRuJywgJzgnLCAnLW1hJywgJzUwMCcsICctaW1hZScsICc8aW5maWxlLm1hZT4nLCAnLW9tYWUnLCAnPG91dGZpbGUubWFlPic=

>  <s_epik_input>  (1) 
W0NIMl0xW0NIMl1PW0NIXT1DMUMoPU8pW0NIMl1bQ0BIXTJbQ0gyXVtDSDJdTihbQ0BAXTIzW09IXSlbQ0gyXVtDQEBIXShbTkhdW0NIMl0zKS9bQ0hdPUM0XFtDQEBIXShbTkhdW0NIMl1bQ0gyXTQpW0NASF0oW0NIM10pW0NIMl1bT0hd

>  <s_glide_docking_method>  (1) 
confgen

>  <s_i_glide_gridfile>  (1) 
gpcr_5ht2c_6bqh_protein_autoprepared_prepared

>  <s_lp_Force_Field>  (1) 
S-OPLS

>  <s_lp_Variant>  (1) 
DiffSBDD_1_num_sample_100-11

>  <s_m_source_file>  (1) 
generated__ligand_DiffSBDD_2026-05-06_prepared.sdf

>  <GenAI_Model>  (1) 
DiffSBDD

>  <Protein>  (1) 
GPCR_5HT2C

$$$$
DiffSBDD_78_num_sample_100
     RDKit          3D

  0  0  0  0  0  0  0  0  0  0999 V3000
M  V30 BEGIN CTAB
M  V30 COUNTS 65 70 0 0 1
M  V30 BEGIN ATOM
M  V30 1 C 37.627260 29.643541 57.309900 0
M  V30 2 C 35.577275 34.021425 61.314201 0
M  V30 3 C 38.903541 36.903879 62.773147 0
M  V30 4 C 38.949435 35.277022 60.850184 0 CFG=1
M  V30 5 C 38.392824 29.599227 56.010563 0
M  V30 6 C 41.013413 33.910225 62.943372 0
M  V30 7 C 36.460062 30.672216 59.790419 0
M  V30 8 C 36.296691 32.915414 60.588339 0
M  V30 9 C 39.467397 37.037543 64.010128 0
M  V30 10 C 37.521956 33.368483 59.780329 0 CFG=1
M  V30 11 C 39.348790 29.621423 53.034393 0
M  V30 12 C 41.151443 35.486934 65.269456 0
M  V30 13 C 40.317270 35.921788 64.205683 0
M  V30 14 O 39.834398 34.331694 60.253488 0
M  V30 15 C 38.972119 27.665183 54.542168 0
M  V30 16 C 39.062205 28.176003 53.302617 0
M  V30 17 C 38.353987 30.618145 55.147284 0
M  V30 18 C 38.584806 33.819934 60.764562 0 CFG=1
M  V30 19 C 37.940459 30.914990 59.400181 0 CFG=2
M  V30 20 O 38.693368 28.708758 59.168723 0
M  V30 21 C 39.154236 27.900269 50.794961 0
M  V30 22 C 41.823672 33.505843 64.010416 0
M  V30 23 C 40.293679 28.900437 50.948755 0
M  V30 24 N 39.364118 35.732555 62.168723 0
M  V30 25 C 39.031246 30.669626 53.853502 0
M  V30 26 O 42.667407 33.885101 66.216178 0
M  V30 27 C 39.226323 28.396745 55.800511 0
M  V30 28 C 41.889770 34.288304 65.173407 0
M  V30 29 C 38.875492 27.235771 52.131165 0
M  V30 30 C 38.048913 32.316227 58.799869 0
M  V30 31 N 35.911147 31.698558 60.662555 0
M  V30 32 C 40.264409 35.100567 63.044959 0
M  V30 33 N 38.492947 29.949892 58.446946 0
M  V30 34 O 39.904067 29.953156 51.816834 0
M  V30 35 H 37.065959 28.719888 57.453622 0
M  V30 36 H 36.885455 30.421434 57.170708 0
M  V30 37 H 35.867376 34.989129 60.904101 0
M  V30 38 H 34.504334 33.888470 61.196211 0
M  V30 39 H 35.821419 34.021438 62.373846 0
M  V30 40 H 38.199236 37.545523 62.263454 0
M  V30 41 H 38.528775 36.043582 60.204318 0
M  V30 42 H 40.960473 33.305389 62.053826 0
M  V30 43 H 36.366562 29.696095 60.253492 0
M  V30 44 H 35.806049 30.618646 58.922643 0
M  V30 45 H 39.302414 37.836785 64.716599 0
M  V30 46 H 37.234631 34.235161 59.182949 0
M  V30 47 H 41.214304 36.082376 66.168313 0
M  V30 48 H 38.761466 26.611110 54.652611 0
M  V30 49 H 37.771415 31.484659 55.430488 0
M  V30 50 H 38.705354 33.186187 61.641701 0
M  V30 51 H 38.559373 30.885968 60.298923 0
M  V30 52 H 37.813168 28.481857 59.425218 0
M  V30 53 H 38.267406 28.421442 50.447509 0
M  V30 54 H 39.385329 27.135136 50.058703 0
M  V30 55 H 42.392802 32.590035 63.941217 0
M  V30 56 H 40.562062 29.326536 49.981767 0
M  V30 57 H 41.182523 28.421460 51.358273 0
M  V30 58 H 39.244388 31.654865 53.466686 0
M  V30 59 H 42.603675 34.448446 66.971400 0
M  V30 60 H 40.278098 28.681962 55.846380 0
M  V30 61 H 39.074221 27.695579 56.621658 0
M  V30 62 H 37.867426 26.821426 52.149936 0
M  V30 63 H 39.574359 26.412290 52.264589 0
M  V30 64 H 37.467461 32.384905 57.880696 0
M  V30 65 H 39.073341 32.541605 58.509347 0
M  V30 END ATOM
M  V30 BEGIN BOND
M  V30 1 1 5 1
M  V30 2 1 8 2
M  V30 3 2 9 3
M  V30 4 1 10 8
M  V30 5 1 13 9
M  V30 6 1 13 12
M  V30 7 1 14 4
M  V30 8 1 16 11
M  V30 9 2 16 15
M  V30 10 2 17 5
M  V30 11 1 18 4
M  V30 12 1 18 10
M  V30 13 1 18 14
M  V30 14 1 19 7
M  V30 15 2 22 6
M  V30 16 1 23 21
M  V30 17 1 24 3
M  V30 18 1 24 4
M  V30 19 2 25 11
M  V30 20 1 25 17
M  V30 21 1 27 5
M  V30 22 1 27 15
M  V30 23 2 28 12
M  V30 24 1 28 22
M  V30 25 1 28 26
M  V30 26 1 29 16
M  V30 27 1 29 21
M  V30 28 1 30 10
M  V30 29 1 30 19
M  V30 30 1 31 7
M  V30 31 2 31 8
M  V30 32 1 32 6
M  V30 33 2 32 13
M  V30 34 1 32 24
M  V30 35 1 33 1
M  V30 36 1 33 19
M  V30 37 1 33 20
M  V30 38 1 34 11
M  V30 39 1 34 23
M  V30 40 1 35 1
M  V30 41 1 36 1
M  V30 42 1 37 2
M  V30 43 1 38 2
M  V30 44 1 39 2
M  V30 45 1 40 3
M  V30 46 1 4 41 CFG=3
M  V30 47 1 42 6
M  V30 48 1 43 7
M  V30 49 1 44 7
M  V30 50 1 45 9
M  V30 51 1 10 46 CFG=3
M  V30 52 1 47 12
M  V30 53 1 48 15
M  V30 54 1 49 17
M  V30 55 1 18 50 CFG=1
M  V30 56 1 19 51 CFG=1
M  V30 57 1 52 20
M  V30 58 1 53 21
M  V30 59 1 54 21
M  V30 60 1 55 22
M  V30 61 1 56 23
M  V30 62 1 57 23
M  V30 63 1 58 25
M  V30 64 1 59 26
M  V30 65 1 60 27
M  V30 66 1 61 27
M  V30 67 1 62 29
M  V30 68 1 63 29
M  V30 69 1 64 30
M  V30 70 1 65 30
M  V30 END BOND
M  V30 END CTAB
M  END
>  <i_epik_Tot_Q>  (1) 
0

>  <i_epik_Tot_abs_Q>  (1) 
0

>  <i_i_glide_confnum>  (1) 
349

>  <i_i_glide_lignum>  (1) 
198

>  <i_i_glide_posenum>  (1) 
174

>  <i_i_glide_rotatable_bonds>  (1) 
7

>  <i_lp_mmshare_version>  (1) 
72125

>  <i_m_source_file_index>  (1) 
79

>  <i_f3d_flags>  (1) 
0

>  <num_sample>  (1) 
100

>  <b_lp_Chiralities_Consistent>  (1) 
1

>  <r_epik_Charging_Adjusted_Penalty>  (1) 
0

>  <r_epik_Ionization_Penalty>  (1) 
0.004645851909936884

>  <r_epik_Ionization_Penalty_Charging>  (1) 
0

>  <r_epik_Ionization_Penalty_Neutral>  (1) 
0.004645851909936884

>  <r_epik_State_Penalty>  (1) 
-0

>  <r_glide_ring_energy>  (1) 
0

>  <r_i_docking_score>  (1) 
-7.6850380233922859

>  <r_i_glide_ecoul>  (1) 
-2.9077058636454978

>  <r_i_glide_eff_state_penalty>  (1) 
-0

>  <r_i_glide_einternal>  (1) 
9.3504136111101008

>  <r_i_glide_emodel>  (1) 
-68.701838469513461

>  <r_i_glide_emodel_strain>  (1) 
0

>  <r_i_glide_energy>  (1) 
-52.043908774197703

>  <r_i_glide_erotb>  (1) 
0.47260877555534697

>  <r_i_glide_esite>  (1) 
-0.0123946349013326

>  <r_i_glide_evdw>  (1) 
-49.136202910552207

>  <r_i_glide_gscore>  (1) 
-7.6850380233922859

>  <r_i_glide_gscore_strain>  (1) 
0

>  <r_i_glide_hbond>  (1) 
0

>  <r_i_glide_ligand_efficiency>  (1) 
-0.22603053009977311

>  <r_i_glide_ligand_efficiency_ln>  (1) 
-1.6978404573824757

>  <r_i_glide_ligand_efficiency_sa>  (1) 
-0.73225117276023044

>  <r_i_glide_lipo>  (1) 
-3.5098994642322046

>  <r_i_glide_metal>  (1) 
-0

>  <r_i_glide_rewards>  (1) 
-1.7423866747396599

>  <r_lp_Energy>  (1) 
27.740355999999998

>  <r_lp_tautomer_probability>  (1) 
1

>  <s_epik_Chemistry_Notes>  (1) 
This compound has an imine and may undergo hydrolysis. This compound contains an acetal/aminal-like group ( X-CH(R)-Y where X, Y are N, S, or O) that may be acid/base labile, releasing an aldehyde. This compound has a N-S or N-O group and may undergo hydrolysis at high or low pH.

>  <s_epik_cmdline>  (1) 
J2VwaWtfcHl0aG9uJywgJy1waHQnLCAnMS4wJywgJy1waCcsICc3LjQnLCAnLXRuJywgJzgnLCAnLW1hJywgJzUwMCcsICctaW1hZScsICc8aW5maWxlLm1hZT4nLCAnLW9tYWUnLCAnPG91dGZpbGUubWFlPic=

>  <s_epik_input>  (1) 
TzFbQ0gyXVtDSDJdW0NIMl1DKEMxPTIpPVtDSF1bQ0gyXUMoPVtDSF1bQ0hdMilbQ0gyXU4oW09IXSlbQ0BIXShbQ0gyXU49QzNbQ0gzXSlbQ0gyXVtDQEBIXTNbQ0BIXTRPW0NAQEhdNG4oW2NIXVtjSF01KWMoYzU2KVtjSF1bY0hdYyhbY0hdNilbT0hd

>  <s_glide_docking_method>  (1) 
confgen

>  <s_i_glide_gridfile>  (1) 
gpcr_5ht2c_6bqh_protein_autoprepared_prepared

>  <s_lp_Force_Field>  (1) 
S-OPLS

>  <s_lp_Variant>  (1) 
DiffSBDD_78_num_sample_100-1

>  <s_m_source_file>  (1) 
generated__ligand_DiffSBDD_2026-05-06_prepared.sdf

>  <GenAI_Model>  (1) 
DiffSBDD

>  <Protein>  (1) 
GPCR_5HT2C

$$$$
DiffSBDD_17_num_sample_100
     RDKit          3D

  0  0  0  0  0  0  0  0  0  0999 V3000
M  V30 BEGIN CTAB
M  V30 COUNTS 106 113 0 0 1
M  V30 BEGIN ATOM
M  V30 1 C 35.877060 37.204950 59.230674 0
M  V30 2 O 38.825594 38.318786 61.449778 0
M  V30 3 C 41.839183 32.602305 63.580775 0
M  V30 4 C 40.152092 30.748479 66.682310 0
M  V30 5 C 40.301198 29.411666 66.671160 0
M  V30 6 C 37.608723 31.584150 60.086548 0 CFG=1
M  V30 7 C 37.069985 37.055103 60.141927 0 CFG=1
M  V30 8 O 38.206591 32.590977 59.339795 0
M  V30 9 C 38.187247 30.785365 54.907986 0
M  V30 10 O 36.194883 30.415134 58.669312 0
M  V30 11 C 42.996411 29.188386 63.952912 0 CFG=1
M  V30 12 O 42.555631 32.509499 62.585629 0
M  V30 13 C 38.888641 28.217138 59.559774 0
M  V30 14 C 41.057707 28.633020 65.644686 0
M  V30 15 C 41.318094 31.341499 64.318114 0 CFG=2
M  V30 16 C 39.037662 28.574911 54.650838 0 CFG=2
M  V30 17 C 37.546097 38.399611 60.797489 0 CFG=1
M  V30 18 N 38.412717 32.010620 55.305163 0
M  V30 19 C 42.551261 30.486224 64.612565 0 CFG=1
M  V30 20 C 38.945374 32.116308 62.049268 0 CFG=2
M  V30 21 C 39.355302 29.554583 61.720940 0
M  V30 22 C 39.717025 31.801741 55.690609 0
M  V30 23 S 37.355634 28.527724 53.865840 0
M  V30 24 N 39.247823 27.987578 58.157491 0
M  V30 25 C 39.937272 30.903668 62.195861 0 CFG=2
M  V30 26 C 39.522082 35.946636 61.444344 0 CFG=2
M  V30 27 C 36.541494 39.152708 61.710226 0
M  V30 28 C 37.054297 30.227609 54.388577 0
M  V30 29 C 39.470485 33.040577 59.834716 0
M  V30 30 N 40.213856 30.562794 55.445868 0
M  V30 31 N 40.660106 25.887184 55.905563 0
M  V30 32 C 41.421343 33.972875 64.119277 0
M  V30 33 O 37.682780 31.777350 61.476189 0
M  V30 34 C 39.012650 37.157253 62.231357 0 CFG=1
M  V30 35 O 39.722232 25.004807 56.606421 0
M  V30 36 C 37.419578 34.694966 60.936892 0
M  V30 37 C 38.751948 34.661591 61.629197 0 CFG=1
M  V30 38 C 40.410395 36.657846 62.448264 0
M  V30 39 O 36.270475 31.368736 59.761149 0
M  V30 40 C 42.429415 29.182958 65.346509 0 CFG=2
M  V30 41 C 36.668852 35.938109 61.119357 0
M  V30 42 C 39.486280 33.366031 61.305783 0 CFG=1
M  V30 43 O 40.253906 30.681982 63.584109 0
M  V30 44 O 41.456826 27.384162 58.435767 0
M  V30 45 C 42.287468 28.404768 62.876510 0
M  V30 46 C 40.440305 27.552310 57.771017 0
M  V30 47 C 40.717929 31.744675 65.678513 0
M  V30 48 C 38.952869 27.638446 55.865706 0 CFG=1
M  V30 49 C 40.369488 27.257778 56.292180 0 CFG=2
M  V30 50 C 39.898160 29.088036 60.346427 0
M  V30 51 C 38.216276 28.106268 57.156149 0
M  V30 52 N 39.124097 29.971798 54.990053 0
M  V30 53 O 36.005721 30.823336 54.256581 0
M  V30 54 H 35.238456 37.820213 59.856186 0
M  V30 55 H 36.104647 37.621929 58.269879 0
M  V30 56 H 35.411705 36.274833 58.927307 0
M  V30 57 H 39.573926 31.186984 67.460210 0
M  V30 58 H 39.835607 28.826133 67.448073 0
M  V30 59 H 38.170415 30.720880 59.802150 0
M  V30 60 H 37.872192 36.717774 59.487192 0
M  V30 61 H 35.859068 30.971711 57.950119 0
M  V30 62 H 44.081320 29.145063 63.841316 0
M  V30 63 H 41.563107 34.099974 65.190449 0
M  V30 64 H 38.762328 27.251862 60.034700 0
M  V30 65 H 37.901139 28.670970 59.598086 0
M  V30 66 H 41.165869 27.606348 65.990865 0
M  V30 67 H 40.391700 28.603823 64.788897 0
M  V30 68 H 39.764203 28.291727 53.899612 0
M  V30 69 H 37.726357 39.069023 59.957513 0
M  V30 70 H 43.375466 31.101260 64.974659 0
M  V30 71 H 38.686908 32.420375 63.052812 0
M  V30 72 H 39.540586 28.782850 62.455174 0
M  V30 73 H 38.272892 29.622219 61.727591 0
M  V30 74 H 40.300439 32.556723 56.186340 0
M  V30 75 H 40.847420 31.074210 61.623853 0
M  V30 76 H 39.853664 36.045444 60.416647 0
M  V30 77 H 35.557358 39.292479 61.266274 0
M  V30 78 H 36.391703 38.659166 62.670462 0
M  V30 79 H 36.903408 40.167212 61.885929 0
M  V30 80 H 40.177086 32.254882 59.855868 0
M  V30 81 H 39.874648 33.863545 59.251106 0
M  V30 82 H 41.570352 25.557217 56.253437 0
M  V30 83 H 42.009423 34.743235 63.625570 0
M  V30 84 H 40.368325 34.140475 63.893264 0
M  V30 85 H 38.329181 37.073251 63.077511 0
M  V30 86 H 40.060417 25.006353 57.490523 0
M  V30 87 H 37.517556 34.614608 59.858216 0
M  V30 88 H 36.782494 33.889020 61.303652 0
M  V30 89 H 38.540659 34.633503 62.657131 0
M  V30 90 H 41.235412 37.219998 62.035483 0
M  V30 91 H 40.565332 36.271756 63.449358 0
M  V30 92 H 43.148809 29.020260 66.145674 0
M  V30 93 H 35.787374 35.464833 60.745453 0
M  V30 94 H 36.455064 36.199374 62.154879 0
M  V30 95 H 40.515363 33.548638 61.584278 0
M  V30 96 H 41.309429 28.039305 63.126337 0
M  V30 97 H 42.237893 29.020490 61.995493 0
M  V30 98 H 42.867137 27.510915 62.661602 0
M  V30 99 H 41.442399 32.311452 66.260766 0
M  V30 100 H 39.894749 32.424688 65.475593 0
M  V30 101 H 38.402964 26.758961 55.523067 0
M  V30 102 H 41.107371 27.919238 55.851571 0
M  V30 103 H 40.178418 29.940623 59.725971 0
M  V30 104 H 40.834198 28.553388 60.479393 0
M  V30 105 H 37.392333 27.439441 57.414767 0
M  V30 106 H 37.833746 29.120423 57.129225 0
M  V30 END ATOM
M  V30 BEGIN BOND
M  V30 1 2 5 4
M  V30 2 1 7 1
M  V30 3 1 8 6
M  V30 4 2 12 3
M  V30 5 1 14 5
M  V30 6 1 15 3
M  V30 7 1 17 2
M  V30 8 1 17 7
M  V30 9 2 18 9
M  V30 10 1 19 11
M  V30 11 1 19 15
M  V30 12 1 22 18
M  V30 13 1 23 16
M  V30 14 1 24 13
M  V30 15 1 25 20
M  V30 16 1 25 21
M  V30 17 1 27 17
M  V30 18 1 28 9
M  V30 19 1 28 23
M  V30 20 1 29 8
M  V30 21 2 30 22
M  V30 22 1 32 3
M  V30 23 1 33 6
M  V30 24 1 33 20
M  V30 25 1 34 2
M  V30 26 1 34 26
M  V30 27 1 35 31
M  V30 28 1 37 26
M  V30 29 1 37 36
M  V30 30 1 38 26
M  V30 31 1 38 34
M  V30 32 1 39 6
M  V30 33 1 39 10
M  V30 34 1 40 11
M  V30 35 1 40 14
M  V30 36 1 40 19
M  V30 37 1 41 7
M  V30 38 1 41 36
M  V30 39 1 42 20
M  V30 40 1 42 29
M  V30 41 1 42 37
M  V30 42 1 15 43 CFG=3
M  V30 43 1 43 25
M  V30 44 1 45 11
M  V30 45 1 46 24
M  V30 46 2 46 44
M  V30 47 1 47 4
M  V30 48 1 47 15
M  V30 49 1 48 16
M  V30 50 1 49 31
M  V30 51 1 49 46
M  V30 52 1 49 48
M  V30 53 1 50 13
M  V30 54 1 50 21
M  V30 55 1 51 24
M  V30 56 1 51 48
M  V30 57 1 52 9
M  V30 58 1 52 16
M  V30 59 1 52 30
M  V30 60 2 53 28
M  V30 61 1 54 1
M  V30 62 1 55 1
M  V30 63 1 56 1
M  V30 64 1 57 4
M  V30 65 1 58 5
M  V30 66 1 6 59 CFG=1
M  V30 67 1 7 60 CFG=3
M  V30 68 1 61 10
M  V30 69 1 11 62 CFG=1
M  V30 70 1 63 32
M  V30 71 1 64 13
M  V30 72 1 65 13
M  V30 73 1 66 14
M  V30 74 1 67 14
M  V30 75 1 16 68 CFG=3
M  V30 76 1 17 69 CFG=3
M  V30 77 1 19 70 CFG=1
M  V30 78 1 20 71 CFG=1
M  V30 79 1 72 21
M  V30 80 1 73 21
M  V30 81 1 74 22
M  V30 82 1 25 75 CFG=3
M  V30 83 1 26 76 CFG=3
M  V30 84 1 77 27
M  V30 85 1 78 27
M  V30 86 1 79 27
M  V30 87 1 80 29
M  V30 88 1 81 29
M  V30 89 1 82 31
M  V30 90 1 83 32
M  V30 91 1 84 32
M  V30 92 1 34 85 CFG=1
M  V30 93 1 86 35
M  V30 94 1 87 36
M  V30 95 1 88 36
M  V30 96 1 37 89 CFG=1
M  V30 97 1 90 38
M  V30 98 1 91 38
M  V30 99 1 40 92 CFG=1
M  V30 100 1 93 41
M  V30 101 1 94 41
M  V30 102 1 42 95 CFG=1
M  V30 103 1 96 45
M  V30 104 1 97 45
M  V30 105 1 98 45
M  V30 106 1 99 47
M  V30 107 1 100 47
M  V30 108 1 48 101 CFG=3
M  V30 109 1 49 102 CFG=3
M  V30 110 1 103 50
M  V30 111 1 104 50
M  V30 112 1 105 51
M  V30 113 1 106 51
M  V30 END BOND
M  V30 END CTAB
M  END
>  <i_epik_Tot_Q>  (1) 
0

>  <i_epik_Tot_abs_Q>  (1) 
0

>  <i_i_glide_confnum>  (1) 
6099

>  <i_i_glide_lignum>  (1) 
39

>  <i_i_glide_posenum>  (1) 
155

>  <i_i_glide_rotatable_bonds>  (1) 
14

>  <i_lp_mmshare_version>  (1) 
72125

>  <i_m_source_file_index>  (1) 
18

>  <i_f3d_flags>  (1) 
0

>  <num_sample>  (1) 
100

>  <b_lp_Chiralities_Consistent>  (1) 
1

>  <r_epik_Charging_Adjusted_Penalty>  (1) 
0

>  <r_epik_Ionization_Penalty>  (1) 
0.00082092263498994861

>  <r_epik_Ionization_Penalty_Charging>  (1) 
0

>  <r_epik_Ionization_Penalty_Neutral>  (1) 
0.00082092263498994861

>  <r_epik_State_Penalty>  (1) 
-0

>  <r_glide_ring_energy>  (1) 
2.4013288792846437

>  <r_i_docking_score>  (1) 
-7.6791875026519669

>  <r_i_glide_ecoul>  (1) 
-13.929762733667342

>  <r_i_glide_eff_state_penalty>  (1) 
-0

>  <r_i_glide_einternal>  (1) 
29.453314996559723

>  <r_i_glide_emodel>  (1) 
11.156269802471854

>  <r_i_glide_emodel_strain>  (1) 
9.7362282675804011

>  <r_i_glide_energy>  (1) 
-3.254986155126609

>  <r_i_glide_erotb>  (1) 
0.21750603727348183

>  <r_i_glide_esite>  (1) 
-0.26889551593544897

>  <r_i_glide_evdw>  (1) 
10.674776578540733

>  <r_i_glide_gscore>  (1) 
-7.6791875026519669

>  <r_i_glide_gscore_strain>  (1) 
1.4340570668951003

>  <r_i_glide_hbond>  (1) 
-0.50872658388501324

>  <r_i_glide_ligand_efficiency>  (1) 
-0.14489033023871636

>  <r_i_glide_ligand_efficiency_ln>  (1) 
-1.54501740264263

>  <r_i_glide_ligand_efficiency_sa>  (1) 
-0.54424948340007695

>  <r_i_glide_lipo>  (1) 
-4.8530137402622646

>  <r_i_glide_metal>  (1) 
-0

>  <r_i_glide_rewards>  (1) 
-2.1443891856147572

>  <r_lp_Energy>  (1) 
36.857391

>  <r_lp_tautomer_probability>  (1) 
1

>  <s_epik_Chemistry_Notes>  (1) 
This compound contains an acetal/aminal-like group ( X-CH(R)-Y where X, Y are N, S, or O) that may be acid/base labile, releasing an aldehyde. This compound has a N-S or N-O group and may undergo hydrolysis at high or low pH.

>  <s_epik_cmdline>  (1) 
J2VwaWtfcHl0aG9uJywgJy1waHQnLCAnMS4wJywgJy1waCcsICc3LjQnLCAnLXRuJywgJzgnLCAnLW1hJywgJzUwMCcsICctaW1hZScsICc8aW5maWxlLm1hZT4nLCAnLW9tYWUnLCAnPG91dGZpbGUubWFlPic=

>  <s_epik_input>  (1) 
W0NAQEhdMTJbQ0BASF0oW0NIMl0yKU9bQ0BIXShbQ0gzXSlbQ0BIXShbQ0gzXSlbQ0gyXVtDSDJdW0NASF0xW0NASF0oW0NIMl1PW0NAQEhdM09bT0hdKVtDQEBIXShPMylbQ0BASF0oT1tDQEBdNChDKFtPSF0pPVtDSDJdKVtDSDJdW0NIXT1bQ0hdW0NIMl1bQ0BIXShbQ0BIXTQ1KVtDSF01W0NIM10pW0NIMl1bQ0gyXVtDSDJdTjZDKD1PKVtDQEBIXShbTkhdW09IXSlbQ0BASF0oW0NIMl02KVtDQEBIXShTQzc9TyluKGM3OCluW2NIXW44

>  <s_glide_docking_method>  (1) 
confgen

>  <s_i_glide_gridfile>  (1) 
gpcr_5ht2c_6bqh_protein_autoprepared_prepared

>  <s_lp_Force_Field>  (1) 
S-OPLS

>  <s_lp_Variant>  (1) 
DiffSBDD_17_num_sample_100-1

>  <s_m_source_file>  (1) 
generated__ligand_DiffSBDD_2026-05-06_prepared.sdf

>  <GenAI_Model>  (1) 
DiffSBDD

>  <Protein>  (1) 
GPCR_5HT2C

$$$$
DiffSBDD_24_num_sample_100
     RDKit          3D

  0  0  0  0  0  0  0  0  0  0999 V3000
M  V30 BEGIN CTAB
M  V30 COUNTS 63 65 0 0 1
M  V30 BEGIN ATOM
M  V30 1 C 38.456317 31.445705 58.252595 0
M  V30 2 O 39.404692 34.347785 60.833994 0
M  V30 3 C 36.666785 37.324289 61.244317 0
M  V30 4 C 39.852527 28.420941 50.270264 0
M  V30 5 C 40.153732 30.799680 51.022623 0
M  V30 6 N 37.501366 35.287686 60.042603 0
M  V30 7 C 37.259344 34.211844 59.069008 0
M  V30 8 C 38.367390 27.990643 56.592111 0
M  V30 9 C 38.810589 29.715305 54.867854 0
M  V30 10 N 39.502837 29.498742 51.185102 0
M  V30 11 O 40.272003 35.354996 63.361221 0
M  V30 12 N 38.071932 37.701710 61.454439 0 CHG=1
M  V30 13 C 38.658106 26.217106 58.436420 0
M  V30 14 C 39.244006 36.306989 63.152273 0
M  V30 15 C 39.087477 30.089011 53.539080 0
M  V30 16 C 38.991190 36.557469 61.649073 0 CFG=1
M  V30 17 C 38.736276 30.711083 55.855454 0
M  V30 18 N 37.067423 31.756871 58.661505 0 CHG=1
M  V30 19 C 38.627686 28.346429 55.209745 0
M  V30 20 C 39.202116 29.111716 52.524024 0
M  V30 21 C 38.122531 26.574741 57.057685 0
M  V30 22 C 38.622257 35.297705 60.817330 0
M  V30 23 C 38.342545 29.023488 57.562128 0
M  V30 24 C 37.468656 25.660487 56.312804 0
M  V30 25 C 39.023608 27.746845 52.858205 0
M  V30 26 C 38.750956 27.365485 54.184842 0
M  V30 27 C 36.578927 36.427147 60.001270 0
M  V30 28 C 36.973546 32.824681 59.681812 0
M  V30 29 C 38.513081 30.366433 57.194581 0
M  V30 30 H 38.972425 32.325047 57.871476 0
M  V30 31 H 39.021853 31.111936 59.124694 0
M  V30 32 H 36.055333 38.219731 61.122129 0
M  V30 33 H 36.291297 36.810488 62.131822 0
M  V30 34 H 38.993945 27.781343 50.071640 0
M  V30 35 H 40.184806 28.830851 49.317607 0
M  V30 36 H 40.667380 27.817620 50.665820 0
M  V30 37 H 39.466874 31.631334 51.142056 0
M  V30 38 H 40.968121 30.927531 51.734079 0
M  V30 39 H 40.584554 30.891493 50.026864 0
M  V30 40 H 36.434854 34.475870 58.405080 0
M  V30 41 H 38.130205 34.170846 58.422229 0
M  V30 42 H 40.068225 34.569579 62.871631 0
M  V30 43 H 38.133308 38.309152 62.259002 0
M  V30 44 H 38.267562 26.827355 59.243129 0
M  V30 45 H 38.407602 25.188983 58.673627 0
M  V30 46 H 39.744322 26.310404 58.446551 0
M  V30 47 H 38.325854 36.021458 63.662183 0
M  V30 48 H 39.567773 37.231274 63.631897 0
M  V30 49 H 39.224374 31.132525 53.304286 0
M  V30 50 H 39.958970 36.874935 61.263392 0
M  V30 51 H 38.872795 31.749002 55.582231 0
M  V30 52 H 36.674316 30.914926 59.051899 0
M  V30 53 H 38.159998 28.784064 58.596555 0
M  V30 54 H 37.324809 24.653352 56.677429 0
M  V30 55 H 37.060201 25.900644 55.347845 0
M  V30 56 H 39.114185 26.982863 52.102059 0
M  V30 57 H 38.668575 26.325176 54.403981 0
M  V30 58 H 36.810550 37.018120 59.113446 0
M  V30 59 H 35.562618 36.064616 59.851777 0
M  V30 60 H 37.648738 32.578867 60.499589 0
M  V30 61 H 35.967212 32.815827 60.100450 0
M  V30 62 H 36.469079 31.985766 57.853483 0
M  V30 63 H 38.372598 38.211950 60.636875 0
M  V30 END ATOM
M  V30 BEGIN BOND
M  V30 1 1 7 6
M  V30 2 1 10 4
M  V30 3 1 10 5
M  V30 4 1 12 3
M  V30 5 1 14 11
M  V30 6 1 15 9
M  V30 7 1 16 12
M  V30 8 1 16 14
M  V30 9 2 17 9
M  V30 10 1 18 1
M  V30 11 2 19 8
M  V30 12 1 19 9
M  V30 13 1 20 10
M  V30 14 2 20 15
M  V30 15 1 21 8
M  V30 16 1 21 13
M  V30 17 2 22 2
M  V30 18 1 22 6
M  V30 19 1 22 16
M  V30 20 1 23 8
M  V30 21 2 24 21
M  V30 22 1 25 20
M  V30 23 1 26 19
M  V30 24 2 26 25
M  V30 25 1 27 3
M  V30 26 1 27 6
M  V30 27 1 28 7
M  V30 28 1 28 18
M  V30 29 1 29 1
M  V30 30 1 29 17
M  V30 31 2 29 23
M  V30 32 1 30 1
M  V30 33 1 31 1
M  V30 34 1 32 3
M  V30 35 1 33 3
M  V30 36 1 34 4
M  V30 37 1 35 4
M  V30 38 1 36 4
M  V30 39 1 37 5
M  V30 40 1 38 5
M  V30 41 1 39 5
M  V30 42 1 40 7
M  V30 43 1 41 7
M  V30 44 1 42 11
M  V30 45 1 43 12
M  V30 46 1 44 13
M  V30 47 1 45 13
M  V30 48 1 46 13
M  V30 49 1 47 14
M  V30 50 1 48 14
M  V30 51 1 49 15
M  V30 52 1 16 50 CFG=3
M  V30 53 1 51 17
M  V30 54 1 52 18
M  V30 55 1 53 23
M  V30 56 1 54 24
M  V30 57 1 55 24
M  V30 58 1 56 25
M  V30 59 1 57 26
M  V30 60 1 58 27
M  V30 61 1 59 27
M  V30 62 1 60 28
M  V30 63 1 61 28
M  V30 64 1 62 18
M  V30 65 1 63 12
M  V30 END BOND
M  V30 END CTAB
M  END
>  <i_epik_Tot_Q>  (1) 
2

>  <i_epik_Tot_abs_Q>  (1) 
2

>  <i_i_glide_confnum>  (1) 
96

>  <i_i_glide_lignum>  (1) 
63

>  <i_i_glide_posenum>  (1) 
253

>  <i_i_glide_rotatable_bonds>  (1) 
9

>  <i_lp_mmshare_version>  (1) 
72125

>  <i_m_source_file_index>  (1) 
25

>  <i_f3d_flags>  (1) 
0

>  <num_sample>  (1) 
100

>  <b_lp_Chiralities_Consistent>  (1) 
1

>  <r_epik_Charging_Adjusted_Penalty>  (1) 
1.6940302234007771

>  <r_epik_Ionization_Penalty>  (1) 
0.87564545374797542

>  <r_epik_Ionization_Penalty_Charging>  (1) 
0.87490775709823365

>  <r_epik_Ionization_Penalty_Neutral>  (1) 
0.00073769664974180401

>  <r_epik_State_Penalty>  (1) 
0.81912246630254359

>  <r_glide_ring_energy>  (1) 
0

>  <r_i_docking_score>  (1) 
-7.6710301228961875

>  <r_i_glide_ecoul>  (1) 
-5.383674273947503

>  <r_i_glide_eff_state_penalty>  (1) 
0.81912246630254359

>  <r_i_glide_einternal>  (1) 
5.4762452766342058

>  <r_i_glide_emodel>  (1) 
-73.970599468133983

>  <r_i_glide_emodel_strain>  (1) 
0.6649695184472364

>  <r_i_glide_energy>  (1) 
-45.817559391818499

>  <r_i_glide_erotb>  (1) 
0.86311099515177125

>  <r_i_glide_esite>  (1) 
-0.10000000000000001

>  <r_i_glide_evdw>  (1) 
-40.433885117870993

>  <r_i_glide_gscore>  (1) 
-8.4901525891987308

>  <r_i_glide_gscore_strain>  (1) 
0

>  <r_i_glide_hbond>  (1) 
-0.17219774411477279

>  <r_i_glide_ligand_efficiency>  (1) 
-0.26451828009986855

>  <r_i_glide_ligand_efficiency_ln>  (1) 
-1.7564713776030016

>  <r_i_glide_ligand_efficiency_sa>  (1) 
-0.81268396265230802

>  <r_i_glide_lipo>  (1) 
-3.7837612528022238

>  <r_i_glide_metal>  (1) 
-0

>  <r_i_glide_rewards>  (1) 
-2.4680591904478315

>  <r_lp_Energy>  (1) 
68.015124999999998

>  <s_epik_cmdline>  (1) 
J2VwaWtfcHl0aG9uJywgJy1waHQnLCAnMS4wJywgJy1waCcsICc3LjQnLCAnLXRuJywgJzgnLCAnLW1hJywgJzUwMCcsICctaW1hZScsICc8aW5maWxlLm1hZT4nLCAnLW9tYWUnLCAnPG91dGZpbGUubWFlPic=

>  <s_epik_input>  (1) 
W0NIMl0xW0NIMl1bTkhdW0NAQEhdKFtDSDJdW09IXSlDKD1PKU4xW0NIMl1bQ0gyXVtOSF1bQ0gyXWMoW2NIXTIpW2NIXWMoQyhbQ0gzXSk9W0NIMl0pYyhjMjMpW2NIXVtjSF1jKFtjSF0zKU4oW0NIM10pW0NIM10=

>  <s_glide_docking_method>  (1) 
confgen

>  <s_i_glide_gridfile>  (1) 
gpcr_5ht2c_6bqh_protein_autoprepared_prepared

>  <s_lp_Force_Field>  (1) 
S-OPLS

>  <s_lp_Variant>  (1) 
DiffSBDD_24_num_sample_100-2

>  <s_m_source_file>  (1) 
generated__ligand_DiffSBDD_2026-05-06_prepared.sdf

>  <GenAI_Model>  (1) 
DiffSBDD

>  <Protein>  (1) 
GPCR_5HT2C

$$$$
DiffSBDD_40_num_sample_100
     RDKit          3D

  0  0  0  0  0  0  0  0  0  0999 V3000
M  V30 BEGIN CTAB
M  V30 COUNTS 73 75 0 0 1
M  V30 BEGIN ATOM
M  V30 1 C 43.060519 27.711498 57.855369 0
M  V30 2 C 40.547310 34.943385 63.047578 0 CFG=1
M  V30 3 N 40.667404 30.518480 51.053502 0
M  V30 4 C 40.366012 32.628695 61.824761 0
M  V30 5 C 38.357970 25.546599 54.828711 0
M  V30 6 C 38.945221 31.653178 57.061740 0
M  V30 7 N 39.210092 29.721538 52.734639 0 CHG=1
M  V30 8 C 38.591761 33.573577 59.690771 0
M  V30 9 O 36.667403 32.207593 59.053501 0
M  V30 10 C 38.100706 32.934837 57.207500 0
M  V30 11 C 41.546493 34.609723 64.159089 0
M  V30 12 C 40.515021 36.447530 62.693048 0
M  V30 13 N 39.542916 28.450022 51.037834 0
M  V30 14 C 39.775588 28.717729 57.435341 0 CFG=2
M  V30 15 C 40.802552 34.102034 61.767171 0
M  V30 16 C 38.282293 28.043438 55.462957 0 CFG=1
M  V30 17 C 39.169387 26.776532 55.280474 0 CFG=1
M  V30 18 S 41.080830 31.539051 62.857756 0
M  V30 19 C 38.434083 28.603560 52.945885 0
M  V30 20 N 40.677195 27.579206 57.105532 0 CFG=1 CHG=1
M  V30 21 S 39.067392 32.138248 60.721244 0
M  V30 22 C 41.647234 27.221428 58.171457 0
M  V30 23 C 38.663615 27.786338 51.849442 0
M  V30 24 C 37.530062 33.237073 58.616051 0 CFG=2
M  V30 25 C 39.943498 26.412392 56.560055 0
M  V30 26 O 41.067404 34.271021 65.393638 0
M  V30 27 C 38.783495 28.408679 58.589670 0
M  V30 28 N 41.856130 35.477733 65.008755 0
M  V30 29 C 39.855441 29.610573 51.580825 0
M  V30 30 C 39.076909 29.213440 56.134377 0 CFG=1
M  V30 31 C 37.552921 28.437813 54.148360 0
M  V30 32 C 38.213048 30.488611 56.367579 0
M  V30 33 H 43.740911 27.429156 58.653501 0
M  V30 34 H 43.459181 27.228125 56.974071 0
M  V30 35 H 43.109923 28.793736 57.731176 0
M  V30 36 H 39.556283 34.690316 63.423550 0
M  V30 37 H 40.859218 31.403257 51.505736 0
M  V30 38 H 41.124549 30.385068 50.162636 0
M  V30 39 H 37.568115 25.309232 55.542298 0
M  V30 40 H 37.889028 25.689533 53.856324 0
M  V30 41 H 38.995902 24.666361 54.742419 0
M  V30 42 H 39.847856 31.888262 56.496409 0
M  V30 43 H 39.264002 31.337602 58.047237 0
M  V30 44 H 39.464384 33.982560 59.182777 0
M  V30 45 H 38.195216 34.343302 60.354642 0
M  V30 46 H 36.056840 32.021435 58.332918 0
M  V30 47 H 37.300134 32.923297 56.472617 0
M  V30 48 H 38.696048 33.791448 56.903601 0
M  V30 49 H 40.255697 37.063142 63.554970 0
M  V30 50 H 41.480001 36.789334 62.318876 0
M  V30 51 H 39.771869 36.657177 61.923574 0
M  V30 52 H 39.891342 28.111332 50.150066 0
M  V30 53 H 40.439821 29.505694 57.789299 0
M  V30 54 H 41.867396 34.115402 61.546660 0
M  V30 55 H 40.377432 34.632608 60.930306 0
M  V30 56 H 37.489770 27.775352 56.161001 0
M  V30 57 H 39.912846 26.983264 54.510493 0
M  V30 58 H 41.351029 27.609009 59.145294 0
M  V30 59 H 41.684819 26.136982 58.253503 0
M  V30 60 H 38.267401 26.821431 51.594019 0
M  V30 61 H 36.904508 34.123568 58.498979 0
M  V30 62 H 39.280099 25.993955 57.318259 0
M  V30 63 H 40.657588 25.625462 56.311561 0
M  V30 64 H 38.200879 29.290367 58.856591 0
M  V30 65 H 38.070572 27.626224 58.334945 0
M  V30 66 H 39.284243 28.100288 59.505911 0
M  V30 67 H 39.873277 29.502405 55.447725 0
M  V30 68 H 36.814608 27.672566 53.906964 0
M  V30 69 H 36.952075 29.335768 54.271673 0
M  V30 70 H 37.314047 30.237527 56.931483 0
M  V30 71 H 37.862053 30.876370 55.412892 0
M  V30 72 H 41.257250 27.899333 56.343409 0
M  V30 73 H 39.265991 30.520666 53.354022 0
M  V30 END ATOM
M  V30 BEGIN BOND
M  V30 1 1 10 6
M  V30 2 1 11 2
M  V30 3 1 12 2
M  V30 4 1 15 2
M  V30 5 1 15 4
M  V30 6 1 17 5
M  V30 7 1 17 16
M  V30 8 2 18 4
M  V30 9 1 19 7
M  V30 10 1 20 14
M  V30 11 1 21 4
M  V30 12 1 21 8
M  V30 13 1 22 1
M  V30 14 1 22 20
M  V30 15 1 23 13
M  V30 16 2 23 19
M  V30 17 1 24 8
M  V30 18 1 24 9
M  V30 19 1 24 10
M  V30 20 1 25 17
M  V30 21 1 25 20
M  V30 22 1 26 11
M  V30 23 1 27 14
M  V30 24 2 28 11
M  V30 25 1 28 26
M  V30 26 1 29 3
M  V30 27 2 29 7
M  V30 28 1 29 13
M  V30 29 1 30 14
M  V30 30 1 30 16
M  V30 31 1 31 16
M  V30 32 1 31 19
M  V30 33 1 32 6
M  V30 34 1 32 30
M  V30 35 1 33 1
M  V30 36 1 34 1
M  V30 37 1 35 1
M  V30 38 1 2 36 CFG=1
M  V30 39 1 37 3
M  V30 40 1 38 3
M  V30 41 1 39 5
M  V30 42 1 40 5
M  V30 43 1 41 5
M  V30 44 1 42 6
M  V30 45 1 43 6
M  V30 46 1 44 8
M  V30 47 1 45 8
M  V30 48 1 46 9
M  V30 49 1 47 10
M  V30 50 1 48 10
M  V30 51 1 49 12
M  V30 52 1 50 12
M  V30 53 1 51 12
M  V30 54 1 52 13
M  V30 55 1 14 53 CFG=1
M  V30 56 1 54 15
M  V30 57 1 55 15
M  V30 58 1 16 56 CFG=1
M  V30 59 1 17 57 CFG=3
M  V30 60 1 58 22
M  V30 61 1 59 22
M  V30 62 1 60 23
M  V30 63 1 24 61 CFG=3
M  V30 64 1 62 25
M  V30 65 1 63 25
M  V30 66 1 64 27
M  V30 67 1 65 27
M  V30 68 1 66 27
M  V30 69 1 30 67 CFG=3
M  V30 70 1 68 31
M  V30 71 1 69 31
M  V30 72 1 70 32
M  V30 73 1 71 32
M  V30 74 1 20 72 CFG=3
M  V30 75 1 73 7
M  V30 END BOND
M  V30 END CTAB
M  END
>  <i_epik_Tot_Q>  (1) 
2

>  <i_epik_Tot_abs_Q>  (1) 
2

>  <i_i_glide_confnum>  (1) 
815

>  <i_i_glide_lignum>  (1) 
102

>  <i_i_glide_posenum>  (1) 
377

>  <i_i_glide_rotatable_bonds>  (1) 
14

>  <i_lp_mmshare_version>  (1) 
72125

>  <i_m_source_file_index>  (1) 
41

>  <i_f3d_flags>  (1) 
0

>  <num_sample>  (1) 
100

>  <b_lp_Chiralities_Consistent>  (1) 
1

>  <r_epik_Charging_Adjusted_Penalty>  (1) 
0.0037096170623772918

>  <r_epik_Ionization_Penalty>  (1) 
0.054330814931534903

>  <r_epik_Ionization_Penalty_Charging>  (1) 
0.0037096170623772918

>  <r_epik_Ionization_Penalty_Neutral>  (1) 
0.050621197869157614

>  <r_epik_State_Penalty>  (1) 
-0

>  <r_glide_ring_energy>  (1) 
0

>  <r_i_docking_score>  (1) 
-7.6699887044333179

>  <r_i_glide_ecoul>  (1) 
-7.8779035565267295

>  <r_i_glide_eff_state_penalty>  (1) 
-0

>  <r_i_glide_einternal>  (1) 
9.1053954642564392

>  <r_i_glide_emodel>  (1) 
-67.048549659838145

>  <r_i_glide_emodel_strain>  (1) 
3.763011438301703

>  <r_i_glide_energy>  (1) 
-52.036217199806352

>  <r_i_glide_erotb>  (1) 
0.95438045441749597

>  <r_i_glide_esite>  (1) 
-0.01216780742278769

>  <r_i_glide_evdw>  (1) 
-44.158313643279619

>  <r_i_glide_gscore>  (1) 
-7.6699887044333179

>  <r_i_glide_gscore_strain>  (1) 
0

>  <r_i_glide_hbond>  (1) 
-0.16

>  <r_i_glide_ligand_efficiency>  (1) 
-0.23968714701354119

>  <r_i_glide_ligand_efficiency_ln>  (1) 
-1.7175195469182878

>  <r_i_glide_ligand_efficiency_sa>  (1) 
-0.76095925862510361

>  <r_i_glide_lipo>  (1) 
-3.348692295732886

>  <r_i_glide_metal>  (1) 
-0

>  <r_i_glide_rewards>  (1) 
-1.7139078400521499

>  <r_lp_Energy>  (1) 
37.242804999999997

>  <r_lp_tautomer_probability>  (1) 
1

>  <s_epik_Chemistry_Notes>  (1) 
This compound has an imine and may undergo hydrolysis.

>  <s_epik_cmdline>  (1) 
J2VwaWtfcHl0aG9uJywgJy1waHQnLCAnMS4wJywgJy1waCcsICc3LjQnLCAnLXRuJywgJzgnLCAnLW1hJywgJzUwMCcsICctaW1hZScsICc8aW5maWxlLm1hZT4nLCAnLW9tYWUnLCAnPG91dGZpbGUubWFlPic=

>  <s_epik_input>  (1) 
W2NIXTFbbkhdYyhbTkgyXSluYzFbQ0gyXVtDQEBIXShbQ0BIXShbQ0gzXSlbQ0gyXU4oW0NAQEhdMltDSDNdKVtDSDJdW0NIM10pW0NAQEhdMltDSDJdW0NIMl1bQ0gyXVtDQEBIXShbT0hdKVtDSDJdU0MoPVMpW0NIMl1bQ0BIXShbQ0gzXSlDMz1OTzM=

>  <s_glide_docking_method>  (1) 
confgen

>  <s_i_glide_gridfile>  (1) 
gpcr_5ht2c_6bqh_protein_autoprepared_prepared

>  <s_lp_Force_Field>  (1) 
S-OPLS

>  <s_lp_Variant>  (1) 
DiffSBDD_40_num_sample_100-3

>  <s_m_source_file>  (1) 
generated__ligand_DiffSBDD_2026-05-06_prepared.sdf

>  <GenAI_Model>  (1) 
DiffSBDD

>  <Protein>  (1) 
GPCR_5HT2C

$$$$
DiffSBDD_29_num_sample_100
     RDKit          3D

  0  0  0  0  0  0  0  0  0  0999 V3000
M  V30 BEGIN CTAB
M  V30 COUNTS 86 90 0 0 1
M  V30 BEGIN ATOM
M  V30 1 F 40.114490 35.522215 63.494877 0
M  V30 2 C 36.317561 31.552021 61.622027 0
M  V30 3 C 39.875633 35.012391 60.656608 0
M  V30 4 C 38.906925 28.201191 56.975848 0 CFG=2
M  V30 5 C 39.227431 30.666584 53.353609 0
M  V30 6 C 39.867586 29.386523 56.793334 0
M  V30 7 C 38.234880 36.822029 63.297796 0
M  V30 8 N 37.462969 31.808824 60.761806 0
M  V30 9 C 37.738538 26.127687 55.765199 0 CFG=1
M  V30 10 C 40.022374 28.538648 51.218855 0
M  V30 11 C 39.412877 30.414634 59.977478 0
M  V30 12 C 39.593844 28.118362 52.612867 0 CFG=2
M  V30 13 C 39.150428 36.090823 62.755601 0
M  V30 14 C 38.187925 29.568084 59.861157 0 CFG=2
M  V30 15 C 35.720029 33.946603 61.486701 0
M  V30 16 C 37.606384 25.059395 58.164763 0
M  V30 17 C 38.693485 27.393776 55.618671 0 CFG=1
M  V30 18 C 37.330739 29.720977 58.601574 0 CFG=1
M  V30 19 C 38.006206 36.779353 60.762110 0
M  V30 20 N 36.937898 34.058438 60.704062 0 CHG=1
M  V30 21 N 39.058517 35.945031 61.427090 0
M  V30 22 F 38.163414 37.081111 64.611391 0
M  V30 23 S 37.865593 27.762420 52.806347 0
M  V30 24 C 38.016312 33.141651 61.060758 0 CFG=2
M  V30 25 C 35.179583 32.539974 61.391884 0
M  V30 26 C 39.586833 24.554358 56.690884 0
M  V30 27 O 37.467241 30.975263 57.943542 0
M  V30 28 C 38.281079 28.408196 54.461292 0 CFG=2
M  V30 29 C 37.529266 28.616121 57.550454 0
M  V30 30 C 39.652084 29.983763 50.876232 0
M  V30 31 C 39.868240 31.022706 51.991024 0
M  V30 32 C 39.233460 33.646248 60.233117 0
M  V30 33 O 37.639720 25.439869 54.541134 0
M  V30 34 C 39.406188 29.198531 53.722279 0 CFG=2
M  V30 35 C 38.314044 30.644747 60.944349 0 CFG=2
M  V30 36 C 38.115938 24.955180 56.726609 0
M  V30 37 O 39.596818 27.453077 57.948399 0
M  V30 38 S 37.030490 37.489058 62.240702 0
M  V30 39 H 35.941648 30.543379 61.452202 0
M  V30 40 H 36.679535 31.622464 62.645374 0
M  V30 41 H 40.756691 34.787212 61.257068 0
M  V30 42 H 40.268341 35.545350 59.807043 0
M  V30 43 H 39.725032 31.286876 54.104432 0
M  V30 44 H 38.182195 30.956839 53.453492 0
M  V30 45 H 39.424165 30.208436 56.229905 0
M  V30 46 H 40.215818 29.802466 57.726645 0
M  V30 47 H 40.774410 29.039839 56.306007 0
M  V30 48 H 36.720138 26.423946 55.987232 0
M  V30 49 H 41.101521 28.441788 51.139469 0
M  V30 50 H 39.600784 27.866755 50.470463 0
M  V30 51 H 40.332993 29.930959 60.295943 0
M  V30 52 H 39.467396 31.165975 59.209776 0
M  V30 53 H 40.121953 27.221444 52.953147 0
M  V30 54 H 38.266787 28.541118 60.213022 0
M  V30 55 H 35.067500 34.631488 60.986171 0
M  V30 56 H 35.863657 34.269088 62.514967 0
M  V30 57 H 38.206287 25.722761 58.782246 0
M  V30 58 H 36.571484 25.399707 58.181858 0
M  V30 59 H 37.632929 24.082308 58.645976 0
M  V30 60 H 39.673395 26.996705 55.352291 0
M  V30 61 H 36.287138 29.678016 58.921756 0
M  V30 62 H 38.371441 37.671308 60.266877 0
M  V30 63 H 37.379641 36.280774 60.027668 0
M  V30 64 H 36.717161 33.920438 59.727829 0
M  V30 65 H 38.262144 33.207680 62.119105 0
M  V30 66 H 34.733742 32.364187 60.412128 0
M  V30 67 H 34.400828 32.422761 62.148038 0
M  V30 68 H 40.265091 25.272542 57.136516 0
M  V30 69 H 39.721772 23.625553 57.244388 0
M  V30 70 H 39.894456 24.423037 55.656561 0
M  V30 71 H 36.623022 31.221429 57.532505 0
M  V30 72 H 37.469062 29.080635 54.722316 0
M  V30 73 H 37.045479 29.034960 56.695956 0
M  V30 74 H 36.972108 27.735408 57.858639 0
M  V30 75 H 40.153549 30.298468 49.958846 0
M  V30 76 H 38.603439 29.976522 50.653987 0
M  V30 77 H 40.934235 31.175182 52.118649 0
M  V30 78 H 39.473071 31.985311 51.666963 0
M  V30 79 H 40.038932 32.920577 60.294511 0
M  V30 80 H 38.967870 33.687085 59.174832 0
M  V30 81 H 37.453916 26.068655 53.854861 0
M  V30 82 H 40.266723 29.220909 54.350076 0
M  V30 83 H 38.519626 30.282573 61.949976 0
M  V30 84 H 37.571676 24.076393 56.366105 0
M  V30 85 H 40.460426 27.251095 57.621255 0
M  V30 86 H 37.311555 34.983755 60.832929 0
M  V30 END ATOM
M  V30 BEGIN BOND
M  V30 1 1 6 4
M  V30 2 1 8 2
M  V30 3 1 12 10
M  V30 4 1 13 1
M  V30 5 2 13 7
M  V30 6 1 14 11
M  V30 7 1 17 4
M  V30 8 1 17 9
M  V30 9 1 18 14
M  V30 10 1 20 15
M  V30 11 1 21 3
M  V30 12 1 21 13
M  V30 13 1 21 19
M  V30 14 1 22 7
M  V30 15 1 23 12
M  V30 16 1 24 8
M  V30 17 1 24 20
M  V30 18 1 25 2
M  V30 19 1 25 15
M  V30 20 1 27 18
M  V30 21 1 28 17
M  V30 22 1 28 23
M  V30 23 1 29 4
M  V30 24 1 29 18
M  V30 25 1 30 10
M  V30 26 1 31 5
M  V30 27 1 31 30
M  V30 28 1 32 3
M  V30 29 1 32 24
M  V30 30 1 33 9
M  V30 31 1 34 5
M  V30 32 1 34 12
M  V30 33 1 34 28
M  V30 34 1 35 8
M  V30 35 1 35 11
M  V30 36 1 35 14
M  V30 37 1 36 9
M  V30 38 1 36 16
M  V30 39 1 36 26
M  V30 40 1 4 37 CFG=1
M  V30 41 1 38 7
M  V30 42 1 38 19
M  V30 43 1 39 2
M  V30 44 1 40 2
M  V30 45 1 41 3
M  V30 46 1 42 3
M  V30 47 1 43 5
M  V30 48 1 44 5
M  V30 49 1 45 6
M  V30 50 1 46 6
M  V30 51 1 47 6
M  V30 52 1 9 48 CFG=1
M  V30 53 1 49 10
M  V30 54 1 50 10
M  V30 55 1 51 11
M  V30 56 1 52 11
M  V30 57 1 12 53 CFG=1
M  V30 58 1 14 54 CFG=1
M  V30 59 1 55 15
M  V30 60 1 56 15
M  V30 61 1 57 16
M  V30 62 1 58 16
M  V30 63 1 59 16
M  V30 64 1 17 60 CFG=3
M  V30 65 1 18 61 CFG=1
M  V30 66 1 62 19
M  V30 67 1 63 19
M  V30 68 1 64 20
M  V30 69 1 24 65 CFG=1
M  V30 70 1 66 25
M  V30 71 1 67 25
M  V30 72 1 68 26
M  V30 73 1 69 26
M  V30 74 1 70 26
M  V30 75 1 71 27
M  V30 76 1 28 72 CFG=1
M  V30 77 1 73 29
M  V30 78 1 74 29
M  V30 79 1 75 30
M  V30 80 1 76 30
M  V30 81 1 77 31
M  V30 82 1 78 31
M  V30 83 1 79 32
M  V30 84 1 80 32
M  V30 85 1 81 33
M  V30 86 1 34 82 CFG=1
M  V30 87 1 35 83 CFG=1
M  V30 88 1 84 36
M  V30 89 1 85 37
M  V30 90 1 86 20
M  V30 END BOND
M  V30 END CTAB
M  END
>  <i_epik_Tot_Q>  (1) 
1

>  <i_epik_Tot_abs_Q>  (1) 
1

>  <i_i_glide_confnum>  (1) 
1658

>  <i_i_glide_lignum>  (1) 
71

>  <i_i_glide_posenum>  (1) 
144

>  <i_i_glide_rotatable_bonds>  (1) 
14

>  <i_lp_mmshare_version>  (1) 
72125

>  <i_m_source_file_index>  (1) 
30

>  <i_f3d_flags>  (1) 
0

>  <num_sample>  (1) 
100

>  <b_lp_Chiralities_Consistent>  (1) 
1

>  <r_epik_Charging_Adjusted_Penalty>  (1) 
0.43533657855592212

>  <r_epik_Ionization_Penalty>  (1) 
0.17417288321429925

>  <r_epik_Ionization_Penalty_Charging>  (1) 
0.17415579174197784

>  <r_epik_Ionization_Penalty_Neutral>  (1) 
1.7091472321405907e-05

>  <r_epik_State_Penalty>  (1) 
0.2611807868139443

>  <r_glide_ring_energy>  (1) 
0.53215094814157604

>  <r_i_docking_score>  (1) 
-7.6699186618079027

>  <r_i_glide_ecoul>  (1) 
-2.5626927127488175

>  <r_i_glide_eff_state_penalty>  (1) 
0.2611807868139443

>  <r_i_glide_einternal>  (1) 
27.358292914668649

>  <r_i_glide_emodel>  (1) 
-19.659022873397035

>  <r_i_glide_emodel_strain>  (1) 
6.8557536738173042

>  <r_i_glide_energy>  (1) 
-33.787695540734447

>  <r_i_glide_erotb>  (1) 
0.46833353265868582

>  <r_i_glide_esite>  (1) 
0

>  <r_i_glide_evdw>  (1) 
-31.22500282798563

>  <r_i_glide_gscore>  (1) 
-7.9310994486218469

>  <r_i_glide_gscore_strain>  (1) 
0.71393841845432604

>  <r_i_glide_hbond>  (1) 
-0.16

>  <r_i_glide_ligand_efficiency>  (1) 
-0.20183996478441849

>  <r_i_glide_ligand_efficiency_ln>  (1) 
-1.6538600896334448

>  <r_i_glide_ligand_efficiency_sa>  (1) 
-0.67858099771438396

>  <r_i_glide_lipo>  (1) 
-5.4439158697101586

>  <r_i_glide_metal>  (1) 
-0

>  <r_i_glide_rewards>  (1) 
-1.563801481713095

>  <r_lp_Energy>  (1) 
40.958697000000001

>  <s_epik_Chemistry_Notes>  (1) 
This compound has an imine and may undergo hydrolysis. This compound contains an acetal/aminal-like group ( X-CH(R)-Y where X, Y are N, S, or O) that may be acid/base labile, releasing an aldehyde.

>  <s_epik_cmdline>  (1) 
J2VwaWtfcHl0aG9uJywgJy1waHQnLCAnMS4wJywgJy1waCcsICc3LjQnLCAnLXRuJywgJzgnLCAnLW1hJywgJzUwMCcsICctaW1hZScsICc8aW5maWxlLm1hZT4nLCAnLW9tYWUnLCAnPG91dGZpbGUubWFlPic=

>  <s_epik_input>  (1) 
RkMxPUMoRilOKFtDSDJdUzEpW0NIMl1bQ0gyXVtDQEhdMltOSF1bQ0gyXVtDSDJdW0NIMl1OMltDQEBIXTNbQ0gyXVtDQEBIXTNbQ0BASF0oW09IXSlbQ0gyXVtDQEBdKFtDSDNdKShbT0hdKVtDQEBIXShbQ0BASF0oW09IXSlbQ0hdKFtDSDNdKVtDSDNdKVtDQEhdKFM0KVtDQEBIXShbQ0BASF00NSlbQ0gyXVtDSDJdW0NIMl1bQ0gyXTU=

>  <s_glide_docking_method>  (1) 
confgen

>  <s_i_glide_gridfile>  (1) 
gpcr_5ht2c_6bqh_protein_autoprepared_prepared

>  <s_lp_Force_Field>  (1) 
S-OPLS

>  <s_lp_Variant>  (1) 
DiffSBDD_29_num_sample_100-1

>  <s_m_source_file>  (1) 
generated__ligand_DiffSBDD_2026-05-06_prepared.sdf

>  <GenAI_Model>  (1) 
DiffSBDD

>  <Protein>  (1) 
GPCR_5HT2C

$$$$
DiffSBDD_0_num_sample_100
     RDKit          3D

  0  0  0  0  0  0  0  0  0  0999 V3000
M  V30 BEGIN CTAB
M  V30 COUNTS 60 62 0 0 1
M  V30 BEGIN ATOM
M  V30 1 C 37.576972 25.646374 55.833955 0
M  V30 2 C 39.250348 29.142247 54.144772 0 CFG=1
M  V30 3 C 40.079567 32.181370 61.362382 0
M  V30 4 C 38.119859 33.154039 58.255401 0
M  V30 5 C 38.220189 25.395451 57.081682 0
M  V30 6 C 40.179139 26.871696 56.258449 0
M  V30 7 C 39.097136 34.356784 60.835752 0
M  V30 8 C 40.869327 32.783726 62.362617 0
M  V30 9 C 39.191830 32.965002 60.593176 0
M  V30 10 C 40.087842 29.535807 51.785169 0 CFG=2
M  V30 11 N 37.867549 30.894607 55.455376 0 CHG=1
M  V30 12 C 38.734272 31.330630 56.570712 0
M  V30 13 C 38.299163 32.732056 56.983129 0
M  V30 14 C 40.773703 34.169558 62.598568 0
M  V30 15 F 39.796986 36.287157 62.063643 0
M  V30 16 C 39.888612 34.954909 61.835141 0
M  V30 17 C 38.333516 32.302911 59.511068 0 CFG=1
M  V30 18 C 39.446359 25.955124 57.312018 0
M  V30 19 N 36.052209 31.566656 60.597588 0
M  V30 20 C 37.996459 29.482858 55.014801 0
M  V30 21 C 38.248690 26.250109 54.891743 0
M  V30 22 C 39.399849 27.621744 53.864938 0 CFG=1
M  V30 23 N 39.112715 29.833316 52.848221 0
M  V30 24 O 41.536768 34.751433 63.569123 0
M  V30 25 C 40.522394 30.818703 51.053183 0
M  V30 26 C 39.603042 28.456380 50.789258 0
M  V30 27 C 39.661297 31.269251 49.859676 0
M  V30 28 N 39.537568 26.636279 54.954590 0
M  V30 29 S 37.821996 26.821434 53.353031 0
M  V30 30 C 37.051968 31.892594 60.112454 0
M  V30 31 Cl 37.467404 24.421464 58.253997 0
M  V30 32 H 36.542749 25.373047 55.684699 0
M  V30 33 H 40.149180 29.511931 54.639579 0
M  V30 34 H 40.153930 31.118132 61.185552 0
M  V30 35 H 37.798621 34.170098 58.419419 0
M  V30 36 H 40.125851 27.916221 56.564659 0
M  V30 37 H 41.227533 26.583097 56.217412 0
M  V30 38 H 38.419278 34.965393 60.260202 0
M  V30 39 H 41.547152 32.181457 62.950637 0
M  V30 40 H 41.006796 29.211605 52.253501 0
M  V30 41 H 36.914933 31.023979 55.791493 0
M  V30 42 H 39.773337 31.355452 56.240302 0
M  V30 43 H 38.652353 30.607686 57.379369 0
M  V30 44 H 38.122060 33.429389 56.175813 0
M  V30 45 H 38.839935 31.377460 59.255356 0
M  V30 46 H 39.953127 25.783805 58.250892 0
M  V30 47 H 37.959692 28.849548 55.901297 0
M  V30 48 H 37.090131 29.262297 54.449334 0
M  V30 49 H 40.158605 27.326294 53.142116 0
M  V30 50 H 39.134424 30.833048 52.986141 0
M  V30 51 H 41.371331 35.680663 63.656323 0
M  V30 52 H 40.642042 31.621507 51.774698 0
M  V30 53 H 41.524871 30.645482 50.658666 0
M  V30 54 H 40.266675 28.409687 49.927502 0
M  V30 55 H 39.573667 27.446394 51.186760 0
M  V30 56 H 38.607988 28.680551 50.413845 0
M  V30 57 H 40.189913 32.021467 49.286100 0
M  V30 58 H 39.467400 30.465745 49.153080 0
M  V30 59 H 38.714464 31.709474 50.161360 0
M  V30 60 H 37.990703 31.509286 54.665084 0
M  V30 END ATOM
M  V30 BEGIN BOND
M  V30 1 1 5 1
M  V30 2 2 8 3
M  V30 3 1 9 3
M  V30 4 2 9 7
M  V30 5 1 12 11
M  V30 6 2 13 4
M  V30 7 1 13 12
M  V30 8 1 14 8
M  V30 9 1 16 7
M  V30 10 2 16 14
M  V30 11 1 16 15
M  V30 12 1 17 4
M  V30 13 1 17 9
M  V30 14 2 18 5
M  V30 15 1 18 6
M  V30 16 1 20 2
M  V30 17 1 20 11
M  V30 18 2 21 1
M  V30 19 1 22 2
M  V30 20 1 23 2
M  V30 21 1 23 10
M  V30 22 1 24 14
M  V30 23 1 25 10
M  V30 24 1 26 10
M  V30 25 1 27 25
M  V30 26 1 28 6
M  V30 27 1 28 21
M  V30 28 1 28 22
M  V30 29 1 29 21
M  V30 30 1 29 22
M  V30 31 1 30 17
M  V30 32 3 30 19
M  V30 33 1 31 5
M  V30 34 1 32 1
M  V30 35 1 2 33 CFG=1
M  V30 36 1 34 3
M  V30 37 1 35 4
M  V30 38 1 36 6
M  V30 39 1 37 6
M  V30 40 1 38 7
M  V30 41 1 39 8
M  V30 42 1 10 40 CFG=1
M  V30 43 1 41 11
M  V30 44 1 42 12
M  V30 45 1 43 12
M  V30 46 1 44 13
M  V30 47 1 17 45 CFG=3
M  V30 48 1 46 18
M  V30 49 1 47 20
M  V30 50 1 48 20
M  V30 51 1 22 49 CFG=3
M  V30 52 1 50 23
M  V30 53 1 51 24
M  V30 54 1 52 25
M  V30 55 1 53 25
M  V30 56 1 54 26
M  V30 57 1 55 26
M  V30 58 1 56 26
M  V30 59 1 57 27
M  V30 60 1 58 27
M  V30 61 1 59 27
M  V30 62 1 60 11
M  V30 END BOND
M  V30 END CTAB
M  END
>  <i_epik_Tot_Q>  (1) 
1

>  <i_epik_Tot_abs_Q>  (1) 
1

>  <i_i_glide_confnum>  (1) 
1120

>  <i_i_glide_lignum>  (1) 
6

>  <i_i_glide_posenum>  (1) 
248

>  <i_i_glide_rotatable_bonds>  (1) 
11

>  <i_lp_mmshare_version>  (1) 
72125

>  <i_m_source_file_index>  (1) 
1

>  <i_f3d_flags>  (1) 
0

>  <num_sample>  (1) 
100

>  <b_lp_Chiralities_Consistent>  (1) 
1

>  <r_epik_Charging_Adjusted_Penalty>  (1) 
1.8065071523224812

>  <r_epik_Ionization_Penalty>  (1) 
0.92614417087394063

>  <r_epik_Ionization_Penalty_Charging>  (1) 
0.760298405215594

>  <r_epik_Ionization_Penalty_Neutral>  (1) 
0.16584576565834661

>  <r_epik_State_Penalty>  (1) 
1.0462087471068873

>  <r_glide_ring_energy>  (1) 
0

>  <r_i_docking_score>  (1) 
-7.64254754667438

>  <r_i_glide_ecoul>  (1) 
-4.9609996866818342

>  <r_i_glide_eff_state_penalty>  (1) 
1.0462087471068873

>  <r_i_glide_einternal>  (1) 
18.173612145911029

>  <r_i_glide_emodel>  (1) 
-69.955737173239584

>  <r_i_glide_emodel_strain>  (1) 
2.2734382718577706

>  <r_i_glide_energy>  (1) 
-46.536313651530079

>  <r_i_glide_erotb>  (1) 
0.74887478347211667

>  <r_i_glide_esite>  (1) 
-0.12393313321088797

>  <r_i_glide_evdw>  (1) 
-41.575313964848249

>  <r_i_glide_gscore>  (1) 
-8.6887562937812675

>  <r_i_glide_gscore_strain>  (1) 
0

>  <r_i_glide_hbond>  (1) 
-0.18325261335465687

>  <r_i_glide_ligand_efficiency>  (1) 
-0.24653379182820581

>  <r_i_glide_ligand_efficiency_ln>  (1) 
-1.723628687729106

>  <r_i_glide_ligand_efficiency_sa>  (1) 
-0.77445648380981313

>  <r_i_glide_lipo>  (1) 
-4.7264092623860678

>  <r_i_glide_metal>  (1) 
-0

>  <r_i_glide_rewards>  (1) 
-1.5811204170570829

>  <r_lp_Energy>  (1) 
39.043923999999997

>  <s_epik_Chemistry_Notes>  (1) 
This compound contains an acetal/aminal-like group ( X-CH(R)-Y where X, Y are N, S, or O) that may be acid/base labile, releasing an aldehyde.

>  <s_epik_cmdline>  (1) 
J2VwaWtfcHl0aG9uJywgJy1waHQnLCAnMS4wJywgJy1waCcsICc3LjQnLCAnLXRuJywgJzgnLCAnLW1hJywgJzUwMCcsICctaW1hZScsICc8aW5maWxlLm1hZT4nLCAnLW9tYWUnLCAnPG91dGZpbGUubWFlPic=

>  <s_epik_input>  (1) 
W0NIXT0xQyhDbCk9W0NIXVtDSDJdTihDMTIpW0NAQEhdKFMyKVtDQEBIXShbTkhdW0NAQEhdKFtDSDNdKVtDSDJdW0NIM10pW0NIMl1bTkhdW0NIMl0vW0NIXT1bQ0hdXFtDQEhdKEMjTiljM1tjSF1bY0hdYyhbT0hdKWMoRilbY0hdMw==

>  <s_glide_docking_method>  (1) 
confgen

>  <s_i_glide_gridfile>  (1) 
gpcr_5ht2c_6bqh_protein_autoprepared_prepared

>  <s_lp_Force_Field>  (1) 
S-OPLS

>  <s_lp_Variant>  (1) 
DiffSBDD_0_num_sample_100-6

>  <s_m_source_file>  (1) 
generated__ligand_DiffSBDD_2026-05-06_prepared.sdf

>  <GenAI_Model>  (1) 
DiffSBDD

>  <Protein>  (1) 
GPCR_5HT2C

$$$$
DiffSBDD_6_num_sample_100
     RDKit          3D

  0  0  0  0  0  0  0  0  0  0999 V3000
M  V30 BEGIN CTAB
M  V30 COUNTS 67 70 0 0 1
M  V30 BEGIN ATOM
M  V30 1 C 39.184514 32.652785 61.094576 0 CFG=1
M  V30 2 C 40.685737 30.469656 50.421313 0
M  V30 3 O 40.272287 29.621294 58.309333 0
M  V30 4 C 38.796010 26.779543 56.769155 0 CFG=2
M  V30 5 N 39.072327 31.514961 60.211573 0
M  V30 6 N 38.698839 29.106108 54.702168 0
M  V30 7 O 38.267673 25.565334 58.651690 0
M  V30 8 C 38.232500 28.094497 57.383248 0 CFG=1
M  V30 9 O 37.706550 26.059376 56.174299 0
M  V30 10 O 38.858465 31.313783 54.173397 0
M  V30 11 S 36.219678 34.182322 60.041057 0
M  V30 12 S 39.285974 28.587899 58.828355 0
M  V30 13 O 40.798724 28.077366 56.133273 0
M  V30 14 C 39.328998 25.750190 57.780911 0
M  V30 15 C 40.569896 32.558296 61.767390 0
M  V30 16 C 40.267358 29.307385 49.768971 0
M  V30 17 C 38.729723 35.139285 61.104847 0
M  V30 18 S 37.067535 35.784080 61.090093 0
M  V30 19 C 41.873189 27.693028 56.992412 0
M  V30 20 O 35.901536 33.107071 60.996027 0
M  V30 21 C 38.589883 30.324489 60.861448 0
M  V30 22 C 40.279195 30.719604 51.743869 0
M  V30 23 C 40.908669 33.727357 62.702994 0
M  V30 24 S 37.867409 29.453789 56.203214 0
M  V30 25 C 37.788882 33.814877 59.195425 0
M  V30 26 C 39.464688 29.799886 52.428741 0
M  V30 27 C 38.977851 33.914440 60.215275 0 CFG=2
M  V30 28 C 40.951003 35.093809 61.989146 0
M  V30 29 O 35.241657 34.663228 59.053890 0
M  V30 30 C 39.124637 27.711550 54.477518 0
M  V30 31 C 38.991915 30.136195 53.847406 0
M  V30 32 C 39.435864 28.389966 50.430214 0
M  V30 33 C 39.025133 28.632346 51.749064 0
M  V30 34 C 39.840756 27.105232 55.701366 0 CFG=2
M  V30 35 N 39.629513 35.673273 61.833599 0
M  V30 36 C 37.973513 29.455445 59.779159 0
M  V30 37 H 38.400486 32.623563 61.849997 0
M  V30 38 H 41.318720 31.180712 49.904512 0
M  V30 39 H 38.446906 31.754983 59.458879 0
M  V30 40 H 37.523097 25.415145 58.082019 0
M  V30 41 H 37.261844 27.852429 57.823495 0
M  V30 42 H 37.292456 26.614205 55.527312 0
M  V30 43 H 40.160081 26.062322 58.395869 0
M  V30 44 H 39.606507 24.804657 57.307613 0
M  V30 45 H 40.624019 31.636074 62.347676 0
M  V30 46 H 41.344361 32.467284 61.007647 0
M  V30 47 H 40.574753 29.119283 48.750919 0
M  V30 48 H 42.641621 28.465940 56.995954 0
M  V30 49 H 41.605418 27.517189 58.025004 0
M  V30 50 H 42.385107 26.821368 56.653596 0
M  V30 51 H 37.818337 30.571589 61.589506 0
M  V30 52 H 39.391888 29.805376 61.382861 0
M  V30 53 H 40.596836 31.621611 52.238868 0
M  V30 54 H 40.212159 33.753924 63.541768 0
M  V30 55 H 41.888165 33.537080 63.145355 0
M  V30 56 H 37.679479 32.891323 58.631761 0
M  V30 57 H 37.866231 34.572007 58.421301 0
M  V30 58 H 41.539352 35.778591 62.601675 0
M  V30 59 H 41.487335 35.034256 61.045504 0
M  V30 60 H 38.276534 27.124847 54.132705 0
M  V30 61 H 39.867281 27.594936 53.711287 0
M  V30 62 H 39.094159 27.500173 49.916338 0
M  V30 63 H 38.358666 27.937601 52.220997 0
M  V30 64 H 40.355094 26.194209 55.387865 0
M  V30 65 H 39.871116 34.078276 59.621614 0
M  V30 66 H 37.273758 29.992898 59.133919 0
M  V30 67 H 37.467309 28.650864 60.253385 0
M  V30 END ATOM
M  V30 BEGIN BOND
M  V30 1 1 5 1
M  V30 2 1 8 4
M  V30 3 1 4 9 CFG=3
M  V30 4 2 12 3
M  V30 5 1 12 8
M  V30 6 1 14 4
M  V30 7 1 14 7
M  V30 8 1 15 1
M  V30 9 2 16 2
M  V30 10 1 18 11
M  V30 11 1 18 17
M  V30 12 1 19 13
M  V30 13 2 20 11
M  V30 14 1 21 5
M  V30 15 1 22 2
M  V30 16 1 23 15
M  V30 17 1 24 6
M  V30 18 1 24 8
M  V30 19 1 25 11
M  V30 20 2 26 22
M  V30 21 1 27 1
M  V30 22 1 27 17
M  V30 23 1 27 25
M  V30 24 1 28 23
M  V30 25 2 29 11
M  V30 26 1 30 6
M  V30 27 1 31 6
M  V30 28 2 31 10
M  V30 29 1 31 26
M  V30 30 1 32 16
M  V30 31 1 33 26
M  V30 32 2 33 32
M  V30 33 1 34 4
M  V30 34 1 34 13
M  V30 35 1 34 30
M  V30 36 2 35 17
M  V30 37 1 35 28
M  V30 38 1 12 36 CFG=1
M  V30 39 1 36 21
M  V30 40 1 1 37 CFG=1
M  V30 41 1 38 2
M  V30 42 1 39 5
M  V30 43 1 40 7
M  V30 44 1 8 41 CFG=1
M  V30 45 1 42 9
M  V30 46 1 43 14
M  V30 47 1 44 14
M  V30 48 1 45 15
M  V30 49 1 46 15
M  V30 50 1 47 16
M  V30 51 1 48 19
M  V30 52 1 49 19
M  V30 53 1 50 19
M  V30 54 1 51 21
M  V30 55 1 52 21
M  V30 56 1 53 22
M  V30 57 1 54 23
M  V30 58 1 55 23
M  V30 59 1 56 25
M  V30 60 1 57 25
M  V30 61 1 58 28
M  V30 62 1 59 28
M  V30 63 1 60 30
M  V30 64 1 61 30
M  V30 65 1 62 32
M  V30 66 1 63 33
M  V30 67 1 34 64 CFG=3
M  V30 68 1 27 65 CFG=3
M  V30 69 1 66 36
M  V30 70 1 67 36
M  V30 END BOND
M  V30 END CTAB
M  END
>  <i_epik_Tot_Q>  (1) 
0

>  <i_epik_Tot_abs_Q>  (1) 
0

>  <i_i_glide_confnum>  (1) 
281

>  <i_i_glide_lignum>  (1) 
26

>  <i_i_glide_posenum>  (1) 
8

>  <i_i_glide_rotatable_bonds>  (1) 
11

>  <i_lp_mmshare_version>  (1) 
72125

>  <i_m_source_file_index>  (1) 
7

>  <i_f3d_flags>  (1) 
0

>  <num_sample>  (1) 
100

>  <b_lp_Chiralities_Consistent>  (1) 
1

>  <r_epik_Charging_Adjusted_Penalty>  (1) 
0.04024977574551479

>  <r_epik_Ionization_Penalty>  (1) 
0.04050266925573108

>  <r_epik_Ionization_Penalty_Charging>  (1) 
0

>  <r_epik_Ionization_Penalty_Neutral>  (1) 
0.04050266925573108

>  <r_epik_State_Penalty>  (1) 
0.04024977574551479

>  <r_glide_ring_energy>  (1) 
1.1347446578081875

>  <r_i_docking_score>  (1) 
-7.6358730108893198

>  <r_i_glide_ecoul>  (1) 
-2.5573350292795718

>  <r_i_glide_eff_state_penalty>  (1) 
0.04024977574551479

>  <r_i_glide_einternal>  (1) 
5.3603952228910501

>  <r_i_glide_emodel>  (1) 
-61.868321067920093

>  <r_i_glide_emodel_strain>  (1) 
6.7823212761425822

>  <r_i_glide_energy>  (1) 
-46.595805682669457

>  <r_i_glide_erotb>  (1) 
0.34065271397431773

>  <r_i_glide_esite>  (1) 
-0.028555836190780226

>  <r_i_glide_evdw>  (1) 
-44.038470653389886

>  <r_i_glide_gscore>  (1) 
-7.6761227866348349

>  <r_i_glide_gscore_strain>  (1) 
0.69558031903564554

>  <r_i_glide_hbond>  (1) 
0

>  <r_i_glide_ligand_efficiency>  (1) 
-0.21210758363581445

>  <r_i_glide_ligand_efficiency_ln>  (1) 
-1.6659411935279032

>  <r_i_glide_ligand_efficiency_sa>  (1) 
-0.70036381010429183

>  <r_i_glide_lipo>  (1) 
-4.20894445366259

>  <r_i_glide_metal>  (1) 
-0

>  <r_i_glide_rewards>  (1) 
-1.8893317427299987

>  <r_lp_Energy>  (1) 
36.868558999999998

>  <r_lp_tautomer_probability>  (1) 
0.99960115913750414

>  <s_epik_Chemistry_Notes>  (1) 
This compound has an imine and may undergo hydrolysis. This compound contains an acetal/aminal-like group ( X-CH(R)-Y where X, Y are N, S, or O) that may be acid/base labile, releasing an aldehyde. This compound has a N-S or N-O group and may undergo hydrolysis at high or low pH.

>  <s_epik_cmdline>  (1) 
J2VwaWtfcHl0aG9uJywgJy1waHQnLCAnMS4wJywgJy1waCcsICc3LjQnLCAnLXRuJywgJzgnLCAnLW1hJywgJzUwMCcsICctaW1hZScsICc8aW5maWxlLm1hZT4nLCAnLW9tYWUnLCAnPG91dGZpbGUubWFlPic=

>  <s_epik_input>  (1) 
UzFTKD1PKSg9TylbQ0gyXUMoPUMxMilbQ0BIXShbQ0gyXVtDSDJdW0NIMl1bTkhdMilbTkhdW0NIMl1bQ0gyXVtTQF0oPU8pW0NASF0oW0NAXTMoW09IXSlbQ0gyXVtPSF0pU04oW0NIMl1bQ0BIXTNPW0NIM10pQyg9TyljNFtjSF1bY0hdW2NIXVtjSF1bY0hdNA==

>  <s_glide_docking_method>  (1) 
confgen

>  <s_i_glide_gridfile>  (1) 
gpcr_5ht2c_6bqh_protein_autoprepared_prepared

>  <s_lp_Force_Field>  (1) 
S-OPLS

>  <s_lp_Variant>  (1) 
DiffSBDD_6_num_sample_100-2

>  <s_m_source_file>  (1) 
generated__ligand_DiffSBDD_2026-05-06_prepared.sdf

>  <GenAI_Model>  (1) 
DiffSBDD

>  <Protein>  (1) 
GPCR_5HT2C

$$$$
DiffSBDD_10_num_sample_100
     RDKit          3D

  0  0  0  0  0  0  0  0  0  0999 V3000
M  V30 BEGIN CTAB
M  V30 COUNTS 89 92 0 0 1
M  V30 BEGIN ATOM
M  V30 1 C 42.014420 32.870843 64.471618 0
M  V30 2 C 39.793902 28.490279 62.165430 0
M  V30 3 C 41.036408 28.613063 57.918600 0
M  V30 4 C 38.054532 30.168970 55.074643 0 CFG=2
M  V30 5 C 42.349233 29.918195 63.853483 0
M  V30 6 C 38.596939 30.537958 57.353132 0 CFG=1
M  V30 7 C 38.802385 27.472067 53.472880 0
M  V30 8 C 40.792998 28.072172 63.270718 0
M  V30 9 O 43.681518 32.994690 67.171386 0
M  V30 10 O 40.999672 30.567697 67.340794 0
M  V30 11 C 41.585257 34.997196 65.946442 0
M  V30 12 C 40.742217 34.399690 67.083075 0
M  V30 13 O 40.267407 25.974925 57.853494 0
M  V30 14 C 41.961245 31.328390 66.635680 0 CFG=2
M  V30 15 C 41.466965 33.493752 68.102115 0
M  V30 16 N 41.270362 30.468240 64.453848 0
M  V30 17 C 39.327857 26.752417 58.011631 0
M  V30 18 C 39.181434 28.737501 59.649967 0 CFG=2
M  V30 19 C 39.539364 28.286390 58.172430 0 CFG=1
M  V30 20 C 38.517955 28.626889 52.483534 0 CFG=2
M  V30 21 C 38.868827 28.132600 51.069163 0
M  V30 22 C 38.314366 27.648605 54.919069 0
M  V30 23 C 38.011927 30.886596 58.715008 0
M  V30 24 C 38.588499 29.027430 57.150062 0 CFG=2
M  V30 25 C 39.324593 29.911293 52.801468 0
M  V30 26 C 38.893484 30.263337 59.806607 0
M  V30 27 C 38.777264 30.851807 53.899123 0
M  V30 28 C 37.662942 25.060477 57.730291 0
M  V30 29 N 37.867408 31.101703 56.208575 0 CHG=1
M  V30 30 C 40.244385 28.304482 60.709847 0
M  V30 31 C 41.403827 34.277688 64.597955 0
M  V30 32 C 42.466348 32.423243 67.607751 0 CFG=2
M  V30 33 O 38.036519 26.391687 58.050299 0
M  V30 34 C 41.332298 31.708886 65.255560 0 CFG=2
M  V30 35 O 43.467300 30.421426 63.872917 0
M  V30 36 C 38.810734 28.932441 55.619470 0 CFG=2
M  V30 37 N 42.083554 28.757685 63.224580 0
M  V30 38 H 41.984091 32.644453 63.405181 0
M  V30 39 H 43.067379 32.915246 64.719298 0
M  V30 40 H 38.888844 27.894905 62.253496 0
M  V30 41 H 39.503501 29.520815 62.358682 0
M  V30 42 H 41.274638 29.621240 58.253533 0
M  V30 43 H 41.703257 27.960172 58.483668 0
M  V30 44 H 41.330363 28.488973 56.878112 0
M  V30 45 H 37.050857 29.883793 54.755173 0
M  V30 46 H 39.615200 30.916033 57.276308 0
M  V30 47 H 39.867350 27.243139 53.480208 0
M  V30 48 H 38.328890 26.566931 53.090630 0
M  V30 49 H 41.067391 27.027988 63.197200 0
M  V30 50 H 40.331556 28.147248 64.256071 0
M  V30 51 H 44.311002 32.302081 67.033524 0
M  V30 52 H 40.232314 31.101232 67.474271 0
M  V30 53 H 41.257822 36.027453 65.801295 0
M  V30 54 H 42.637011 35.082370 66.216213 0
M  V30 55 H 39.878885 33.898259 66.658794 0
M  V30 56 H 40.311654 35.225740 67.650785 0
M  V30 57 H 42.811769 30.665368 66.474285 0
M  V30 58 H 40.701101 32.997812 68.698762 0
M  V30 59 H 41.993872 34.125653 68.815433 0
M  V30 60 H 40.381533 29.993948 64.390635 0
M  V30 61 H 38.256698 28.230862 59.916853 0
M  V30 62 H 37.451263 28.850909 52.493745 0
M  V30 63 H 39.923959 27.870628 50.988517 0
M  V30 64 H 38.291634 27.244480 50.811624 0
M  V30 65 H 38.667462 28.885246 50.309518 0
M  V30 66 H 38.659180 26.769509 55.454377 0
M  V30 67 H 37.227280 27.595006 54.944788 0
M  V30 68 H 36.988592 30.517093 58.799880 0
M  V30 69 H 37.964953 31.968386 58.848044 0
M  V30 70 H 37.561544 28.704752 57.336813 0
M  V30 71 H 40.330233 29.621444 53.071702 0
M  V30 72 H 39.467427 30.503392 51.896692 0
M  V30 73 H 38.398988 30.454775 60.757910 0
M  V30 74 H 39.837083 30.805086 59.854042 0
M  V30 75 H 39.618126 31.434978 54.277589 0
M  V30 76 H 38.107801 31.586000 53.453504 0
M  V30 77 H 36.621387 24.896358 58.003911 0
M  V30 78 H 37.762953 24.883091 56.658604 0
M  V30 79 H 38.267374 24.322059 58.253479 0
M  V30 80 H 36.873647 31.190367 56.442016 0
M  V30 81 H 41.176094 28.848888 60.563595 0
M  V30 82 H 40.477694 27.253116 60.568612 0
M  V30 83 H 40.352455 34.247475 64.314020 0
M  V30 84 H 41.877154 34.903958 63.840697 0
M  V30 85 H 42.774388 31.890944 68.509948 0
M  V30 86 H 40.291795 31.997133 65.407936 0
M  V30 87 H 39.872969 29.057893 55.416447 0
M  V30 88 H 42.839778 28.291077 62.738862 0
M  V30 89 H 38.204959 32.025170 55.982893 0
M  V30 END ATOM
M  V30 BEGIN BOND
M  V30 1 1 8 2
M  V30 2 1 12 11
M  V30 3 1 14 10
M  V30 4 1 15 12
M  V30 5 1 16 5
M  V30 6 2 17 13
M  V30 7 1 19 3 CFG=3
M  V30 8 1 19 17
M  V30 9 1 19 18
M  V30 10 1 20 7
M  V30 11 1 21 20
M  V30 12 1 22 7
M  V30 13 1 23 6
M  V30 14 1 24 6
M  V30 15 1 24 19
M  V30 16 1 25 20
M  V30 17 1 26 18
M  V30 18 1 26 23
M  V30 19 1 27 4
M  V30 20 1 27 25
M  V30 21 1 29 4
M  V30 22 1 29 6
M  V30 23 1 30 2
M  V30 24 1 30 18
M  V30 25 1 31 1
M  V30 26 1 31 11
M  V30 27 1 32 9
M  V30 28 1 32 14
M  V30 29 1 32 15
M  V30 30 1 33 17
M  V30 31 1 33 28
M  V30 32 1 34 1
M  V30 33 1 34 14
M  V30 34 1 34 16
M  V30 35 2 35 5
M  V30 36 1 36 4
M  V30 37 1 36 22
M  V30 38 1 36 24
M  V30 39 1 37 5
M  V30 40 1 37 8
M  V30 41 1 38 1
M  V30 42 1 39 1
M  V30 43 1 40 2
M  V30 44 1 41 2
M  V30 45 1 42 3
M  V30 46 1 43 3
M  V30 47 1 44 3
M  V30 48 1 4 45 CFG=3
M  V30 49 1 6 46 CFG=1
M  V30 50 1 47 7
M  V30 51 1 48 7
M  V30 52 1 49 8
M  V30 53 1 50 8
M  V30 54 1 51 9
M  V30 55 1 52 10
M  V30 56 1 53 11
M  V30 57 1 54 11
M  V30 58 1 55 12
M  V30 59 1 56 12
M  V30 60 1 14 57 CFG=3
M  V30 61 1 58 15
M  V30 62 1 59 15
M  V30 63 1 60 16
M  V30 64 1 18 61 CFG=1
M  V30 65 1 20 62 CFG=3
M  V30 66 1 63 21
M  V30 67 1 64 21
M  V30 68 1 65 21
M  V30 69 1 66 22
M  V30 70 1 67 22
M  V30 71 1 68 23
M  V30 72 1 69 23
M  V30 73 1 24 70 CFG=3
M  V30 74 1 71 25
M  V30 75 1 72 25
M  V30 76 1 73 26
M  V30 77 1 74 26
M  V30 78 1 75 27
M  V30 79 1 76 27
M  V30 80 1 77 28
M  V30 81 1 78 28
M  V30 82 1 79 28
M  V30 83 1 80 29
M  V30 84 1 81 30
M  V30 85 1 82 30
M  V30 86 1 83 31
M  V30 87 1 84 31
M  V30 88 1 32 85 CFG=1
M  V30 89 1 34 86 CFG=1
M  V30 90 1 36 87 CFG=1
M  V30 91 1 88 37
M  V30 92 1 89 29
M  V30 END BOND
M  V30 END CTAB
M  END
>  <i_epik_Tot_Q>  (1) 
1

>  <i_epik_Tot_abs_Q>  (1) 
1

>  <i_i_glide_confnum>  (1) 
315

>  <i_i_glide_lignum>  (1) 
29

>  <i_i_glide_posenum>  (1) 
362

>  <i_i_glide_rotatable_bonds>  (1) 
11

>  <i_lp_mmshare_version>  (1) 
72125

>  <i_m_source_file_index>  (1) 
11

>  <i_f3d_flags>  (1) 
0

>  <num_sample>  (1) 
100

>  <b_lp_Chiralities_Consistent>  (1) 
1

>  <r_epik_Charging_Adjusted_Penalty>  (1) 
5.0796361182183547e-05

>  <r_epik_Ionization_Penalty>  (1) 
7.4494793670828869e-05

>  <r_epik_Ionization_Penalty_Charging>  (1) 
5.0796361182183547e-05

>  <r_epik_Ionization_Penalty_Neutral>  (1) 
2.3698432488645322e-05

>  <r_epik_State_Penalty>  (1) 
-0

>  <r_glide_ring_energy>  (1) 
0.60387110762599439

>  <r_i_docking_score>  (1) 
-7.6352282888490963

>  <r_i_glide_ecoul>  (1) 
-5.8958624281047838

>  <r_i_glide_eff_state_penalty>  (1) 
-0

>  <r_i_glide_einternal>  (1) 
21.604409733167699

>  <r_i_glide_emodel>  (1) 
-55.025704701229714

>  <r_i_glide_emodel_strain>  (1) 
0.068123855744474326

>  <r_i_glide_energy>  (1) 
-46.658797485846115

>  <r_i_glide_erotb>  (1) 
0.60206145100119157

>  <r_i_glide_esite>  (1) 
-0.10052814126713723

>  <r_i_glide_evdw>  (1) 
-40.762935057741331

>  <r_i_glide_gscore>  (1) 
-7.6352282888490963

>  <r_i_glide_gscore_strain>  (1) 
0

>  <r_i_glide_hbond>  (1) 
-0.44862820213747351

>  <r_i_glide_ligand_efficiency>  (1) 
-0.20635752132024585

>  <r_i_glide_ligand_efficiency_ln>  (1) 
-1.6559020207042725

>  <r_i_glide_ligand_efficiency_sa>  (1) 
-0.68762904179481898

>  <r_i_glide_lipo>  (1) 
-4.3080740703408731

>  <r_i_glide_metal>  (1) 
-0

>  <r_i_glide_rewards>  (1) 
-0.45753320900202044

>  <r_lp_Energy>  (1) 
70.195819

>  <r_lp_tautomer_probability>  (1) 
1

>  <s_epik_Chemistry_Notes>  (1) 
This compound has an ester and may undergo hydrolysis at high or low pH.

>  <s_epik_cmdline>  (1) 
J2VwaWtfcHl0aG9uJywgJy1waHQnLCAnMS4wJywgJy1waCcsICc3LjQnLCAnLXRuJywgJzgnLCAnLW1hJywgJzUwMCcsICctaW1hZScsICc8aW5maWxlLm1hZT4nLCAnLW9tYWUnLCAnPG91dGZpbGUubWFlPic=

>  <s_epik_input>  (1) 
W09IXVtDQEBIXTFbQ0BASF0oW09IXSlbQ0gyXVtDSDJdW0NIMl1bQ0gyXVtDSDJdW0NASF0xW05IXUMoPU8pW05IXVtDSDJdW0NIMl1bQ0gyXVtDQEhdKFtDQEBdMihbQ0gzXSlDKD1PKU9bQ0gzXSlbQ0gyXVtDSDJdW0NASF0oW05IXTMpW0NASF0yW0NASF0oW0NAQEhdMzQpW0NIMl1bQ0gyXVtDQEhdKFtDSDNdKVtDSDJdW0NIMl00

>  <s_glide_docking_method>  (1) 
confgen

>  <s_i_glide_gridfile>  (1) 
gpcr_5ht2c_6bqh_protein_autoprepared_prepared

>  <s_lp_Force_Field>  (1) 
S-OPLS

>  <s_lp_Variant>  (1) 
DiffSBDD_10_num_sample_100-1

>  <s_m_source_file>  (1) 
generated__ligand_DiffSBDD_2026-05-06_prepared.sdf

>  <GenAI_Model>  (1) 
DiffSBDD

>  <Protein>  (1) 
GPCR_5HT2C

$$$$
DiffSBDD_13_num_sample_100
     RDKit          3D

  0  0  0  0  0  0  0  0  0  0999 V3000
M  V30 BEGIN CTAB
M  V30 COUNTS 69 72 0 0 1
M  V30 BEGIN ATOM
M  V30 1 C 37.126958 32.308719 59.532810 0 CFG=1
M  V30 2 N 37.549108 24.788891 55.515666 0
M  V30 3 C 41.080440 33.497927 61.907603 0 CFG=2
M  V30 4 C 38.039221 30.366614 58.130854 0
M  V30 5 C 41.831863 32.529181 65.685715 0
M  V30 6 C 37.867313 31.761794 58.294121 0
M  V30 7 C 40.194630 26.341797 57.216299 0
M  V30 8 C 37.009589 36.259638 60.078824 0
M  V30 9 C 39.087043 33.882506 60.277734 0
M  V30 10 O 36.690546 36.216236 61.457979 0
M  V30 11 C 38.959567 32.139630 56.141931 0
M  V30 12 C 38.061953 25.338871 56.393982 0
M  V30 13 C 38.715735 26.039475 57.512334 0 CFG=2
M  V30 14 C 38.666743 29.857255 56.968777 0
M  V30 15 C 36.086805 37.386720 63.455459 0
M  V30 16 O 37.078490 31.376816 60.602552 0
M  V30 17 C 40.287948 27.844707 56.900730 0
M  V30 18 N 41.488145 34.729169 65.834253 0
M  V30 19 C 41.418918 34.373018 64.492627 0
M  V30 20 C 38.095297 27.414817 57.754973 0
M  V30 21 C 38.336841 32.642882 57.294162 0
M  V30 22 C 39.120943 30.755879 55.969880 0
M  V30 23 N 41.067279 34.973112 62.249201 0
M  V30 24 C 38.840417 28.341338 56.781036 0 CFG=1
M  V30 25 C 37.555684 33.689370 60.124869 0 CFG=1
M  V30 26 C 41.319495 36.062315 66.385379 0
M  V30 27 C 41.614843 33.057980 64.383249 0
M  V30 28 C 41.747982 33.577574 66.567836 0
M  V30 29 O 41.867580 31.291821 62.812293 0
M  V30 30 C 36.803246 34.872943 59.451686 0
M  V30 31 C 41.170839 35.327772 63.469026 0
M  V30 32 Cl 39.867396 30.163693 54.532510 0
M  V30 33 C 39.662972 33.079468 61.463481 0
M  V30 34 C 36.667291 37.503582 62.046488 0
M  V30 35 C 41.574715 32.464979 63.036635 0
M  V30 36 H 36.087351 32.395997 59.212659 0
M  V30 37 H 41.746579 33.359985 61.059165 0
M  V30 38 H 37.675502 29.692224 58.886070 0
M  V30 39 H 42.024628 31.499586 65.950524 0
M  V30 40 H 40.556822 25.743254 56.378015 0
M  V30 41 H 40.818123 26.099871 58.078386 0
M  V30 42 H 38.025089 36.626226 59.931712 0
M  V30 43 H 36.351571 36.964394 59.567207 0
M  V30 44 H 39.627863 33.639058 59.365125 0
M  V30 45 H 39.288824 34.935259 60.449911 0
M  V30 46 H 39.307270 32.819637 55.379385 0
M  V30 47 H 38.608957 25.403255 58.390726 0
M  V30 48 H 35.866929 38.375207 63.853199 0
M  V30 49 H 35.153054 36.824261 63.454089 0
M  V30 50 H 36.777785 36.880620 64.129300 0
M  V30 51 H 36.634472 30.606222 60.283620 0
M  V30 52 H 40.878309 28.037366 56.005944 0
M  V30 53 H 40.782332 28.351908 57.730228 0
M  V30 54 H 38.301776 27.682728 58.790584 0
M  V30 55 H 37.015929 27.426784 57.611228 0
M  V30 56 H 38.211610 33.701234 57.400946 0
M  V30 57 H 38.474708 28.099526 55.781862 0
M  V30 58 H 37.146341 33.719125 61.136501 0
M  V30 59 H 41.071414 36.000371 67.445214 0
M  V30 60 H 42.243802 36.626086 66.257764 0
M  V30 61 H 40.499077 36.585837 65.895173 0
M  V30 62 H 41.846506 33.614766 67.643158 0
M  V30 63 H 37.037755 34.963582 58.397757 0
M  V30 64 H 35.733690 34.658337 59.487988 0
M  V30 65 H 41.077609 36.377636 63.758092 0
M  V30 66 H 38.994147 33.171490 62.320754 0
M  V30 67 H 39.659476 32.021202 61.199966 0
M  V30 68 H 37.672466 37.924025 62.074182 0
M  V30 69 H 36.040136 38.179683 61.462491 0
M  V30 END ATOM
M  V30 BEGIN BOND
M  V30 1 1 6 1
M  V30 2 2 6 4
M  V30 3 1 10 8
M  V30 4 3 12 2
M  V30 5 1 13 7
M  V30 6 1 13 12
M  V30 7 1 14 4
M  V30 8 1 16 1
M  V30 9 1 17 7
M  V30 10 1 19 18
M  V30 11 1 20 13
M  V30 12 1 21 6
M  V30 13 2 21 11
M  V30 14 1 22 11
M  V30 15 2 22 14
M  V30 16 1 23 3
M  V30 17 1 24 14
M  V30 18 1 24 17
M  V30 19 1 24 20
M  V30 20 1 25 1
M  V30 21 1 25 9
M  V30 22 1 26 18
M  V30 23 1 27 5
M  V30 24 2 27 19
M  V30 25 2 28 5
M  V30 26 1 28 18
M  V30 27 1 30 8
M  V30 28 1 30 25
M  V30 29 1 31 19
M  V30 30 2 31 23
M  V30 31 1 32 22
M  V30 32 1 33 3
M  V30 33 1 33 9
M  V30 34 1 34 10
M  V30 35 1 34 15
M  V30 36 1 35 3
M  V30 37 1 35 27
M  V30 38 2 35 29
M  V30 39 1 1 36 CFG=3
M  V30 40 1 3 37 CFG=3
M  V30 41 1 38 4
M  V30 42 1 39 5
M  V30 43 1 40 7
M  V30 44 1 41 7
M  V30 45 1 42 8
M  V30 46 1 43 8
M  V30 47 1 44 9
M  V30 48 1 45 9
M  V30 49 1 46 11
M  V30 50 1 13 47 CFG=1
M  V30 51 1 48 15
M  V30 52 1 49 15
M  V30 53 1 50 15
M  V30 54 1 51 16
M  V30 55 1 52 17
M  V30 56 1 53 17
M  V30 57 1 54 20
M  V30 58 1 55 20
M  V30 59 1 56 21
M  V30 60 1 24 57 CFG=3
M  V30 61 1 25 58 CFG=1
M  V30 62 1 59 26
M  V30 63 1 60 26
M  V30 64 1 61 26
M  V30 65 1 62 28
M  V30 66 1 63 30
M  V30 67 1 64 30
M  V30 68 1 65 31
M  V30 69 1 66 33
M  V30 70 1 67 33
M  V30 71 1 68 34
M  V30 72 1 69 34
M  V30 END BOND
M  V30 END CTAB
M  END
>  <i_epik_Tot_Q>  (1) 
0

>  <i_epik_Tot_abs_Q>  (1) 
0

>  <i_i_glide_confnum>  (1) 
515

>  <i_i_glide_lignum>  (1) 
31

>  <i_i_glide_posenum>  (1) 
183

>  <i_i_glide_rotatable_bonds>  (1) 
11

>  <i_lp_mmshare_version>  (1) 
72125

>  <i_m_source_file_index>  (1) 
14

>  <i_f3d_flags>  (1) 
0

>  <num_sample>  (1) 
100

>  <b_lp_Chiralities_Consistent>  (1) 
1

>  <r_epik_Charging_Adjusted_Penalty>  (1) 
0

>  <r_epik_Ionization_Penalty>  (1) 
0.00035140533553461783

>  <r_epik_Ionization_Penalty_Charging>  (1) 
0

>  <r_epik_Ionization_Penalty_Neutral>  (1) 
0.00035140533553461783

>  <r_epik_State_Penalty>  (1) 
-0

>  <r_glide_ring_energy>  (1) 
0

>  <r_i_docking_score>  (1) 
-7.6317169520325834

>  <r_i_glide_ecoul>  (1) 
-3.6537675843388491

>  <r_i_glide_eff_state_penalty>  (1) 
-0

>  <r_i_glide_einternal>  (1) 
9.7988378848094069

>  <r_i_glide_emodel>  (1) 
-77.191121945758283

>  <r_i_glide_emodel_strain>  (1) 
0.6060906744087049

>  <r_i_glide_energy>  (1) 
-56.701050647691439

>  <r_i_glide_erotb>  (1) 
0.74574999833683076

>  <r_i_glide_esite>  (1) 
0

>  <r_i_glide_evdw>  (1) 
-53.047283063352587

>  <r_i_glide_gscore>  (1) 
-7.6317169520325834

>  <r_i_glide_gscore_strain>  (1) 
0

>  <r_i_glide_hbond>  (1) 
-0.085292642824045778

>  <r_i_glide_ligand_efficiency>  (1) 
-0.21804905577235953

>  <r_i_glide_ligand_efficiency_ln>  (1) 
-1.6753312478031201

>  <r_i_glide_ligand_efficiency_sa>  (1) 
-0.71325292030539822

>  <r_i_glide_lipo>  (1) 
-3.2045258461784356

>  <r_i_glide_metal>  (1) 
-0

>  <r_i_glide_rewards>  (1) 
-1.8872191705484755

>  <r_lp_Energy>  (1) 
44.436326000000001

>  <r_lp_tautomer_probability>  (1) 
1

>  <s_epik_Chemistry_Notes>  (1) 
This compound has an imine and may undergo hydrolysis.

>  <s_epik_cmdline>  (1) 
J2VwaWtfcHl0aG9uJywgJy1waHQnLCAnMS4wJywgJy1waCcsICc3LjQnLCAnLXRuJywgJzgnLCAnLW1hJywgJzUwMCcsICctaW1hZScsICc8aW5maWxlLm1hZT4nLCAnLW9tYWUnLCAnPG91dGZpbGUubWFlPic=

>  <s_epik_input>  (1) 
TiNDW0NASF0xW0NIMl1bQ0gyXVtDQEBIXShbQ0gyXTEpYyhjKENsKVtjSF1bY0hdMilbY0hdYzJbQ0BASF0oW09IXSlbQ0BIXShbQ0gyXVtDSDJdT1tDSDJdW0NIM10pW0NIMl1bQ0gyXVtDQEBIXShOPVtDSF0zKUMoPU8pYyhjMzQpW2NIXVtjSF1uNFtDSDNd

>  <s_glide_docking_method>  (1) 
confgen

>  <s_i_glide_gridfile>  (1) 
gpcr_5ht2c_6bqh_protein_autoprepared_prepared

>  <s_lp_Force_Field>  (1) 
S-OPLS

>  <s_lp_Variant>  (1) 
DiffSBDD_13_num_sample_100-1

>  <s_m_source_file>  (1) 
generated__ligand_DiffSBDD_2026-05-06_prepared.sdf

>  <GenAI_Model>  (1) 
DiffSBDD

>  <Protein>  (1) 
GPCR_5HT2C

$$$$
DiffSBDD_68_num_sample_100
     RDKit          3D

  0  0  0  0  0  0  0  0  0  0999 V3000
M  V30 BEGIN CTAB
M  V30 COUNTS 94 97 0 0 1
M  V30 BEGIN ATOM
M  V30 1 C 39.165731 29.384062 60.990541 0 CFG=1
M  V30 2 C 41.199504 32.968093 63.370274 0 CFG=1
M  V30 3 C 39.100885 29.075822 52.461238 0
M  V30 4 C 36.782480 36.635222 59.367155 0
M  V30 5 C 38.759239 30.267611 54.995710 0
M  V30 6 N 38.343225 29.840846 58.615987 0
M  V30 7 C 41.052837 34.408185 67.360733 0
M  V30 8 O 42.991387 30.366618 68.231469 0
M  V30 9 C 36.137005 32.807480 59.750685 0
M  V30 10 O 40.050745 29.222102 57.255690 0
M  V30 11 C 41.991454 33.353490 67.986946 0 CFG=2
M  V30 12 C 37.385070 34.113084 61.453475 0
M  V30 13 C 39.676731 30.817811 54.075237 0
M  V30 14 O 37.481996 27.414191 53.058021 0
M  V30 15 C 41.682798 32.102643 67.172096 0 CFG=2
M  V30 16 C 42.177507 34.123082 63.244906 0
M  V30 17 C 38.614513 36.312201 61.089169 0
M  V30 18 C 39.900748 31.326451 61.975684 0
M  V30 19 C 37.116616 30.623226 58.870659 0
M  V30 20 C 39.052875 29.917975 57.459361 0
M  V30 21 O 40.891431 34.014708 66.012544 0
M  V30 22 C 38.337671 35.013098 61.799651 0
M  V30 23 C 38.566618 30.902929 56.366026 0
M  V30 24 C 37.354391 37.088825 60.704363 0
M  V30 25 C 38.192459 28.525696 53.384289 0
M  V30 26 C 36.864622 35.118253 59.120778 0
M  V30 27 C 38.702548 28.853836 59.633991 0
M  V30 28 C 41.644013 27.398825 65.478053 0
M  V30 29 C 39.807656 28.267808 61.832844 0
M  V30 30 C 42.127926 30.818565 64.556947 0
M  V30 31 O 42.368633 30.263002 63.488328 0
M  V30 32 C 42.793068 31.054326 67.013239 0 CFG=2
M  V30 33 C 36.420375 34.228338 60.279070 0 CFG=1
M  V30 34 C 41.074647 32.273204 62.005600 0
M  V30 35 C 39.846382 30.220910 52.805559 0
M  V30 36 N 41.021552 26.305360 65.588499 0
M  V30 37 C 41.691879 33.158336 69.458426 0
M  V30 38 O 40.052840 30.468527 60.865211 0
M  V30 39 C 37.353914 32.125184 59.083080 0
M  V30 40 C 41.539242 32.205159 64.659355 0
M  V30 41 S 41.085976 28.918444 66.259922 0
M  V30 42 C 41.358347 32.744826 65.871613 0
M  V30 43 C 42.447442 30.072809 65.866689 0 CFG=1
M  V30 44 C 38.019062 29.122825 54.646044 0
M  V30 45 H 38.267675 29.726486 61.507988 0
M  V30 46 H 40.212836 33.379159 63.580137 0
M  V30 47 H 39.226204 28.617314 51.489521 0
M  V30 48 H 35.752672 36.971959 59.267692 0
M  V30 49 H 37.340285 37.142451 58.585679 0
M  V30 50 H 41.465082 35.414096 67.420738 0
M  V30 51 H 40.069682 34.413544 67.831512 0
M  V30 52 H 43.234242 30.995146 68.896348 0
M  V30 53 H 35.306161 32.847489 59.049100 0
M  V30 54 H 35.769444 32.196131 60.574138 0
M  V30 55 H 43.031531 33.656709 67.841753 0
M  V30 56 H 37.278791 33.220521 62.051137 0
M  V30 57 H 40.247485 31.692062 54.340619 0
M  V30 58 H 36.991211 27.072654 53.790514 0
M  V30 59 H 40.749935 31.631375 67.511769 0
M  V30 60 H 42.400387 34.679288 64.157314 0
M  V30 61 H 43.067867 33.621426 62.936276 0
M  V30 62 H 41.804676 34.827706 62.493915 0
M  V30 63 H 39.197550 36.920565 61.780410 0
M  V30 64 H 39.272293 36.093632 60.253570 0
M  V30 65 H 39.845725 30.759467 62.902584 0
M  V30 66 H 38.969669 31.882449 61.902664 0
M  V30 67 H 36.357159 30.413877 58.123332 0
M  V30 68 H 36.664077 30.252710 59.790599 0
M  V30 69 H 38.960235 34.808681 62.657399 0
M  V30 70 H 37.507986 31.150120 56.421244 0
M  V30 71 H 39.117182 31.842943 56.441940 0
M  V30 72 H 36.611847 37.006276 61.494913 0
M  V30 73 H 37.586989 38.150904 60.640018 0
M  V30 74 H 37.865226 34.818952 58.848945 0
M  V30 75 H 36.261970 34.842258 58.258572 0
M  V30 76 H 39.355334 28.058760 59.259393 0
M  V30 77 H 37.750609 28.421244 59.837122 0
M  V30 78 H 42.569365 27.501197 64.901487 0
M  V30 79 H 39.018836 27.622072 62.204800 0
M  V30 80 H 40.512910 27.656229 61.264373 0
M  V30 81 H 40.332910 28.645748 62.706847 0
M  V30 82 H 43.733855 31.556531 66.772455 0
M  V30 83 H 35.478580 34.610766 60.672177 0
M  V30 84 H 40.923730 33.010420 61.214762 0
M  V30 85 H 41.990036 31.763171 61.726784 0
M  V30 86 H 40.549583 30.638108 52.097592 0
M  V30 87 H 41.468169 25.541900 65.102629 0
M  V30 88 H 40.644877 32.895793 69.453143 0
M  V30 89 H 42.250151 32.343686 69.917044 0
M  V30 90 H 41.823252 34.068060 70.046392 0
M  V30 91 H 38.234768 32.250663 59.708109 0
M  V30 92 H 37.569514 32.614689 58.135885 0
M  V30 93 H 43.336568 29.467346 65.696705 0
M  V30 94 H 37.321982 28.704991 55.349765 0
M  V30 END ATOM
M  V30 BEGIN BOND
M  V30 1 1 11 7
M  V30 2 2 13 5
M  V30 3 1 15 11
M  V30 4 1 16 2
M  V30 5 1 19 6
M  V30 6 1 20 6
M  V30 7 2 20 10
M  V30 8 1 21 7
M  V30 9 2 22 12
M  V30 10 1 22 17
M  V30 11 1 23 5
M  V30 12 1 23 20
M  V30 13 1 24 4
M  V30 14 1 24 17
M  V30 15 1 25 3
M  V30 16 1 25 14
M  V30 17 1 26 4
M  V30 18 1 27 1
M  V30 19 1 27 6
M  V30 20 1 29 1
M  V30 21 2 31 30
M  V30 22 1 32 8
M  V30 23 1 32 15
M  V30 24 1 33 9
M  V30 25 1 33 12
M  V30 26 1 33 26
M  V30 27 1 34 2
M  V30 28 1 34 18
M  V30 29 2 35 3
M  V30 30 1 35 13
M  V30 31 2 36 28
M  V30 32 1 37 11
M  V30 33 1 38 1
M  V30 34 1 38 18
M  V30 35 1 39 9
M  V30 36 1 39 19
M  V30 37 1 40 2
M  V30 38 1 40 30
M  V30 39 1 41 28
M  V30 40 1 42 15
M  V30 41 1 42 21
M  V30 42 2 42 40
M  V30 43 1 43 30
M  V30 44 1 43 32
M  V30 45 1 43 41
M  V30 46 1 44 5
M  V30 47 2 44 25
M  V30 48 1 1 45 CFG=1
M  V30 49 1 2 46 CFG=1
M  V30 50 1 47 3
M  V30 51 1 48 4
M  V30 52 1 49 4
M  V30 53 1 50 7
M  V30 54 1 51 7
M  V30 55 1 52 8
M  V30 56 1 53 9
M  V30 57 1 54 9
M  V30 58 1 11 55 CFG=1
M  V30 59 1 56 12
M  V30 60 1 57 13
M  V30 61 1 58 14
M  V30 62 1 15 59 CFG=1
M  V30 63 1 60 16
M  V30 64 1 61 16
M  V30 65 1 62 16
M  V30 66 1 63 17
M  V30 67 1 64 17
M  V30 68 1 65 18
M  V30 69 1 66 18
M  V30 70 1 67 19
M  V30 71 1 68 19
M  V30 72 1 69 22
M  V30 73 1 70 23
M  V30 74 1 71 23
M  V30 75 1 72 24
M  V30 76 1 73 24
M  V30 77 1 74 26
M  V30 78 1 75 26
M  V30 79 1 76 27
M  V30 80 1 77 27
M  V30 81 1 78 28
M  V30 82 1 79 29
M  V30 83 1 80 29
M  V30 84 1 81 29
M  V30 85 1 32 82 CFG=3
M  V30 86 1 33 83 CFG=1
M  V30 87 1 84 34
M  V30 88 1 85 34
M  V30 89 1 86 35
M  V30 90 1 87 36
M  V30 91 1 88 37
M  V30 92 1 89 37
M  V30 93 1 90 37
M  V30 94 1 91 39
M  V30 95 1 92 39
M  V30 96 1 43 93 CFG=3
M  V30 97 1 94 44
M  V30 END BOND
M  V30 END CTAB
M  END
>  <i_epik_Tot_Q>  (1) 
0

>  <i_epik_Tot_abs_Q>  (1) 
0

>  <i_i_glide_confnum>  (1) 
9141

>  <i_i_glide_lignum>  (1) 
176

>  <i_i_glide_posenum>  (1) 
205

>  <i_i_glide_rotatable_bonds>  (1) 
18

>  <i_lp_mmshare_version>  (1) 
72125

>  <i_m_source_file_index>  (1) 
69

>  <i_f3d_flags>  (1) 
0

>  <num_sample>  (1) 
100

>  <b_lp_Chiralities_Consistent>  (1) 
1

>  <r_epik_Charging_Adjusted_Penalty>  (1) 
0

>  <r_epik_Ionization_Penalty>  (1) 
0.0034918609457469025

>  <r_epik_Ionization_Penalty_Charging>  (1) 
0

>  <r_epik_Ionization_Penalty_Neutral>  (1) 
0.0034918609457469025

>  <r_epik_State_Penalty>  (1) 
-0

>  <r_glide_ring_energy>  (1) 
1.2573811357100717

>  <r_i_docking_score>  (1) 
-7.63030334074561

>  <r_i_glide_ecoul>  (1) 
-0.94864806650719014

>  <r_i_glide_eff_state_penalty>  (1) 
-0

>  <r_i_glide_einternal>  (1) 
4.1946390001507226

>  <r_i_glide_emodel>  (1) 
-56.510530203562972

>  <r_i_glide_emodel_strain>  (1) 
3.206281512595659

>  <r_i_glide_energy>  (1) 
-47.806891557833623

>  <r_i_glide_erotb>  (1) 
0.6701242194964161

>  <r_i_glide_esite>  (1) 
-0.021824359615259588

>  <r_i_glide_evdw>  (1) 
-46.858243491326434

>  <r_i_glide_gscore>  (1) 
-7.63030334074561

>  <r_i_glide_gscore_strain>  (1) 
0

>  <r_i_glide_hbond>  (1) 
-0.024747737403734111

>  <r_i_glide_ligand_efficiency>  (1) 
-0.17341598501694569

>  <r_i_glide_ligand_efficiency_ln>  (1) 
-1.5948998523489495

>  <r_i_glide_ligand_efficiency_sa>  (1) 
-0.61221883402350374

>  <r_i_glide_lipo>  (1) 
-4.6500582724025419

>  <r_i_glide_metal>  (1) 
-0

>  <r_i_glide_rewards>  (1) 
-1.1185878062780901

>  <r_lp_Energy>  (1) 
28.073183999999998

>  <r_lp_tautomer_probability>  (1) 
1

>  <s_epik_Chemistry_Notes>  (1) 
This compound has an imine and may undergo hydrolysis.

>  <s_epik_cmdline>  (1) 
J2VwaWtfcHl0aG9uJywgJy1waHQnLCAnMS4wJywgJy1waCcsICc3LjQnLCAnLXRuJywgJzgnLCAnLW1hJywgJzUwMCcsICctaW1hZScsICc8aW5maWxlLm1hZT4nLCAnLW9tYWUnLCAnPG91dGZpbGUubWFlPic=

>  <s_epik_input>  (1) 
W0hdXE49W0NIXVxTW0NASF0oW0NAQEhdMVtPSF0pQyg9TylDKD1DKFtDQEBIXTEyKU9bQ0gyXVtDQEhdMltDSDNdKVtDQEBIXShbQ0gzXSlbQ0gyXVtDSDJdT1tDQEhdKFtDSDNdKVtDSDJdTihDKD1PKVtDSDJdYzNbY0hdW2NIXVtjSF1jKFtPSF0pW2NIXTMpW0NIMl1bQ0gyXVtDSDJdW0NASF00W0NIXT1bQ0hdW0NIMl1bQ0gyXVtDSDJdW0NIMl00

>  <s_glide_docking_method>  (1) 
confgen

>  <s_i_glide_gridfile>  (1) 
gpcr_5ht2c_6bqh_protein_autoprepared_prepared

>  <s_lp_Force_Field>  (1) 
S-OPLS

>  <s_lp_Variant>  (1) 
DiffSBDD_68_num_sample_100-1

>  <s_m_source_file>  (1) 
generated__ligand_DiffSBDD_2026-05-06_prepared.sdf

>  <GenAI_Model>  (1) 
DiffSBDD

>  <Protein>  (1) 
GPCR_5HT2C

$$$$
DiffSBDD_0_num_sample_100
     RDKit          3D

  0  0  0  0  0  0  0  0  0  0999 V3000
M  V30 BEGIN CTAB
M  V30 COUNTS 59 61 0 0 1
M  V30 BEGIN ATOM
M  V30 1 C 39.856247 30.725772 52.163497 0
M  V30 2 C 37.925531 28.431089 55.372736 0 CFG=1
M  V30 3 C 40.084025 33.198070 61.810362 0
M  V30 4 C 37.893999 33.415417 59.004651 0
M  V30 5 C 39.498191 30.130941 50.915440 0
M  V30 6 C 38.669933 28.049842 52.248759 0
M  V30 7 C 38.784020 35.236937 61.459647 0
M  V30 8 C 41.035476 33.932188 62.544810 0
M  V30 9 C 38.955838 33.847376 61.265994 0
M  V30 10 C 38.236879 26.037946 56.195539 0 CFG=2
M  V30 11 N 37.867390 30.391867 56.889843 0
M  V30 12 C 37.949360 31.018720 58.196212 0
M  V30 13 C 37.902686 32.522863 58.002657 0
M  V30 14 C 40.863694 35.316336 62.739393 0
M  V30 15 F 39.572704 37.300908 62.384000 0
M  V30 16 C 39.737920 35.969834 62.197329 0
M  V30 17 C 37.929501 33.048504 60.471974 0 CFG=1
M  V30 18 C 38.947177 28.871673 50.918775 0
M  V30 19 N 35.503987 33.262948 61.453478 0
M  V30 20 C 37.897441 28.938422 56.844832 0
M  V30 21 C 39.796623 29.999196 53.240592 0
M  V30 22 C 39.315057 28.622132 54.763766 0 CFG=1
M  V30 23 N 37.597867 26.988815 55.265036 0
M  V30 24 O 41.788975 36.021406 63.453703 0
M  V30 25 C 38.435328 24.681376 55.503711 0
M  V30 26 C 37.441859 25.860691 57.504434 0
M  V30 27 C 37.136866 23.996836 55.048996 0
M  V30 28 N 39.467341 28.699096 53.291587 0
M  V30 29 S 40.061954 30.334422 54.882339 0
M  V30 30 C 36.573516 33.171435 61.025355 0
M  V30 31 Cl 39.756738 30.983911 49.453505 0
M  V30 32 H 40.146702 31.757896 52.214659 0
M  V30 33 H 37.192372 29.001436 54.800133 0
M  V30 34 H 40.219726 32.136406 61.665210 0
M  V30 35 H 37.855012 34.468027 58.773195 0
M  V30 36 H 37.605608 28.051577 52.484831 0
M  V30 37 H 39.001129 27.019294 52.118814 0
M  V30 38 H 37.922466 35.739120 61.044239 0
M  V30 39 H 41.897408 33.432070 62.961568 0
M  V30 40 H 39.234822 26.386842 56.461020 0
M  V30 41 H 38.603679 30.755380 56.291262 0
M  V30 42 H 38.873000 30.736998 58.702609 0
M  V30 43 H 37.110648 30.709177 58.820944 0
M  V30 44 H 37.872674 32.876930 56.981693 0
M  V30 45 H 38.182949 31.994260 60.573612 0
M  V30 46 H 38.669734 28.404110 49.987080 0
M  V30 47 H 38.777366 28.572272 57.374712 0
M  V30 48 H 37.032126 28.560805 57.381993 0
M  V30 49 H 40.044998 27.914979 55.156879 0
M  V30 50 H 37.790530 26.691043 54.314037 0
M  V30 51 H 41.541702 36.913633 63.675966 0
M  V30 52 H 39.107277 24.803124 54.653883 0
M  V30 53 H 38.960415 24.021365 56.194830 0
M  V30 54 H 37.737568 24.946982 58.020657 0
M  V30 55 H 37.618968 26.667105 58.211626 0
M  V30 56 H 36.368567 25.797322 57.319666 0
M  V30 57 H 37.344940 23.004347 54.653534 0
M  V30 58 H 36.428765 23.875615 55.868123 0
M  V30 59 H 36.645131 24.566291 54.260383 0
M  V30 END ATOM
M  V30 BEGIN BOND
M  V30 1 1 5 1
M  V30 2 2 8 3
M  V30 3 1 9 3
M  V30 4 2 9 7
M  V30 5 1 12 11
M  V30 6 2 13 4
M  V30 7 1 13 12
M  V30 8 1 14 8
M  V30 9 1 16 7
M  V30 10 2 16 14
M  V30 11 1 16 15
M  V30 12 1 17 4
M  V30 13 1 17 9
M  V30 14 2 18 5
M  V30 15 1 18 6
M  V30 16 1 20 2
M  V30 17 1 20 11
M  V30 18 2 21 1
M  V30 19 1 22 2
M  V30 20 1 23 2
M  V30 21 1 23 10
M  V30 22 1 24 14
M  V30 23 1 25 10
M  V30 24 1 26 10
M  V30 25 1 27 25
M  V30 26 1 28 6
M  V30 27 1 28 21
M  V30 28 1 28 22
M  V30 29 1 29 21
M  V30 30 1 29 22
M  V30 31 1 30 17
M  V30 32 3 30 19
M  V30 33 1 31 5
M  V30 34 1 32 1
M  V30 35 1 2 33 CFG=3
M  V30 36 1 34 3
M  V30 37 1 35 4
M  V30 38 1 36 6
M  V30 39 1 37 6
M  V30 40 1 38 7
M  V30 41 1 39 8
M  V30 42 1 10 40 CFG=1
M  V30 43 1 41 11
M  V30 44 1 42 12
M  V30 45 1 43 12
M  V30 46 1 44 13
M  V30 47 1 17 45 CFG=3
M  V30 48 1 46 18
M  V30 49 1 47 20
M  V30 50 1 48 20
M  V30 51 1 22 49 CFG=1
M  V30 52 1 50 23
M  V30 53 1 51 24
M  V30 54 1 52 25
M  V30 55 1 53 25
M  V30 56 1 54 26
M  V30 57 1 55 26
M  V30 58 1 56 26
M  V30 59 1 57 27
M  V30 60 1 58 27
M  V30 61 1 59 27
M  V30 END BOND
M  V30 END CTAB
M  END
>  <i_epik_Tot_Q>  (1) 
0

>  <i_epik_Tot_abs_Q>  (1) 
0

>  <i_i_glide_confnum>  (1) 
1296

>  <i_i_glide_lignum>  (1) 
2

>  <i_i_glide_posenum>  (1) 
329

>  <i_i_glide_rotatable_bonds>  (1) 
11

>  <i_lp_mmshare_version>  (1) 
72125

>  <i_m_source_file_index>  (1) 
1

>  <i_f3d_flags>  (1) 
0

>  <num_sample>  (1) 
100

>  <b_lp_Chiralities_Consistent>  (1) 
1

>  <r_epik_Charging_Adjusted_Penalty>  (1) 
0.47819495767320574

>  <r_epik_Ionization_Penalty>  (1) 
0.67182721305937398

>  <r_epik_Ionization_Penalty_Charging>  (1) 
0

>  <r_epik_Ionization_Penalty_Neutral>  (1) 
0.67182721305937398

>  <r_epik_State_Penalty>  (1) 
0.47819495767320574

>  <r_glide_ring_energy>  (1) 
0

>  <r_i_docking_score>  (1) 
-7.6224217760236757

>  <r_i_glide_ecoul>  (1) 
-3.292690957277367

>  <r_i_glide_eff_state_penalty>  (1) 
0.47819495767320574

>  <r_i_glide_einternal>  (1) 
7.3269495968404179

>  <r_i_glide_emodel>  (1) 
-56.584797784682081

>  <r_i_glide_emodel_strain>  (1) 
0.74650833273886974

>  <r_i_glide_energy>  (1) 
-39.646620774012298

>  <r_i_glide_erotb>  (1) 
0.75184865993743433

>  <r_i_glide_esite>  (1) 
0

>  <r_i_glide_evdw>  (1) 
-36.353929816734933

>  <r_i_glide_gscore>  (1) 
-8.1006167336968815

>  <r_i_glide_gscore_strain>  (1) 
0

>  <r_i_glide_hbond>  (1) 
-0.2815358107741926

>  <r_i_glide_ligand_efficiency>  (1) 
-0.24588457342011857

>  <r_i_glide_ligand_efficiency_ln>  (1) 
-1.7190897096665743

>  <r_i_glide_ligand_efficiency_sa>  (1) 
-0.77241704166347158

>  <r_i_glide_lipo>  (1) 
-4.8058015174850812

>  <r_i_glide_metal>  (1) 
-0

>  <r_i_glide_rewards>  (1) 
-1.4535279309466895

>  <r_lp_Energy>  (1) 
38.439779000000001

>  <r_lp_tautomer_probability>  (1) 
0.99999999999736477

>  <s_epik_Chemistry_Notes>  (1) 
This compound contains an acetal/aminal-like group ( X-CH(R)-Y where X, Y are N, S, or O) that may be acid/base labile, releasing an aldehyde.

>  <s_epik_cmdline>  (1) 
J2VwaWtfcHl0aG9uJywgJy1waHQnLCAnMS4wJywgJy1waCcsICc3LjQnLCAnLXRuJywgJzgnLCAnLW1hJywgJzUwMCcsICctaW1hZScsICc8aW5maWxlLm1hZT4nLCAnLW9tYWUnLCAnPG91dGZpbGUubWFlPic=

>  <s_epik_input>  (1) 
W0NIXT0xQyhDbCk9W0NIXVtDSDJdTihDMTIpW0NAQEhdKFMyKVtDQEBIXShbTkhdW0NAQEhdKFtDSDNdKVtDSDJdW0NIM10pW0NIMl1bTkhdW0NIMl0vW0NIXT1bQ0hdXFtDQEhdKEMjTiljM1tjSF1bY0hdYyhbT0hdKWMoRilbY0hdMw==

>  <s_glide_docking_method>  (1) 
confgen

>  <s_i_glide_gridfile>  (1) 
gpcr_5ht2c_6bqh_protein_autoprepared_prepared

>  <s_lp_Force_Field>  (1) 
S-OPLS

>  <s_lp_Variant>  (1) 
DiffSBDD_0_num_sample_100-2

>  <s_m_source_file>  (1) 
generated__ligand_DiffSBDD_2026-05-06_prepared.sdf

>  <GenAI_Model>  (1) 
DiffSBDD

>  <Protein>  (1) 
GPCR_5HT2C

$$$$
DiffSBDD_23_num_sample_100
     RDKit          3D

  0  0  0  0  0  0  0  0  0  0999 V3000
M  V30 BEGIN CTAB
M  V30 COUNTS 83 87 0 0 1
M  V30 BEGIN ATOM
M  V30 1 C 38.515744 26.452987 54.970884 0
M  V30 2 C 38.996397 30.411969 62.591011 0
M  V30 3 C 39.934372 33.707326 61.150431 0
M  V30 4 O 35.776425 34.022532 60.674584 0
M  V30 5 N 40.576762 34.447131 63.619778 0
M  V30 6 C 40.114378 30.052267 60.279784 0
M  V30 7 C 40.697415 27.054986 58.137323 0
M  V30 8 N 39.646190 31.737394 62.657759 0
M  V30 9 C 37.684496 32.896791 61.661732 0
M  V30 10 C 39.382594 34.721253 60.357572 0
M  V30 11 C 43.067437 32.433412 65.468089 0
M  V30 12 C 42.226734 33.549565 64.859657 0
M  V30 13 C 39.951023 27.344810 56.827212 0 CFG=1
M  V30 14 C 42.332660 34.810270 65.039698 0
M  V30 15 N 39.396063 26.143648 56.135472 0 CFG=1 CHG=1
M  V30 16 C 40.625821 28.459357 62.203570 0
M  V30 17 C 35.001247 32.835539 60.716264 0
M  V30 18 C 37.136725 33.912882 60.847867 0
M  V30 19 C 39.585950 29.395985 61.570833 0 CFG=1
M  V30 20 C 39.599501 30.021324 53.435867 0
M  V30 21 C 41.140669 33.337424 63.976505 0
M  V30 22 C 38.898116 29.282539 58.288679 0
M  V30 23 C 37.055583 28.288548 52.844172 0
M  V30 24 O 37.909551 29.951080 58.587175 0
M  V30 25 C 37.340895 29.214341 54.033627 0
M  V30 26 C 39.089395 32.805942 61.837591 0
M  V30 27 C 40.706950 31.867086 63.569434 0
M  V30 28 C 38.765061 25.142266 57.030787 0
M  V30 29 C 41.324209 35.624876 64.287433 0
M  V30 30 C 39.136965 29.500927 55.808393 0
M  V30 31 C 39.070048 27.522529 53.987209 0 CFG=2
M  V30 32 C 37.987039 34.829165 60.212024 0
M  V30 33 C 41.157909 28.385061 58.731048 0
M  V30 34 C 38.828258 29.036069 54.360193 0 CFG=2
M  V30 35 C 38.298382 27.426587 52.667218 0
M  V30 36 O 41.248658 30.891917 64.089046 0
M  V30 37 N 40.003470 29.221395 59.074548 0
M  V30 38 C 38.916931 28.495912 56.957696 0 CFG=1
M  V30 39 H 38.404802 25.512494 54.430692 0
M  V30 40 H 37.506232 26.703897 55.295885 0
M  V30 41 H 37.938652 30.461591 62.368087 0
M  V30 42 H 39.000897 30.021444 63.601713 0
M  V30 43 H 41.007286 33.625979 61.242906 0
M  V30 44 H 41.138040 30.389069 60.416155 0
M  V30 45 H 39.559309 30.968524 60.085072 0
M  V30 46 H 40.062401 26.550815 58.866186 0
M  V30 47 H 41.562110 26.421417 57.951513 0
M  V30 48 H 37.029600 32.208910 62.162576 0
M  V30 49 H 40.032381 35.418509 59.853518 0
M  V30 50 H 42.483614 31.861809 66.190824 0
M  V30 51 H 43.921110 32.855407 65.998750 0
M  V30 52 H 43.467221 31.747829 64.719832 0
M  V30 53 H 40.740216 27.684754 56.153827 0
M  V30 54 H 43.067409 35.278986 65.669242 0
M  V30 55 H 41.569742 28.965394 62.401219 0
M  V30 56 H 40.833082 27.621429 61.544674 0
M  V30 57 H 40.267564 28.041849 63.144841 0
M  V30 58 H 34.034999 33.037993 60.253259 0
M  V30 59 H 34.820140 32.517121 61.743241 0
M  V30 60 H 35.466620 32.022283 60.156503 0
M  V30 61 H 38.754551 28.754701 61.280888 0
M  V30 62 H 40.667403 30.021435 53.629001 0
M  V30 63 H 39.270785 31.048095 53.605889 0
M  V30 64 H 39.460462 29.833906 52.372343 0
M  V30 65 H 36.850312 28.821423 51.920509 0
M  V30 66 H 36.195458 27.654976 53.054114 0
M  V30 67 H 36.734512 28.912870 54.879068 0
M  V30 68 H 37.074248 30.254632 53.853503 0
M  V30 69 H 37.971908 25.592393 57.629722 0
M  V30 70 H 39.499601 24.692778 57.698820 0
M  V30 71 H 38.330034 24.324213 56.455527 0
M  V30 72 H 41.796136 36.279742 63.553310 0
M  V30 73 H 40.676035 36.196884 64.952580 0
M  V30 74 H 40.175153 29.833026 55.864197 0
M  V30 75 H 38.560438 30.410998 55.993404 0
M  V30 76 H 40.096652 27.221427 53.788315 0
M  V30 77 H 37.568301 35.611306 59.595231 0
M  V30 78 H 41.775736 28.197202 59.608134 0
M  V30 79 H 41.801284 28.903559 58.024266 0
M  V30 80 H 38.020293 26.421433 52.403186 0
M  V30 81 H 38.902195 27.794426 51.837172 0
M  V30 82 H 37.902147 28.103812 56.908231 0
M  V30 83 H 40.203639 25.673693 55.749285 0
M  V30 END ATOM
M  V30 BEGIN BOND
M  V30 1 1 8 2
M  V30 2 1 10 3
M  V30 3 1 12 11
M  V30 4 1 13 7
M  V30 5 2 14 12
M  V30 6 1 15 1
M  V30 7 1 15 13
M  V30 8 1 17 4
M  V30 9 1 18 4
M  V30 10 2 18 9
M  V30 11 1 19 2
M  V30 12 1 19 6
M  V30 13 1 19 16
M  V30 14 2 21 5
M  V30 15 1 21 12
M  V30 16 2 24 22
M  V30 17 1 25 23
M  V30 18 2 26 3
M  V30 19 1 26 8
M  V30 20 1 26 9
M  V30 21 1 27 8
M  V30 22 1 27 21
M  V30 23 1 28 15
M  V30 24 1 29 5
M  V30 25 1 29 14
M  V30 26 1 31 1
M  V30 27 2 32 10
M  V30 28 1 32 18
M  V30 29 1 33 7
M  V30 30 1 34 20 CFG=3
M  V30 31 1 34 25
M  V30 32 1 34 30
M  V30 33 1 34 31
M  V30 34 1 35 23
M  V30 35 1 35 31
M  V30 36 2 36 27
M  V30 37 1 37 6
M  V30 38 1 37 22
M  V30 39 1 37 33
M  V30 40 1 38 13
M  V30 41 1 38 22
M  V30 42 1 38 30
M  V30 43 1 39 1
M  V30 44 1 40 1
M  V30 45 1 41 2
M  V30 46 1 42 2
M  V30 47 1 43 3
M  V30 48 1 44 6
M  V30 49 1 45 6
M  V30 50 1 46 7
M  V30 51 1 47 7
M  V30 52 1 48 9
M  V30 53 1 49 10
M  V30 54 1 50 11
M  V30 55 1 51 11
M  V30 56 1 52 11
M  V30 57 1 13 53 CFG=3
M  V30 58 1 54 14
M  V30 59 1 55 16
M  V30 60 1 56 16
M  V30 61 1 57 16
M  V30 62 1 58 17
M  V30 63 1 59 17
M  V30 64 1 60 17
M  V30 65 1 19 61 CFG=3
M  V30 66 1 62 20
M  V30 67 1 63 20
M  V30 68 1 64 20
M  V30 69 1 65 23
M  V30 70 1 66 23
M  V30 71 1 67 25
M  V30 72 1 68 25
M  V30 73 1 69 28
M  V30 74 1 70 28
M  V30 75 1 71 28
M  V30 76 1 72 29
M  V30 77 1 73 29
M  V30 78 1 74 30
M  V30 79 1 75 30
M  V30 80 1 31 76 CFG=3
M  V30 81 1 77 32
M  V30 82 1 78 33
M  V30 83 1 79 33
M  V30 84 1 80 35
M  V30 85 1 81 35
M  V30 86 1 38 82 CFG=3
M  V30 87 1 15 83 CFG=3
M  V30 END BOND
M  V30 END CTAB
M  END
>  <i_epik_Tot_Q>  (1) 
1

>  <i_epik_Tot_abs_Q>  (1) 
1

>  <i_i_glide_confnum>  (1) 
267

>  <i_i_glide_lignum>  (1) 
58

>  <i_i_glide_posenum>  (1) 
39

>  <i_i_glide_rotatable_bonds>  (1) 
8

>  <i_lp_mmshare_version>  (1) 
72125

>  <i_m_source_file_index>  (1) 
24

>  <i_f3d_flags>  (1) 
0

>  <num_sample>  (1) 
100

>  <b_lp_Chiralities_Consistent>  (1) 
1

>  <r_epik_Charging_Adjusted_Penalty>  (1) 
0.0029773975431382485

>  <r_epik_Ionization_Penalty>  (1) 
0.013183626931022738

>  <r_epik_Ionization_Penalty_Charging>  (1) 
0.0029773975431382485

>  <r_epik_Ionization_Penalty_Neutral>  (1) 
0.010206229387884489

>  <r_epik_State_Penalty>  (1) 
-0

>  <r_glide_ring_energy>  (1) 
0

>  <r_i_docking_score>  (1) 
-7.604100398631342

>  <r_i_glide_ecoul>  (1) 
1.0359311230653647

>  <r_i_glide_eff_state_penalty>  (1) 
-0

>  <r_i_glide_einternal>  (1) 
44.21900173870452

>  <r_i_glide_emodel>  (1) 
-48.352268507249534

>  <r_i_glide_emodel_strain>  (1) 
0.6038895074881907

>  <r_i_glide_energy>  (1) 
-44.623548897543003

>  <r_i_glide_erotb>  (1) 
0.5287100460970352

>  <r_i_glide_esite>  (1) 
0

>  <r_i_glide_evdw>  (1) 
-45.65948002060837

>  <r_i_glide_gscore>  (1) 
-7.604100398631342

>  <r_i_glide_gscore_strain>  (1) 
0

>  <r_i_glide_hbond>  (1) 
0

>  <r_i_glide_ligand_efficiency>  (1) 
-0.20010790522714059

>  <r_i_glide_ligand_efficiency_ln>  (1) 
-1.6396677359154399

>  <r_i_glide_ligand_efficiency_sa>  (1) 
-0.67275785607970451

>  <r_i_glide_lipo>  (1) 
-4.6465084608722407

>  <r_i_glide_metal>  (1) 
-0

>  <r_i_glide_rewards>  (1) 
-1.3587176512855224

>  <r_lp_Energy>  (1) 
97.856698999999992

>  <r_lp_tautomer_probability>  (1) 
1

>  <s_epik_Chemistry_Notes>  (1) 
This compound has an imine and may undergo hydrolysis.

>  <s_epik_cmdline>  (1) 
J2VwaWtfcHl0aG9uJywgJy1waHQnLCAnMS4wJywgJy1waCcsICc3LjQnLCAnLXRuJywgJzgnLCAnLW1hJywgJzUwMCcsICctaW1hZScsICc8aW5maWxlLm1hZT4nLCAnLW9tYWUnLCAnPG91dGZpbGUubWFlPic=

>  <s_epik_input>  (1) 
W0NIMl0xW0NIMl1bQ0gyXVtDQEBIXShbQ0BAXTEyW0NIM10pW0NIMl1OKFtDSDNdKVtDQEhdM1tDQEhdKFtDSDJdMilDKD1PKU4oW0NIMl1bQ0gyXTMpW0NIMl1bQ0BASF0oW0NIM10pW0NIMl1OKGMoW2NIXVtjSF1bY0hdNClbY0hdYzRPW0NIM10pQyg9TylDNT1OW0NIMl1bQ0hdPUM1W0NIM10=

>  <s_glide_docking_method>  (1) 
confgen

>  <s_i_glide_gridfile>  (1) 
gpcr_5ht2c_6bqh_protein_autoprepared_prepared

>  <s_lp_Force_Field>  (1) 
S-OPLS

>  <s_lp_Variant>  (1) 
DiffSBDD_23_num_sample_100-1

>  <s_m_source_file>  (1) 
generated__ligand_DiffSBDD_2026-05-06_prepared.sdf

>  <GenAI_Model>  (1) 
DiffSBDD

>  <Protein>  (1) 
GPCR_5HT2C

$$$$
DiffSBDD_29_num_sample_100
     RDKit          3D

  0  0  0  0  0  0  0  0  0  0999 V3000
M  V30 BEGIN CTAB
M  V30 COUNTS 86 90 0 0 1
M  V30 BEGIN ATOM
M  V30 1 F 39.284328 30.635488 53.675551 0
M  V30 2 C 40.023038 25.426640 57.392889 0
M  V30 3 C 38.003270 28.070103 54.171903 0
M  V30 4 C 37.768791 30.708667 59.430622 0 CFG=2
M  V30 5 C 39.272041 35.640509 60.885206 0
M  V30 6 C 36.607238 29.928970 58.780045 0
M  V30 7 C 39.924937 29.759064 51.650948 0
M  V30 8 N 39.712728 26.870842 57.463335 0 CFG=2 CHG=1
M  V30 9 C 36.143271 32.658516 60.084400 0 CFG=1
M  V30 10 C 41.075598 34.066028 62.750392 0
M  V30 11 C 41.776491 27.591392 58.641624 0
M  V30 12 C 39.616615 33.696420 62.548180 0 CFG=2
M  V30 13 C 39.278053 29.647479 52.764247 0
M  V30 14 C 41.080277 28.867771 58.336991 0 CFG=2
M  V30 15 C 37.788578 24.973563 56.390017 0
M  V30 16 C 35.981209 35.196107 59.589729 0
M  V30 17 C 37.606768 32.270037 59.694566 0 CFG=1
M  V30 18 C 39.976413 29.316288 59.244497 0 CFG=1
M  V30 19 C 38.786361 27.494686 51.848265 0
M  V30 20 N 37.467391 26.377037 56.599622 0
M  V30 21 N 38.629991 28.482688 52.937401 0
M  V30 22 F 40.644346 30.832925 51.303049 0
M  V30 23 S 39.387741 32.060103 61.961726 0
M  V30 24 C 38.618560 27.277575 56.523868 0 CFG=2
M  V30 25 C 38.752092 24.586597 57.501973 0
M  V30 26 C 33.951792 33.650286 59.287934 0
M  V30 27 O 40.643948 29.743934 60.412080 0
M  V30 28 C 38.824256 32.958924 60.473324 0 CFG=2
M  V30 29 C 39.034026 30.386704 58.618719 0
M  V30 30 C 41.238366 35.562369 62.512535 0
M  V30 31 C 40.782442 35.880603 61.091301 0
M  V30 32 C 39.074720 27.448111 55.070256 0
M  V30 33 O 35.929507 32.826433 61.453503 0
M  V30 34 C 38.786676 34.267855 61.367565 0 CFG=2
M  V30 35 C 40.953464 27.693651 57.381426 0 CFG=2
M  V30 36 C 35.484279 33.785331 59.263847 0
M  V30 37 O 37.849480 30.056687 60.653445 0
M  V30 38 S 39.867345 28.421025 50.581283 0
M  V30 39 H 40.540199 25.211815 56.457396 0
M  V30 40 H 40.686413 25.180103 58.217442 0
M  V30 41 H 37.200247 27.360782 53.968816 0
M  V30 42 H 37.548843 28.938726 54.651320 0
M  V30 43 H 38.739247 36.419024 61.432085 0
M  V30 44 H 39.003333 35.801339 59.853504 0
M  V30 45 H 36.318832 30.395209 57.853444 0
M  V30 46 H 36.894395 28.902312 58.553587 0
M  V30 47 H 35.724288 29.839170 59.409426 0
M  V30 48 H 35.501269 31.815147 59.882591 0
M  V30 49 H 41.403429 33.803073 63.756327 0
M  V30 50 H 41.718959 33.513225 62.063518 0
M  V30 51 H 42.861235 27.567440 58.549494 0
M  V30 52 H 41.372496 27.221433 59.563043 0
M  V30 53 H 39.067448 33.805190 63.453503 0
M  V30 54 H 41.847199 29.621346 58.253509 0
M  V30 55 H 38.223164 24.803239 55.404032 0
M  V30 56 H 36.875348 24.379019 56.448612 0
M  V30 57 H 35.933329 35.410815 60.654422 0
M  V30 58 H 37.008655 35.306487 59.258367 0
M  V30 59 H 35.413079 35.955870 59.055119 0
M  V30 60 H 37.686733 32.674171 58.684820 0
M  V30 61 H 39.379506 28.447668 59.524918 0
M  V30 62 H 39.292387 26.594273 52.196061 0
M  V30 63 H 37.832242 27.222781 51.407261 0
M  V30 64 H 36.980475 26.490443 57.479323 0
M  V30 65 H 38.248091 28.242744 56.849074 0
M  V30 66 H 39.009639 23.530851 57.453659 0
M  V30 67 H 38.267375 24.753344 58.465554 0
M  V30 68 H 33.553114 33.621843 60.300361 0
M  V30 69 H 33.466180 34.450202 58.730361 0
M  V30 70 H 33.651805 32.720477 58.811782 0
M  V30 71 H 40.863596 28.982035 60.929269 0
M  V30 72 H 39.690790 33.042301 59.817523 0
M  V30 73 H 38.745881 30.052693 57.627140 0
M  V30 74 H 39.467404 31.332277 58.354100 0
M  V30 75 H 40.647841 36.130045 63.232983 0
M  V30 76 H 42.267277 35.875708 62.663214 0
M  V30 77 H 41.068145 36.904662 60.879064 0
M  V30 78 H 41.336114 35.254972 60.398602 0
M  V30 79 H 39.911987 28.141508 55.054864 0
M  V30 80 H 39.444048 26.515802 54.642906 0
M  V30 81 H 36.277540 33.666745 61.705831 0
M  V30 82 H 37.773943 34.394400 61.735290 0
M  V30 83 H 41.490754 27.667974 56.438613 0
M  V30 84 H 35.764433 33.624387 58.231211 0
M  V30 85 H 38.557306 30.459984 61.145999 0
M  V30 86 H 39.340123 27.017173 58.389902 0
M  V30 END ATOM
M  V30 BEGIN BOND
M  V30 1 1 6 4
M  V30 2 1 8 2
M  V30 3 1 12 10
M  V30 4 1 13 1
M  V30 5 2 13 7
M  V30 6 1 14 11
M  V30 7 1 17 4
M  V30 8 1 17 9
M  V30 9 1 18 14
M  V30 10 1 20 15
M  V30 11 1 21 3
M  V30 12 1 21 13
M  V30 13 1 21 19
M  V30 14 1 22 7
M  V30 15 1 23 12
M  V30 16 1 24 8
M  V30 17 1 24 20
M  V30 18 1 25 2
M  V30 19 1 25 15
M  V30 20 1 27 18
M  V30 21 1 28 17
M  V30 22 1 28 23
M  V30 23 1 29 4
M  V30 24 1 29 18
M  V30 25 1 30 10
M  V30 26 1 31 5
M  V30 27 1 31 30
M  V30 28 1 32 3
M  V30 29 1 32 24
M  V30 30 1 33 9
M  V30 31 1 34 5
M  V30 32 1 34 12
M  V30 33 1 34 28
M  V30 34 1 35 8
M  V30 35 1 35 11
M  V30 36 1 35 14
M  V30 37 1 36 9
M  V30 38 1 36 16
M  V30 39 1 36 26
M  V30 40 1 4 37 CFG=1
M  V30 41 1 38 7
M  V30 42 1 38 19
M  V30 43 1 39 2
M  V30 44 1 40 2
M  V30 45 1 41 3
M  V30 46 1 42 3
M  V30 47 1 43 5
M  V30 48 1 44 5
M  V30 49 1 45 6
M  V30 50 1 46 6
M  V30 51 1 47 6
M  V30 52 1 9 48 CFG=3
M  V30 53 1 49 10
M  V30 54 1 50 10
M  V30 55 1 51 11
M  V30 56 1 52 11
M  V30 57 1 12 53 CFG=1
M  V30 58 1 14 54 CFG=3
M  V30 59 1 55 15
M  V30 60 1 56 15
M  V30 61 1 57 16
M  V30 62 1 58 16
M  V30 63 1 59 16
M  V30 64 1 17 60 CFG=3
M  V30 65 1 18 61 CFG=1
M  V30 66 1 62 19
M  V30 67 1 63 19
M  V30 68 1 64 20
M  V30 69 1 24 65 CFG=1
M  V30 70 1 66 25
M  V30 71 1 67 25
M  V30 72 1 68 26
M  V30 73 1 69 26
M  V30 74 1 70 26
M  V30 75 1 71 27
M  V30 76 1 28 72 CFG=3
M  V30 77 1 73 29
M  V30 78 1 74 29
M  V30 79 1 75 30
M  V30 80 1 76 30
M  V30 81 1 77 31
M  V30 82 1 78 31
M  V30 83 1 79 32
M  V30 84 1 80 32
M  V30 85 1 81 33
M  V30 86 1 34 82 CFG=1
M  V30 87 1 35 83 CFG=3
M  V30 88 1 84 36
M  V30 89 1 85 37
M  V30 90 1 8 86 CFG=1
M  V30 END BOND
M  V30 END CTAB
M  END
>  <i_epik_Tot_Q>  (1) 
1

>  <i_epik_Tot_abs_Q>  (1) 
1

>  <i_i_glide_confnum>  (1) 
495

>  <i_i_glide_lignum>  (1) 
76

>  <i_i_glide_posenum>  (1) 
268

>  <i_i_glide_rotatable_bonds>  (1) 
14

>  <i_lp_mmshare_version>  (1) 
72125

>  <i_m_source_file_index>  (1) 
30

>  <i_f3d_flags>  (1) 
0

>  <num_sample>  (1) 
100

>  <b_lp_Chiralities_Consistent>  (1) 
1

>  <r_epik_Charging_Adjusted_Penalty>  (1) 
1.7477768688038313

>  <r_epik_Ionization_Penalty>  (1) 
0.56833185219894722

>  <r_epik_Ionization_Penalty_Charging>  (1) 
0.56833130032608237

>  <r_epik_Ionization_Penalty_Neutral>  (1) 
5.5187286482775955e-07

>  <r_epik_State_Penalty>  (1) 
1.179445568477749

>  <r_glide_ring_energy>  (1) 
2.3029442833190661

>  <r_i_docking_score>  (1) 
-7.6032255007918002

>  <r_i_glide_ecoul>  (1) 
-4.9768664442195618

>  <r_i_glide_eff_state_penalty>  (1) 
1.179445568477749

>  <r_i_glide_einternal>  (1) 
9.097332159956462

>  <r_i_glide_emodel>  (1) 
-59.021238976906318

>  <r_i_glide_emodel_strain>  (1) 
5.3588328901021356

>  <r_i_glide_energy>  (1) 
-42.64917270785314

>  <r_i_glide_erotb>  (1) 
0.46833353265868582

>  <r_i_glide_esite>  (1) 
0

>  <r_i_glide_evdw>  (1) 
-37.67230626363358

>  <r_i_glide_gscore>  (1) 
-8.7826710692695489

>  <r_i_glide_gscore_strain>  (1) 
0.3397082225255339

>  <r_i_glide_hbond>  (1) 
-0.15666634274832567

>  <r_i_glide_ligand_efficiency>  (1) 
-0.20008488159978421

>  <r_i_glide_ligand_efficiency_ln>  (1) 
-1.6394790822043477

>  <r_i_glide_ligand_efficiency_sa>  (1) 
-0.67268045121075704

>  <r_i_glide_lipo>  (1) 
-4.8510205525791124

>  <r_i_glide_metal>  (1) 
-0

>  <r_i_glide_rewards>  (1) 
-1.9528806493117172

>  <r_lp_Energy>  (1) 
42.485220999999996

>  <s_epik_Chemistry_Notes>  (1) 
This compound has an imine and may undergo hydrolysis. This compound contains an acetal/aminal-like group ( X-CH(R)-Y where X, Y are N, S, or O) that may be acid/base labile, releasing an aldehyde.

>  <s_epik_cmdline>  (1) 
J2VwaWtfcHl0aG9uJywgJy1waHQnLCAnMS4wJywgJy1waCcsICc3LjQnLCAnLXRuJywgJzgnLCAnLW1hJywgJzUwMCcsICctaW1hZScsICc8aW5maWxlLm1hZT4nLCAnLW9tYWUnLCAnPG91dGZpbGUubWFlPic=

>  <s_epik_input>  (1) 
RkMxPUMoRilOKFtDSDJdUzEpW0NIMl1bQ0gyXVtDQEhdMltOSF1bQ0gyXVtDSDJdW0NIMl1OMltDQEBIXTNbQ0gyXVtDQEBIXTNbQ0BASF0oW09IXSlbQ0gyXVtDQEBdKFtDSDNdKShbT0hdKVtDQEBIXShbQ0BASF0oW09IXSlbQ0hdKFtDSDNdKVtDSDNdKVtDQEhdKFM0KVtDQEBIXShbQ0BASF00NSlbQ0gyXVtDSDJdW0NIMl1bQ0gyXTU=

>  <s_glide_docking_method>  (1) 
confgen

>  <s_i_glide_gridfile>  (1) 
gpcr_5ht2c_6bqh_protein_autoprepared_prepared

>  <s_lp_Force_Field>  (1) 
S-OPLS

>  <s_lp_Variant>  (1) 
DiffSBDD_29_num_sample_100-6

>  <s_m_source_file>  (1) 
generated__ligand_DiffSBDD_2026-05-06_prepared.sdf

>  <GenAI_Model>  (1) 
DiffSBDD

>  <Protein>  (1) 
GPCR_5HT2C

$$$$
DiffSBDD_66_num_sample_100
     RDKit          3D

  0  0  0  0  0  0  0  0  0  0999 V3000
M  V30 BEGIN CTAB
M  V30 COUNTS 111 115 0 0 1
M  V30 BEGIN ATOM
M  V30 1 C 36.027717 33.143612 60.562396 0
M  V30 2 C 39.564341 30.495009 63.500008 0
M  V30 3 C 39.468893 25.829886 56.456009 0
M  V30 4 C 45.246975 28.473818 65.153426 0
M  V30 5 C 40.294009 36.600986 66.467289 0
M  V30 6 C 40.053274 36.556027 69.015881 0
M  V30 7 C 40.837478 27.690850 57.248720 0
M  V30 8 S 41.394342 28.021429 63.616614 0
M  V30 9 C 39.725089 29.759961 62.208066 0 CFG=1
M  V30 10 C 35.705271 31.766256 60.194510 0
M  V30 11 C 37.943075 32.591866 58.262997 0
M  V30 12 C 37.660216 31.333249 58.650277 0
M  V30 13 C 39.814964 36.391845 63.889342 0
M  V30 14 C 36.267403 34.908389 61.699614 0
M  V30 15 C 41.705687 31.964229 66.124842 0 CFG=2
M  V30 16 C 37.046731 33.757730 58.415272 0
M  V30 17 C 38.673040 30.255273 58.403128 0
M  V30 18 O 41.380987 36.010486 62.095809 0
M  V30 19 C 40.432339 28.751660 59.532735 0 CFG=1
M  V30 20 N 35.703659 33.635200 61.740677 0
M  V30 21 C 40.513784 26.749805 56.250957 0
M  V30 22 C 40.106916 27.716703 58.452710 0
M  V30 23 C 39.630973 37.162687 65.200791 0
M  V30 24 C 37.486769 36.381372 59.928269 0
M  V30 25 C 36.413337 30.974735 59.349526 0
M  V30 26 C 42.274568 30.520426 66.337450 0
M  V30 27 C 39.882020 37.379874 67.734127 0 CFG=1
M  V30 28 C 42.748666 32.892590 65.441470 0
M  V30 29 C 39.202215 29.662619 59.747368 0 CFG=1
M  V30 30 C 39.355307 30.618442 60.979613 0 CFG=2
M  V30 31 C 43.220079 27.696837 66.367138 0
M  V30 32 C 42.338532 34.295296 65.036605 0
M  V30 33 N 36.665159 33.987120 59.756107 0
M  V30 34 C 39.054333 26.796953 58.650294 0
M  V30 35 C 36.830548 35.154976 60.473245 0
M  V30 36 C 41.355806 32.554033 67.505680 0
M  V30 37 O 40.667507 38.551606 67.853485 0
M  V30 38 C 40.393268 31.873268 65.314005 0
M  V30 39 C 43.342474 30.069673 65.308950 0
M  V30 40 C 43.709207 28.564260 65.187459 0
M  V30 41 C 41.053418 28.993150 62.087255 0 CFG=2
M  V30 42 N 40.509848 31.216731 64.001068 0 CHG=1
M  V30 43 C 41.617764 34.577998 63.937559 0
M  V30 44 C 43.204772 28.013208 63.827713 0
M  V30 45 C 38.739992 25.853467 57.655541 0
M  V30 46 C 40.257331 31.855941 60.796951 0
M  V30 47 C 38.771593 36.111515 63.108641 0
M  V30 48 C 41.242864 35.977168 63.502739 0 CFG=2
M  V30 49 C 40.923501 28.079710 60.842893 0
M  V30 50 H 38.643297 30.421446 64.059750 0
M  V30 51 H 39.227170 25.106170 55.690829 0
M  V30 52 H 45.660931 29.076772 64.343636 0
M  V30 53 H 45.590580 27.451857 65.006137 0
M  V30 54 H 45.686739 28.830044 66.085467 0
M  V30 55 H 39.998529 35.558457 66.571818 0
M  V30 56 H 41.376367 36.623496 66.374753 0
M  V30 57 H 39.407291 35.678711 69.005553 0
M  V30 58 H 39.816077 37.143615 69.903647 0
M  V30 59 H 41.067374 36.191178 69.130235 0
M  V30 60 H 41.639948 28.394493 57.084728 0
M  V30 61 H 34.857311 31.334212 60.701561 0
M  V30 62 H 38.884506 32.788543 57.770483 0
M  V30 63 H 36.173279 35.567963 62.545433 0
M  V30 64 H 37.522379 34.634361 57.984642 0
M  V30 65 H 36.134585 33.621466 57.853532 0
M  V30 66 H 38.188654 29.482230 57.805680 0
M  V30 67 H 39.483194 30.636343 57.786167 0
M  V30 68 H 41.791910 36.825810 61.849748 0
M  V30 69 H 41.248795 29.374204 59.165789 0
M  V30 70 H 41.067097 26.732225 55.327210 0
M  V30 71 H 38.558447 37.178480 65.397969 0
M  V30 72 H 39.867396 38.213361 65.050517 0
M  V30 73 H 37.311526 37.235681 60.582717 0
M  V30 74 H 37.093684 36.642967 58.945170 0
M  V30 75 H 38.562561 36.237083 59.858935 0
M  V30 76 H 36.072694 29.955302 59.244282 0
M  V30 77 H 42.726147 30.441274 67.327604 0
M  V30 78 H 41.443909 29.814489 66.350904 0
M  V30 79 H 38.834683 37.679749 67.662149 0
M  V30 80 H 43.647329 32.968712 66.055680 0
M  V30 81 H 43.067354 32.455503 64.503228 0
M  V30 82 H 38.392165 29.002778 60.059540 0
M  V30 83 H 38.365978 31.020622 61.197724 0
M  V30 84 H 42.133549 27.666682 66.442550 0
M  V30 85 H 43.607418 28.063347 67.318148 0
M  V30 86 H 43.558380 26.665481 66.259098 0
M  V30 87 H 42.667215 35.095386 65.678083 0
M  V30 88 H 38.484379 26.821451 59.561094 0
M  V30 89 H 40.669609 31.904885 68.049351 0
M  V30 90 H 40.883732 33.532563 67.419901 0
M  V30 91 H 42.243910 32.674383 68.127802 0
M  V30 92 H 41.295011 38.405118 68.551882 0
M  V30 93 H 39.659468 31.300798 65.883685 0
M  V30 94 H 39.959796 32.852755 65.141918 0
M  V30 95 H 43.049695 30.392751 64.313984 0
M  V30 96 H 44.243698 30.642090 65.532346 0
M  V30 97 H 41.861049 29.708590 61.974702 0
M  V30 98 H 41.282569 33.775507 63.300099 0
M  V30 99 H 43.649498 28.625732 63.053522 0
M  V30 100 H 43.565460 26.997305 63.658364 0
M  V30 101 H 37.935707 25.149805 57.812057 0
M  V30 102 H 41.304326 31.593632 60.653543 0
M  V30 103 H 40.211230 32.516306 61.660851 0
M  V30 104 H 39.911739 32.470605 59.969424 0
M  V30 105 H 38.894846 35.571562 62.183910 0
M  V30 106 H 37.780746 36.422996 63.388392 0
M  V30 107 H 42.012236 36.644010 63.853509 0
M  V30 108 H 41.867407 27.621357 60.621324 0
M  V30 109 H 40.267391 27.254797 61.101559 0
M  V30 110 H 38.966626 28.978419 62.253483 0
M  V30 111 H 41.388738 31.309346 63.504526 0
M  V30 END ATOM
M  V30 BEGIN BOND
M  V30 1 1 9 2
M  V30 2 1 10 1
M  V30 3 2 12 11
M  V30 4 1 16 11
M  V30 5 1 17 12
M  V30 6 2 20 1
M  V30 7 1 20 14
M  V30 8 2 21 3
M  V30 9 1 21 7
M  V30 10 2 22 7
M  V30 11 1 22 19
M  V30 12 1 23 5
M  V30 13 1 23 13
M  V30 14 2 25 10
M  V30 15 1 25 12
M  V30 16 1 26 15
M  V30 17 1 27 5
M  V30 18 1 27 6
M  V30 19 1 15 28 CFG=3
M  V30 20 1 29 17
M  V30 21 1 29 19
M  V30 22 1 30 9
M  V30 23 1 30 29
M  V30 24 1 32 28
M  V30 25 1 33 1
M  V30 26 1 33 16
M  V30 27 1 34 22
M  V30 28 2 35 14
M  V30 29 1 35 24
M  V30 30 1 35 33
M  V30 31 1 36 15
M  V30 32 1 37 27
M  V30 33 1 38 15
M  V30 34 1 39 26
M  V30 35 1 40 4
M  V30 36 1 40 31
M  V30 37 1 40 39
M  V30 38 1 41 8
M  V30 39 1 41 9
M  V30 40 2 42 2
M  V30 41 1 42 38
M  V30 42 2 43 32
M  V30 43 1 44 8
M  V30 44 1 44 40
M  V30 45 1 45 3
M  V30 46 2 45 34
M  V30 47 1 46 30
M  V30 48 2 47 13
M  V30 49 1 48 13
M  V30 50 1 48 18
M  V30 51 1 48 43
M  V30 52 1 49 19
M  V30 53 1 49 41
M  V30 54 1 50 2
M  V30 55 1 51 3
M  V30 56 1 52 4
M  V30 57 1 53 4
M  V30 58 1 54 4
M  V30 59 1 55 5
M  V30 60 1 56 5
M  V30 61 1 57 6
M  V30 62 1 58 6
M  V30 63 1 59 6
M  V30 64 1 60 7
M  V30 65 1 61 10
M  V30 66 1 62 11
M  V30 67 1 63 14
M  V30 68 1 64 16
M  V30 69 1 65 16
M  V30 70 1 66 17
M  V30 71 1 67 17
M  V30 72 1 68 18
M  V30 73 1 19 69 CFG=3
M  V30 74 1 70 21
M  V30 75 1 71 23
M  V30 76 1 72 23
M  V30 77 1 73 24
M  V30 78 1 74 24
M  V30 79 1 75 24
M  V30 80 1 76 25
M  V30 81 1 77 26
M  V30 82 1 78 26
M  V30 83 1 27 79 CFG=3
M  V30 84 1 80 28
M  V30 85 1 81 28
M  V30 86 1 29 82 CFG=1
M  V30 87 1 30 83 CFG=1
M  V30 88 1 84 31
M  V30 89 1 85 31
M  V30 90 1 86 31
M  V30 91 1 87 32
M  V30 92 1 88 34
M  V30 93 1 89 36
M  V30 94 1 90 36
M  V30 95 1 91 36
M  V30 96 1 92 37
M  V30 97 1 93 38
M  V30 98 1 94 38
M  V30 99 1 95 39
M  V30 100 1 96 39
M  V30 101 1 41 97 CFG=3
M  V30 102 1 98 43
M  V30 103 1 99 44
M  V30 104 1 100 44
M  V30 105 1 101 45
M  V30 106 1 102 46
M  V30 107 1 103 46
M  V30 108 1 104 46
M  V30 109 1 105 47
M  V30 110 1 106 47
M  V30 111 1 48 107 CFG=1
M  V30 112 1 108 49
M  V30 113 1 109 49
M  V30 114 1 9 110 CFG=1
M  V30 115 1 111 42
M  V30 END BOND
M  V30 END CTAB
M  END
>  <i_epik_Tot_Q>  (1) 
1

>  <i_epik_Tot_abs_Q>  (1) 
1

>  <i_i_glide_confnum>  (1) 
697

>  <i_i_glide_lignum>  (1) 
170

>  <i_i_glide_posenum>  (1) 
252

>  <i_i_glide_rotatable_bonds>  (1) 
12

>  <i_lp_mmshare_version>  (1) 
72125

>  <i_m_source_file_index>  (1) 
67

>  <i_f3d_flags>  (1) 
0

>  <num_sample>  (1) 
100

>  <b_lp_Chiralities_Consistent>  (1) 
1

>  <r_epik_Charging_Adjusted_Penalty>  (1) 
1.5687136755604425

>  <r_epik_Ionization_Penalty>  (1) 
3.7043048325211934

>  <r_epik_Ionization_Penalty_Charging>  (1) 
0.78327048387713327

>  <r_epik_Ionization_Penalty_Neutral>  (1) 
2.92103434864406

>  <r_epik_State_Penalty>  (1) 
0.78544319168330923

>  <r_glide_ring_energy>  (1) 
0

>  <r_i_docking_score>  (1) 
-7.6000631458360646

>  <r_i_glide_ecoul>  (1) 
-4.3041873930452716

>  <r_i_glide_eff_state_penalty>  (1) 
0.78544319168330923

>  <r_i_glide_einternal>  (1) 
10.555976088869924

>  <r_i_glide_emodel>  (1) 
-60.954149011436527

>  <r_i_glide_emodel_strain>  (1) 
4.5974211065154265

>  <r_i_glide_energy>  (1) 
-49.199040598673932

>  <r_i_glide_erotb>  (1) 
0.28694684240539414

>  <r_i_glide_esite>  (1) 
-0.02841328469711496

>  <r_i_glide_evdw>  (1) 
-44.894853205628657

>  <r_i_glide_gscore>  (1) 
-8.3855063375193737

>  <r_i_glide_gscore_strain>  (1) 
0.14935527662885661

>  <r_i_glide_hbond>  (1) 
-0.39793930295192581

>  <r_i_glide_ligand_efficiency>  (1) 
-0.15510332950685846

>  <r_i_glide_ligand_efficiency_ln>  (1) 
-1.5536268061137579

>  <r_i_glide_ligand_efficiency_sa>  (1) 
-0.56757049930802173

>  <r_i_glide_lipo>  (1) 
-4.9097342454497639

>  <r_i_glide_metal>  (1) 
-0

>  <r_i_glide_rewards>  (1) 
-0.59535085421659617

>  <r_lp_Energy>  (1) 
58.587302999999999

>  <s_epik_Chemistry_Notes>  (1) 
This compound has an imine and may undergo hydrolysis.

>  <s_epik_cmdline>  (1) 
J2VwaWtfcHl0aG9uJywgJy1waHQnLCAnMS4wJywgJy1waCcsICc3LjQnLCAnLXRuJywgJzgnLCAnLW1hJywgJzUwMCcsICctaW1hZScsICc8aW5maWxlLm1hZT4nLCAnLW9tYWUnLCAnPG91dGZpbGUubWFlPic=

>  <s_epik_input>  (1) 
bjFbY0hdYyhbQ0gzXSluKGMxMilbQ0gyXVtDSF09QyhbQ0hdPVtDSF0yKVtDSDJdW0NASF0oW0NAQEhdM1tDSDNdKVtDQEhdKGM0W2NIXVtjSF1bY0hdW2NIXVtjSF00KVtDSDJdW0NAQEhdKFtDQEhdMzUpU1tDSDJdQyhbQ0gzXSkoW0NIM10pW0NIMl1bQ0gyXVtDQF0oW0NIM10pKFtDSDJdXE49W0NIXVw1KVtDSDJdL1tDSF09W0NIXS9bQ0BASF0oW09IXSlDKD1bQ0gyXSlbQ0gyXVtDSDJdW0NAQEhdKFtDSDNdKVtPSF0=

>  <s_glide_docking_method>  (1) 
confgen

>  <s_i_glide_gridfile>  (1) 
gpcr_5ht2c_6bqh_protein_autoprepared_prepared

>  <s_lp_Force_Field>  (1) 
S-OPLS

>  <s_lp_Variant>  (1) 
DiffSBDD_66_num_sample_100-7

>  <s_m_source_file>  (1) 
generated__ligand_DiffSBDD_2026-05-06_prepared.sdf

>  <GenAI_Model>  (1) 
DiffSBDD

>  <Protein>  (1) 
GPCR_5HT2C

$$$$
DiffSBDD_16_num_sample_100
     RDKit          3D

  0  0  0  0  0  0  0  0  0  0999 V3000
M  V30 BEGIN CTAB
M  V30 COUNTS 58 60 0 0 1
M  V30 BEGIN ATOM
M  V30 1 C 39.278462 28.730424 55.035796 0
M  V30 2 O 40.267399 29.621429 49.570315 0
M  V30 3 C 37.866890 26.620117 54.766763 0
M  V30 4 C 37.354518 31.652934 61.169233 0
M  V30 5 C 39.168951 26.311321 55.878038 0 CFG=2
M  V30 6 C 36.759531 30.528783 59.094706 0
M  V30 7 C 40.487730 29.280529 55.783859 0
M  V30 8 C 39.924997 30.258011 51.844348 0
M  V30 9 C 39.118671 26.276959 57.418225 0 CFG=1
M  V30 10 C 38.746987 29.831653 60.319909 0
M  V30 11 C 38.088752 30.995208 54.810519 0
M  V30 12 C 36.496769 31.508258 60.061943 0
M  V30 13 C 40.536808 30.598867 50.550615 0
M  V30 14 C 39.351871 29.997628 52.891480 0
M  V30 15 C 37.882141 29.694207 59.208902 0
M  V30 16 C 40.702013 28.194219 58.122120 0
M  V30 17 C 38.854543 27.467260 55.195055 0
M  V30 18 C 39.272353 27.601900 58.256438 0 CFG=1
M  V30 19 C 41.276881 28.309797 56.700275 0
M  V30 20 O 35.412493 32.322696 59.917923 0
M  V30 21 C 38.148626 28.665419 58.114640 0
M  V30 22 C 38.122716 25.238239 57.967843 0
M  V30 23 C 38.562916 29.710098 54.105423 0 CFG=1
M  V30 24 C 38.479681 30.812567 61.300524 0
M  V30 25 C 38.451408 23.841544 57.453501 0
M  V30 26 C 36.638870 25.463326 57.664312 0
M  V30 27 H 39.374623 29.734643 49.265821 0
M  V30 28 H 37.932632 26.151771 53.787044 0
M  V30 29 H 36.858504 26.749221 55.140470 0
M  V30 30 H 37.152698 32.408092 61.915153 0
M  V30 31 H 39.923624 25.638951 55.472441 0
M  V30 32 H 36.099653 30.421427 58.253500 0
M  V30 33 H 41.143418 29.735924 55.053501 0
M  V30 34 H 40.159792 30.123970 56.388662 0
M  V30 35 H 40.068927 25.794342 57.654854 0
M  V30 36 H 39.609655 29.194104 60.423802 0
M  V30 37 H 37.484347 31.612036 54.145285 0
M  V30 38 H 38.921798 31.611847 55.149242 0
M  V30 39 H 37.466665 30.768741 55.676929 0
M  V30 40 H 41.614672 30.688580 50.685531 0
M  V30 41 H 40.158711 31.567190 50.221713 0
M  V30 42 H 41.384099 27.568030 58.699012 0
M  V30 43 H 40.759476 29.177184 58.586617 0
M  V30 44 H 39.200007 27.269628 59.291977 0
M  V30 45 H 42.308040 28.649255 56.806625 0
M  V30 46 H 41.418205 27.331264 56.253483 0
M  V30 47 H 35.093858 32.291603 59.019533 0
M  V30 48 H 37.194655 28.200569 57.930264 0
M  V30 49 H 38.294682 29.273321 57.236944 0
M  V30 50 H 38.267376 25.221432 59.048339 0
M  V30 51 H 37.668991 29.209255 53.731938 0
M  V30 52 H 39.138737 30.920937 62.149706 0
M  V30 53 H 38.322909 23.786178 56.372429 0
M  V30 54 H 37.772819 23.118616 57.901390 0
M  V30 55 H 39.467404 23.533655 57.680976 0
M  V30 56 H 36.372284 25.193081 56.643701 0
M  V30 57 H 36.267420 26.456133 57.853501 0
M  V30 58 H 36.072006 24.821430 58.322754 0
M  V30 END ATOM
M  V30 BEGIN BOND
M  V30 1 1 5 3
M  V30 2 1 7 1
M  V30 3 1 9 5
M  V30 4 1 12 4
M  V30 5 2 12 6
M  V30 6 1 13 2
M  V30 7 1 13 8
M  V30 8 3 14 8
M  V30 9 1 15 6
M  V30 10 2 15 10
M  V30 11 2 17 1
M  V30 12 1 17 3
M  V30 13 1 17 5
M  V30 14 1 18 9
M  V30 15 1 18 16
M  V30 16 1 19 7
M  V30 17 1 19 16
M  V30 18 1 20 12
M  V30 19 1 21 15
M  V30 20 1 21 18
M  V30 21 1 22 9
M  V30 22 1 23 1
M  V30 23 1 23 11
M  V30 24 1 23 14
M  V30 25 2 24 4
M  V30 26 1 24 10
M  V30 27 1 25 22
M  V30 28 1 26 22
M  V30 29 1 27 2
M  V30 30 1 28 3
M  V30 31 1 29 3
M  V30 32 1 30 4
M  V30 33 1 5 31 CFG=3
M  V30 34 1 32 6
M  V30 35 1 33 7
M  V30 36 1 34 7
M  V30 37 1 9 35 CFG=1
M  V30 38 1 36 10
M  V30 39 1 37 11
M  V30 40 1 38 11
M  V30 41 1 39 11
M  V30 42 1 40 13
M  V30 43 1 41 13
M  V30 44 1 42 16
M  V30 45 1 43 16
M  V30 46 1 18 44 CFG=1
M  V30 47 1 45 19
M  V30 48 1 46 19
M  V30 49 1 47 20
M  V30 50 1 48 21
M  V30 51 1 49 21
M  V30 52 1 50 22
M  V30 53 1 23 51 CFG=3
M  V30 54 1 52 24
M  V30 55 1 53 25
M  V30 56 1 54 25
M  V30 57 1 55 25
M  V30 58 1 56 26
M  V30 59 1 57 26
M  V30 60 1 58 26
M  V30 END BOND
M  V30 END CTAB
M  END
>  <i_epik_Tot_Q>  (1) 
0

>  <i_epik_Tot_abs_Q>  (1) 
0

>  <i_i_glide_confnum>  (1) 
1

>  <i_i_glide_lignum>  (1) 
38

>  <i_i_glide_posenum>  (1) 
20

>  <i_i_glide_rotatable_bonds>  (1) 
8

>  <i_lp_mmshare_version>  (1) 
72125

>  <i_m_source_file_index>  (1) 
17

>  <i_f3d_flags>  (1) 
0

>  <num_sample>  (1) 
100

>  <b_lp_Chiralities_Consistent>  (1) 
1

>  <r_epik_Charging_Adjusted_Penalty>  (1) 
0

>  <r_epik_Ionization_Penalty>  (1) 
0.00099862310418953213

>  <r_epik_Ionization_Penalty_Charging>  (1) 
0

>  <r_epik_Ionization_Penalty_Neutral>  (1) 
0.00099862310418953213

>  <r_epik_State_Penalty>  (1) 
-0

>  <r_glide_ring_energy>  (1) 
0

>  <r_i_docking_score>  (1) 
-7.5958253313394275

>  <r_i_glide_ecoul>  (1) 
-5.4750815994321353

>  <r_i_glide_eff_state_penalty>  (1) 
-0

>  <r_i_glide_einternal>  (1) 
6.764812117508459

>  <r_i_glide_emodel>  (1) 
-46.468349810112358

>  <r_i_glide_emodel_strain>  (1) 
0.68697518198541729

>  <r_i_glide_energy>  (1) 
-37.308103431655773

>  <r_i_glide_erotb>  (1) 
0.76791189123998571

>  <r_i_glide_esite>  (1) 
0

>  <r_i_glide_evdw>  (1) 
-31.833021832223636

>  <r_i_glide_gscore>  (1) 
-7.5958253313394275

>  <r_i_glide_gscore_strain>  (1) 
0

>  <r_i_glide_hbond>  (1) 
-0.40839495787869778

>  <r_i_glide_ligand_efficiency>  (1) 
-0.29214712812843951

>  <r_i_glide_ligand_efficiency_ln>  (1) 
-1.7838546551292651

>  <r_i_glide_ligand_efficiency_sa>  (1) 
-0.86548471847700659

>  <r_i_glide_lipo>  (1) 
-3.961249587340689

>  <r_i_glide_metal>  (1) 
-0

>  <r_i_glide_rewards>  (1) 
-1.5811793458340238

>  <r_lp_Energy>  (1) 
30.586513999999998

>  <r_lp_tautomer_probability>  (1) 
1

>  <s_epik_cmdline>  (1) 
J2VwaWtfcHl0aG9uJywgJy1waHQnLCAnMS4wJywgJy1waCcsICc3LjQnLCAnLXRuJywgJzgnLCAnLW1hJywgJzUwMCcsICctaW1hZScsICc8aW5maWxlLm1hZT4nLCAnLW9tYWUnLCAnPG91dGZpbGUubWFlPic=

>  <s_epik_input>  (1) 
W09IXVtDSDJdQyNDW0NASF0oW0NIM10pQyg9QygvW0NIMl0xKVtDQEhdMTIpXFtDSDJdW0NIMl1bQ0gyXVtDQEhdKFtDQEhdMltDSF0oW0NIM10pW0NIM10pW0NIMl1jKFtjSF0zKVtjSF1bY0hdW2NIXWMzW09IXQ==

>  <s_glide_docking_method>  (1) 
confgen

>  <s_i_glide_gridfile>  (1) 
gpcr_5ht2c_6bqh_protein_autoprepared_prepared

>  <s_lp_Force_Field>  (1) 
S-OPLS

>  <s_lp_Variant>  (1) 
DiffSBDD_16_num_sample_100-1

>  <s_m_source_file>  (1) 
generated__ligand_DiffSBDD_2026-05-06_prepared.sdf

>  <GenAI_Model>  (1) 
DiffSBDD

>  <Protein>  (1) 
GPCR_5HT2C

$$$$
DiffSBDD_19_num_sample_100
     RDKit          3D

  0  0  0  0  0  0  0  0  0  0999 V3000
M  V30 BEGIN CTAB
M  V30 COUNTS 71 72 0 0 1
M  V30 BEGIN ATOM
M  V30 1 C 38.831076 31.696621 59.567814 0
M  V30 2 C 39.608150 31.170199 55.345767 0
M  V30 3 C 38.306180 33.166302 61.618713 0
M  V30 4 C 40.720711 34.699295 62.909428 0
M  V30 5 O 38.587775 33.314284 55.849747 0
M  V30 6 C 38.660557 26.990234 57.864660 0
M  V30 7 C 40.838958 33.333998 62.199041 0 CFG=1
M  V30 8 C 38.423709 27.610983 52.661537 0
M  V30 9 C 38.964240 28.609718 53.607584 0
M  V30 10 C 39.468820 31.319021 62.872508 0
M  V30 11 C 38.835443 27.374470 51.417374 0
M  V30 12 C 42.106500 32.583755 62.712150 0
M  V30 13 C 41.834998 31.264927 63.410586 0
M  V30 14 O 35.618546 32.096297 61.453478 0
M  V30 15 O 36.434420 30.421413 60.252486 0 CHG=-1
M  V30 16 O 37.467378 26.884322 53.249421 0
M  V30 17 C 40.624047 30.700105 63.471023 0
M  V30 18 N 38.304306 30.805544 58.510376 0 CFG=2 CHG=1
M  V30 19 C 39.042888 32.109505 56.429134 0 CFG=1
M  V30 20 C 39.867398 28.108205 50.703273 0
M  V30 21 C 38.775611 31.101593 54.061248 0 CFG=1
M  V30 22 C 40.318811 29.368334 50.947027 0
M  V30 23 C 39.008488 29.503434 58.365481 0
M  V30 24 C 37.730788 32.428452 60.382005 0 CFG=2
M  V30 25 C 36.486596 31.573221 60.727329 0
M  V30 26 C 37.894905 31.514435 57.282137 0
M  V30 27 C 39.530582 32.525068 62.273682 0
M  V30 28 C 39.867448 30.303111 51.976984 0
M  V30 29 C 39.909647 26.715167 57.017373 0
M  V30 30 C 39.233068 30.004745 53.125786 0
M  V30 31 C 38.112800 28.422559 57.726849 0
M  V30 32 O 37.406108 30.937247 54.340085 0
M  V30 33 H 39.467311 31.100117 60.216135 0
M  V30 34 H 39.467288 32.469685 59.149429 0
M  V30 35 H 39.754130 30.173953 55.753959 0
M  V30 36 H 40.604505 31.513692 55.064128 0
M  V30 37 H 38.516161 34.195392 61.333527 0
M  V30 38 H 37.543640 33.221472 62.383044 0
M  V30 39 H 39.952989 35.337104 62.474768 0
M  V30 40 H 40.486237 34.573163 63.966324 0
M  V30 41 H 41.654087 35.260618 62.845631 0
M  V30 42 H 37.738617 33.146549 55.453802 0
M  V30 43 H 38.869143 26.772088 58.912973 0
M  V30 44 H 37.880189 26.288053 57.566163 0
M  V30 45 H 40.997920 33.536222 61.140619 0
M  V30 46 H 38.286214 28.650940 54.457780 0
M  V30 47 H 39.867283 28.203999 54.050004 0
M  V30 48 H 38.523812 30.794741 62.900166 0
M  V30 49 H 38.369277 26.557200 50.888798 0
M  V30 50 H 42.667118 33.209961 63.403706 0
M  V30 51 H 42.775050 32.385671 61.874411 0
M  V30 52 H 42.681436 30.771715 63.867233 0
M  V30 53 H 37.075670 26.340410 52.576414 0
M  V30 54 H 40.509090 29.752233 63.977650 0
M  V30 55 H 39.867214 32.413124 57.058595 0
M  V30 56 H 40.291825 27.611345 49.853533 0
M  V30 57 H 38.858962 32.053030 53.540414 0
M  V30 58 H 41.058198 29.746948 50.257007 0
M  V30 59 H 39.956453 29.623036 57.844039 0
M  V30 60 H 39.263364 29.140532 59.362159 0
M  V30 61 H 37.315265 33.202383 59.735109 0
M  V30 62 H 37.272834 32.340248 57.625998 0
M  V30 63 H 37.250202 30.839392 56.726332 0
M  V30 64 H 40.050593 31.350724 51.783786 0
M  V30 65 H 40.254101 25.690281 57.158766 0
M  V30 66 H 39.699434 26.843429 55.956408 0
M  V30 67 H 40.733632 27.377435 57.282193 0
M  V30 68 H 37.134459 28.453347 58.209510 0
M  V30 69 H 37.930001 28.643586 56.677362 0
M  V30 70 H 37.253554 30.062159 54.660947 0
M  V30 71 H 37.419685 30.528429 58.950281 0
M  V30 END ATOM
M  V30 BEGIN BOND
M  V30 1 1 7 4
M  V30 2 1 9 8
M  V30 3 2 11 8
M  V30 4 1 12 7
M  V30 5 1 13 12
M  V30 6 1 16 8
M  V30 7 1 17 10
M  V30 8 2 17 13
M  V30 9 1 18 1
M  V30 10 1 19 2
M  V30 11 1 19 5
M  V30 12 1 20 11
M  V30 13 1 21 2
M  V30 14 2 22 20
M  V30 15 1 23 18
M  V30 16 1 24 1
M  V30 17 1 24 3
M  V30 18 2 25 14
M  V30 19 1 25 15
M  V30 20 1 25 24
M  V30 21 1 26 18
M  V30 22 1 26 19
M  V30 23 1 27 3
M  V30 24 1 27 7
M  V30 25 2 27 10
M  V30 26 1 28 22
M  V30 27 1 29 6
M  V30 28 1 30 9
M  V30 29 1 30 21
M  V30 30 2 30 28
M  V30 31 1 31 6
M  V30 32 1 31 23
M  V30 33 1 32 21
M  V30 34 1 33 1
M  V30 35 1 34 1
M  V30 36 1 35 2
M  V30 37 1 36 2
M  V30 38 1 37 3
M  V30 39 1 38 3
M  V30 40 1 39 4
M  V30 41 1 40 4
M  V30 42 1 41 4
M  V30 43 1 42 5
M  V30 44 1 43 6
M  V30 45 1 44 6
M  V30 46 1 7 45 CFG=3
M  V30 47 1 46 9
M  V30 48 1 47 9
M  V30 49 1 48 10
M  V30 50 1 49 11
M  V30 51 1 50 12
M  V30 52 1 51 12
M  V30 53 1 52 13
M  V30 54 1 53 16
M  V30 55 1 54 17
M  V30 56 1 19 55 CFG=1
M  V30 57 1 56 20
M  V30 58 1 21 57 CFG=3
M  V30 59 1 58 22
M  V30 60 1 59 23
M  V30 61 1 60 23
M  V30 62 1 24 61 CFG=3
M  V30 63 1 62 26
M  V30 64 1 63 26
M  V30 65 1 64 28
M  V30 66 1 65 29
M  V30 67 1 66 29
M  V30 68 1 67 29
M  V30 69 1 68 31
M  V30 70 1 69 31
M  V30 71 1 70 32
M  V30 72 1 18 71 CFG=1
M  V30 END BOND
M  V30 END CTAB
M  END
>  <i_epik_Tot_Q>  (1) 
0

>  <i_epik_Tot_abs_Q>  (1) 
2

>  <i_i_glide_confnum>  (1) 
6585

>  <i_i_glide_lignum>  (1) 
49

>  <i_i_glide_posenum>  (1) 
106

>  <i_i_glide_rotatable_bonds>  (1) 
16

>  <i_lp_mmshare_version>  (1) 
72125

>  <i_m_source_file_index>  (1) 
20

>  <i_f3d_flags>  (1) 
0

>  <num_sample>  (1) 
100

>  <b_lp_Chiralities_Consistent>  (1) 
1

>  <r_epik_Charging_Adjusted_Penalty>  (1) 
0.015037487925518506

>  <r_epik_Ionization_Penalty>  (1) 
0.015045499532085388

>  <r_epik_Ionization_Penalty_Charging>  (1) 
0.0012943130925640431

>  <r_epik_Ionization_Penalty_Neutral>  (1) 
0.013751186439521345

>  <r_epik_State_Penalty>  (1) 
0.013743174832954463

>  <r_glide_ring_energy>  (1) 
0

>  <r_i_docking_score>  (1) 
-7.5885312523966588

>  <r_i_glide_ecoul>  (1) 
-7.3727830087782635

>  <r_i_glide_eff_state_penalty>  (1) 
0.013743174832954463

>  <r_i_glide_einternal>  (1) 
13.703050241671866

>  <r_i_glide_emodel>  (1) 
-64.113118789422231

>  <r_i_glide_emodel_strain>  (1) 
2.4373026556141895

>  <r_i_glide_energy>  (1) 
-45.360071572408373

>  <r_i_glide_erotb>  (1) 
1.1084889849388277

>  <r_i_glide_esite>  (1) 
-0.10105808768723806

>  <r_i_glide_evdw>  (1) 
-37.987288563630109

>  <r_i_glide_gscore>  (1) 
-7.602274427229613

>  <r_i_glide_gscore_strain>  (1) 
0

>  <r_i_glide_hbond>  (1) 
-0.40489502576177722

>  <r_i_glide_ligand_efficiency>  (1) 
-0.23714160163739559

>  <r_i_glide_ligand_efficiency_ln>  (1) 
-1.6992790029609994

>  <r_i_glide_ligand_efficiency_sa>  (1) 
-0.75287765580925103

>  <r_i_glide_lipo>  (1) 
-4.1757842084849273

>  <r_i_glide_metal>  (1) 
-0

>  <r_i_glide_rewards>  (1) 
-1.0237442107362522

>  <r_lp_Energy>  (1) 
25.015605999999998

>  <s_epik_cmdline>  (1) 
J2VwaWtfcHl0aG9uJywgJy1waHQnLCAnMS4wJywgJy1waCcsICc3LjQnLCAnLXRuJywgJzgnLCAnLW1hJywgJzUwMCcsICctaW1hZScsICc8aW5maWxlLm1hZT4nLCAnLW9tYWUnLCAnPG91dGZpbGUubWFlPic=

>  <s_epik_input>  (1) 
W0NIM11bQ0BIXTFbQ0gyXVtDSF09W0NIXVtDSF09QzFbQ0gyXVtDQEhdKEMoPU8pW09IXSlbQ0gyXU4oW0NIMl1bQ0gyXVtDSDJdW0NIM10pW0NIMl1bQ0BIXShbT0hdKVtDSDJdW0NASF0oW09IXSlDKFtDSDJdMik9W0NIXVtDSF09W0NIXVtDSF09QzJbT0hd

>  <s_glide_docking_method>  (1) 
confgen

>  <s_i_glide_gridfile>  (1) 
gpcr_5ht2c_6bqh_protein_autoprepared_prepared

>  <s_lp_Force_Field>  (1) 
S-OPLS

>  <s_lp_Variant>  (1) 
DiffSBDD_19_num_sample_100-1

>  <s_m_source_file>  (1) 
generated__ligand_DiffSBDD_2026-05-06_prepared.sdf

>  <GenAI_Model>  (1) 
DiffSBDD

>  <Protein>  (1) 
GPCR_5HT2C

$$$$
DiffSBDD_39_num_sample_100
     RDKit          3D

  0  0  0  0  0  0  0  0  0  0999 V3000
M  V30 BEGIN CTAB
M  V30 COUNTS 61 64 0 0 1
M  V30 BEGIN ATOM
M  V30 1 C 40.491819 33.058011 62.729747 0
M  V30 2 C 39.356789 29.038992 57.761156 0
M  V30 3 C 36.648472 31.835439 61.234758 0
M  V30 4 C 39.907402 28.824942 59.170716 0
M  V30 5 C 39.868204 31.157669 61.229013 0
M  V30 6 C 37.867403 27.521721 56.317160 0
M  V30 7 N 38.504813 27.159680 52.593529 0
M  V30 8 O 36.988677 32.859043 61.853501 0 CHG=-1
M  V30 9 C 38.296182 27.906216 54.918032 0
M  V30 10 C 39.464272 33.629583 60.578163 0
M  V30 11 O 35.585695 31.221430 61.453496 0
M  V30 12 C 39.542071 34.999502 60.930848 0
M  V30 13 C 40.085658 35.390114 62.171536 0
M  V30 14 N 38.832588 30.690335 60.467577 0
M  V30 15 C 41.156835 34.846302 64.414896 0
M  V30 16 C 37.699064 32.397716 59.042878 0
M  V30 17 C 39.475989 28.608321 50.895022 0
M  V30 18 C 38.880580 29.227810 60.256191 0
M  V30 19 C 41.763541 34.100445 66.806017 0
M  V30 20 C 38.833900 29.178217 54.539972 0
M  V30 21 C 37.535834 31.321937 60.091685 0 CFG=2
M  V30 22 C 39.978013 30.100666 50.922402 0
M  V30 23 O 42.794771 33.621429 67.327805 0 CHG=-1
M  V30 24 C 39.928591 32.643172 61.509338 0
M  V30 25 S 39.867403 30.821430 52.632554 0
M  V30 26 C 39.198143 29.357241 53.205102 0
M  V30 27 O 38.956246 30.209262 55.408149 0
M  V30 28 C 40.566190 34.420644 63.068562 0
M  V30 29 Cl 37.467402 25.403670 54.287051 0
M  V30 30 C 41.445118 33.666682 65.381675 0
M  V30 31 C 38.136722 26.938710 53.884660 0
M  V30 32 C 38.285934 28.004740 57.509105 0
M  V30 33 C 38.937172 33.245851 59.191208 0
M  V30 34 O 40.720926 30.413406 61.726946 0
M  V30 35 C 39.033736 28.353903 52.303816 0
M  V30 36 O 40.967116 34.894920 67.350502 0
M  V30 37 H 40.854148 32.311411 63.417934 0
M  V30 38 H 40.176713 28.931102 57.050756 0
M  V30 39 H 38.944237 30.044801 57.734579 0
M  V30 40 H 40.178676 27.775628 59.298151 0
M  V30 41 H 40.840338 29.377522 59.285020 0
M  V30 42 H 37.120562 26.745640 56.361946 0
M  V30 43 H 39.191966 35.752642 60.245353 0
M  V30 44 H 40.140082 36.437604 62.430039 0
M  V30 45 H 42.075596 35.405211 64.231588 0
M  V30 46 H 40.459400 35.547962 64.875207 0
M  V30 47 H 36.820406 33.047191 59.045350 0
M  V30 48 H 37.695913 31.955913 58.045912 0
M  V30 49 H 40.278397 27.920170 50.635650 0
M  V30 50 H 38.665406 28.458646 50.187136 0
M  V30 51 H 37.893352 28.831524 60.040134 0
M  V30 52 H 39.124153 28.707872 61.185606 0
M  V30 53 H 36.907586 30.583629 59.592227 0
M  V30 54 H 41.008776 30.166520 50.572992 0
M  V30 55 H 39.377052 30.712502 50.249585 0
M  V30 56 H 39.222500 31.002910 54.968099 0
M  V30 57 H 40.565540 33.028650 65.471400 0
M  V30 58 H 42.261479 33.050335 65.003049 0
M  V30 59 H 37.825996 27.599159 58.391558 0
M  V30 60 H 38.667404 34.136686 58.653542 0
M  V30 61 H 39.736657 32.821441 58.600735 0
M  V30 END ATOM
M  V30 BEGIN BOND
M  V30 1 1 4 2
M  V30 2 1 8 3
M  V30 3 1 9 6
M  V30 4 2 11 3
M  V30 5 1 12 10
M  V30 6 2 13 12
M  V30 7 1 14 5
M  V30 8 1 18 4
M  V30 9 1 18 14
M  V30 10 2 20 9
M  V30 11 1 21 3
M  V30 12 1 21 14
M  V30 13 1 21 16
M  V30 14 1 22 17
M  V30 15 1 23 19
M  V30 16 1 24 1
M  V30 17 1 24 5
M  V30 18 2 24 10
M  V30 19 1 25 22
M  V30 20 1 26 20
M  V30 21 1 26 25
M  V30 22 1 27 20
M  V30 23 2 28 1
M  V30 24 1 28 13
M  V30 25 1 28 15
M  V30 26 1 30 15
M  V30 27 1 30 19
M  V30 28 2 31 7
M  V30 29 1 31 9
M  V30 30 1 31 29
M  V30 31 1 32 2
M  V30 32 2 32 6
M  V30 33 1 33 10
M  V30 34 1 33 16
M  V30 35 2 34 5
M  V30 36 1 35 7
M  V30 37 1 35 17
M  V30 38 2 35 26
M  V30 39 2 36 19
M  V30 40 1 37 1
M  V30 41 1 38 2
M  V30 42 1 39 2
M  V30 43 1 40 4
M  V30 44 1 41 4
M  V30 45 1 42 6
M  V30 46 1 43 12
M  V30 47 1 44 13
M  V30 48 1 45 15
M  V30 49 1 46 15
M  V30 50 1 47 16
M  V30 51 1 48 16
M  V30 52 1 49 17
M  V30 53 1 50 17
M  V30 54 1 51 18
M  V30 55 1 52 18
M  V30 56 1 21 53 CFG=3
M  V30 57 1 54 22
M  V30 58 1 55 22
M  V30 59 1 56 27
M  V30 60 1 57 30
M  V30 61 1 58 30
M  V30 62 1 59 32
M  V30 63 1 60 33
M  V30 64 1 61 33
M  V30 END BOND
M  V30 END CTAB
M  END
>  <i_epik_Tot_Q>  (1) 
-2

>  <i_epik_Tot_abs_Q>  (1) 
2

>  <i_i_glide_confnum>  (1) 
385

>  <i_i_glide_lignum>  (1) 
97

>  <i_i_glide_posenum>  (1) 
16

>  <i_i_glide_rotatable_bonds>  (1) 
10

>  <i_lp_mmshare_version>  (1) 
72125

>  <i_m_source_file_index>  (1) 
40

>  <i_f3d_flags>  (1) 
0

>  <num_sample>  (1) 
100

>  <b_lp_Chiralities_Consistent>  (1) 
1

>  <r_epik_Charging_Adjusted_Penalty>  (1) 
1.1553041349672681

>  <r_epik_Ionization_Penalty>  (1) 
1.0836065631352982

>  <r_epik_Ionization_Penalty_Charging>  (1) 
0.00098582723969229671

>  <r_epik_Ionization_Penalty_Neutral>  (1) 
1.0826207358956059

>  <r_epik_State_Penalty>  (1) 
1.1543183077275758

>  <r_glide_ring_energy>  (1) 
0

>  <r_i_docking_score>  (1) 
-7.5877333189997911

>  <r_i_glide_ecoul>  (1) 
-3.9872860833529176

>  <r_i_glide_eff_state_penalty>  (1) 
1.1543183077275758

>  <r_i_glide_einternal>  (1) 
17.545277464372489

>  <r_i_glide_emodel>  (1) 
-52.953159977880325

>  <r_i_glide_emodel_strain>  (1) 
2.018820723318683

>  <r_i_glide_energy>  (1) 
-44.823545528374289

>  <r_i_glide_erotb>  (1) 
0.51538728504810294

>  <r_i_glide_esite>  (1) 
-0.054155354545815652

>  <r_i_glide_evdw>  (1) 
-40.836259445021369

>  <r_i_glide_gscore>  (1) 
-8.7420516267273669

>  <r_i_glide_gscore_strain>  (1) 
0

>  <r_i_glide_hbond>  (1) 
-0.42684016181038642

>  <r_i_glide_ligand_efficiency>  (1) 
-0.21077036997221643

>  <r_i_glide_ligand_efficiency_ln>  (1) 
-1.6554384133417819

>  <r_i_glide_ligand_efficiency_sa>  (1) 
-0.69594842787086331

>  <r_i_glide_lipo>  (1) 
-4.8551899307655395

>  <r_i_glide_metal>  (1) 
-0

>  <r_i_glide_rewards>  (1) 
-1.2813475798997227

>  <r_lp_Energy>  (1) 
49.855823000000001

>  <s_epik_cmdline>  (1) 
J2VwaWtfcHl0aG9uJywgJy1waHQnLCAnMS4wJywgJy1waCcsICc3LjQnLCAnLXRuJywgJzgnLCAnLW1hJywgJzUwMCcsICctaW1hZScsICc8aW5maWxlLm1hZT4nLCAnLW9tYWUnLCAnPG91dGZpbGUubWFlPic=

>  <s_epik_input>  (1) 
W09IXUMoPU8pW0NIMl1bQ0gyXWMoW2NIXVtjSF0xKVtjSF1jKGMxMilDKD1PKU4oW0NAQEhdKEMoPU8pW09IXSlbQ0gyXVtDSDJdMilbQ0gyXVtDSDJdW0NIMl0vW0NIXT1bQ0hdXGMoYzNbT0hdKWMoQ2wpbmMoYzM0KVtDSDJdW0NIMl1TNA==

>  <s_glide_docking_method>  (1) 
confgen

>  <s_i_glide_gridfile>  (1) 
gpcr_5ht2c_6bqh_protein_autoprepared_prepared

>  <s_lp_Force_Field>  (1) 
S-OPLS

>  <s_lp_Variant>  (1) 
DiffSBDD_39_num_sample_100-4

>  <s_m_source_file>  (1) 
generated__ligand_DiffSBDD_2026-05-06_prepared.sdf

>  <GenAI_Model>  (1) 
DiffSBDD

>  <Protein>  (1) 
GPCR_5HT2C

$$$$
DiffSBDD_46_num_sample_100
     RDKit          3D

  0  0  0  0  0  0  0  0  0  0999 V3000
M  V30 BEGIN CTAB
M  V30 COUNTS 67 70 0 0 1
M  V30 BEGIN ATOM
M  V30 1 N 37.917427 32.525697 60.004608 0 CHG=-1
M  V30 2 N 38.859183 28.961340 54.620860 0
M  V30 3 C 39.758939 29.224758 59.859841 0
M  V30 4 C 44.516265 31.776889 66.714164 0
M  V30 5 C 39.418519 28.008512 57.509888 0
M  V30 6 O 39.886548 34.586798 61.963254 0
M  V30 7 O 36.312404 34.758099 59.853049 0
M  V30 8 C 42.652908 31.511553 65.166202 0
M  V30 9 N 43.653242 31.187351 66.083849 0
M  V30 10 F 42.799671 33.849483 65.741395 0
M  V30 11 C 38.978307 28.342247 58.921460 0 CFG=2
M  V30 12 N 39.676152 32.318864 62.306010 0
M  V30 13 C 38.221500 27.608950 56.607417 0 CFG=2
M  V30 14 C 41.252277 33.162796 64.053989 0
M  V30 15 C 37.528033 34.882674 60.556105 0
M  V30 16 C 39.081655 25.150052 55.200766 0
M  V30 17 C 39.843959 29.414060 50.526549 0
M  V30 18 C 39.148475 29.112581 53.246490 0
M  V30 19 C 42.243510 32.861365 65.000154 0
M  V30 20 C 37.158931 31.418652 60.092846 0
M  V30 21 C 41.148683 30.792442 63.548132 0
M  V30 22 C 40.695131 32.102409 63.301114 0
M  V30 23 N 42.107476 30.494292 64.454601 0
M  V30 24 C 39.620565 26.537459 54.827628 0
M  V30 25 C 40.216892 30.395683 51.459521 0
M  V30 26 C 37.928768 33.494605 61.101101 0 CFG=2
M  V30 27 C 37.626289 26.227043 56.980887 0
M  V30 28 C 39.867132 30.248636 52.815899 0
M  V30 29 C 37.382862 30.121551 59.713993 0
M  V30 30 C 39.107052 28.289074 50.943797 0
M  V30 31 C 38.588892 25.072248 56.653339 0
M  V30 32 C 39.262583 33.530250 61.869174 0
M  V30 33 C 38.753929 28.136626 52.294873 0
M  V30 34 O 45.421961 32.349790 67.200570 0
M  V30 35 C 38.529454 27.609804 55.090034 0 CFG=2
M  V30 36 N 38.652636 29.746297 59.068931 0 CFG=1 CHG=1
M  V30 37 H 39.267474 29.610746 55.276052 0
M  V30 38 H 40.708941 29.641736 59.537082 0
M  V30 39 H 39.520457 29.245040 60.921839 0
M  V30 40 H 39.951142 28.861486 57.088806 0
M  V30 41 H 40.153751 27.207180 57.573128 0
M  V30 42 H 36.437166 33.999269 59.293436 0
M  V30 43 H 38.268439 27.673117 59.398225 0
M  V30 44 H 39.244788 31.502103 61.899657 0
M  V30 45 H 37.467519 28.372768 56.775645 0
M  V30 46 H 40.931393 34.179572 63.921513 0
M  V30 47 H 38.286358 35.268553 59.875227 0
M  V30 48 H 37.409894 35.605567 61.364365 0
M  V30 49 H 39.867404 24.421383 55.038969 0
M  V30 50 H 38.259376 24.887195 54.533343 0
M  V30 51 H 40.113414 29.527539 49.486797 0
M  V30 52 H 36.168483 31.597057 60.564155 0
M  V30 53 H 40.738739 29.959145 62.996161 0
M  V30 54 H 40.526216 26.753961 55.392927 0
M  V30 55 H 39.947821 26.496633 53.792113 0
M  V30 56 H 40.776076 31.259904 51.136896 0
M  V30 57 H 37.182790 33.238261 61.855178 0
M  V30 58 H 37.343257 26.181050 58.030240 0
M  V30 59 H 36.699041 26.070009 56.427544 0
M  V30 60 H 40.168102 31.000202 53.531595 0
M  V30 61 H 36.680432 29.312818 59.846468 0
M  V30 62 H 38.815036 27.539893 50.225967 0
M  V30 63 H 39.439823 25.082145 57.334034 0
M  V30 64 H 38.088055 24.117909 56.818945 0
M  V30 65 H 38.193348 27.267152 52.598481 0
M  V30 66 H 37.603468 27.321301 54.591656 0
M  V30 67 H 38.949684 30.357915 58.320856 0
M  V30 END ATOM
M  V30 BEGIN BOND
M  V30 1 2 9 4
M  V30 2 1 9 8
M  V30 3 1 11 3
M  V30 4 1 11 5
M  V30 5 1 13 5
M  V30 6 1 15 7
M  V30 7 1 18 2
M  V30 8 2 19 8
M  V30 9 1 19 10
M  V30 10 1 19 14
M  V30 11 1 20 1
M  V30 12 1 22 12
M  V30 13 2 22 14
M  V30 14 1 22 21
M  V30 15 1 23 8
M  V30 16 2 23 21
M  V30 17 1 24 16
M  V30 18 2 25 17
M  V30 19 1 26 1
M  V30 20 1 26 15
M  V30 21 1 27 13
M  V30 22 2 28 18
M  V30 23 1 28 25
M  V30 24 2 29 20
M  V30 25 1 30 17
M  V30 26 1 31 16
M  V30 27 1 31 27
M  V30 28 2 32 6
M  V30 29 1 32 12
M  V30 30 1 32 26
M  V30 31 1 33 18
M  V30 32 2 33 30
M  V30 33 2 34 4
M  V30 34 1 35 2
M  V30 35 1 35 13
M  V30 36 1 35 24
M  V30 37 1 36 3
M  V30 38 1 36 11
M  V30 39 1 36 29
M  V30 40 1 37 2
M  V30 41 1 38 3
M  V30 42 1 39 3
M  V30 43 1 40 5
M  V30 44 1 41 5
M  V30 45 1 42 7
M  V30 46 1 11 43 CFG=1
M  V30 47 1 44 12
M  V30 48 1 13 45 CFG=3
M  V30 49 1 46 14
M  V30 50 1 47 15
M  V30 51 1 48 15
M  V30 52 1 49 16
M  V30 53 1 50 16
M  V30 54 1 51 17
M  V30 55 1 52 20
M  V30 56 1 53 21
M  V30 57 1 54 24
M  V30 58 1 55 24
M  V30 59 1 56 25
M  V30 60 1 26 57 CFG=1
M  V30 61 1 58 27
M  V30 62 1 59 27
M  V30 63 1 60 28
M  V30 64 1 61 29
M  V30 65 1 62 30
M  V30 66 1 63 31
M  V30 67 1 64 31
M  V30 68 1 65 33
M  V30 69 1 35 66 CFG=3
M  V30 70 1 36 67 CFG=3
M  V30 END BOND
M  V30 END CTAB
M  END
>  <i_epik_Tot_Q>  (1) 
0

>  <i_epik_Tot_abs_Q>  (1) 
2

>  <i_i_glide_confnum>  (1) 
312

>  <i_i_glide_lignum>  (1) 
126

>  <i_i_glide_posenum>  (1) 
14

>  <i_i_glide_rotatable_bonds>  (1) 
13

>  <i_lp_mmshare_version>  (1) 
72125

>  <i_m_source_file_index>  (1) 
47

>  <i_f3d_flags>  (1) 
0

>  <num_sample>  (1) 
100

>  <b_lp_Chiralities_Consistent>  (1) 
1

>  <r_epik_Charging_Adjusted_Penalty>  (1) 
0.33342598172051213

>  <r_epik_Ionization_Penalty>  (1) 
0.027696632267336825

>  <r_epik_Ionization_Penalty_Charging>  (1) 
0.022930597766060493

>  <r_epik_Ionization_Penalty_Neutral>  (1) 
0.0047660345012763301

>  <r_epik_State_Penalty>  (1) 
0.31049538395445164

>  <r_glide_ring_energy>  (1) 
0.011984252057721455

>  <r_i_docking_score>  (1) 
-7.5744948870599362

>  <r_i_glide_ecoul>  (1) 
0.24865874375924069

>  <r_i_glide_eff_state_penalty>  (1) 
0.31049538395445164

>  <r_i_glide_einternal>  (1) 
9.4746876040055525

>  <r_i_glide_emodel>  (1) 
-77.851608749751819

>  <r_i_glide_emodel_strain>  (1) 
0.35091386587532725

>  <r_i_glide_energy>  (1) 
-52.870963735720828

>  <r_i_glide_erotb>  (1) 
0.99979395072351473

>  <r_i_glide_esite>  (1) 
0

>  <r_i_glide_evdw>  (1) 
-53.119622479480071

>  <r_i_glide_gscore>  (1) 
-7.884990271014388

>  <r_i_glide_gscore_strain>  (1) 
0

>  <r_i_glide_hbond>  (1) 
0

>  <r_i_glide_ligand_efficiency>  (1) 
-0.2104026357516649

>  <r_i_glide_ligand_efficiency_ln>  (1) 
-1.6525501451536038

>  <r_i_glide_ligand_efficiency_sa>  (1) 
-0.69473419622767318

>  <r_i_glide_lipo>  (1) 
-4.8974088288229085

>  <r_i_glide_metal>  (1) 
-0

>  <r_i_glide_rewards>  (1) 
-1.3686930805048756

>  <r_lp_Energy>  (1) 
55.985365999999999

>  <s_epik_Chemistry_Notes>  (1) 
This compound has an imine and may undergo hydrolysis.

>  <s_epik_cmdline>  (1) 
J2VwaWtfcHl0aG9uJywgJy1waHQnLCAnMS4wJywgJy1waCcsICc3LjQnLCAnLXRuJywgJzgnLCAnLW1hJywgJzUwMCcsICctaW1hZScsICc8aW5maWxlLm1hZT4nLCAnLW9tYWUnLCAnPG91dGZpbGUubWFlPic=

>  <s_epik_input>  (1) 
Tz1DPU5jMWMoRilbY0hdYyhbY0hdbjEpW05IXUMoPU8pW0NAQEhdKFtDSDJdW09IXSkvTj1bQ0hdL1tDSDJdTjJbQ0gyXVtDQEBIXTJbQ0gyXVtDQEBIXTNbQ0gyXVtDSDJdW0NIMl1bQ0gyXVtDQEBIXTNbTkhdYzRbY0hdW2NIXVtjSF1bY0hdW2NIXTQ=

>  <s_glide_docking_method>  (1) 
confgen

>  <s_i_glide_gridfile>  (1) 
gpcr_5ht2c_6bqh_protein_autoprepared_prepared

>  <s_lp_Force_Field>  (1) 
S-OPLS

>  <s_lp_Variant>  (1) 
DiffSBDD_46_num_sample_100-2

>  <s_m_source_file>  (1) 
generated__ligand_DiffSBDD_2026-05-06_prepared.sdf

>  <GenAI_Model>  (1) 
DiffSBDD

>  <Protein>  (1) 
GPCR_5HT2C

$$$$
DiffSBDD_76_num_sample_100
     RDKit          3D

  0  0  0  0  0  0  0  0  0  0999 V3000
M  V30 BEGIN CTAB
M  V30 COUNTS 62 64 0 0 1
M  V30 BEGIN ATOM
M  V30 1 C 39.063986 28.888447 53.260616 0
M  V30 2 C 38.272647 27.897959 58.351500 0
M  V30 3 O 37.539129 31.335773 61.516829 0
M  V30 4 C 36.886256 35.533967 61.293358 0
M  V30 5 Cl 37.469474 33.530218 57.774647 0
M  V30 6 C 38.429473 31.379587 59.244593 0
M  V30 7 N 37.773676 33.318664 60.479700 0
M  V30 8 C 37.871710 31.981159 60.518188 0
M  V30 9 C 39.833694 29.668410 60.374828 0
M  V30 10 C 38.150927 32.044234 55.437416 0
M  V30 11 C 38.560740 29.885347 56.742995 0 CFG=2
M  V30 12 C 38.764727 31.405912 56.708049 0 CFG=2
M  V30 13 O 37.313259 38.400446 61.297182 0
M  V30 14 S 37.484958 26.047385 55.056154 0
M  V30 15 C 40.267060 30.306053 51.676306 0
M  V30 16 C 38.267319 31.995418 58.024273 0
M  V30 17 C 37.362986 34.109714 61.634115 0
M  V30 18 C 38.656469 28.057614 52.196600 0
M  V30 19 C 39.868046 29.464771 50.625549 0
M  V30 20 C 39.043650 29.218090 58.068983 0 CFG=1
M  V30 21 O 40.014327 30.432424 61.346655 0 CHG=-1
M  V30 22 C 36.332972 37.888605 62.191366 0
M  V30 23 C 37.358427 37.673515 60.080263 0
M  V30 24 C 38.986050 27.072428 55.006712 0
M  V30 25 C 39.062690 28.346138 50.884450 0
M  V30 26 C 36.668148 36.418360 62.546912 0
M  V30 27 N 39.062945 30.075504 59.294704 0
M  V30 28 O 39.329108 29.365439 55.651223 0
M  V30 29 C 37.850538 36.256956 60.362277 0
M  V30 30 C 39.867456 30.021332 52.994077 0
M  V30 31 F 40.263171 29.728416 49.365882 0
M  V30 32 O 40.373871 28.539676 60.339704 0
M  V30 33 C 38.650143 28.551271 54.692767 0 CFG=1
M  V30 34 H 38.743248 27.034505 57.883199 0
M  V30 35 H 38.267580 27.650731 59.414221 0
M  V30 36 H 37.235886 27.936279 58.010718 0
M  V30 37 H 35.943514 35.429833 60.752722 0
M  V30 38 H 38.034105 33.807448 59.637304 0
M  V30 39 H 38.461017 33.082773 55.317282 0
M  V30 40 H 38.414793 31.534637 54.521384 0
M  V30 41 H 37.067945 32.018652 55.468254 0
M  V30 42 H 37.490549 29.702870 56.621877 0
M  V30 43 H 39.836246 31.596128 56.671482 0
M  V30 44 H 37.014877 26.440212 53.865054 0
M  V30 45 H 40.887852 31.166525 51.472950 0
M  V30 46 H 36.581899 33.596707 62.198192 0
M  V30 47 H 38.256841 34.165984 62.254619 0
M  V30 48 H 38.041526 27.192228 52.389991 0
M  V30 49 H 40.086845 28.952043 57.894010 0
M  V30 50 H 35.348951 38.021507 61.739152 0
M  V30 51 H 36.318333 38.495654 63.093614 0
M  V30 52 H 36.373732 37.621706 59.614623 0
M  V30 53 H 38.013374 38.190026 59.384158 0
M  V30 54 H 39.517061 26.970617 55.947960 0
M  V30 55 H 39.680455 26.657365 54.275730 0
M  V30 56 H 38.756575 27.707624 50.073603 0
M  V30 57 H 35.869681 36.000947 63.163669 0
M  V30 58 H 37.573643 36.420616 63.154002 0
M  V30 59 H 38.855786 36.265171 60.778773 0
M  V30 60 H 37.867439 35.704906 59.438072 0
M  V30 61 H 40.193219 30.661522 53.799086 0
M  V30 62 H 37.573285 28.728483 54.723039 0
M  V30 END ATOM
M  V30 BEGIN BOND
M  V30 1 2 8 3
M  V30 2 1 8 6
M  V30 3 1 8 7
M  V30 4 1 12 10
M  V30 5 1 12 11
M  V30 6 1 16 5
M  V30 7 2 16 6
M  V30 8 1 16 12
M  V30 9 1 17 4
M  V30 10 1 17 7
M  V30 11 2 18 1
M  V30 12 1 19 15
M  V30 13 1 20 2
M  V30 14 1 20 11
M  V30 15 1 21 9
M  V30 16 1 22 13
M  V30 17 1 23 13
M  V30 18 1 24 14
M  V30 19 1 25 18
M  V30 20 2 25 19
M  V30 21 1 26 4
M  V30 22 1 26 22
M  V30 23 1 27 6
M  V30 24 1 27 9
M  V30 25 1 27 20
M  V30 26 1 28 11
M  V30 27 1 29 4
M  V30 28 1 29 23
M  V30 29 1 30 1
M  V30 30 2 30 15
M  V30 31 1 31 19
M  V30 32 2 32 9
M  V30 33 1 33 1
M  V30 34 1 33 24
M  V30 35 1 33 28
M  V30 36 1 34 2
M  V30 37 1 35 2
M  V30 38 1 36 2
M  V30 39 1 37 4
M  V30 40 1 38 7
M  V30 41 1 39 10
M  V30 42 1 40 10
M  V30 43 1 41 10
M  V30 44 1 11 42 CFG=3
M  V30 45 1 12 43 CFG=3
M  V30 46 1 44 14
M  V30 47 1 45 15
M  V30 48 1 46 17
M  V30 49 1 47 17
M  V30 50 1 48 18
M  V30 51 1 20 49 CFG=3
M  V30 52 1 50 22
M  V30 53 1 51 22
M  V30 54 1 52 23
M  V30 55 1 53 23
M  V30 56 1 54 24
M  V30 57 1 55 24
M  V30 58 1 56 25
M  V30 59 1 57 26
M  V30 60 1 58 26
M  V30 61 1 59 29
M  V30 62 1 60 29
M  V30 63 1 61 30
M  V30 64 1 33 62 CFG=3
M  V30 END BOND
M  V30 END CTAB
M  END
>  <i_epik_Tot_Q>  (1) 
-1

>  <i_epik_Tot_abs_Q>  (1) 
1

>  <i_i_glide_confnum>  (1) 
640

>  <i_i_glide_lignum>  (1) 
189

>  <i_i_glide_posenum>  (1) 
39

>  <i_i_glide_rotatable_bonds>  (1) 
10

>  <i_lp_mmshare_version>  (1) 
72125

>  <i_m_source_file_index>  (1) 
77

>  <i_f3d_flags>  (1) 
0

>  <num_sample>  (1) 
100

>  <b_lp_Chiralities_Consistent>  (1) 
1

>  <r_epik_Charging_Adjusted_Penalty>  (1) 
0.0069450066625796414

>  <r_epik_Ionization_Penalty>  (1) 
0.006947181281074642

>  <r_epik_Ionization_Penalty_Charging>  (1) 
2.7704327777150034e-06

>  <r_epik_Ionization_Penalty_Neutral>  (1) 
0.0069444108482969273

>  <r_epik_State_Penalty>  (1) 
0.0069422362298019267

>  <r_glide_ring_energy>  (1) 
0

>  <r_i_docking_score>  (1) 
-7.5665465342472693

>  <r_i_glide_ecoul>  (1) 
-3.3286920770866848

>  <r_i_glide_eff_state_penalty>  (1) 
0.0069422362298019267

>  <r_i_glide_einternal>  (1) 
11.305605134741327

>  <r_i_glide_emodel>  (1) 
-61.90656420690307

>  <r_i_glide_emodel_strain>  (1) 
2.7679612314341995

>  <r_i_glide_energy>  (1) 
-48.24049705569098

>  <r_i_glide_erotb>  (1) 
0.57163862173476065

>  <r_i_glide_esite>  (1) 
0

>  <r_i_glide_evdw>  (1) 
-44.911804978604295

>  <r_i_glide_gscore>  (1) 
-7.5734887704770708

>  <r_i_glide_gscore_strain>  (1) 
0

>  <r_i_glide_hbond>  (1) 
-0.24978391693832983

>  <r_i_glide_ligand_efficiency>  (1) 
-0.22928928891658393

>  <r_i_glide_ligand_efficiency_ln>  (1) 
-1.6827607717353721

>  <r_i_glide_ligand_efficiency_sa>  (1) 
-0.73545326570027458

>  <r_i_glide_lipo>  (1) 
-3.3553873038199113

>  <r_i_glide_metal>  (1) 
-0

>  <r_i_glide_rewards>  (1) 
-1.7950621109603728

>  <r_lp_Energy>  (1) 
51.555678999999998

>  <s_epik_cmdline>  (1) 
J2VwaWtfcHl0aG9uJywgJy1waHQnLCAnMS4wJywgJy1waCcsICc3LjQnLCAnLXRuJywgJzgnLCAnLW1hJywgJzUwMCcsICctaW1hZScsICc8aW5maWxlLm1hZT4nLCAnLW9tYWUnLCAnPG91dGZpbGUubWFlPic=

>  <s_epik_input>  (1) 
W2NIXTFbY0hdYyhGKVtjSF1bY0hdYzFbQ0BASF0oW0NIMl1bU0hdKU9bQ0BASF0oW0NASF0oW0NIM10pTjJDKD1PKVtPSF0pW0NAQEhdKFtDSDNdKUMoQ2wpPUMyQyg9TylbTkhdW0NIMl1bQ0hdM1tDSDJdW0NIMl1PW0NIMl1bQ0gyXTM=

>  <s_glide_docking_method>  (1) 
confgen

>  <s_i_glide_gridfile>  (1) 
gpcr_5ht2c_6bqh_protein_autoprepared_prepared

>  <s_lp_Force_Field>  (1) 
S-OPLS

>  <s_lp_Variant>  (1) 
DiffSBDD_76_num_sample_100-1

>  <s_m_source_file>  (1) 
generated__ligand_DiffSBDD_2026-05-06_prepared.sdf

>  <GenAI_Model>  (1) 
DiffSBDD

>  <Protein>  (1) 
GPCR_5HT2C

$$$$
DiffSBDD_64_num_sample_100
     RDKit          3D

  0  0  0  0  0  0  0  0  0  0999 V3000
M  V30 BEGIN CTAB
M  V30 COUNTS 66 68 0 0 1
M  V30 BEGIN ATOM
M  V30 1 C 39.914387 30.613161 52.264513 0
M  V30 2 C 39.047465 28.109343 52.659652 0
M  V30 3 C 41.618868 33.165378 63.870166 0
M  V30 4 C 37.415628 29.621440 56.908776 0
M  V30 5 C 37.976122 30.105816 59.291779 0
M  V30 6 O 37.956025 35.826605 61.853508 0
M  V30 7 N 39.067402 28.970937 53.751067 0
M  V30 8 C 40.116571 35.032500 62.348264 0
M  V30 9 O 40.267485 30.100853 50.020906 0 CHG=-1
M  V30 10 C 41.132247 35.465999 63.248483 0
M  V30 11 C 39.879024 33.610186 62.191010 0
M  V30 12 C 38.274155 32.638153 59.065518 0
M  V30 13 O 39.532677 31.027220 54.584446 0
M  V30 14 C 40.638373 32.699145 62.981152 0
M  V30 15 C 39.495761 30.251944 53.627730 0
M  V30 16 C 37.467401 29.219585 55.657461 0
M  V30 17 C 39.435007 28.456332 51.425573 0
M  V30 18 C 39.528048 26.864957 56.893087 0
M  V30 19 C 39.651473 25.554371 56.091240 0
M  V30 20 C 38.816254 33.756658 59.966489 0
M  V30 21 C 39.807480 28.104969 56.017417 0
M  V30 22 N 38.895200 33.101638 61.267294 0
M  V30 23 C 38.793330 31.652749 61.190542 0
M  V30 24 C 41.867448 34.536785 63.997405 0
M  V30 25 C 39.649355 37.384473 61.942670 0
M  V30 26 C 37.053292 30.059412 58.091284 0
M  V30 27 C 38.632139 28.442906 55.062075 0 CFG=2
M  V30 28 C 36.383866 31.698165 60.518921 0
M  V30 29 C 40.464544 26.814537 58.099288 0
M  V30 30 C 39.895956 29.745027 51.159728 0
M  V30 31 N 39.333650 35.992513 61.638650 0
M  V30 32 C 37.835153 31.479416 60.003849 0 CFG=2
M  V30 33 H 40.264080 31.621484 52.111736 0
M  V30 34 H 38.689276 27.118029 52.895224 0
M  V30 35 H 42.189568 32.460315 64.456872 0
M  V30 36 H 39.008718 29.929708 58.984079 0
M  V30 37 H 37.707130 29.295481 59.967623 0
M  V30 38 H 37.768465 34.944732 61.554636 0
M  V30 39 H 41.339099 36.514784 63.380660 0
M  V30 40 H 37.462643 32.985050 58.423227 0
M  V30 41 H 39.067379 32.302348 58.398526 0
M  V30 42 H 40.476005 31.637577 62.900453 0
M  V30 43 H 36.651876 29.426398 54.984716 0
M  V30 44 H 39.389306 27.725411 50.630877 0
M  V30 45 H 38.511718 26.929936 57.283289 0
M  V30 46 H 40.659015 25.439965 55.692713 0
M  V30 47 H 39.445174 24.686043 56.717679 0
M  V30 48 H 38.959729 25.509795 55.251260 0
M  V30 49 H 38.091080 34.562728 59.907164 0
M  V30 50 H 39.785408 34.115098 59.616604 0
M  V30 51 H 40.712960 27.905777 55.453501 0
M  V30 52 H 40.052432 28.972019 56.632089 0
M  V30 53 H 39.759114 31.208594 60.944039 0
M  V30 54 H 38.405221 31.203082 62.105989 0
M  V30 55 H 42.628149 34.883179 64.682156 0
M  V30 56 H 40.662294 37.621440 61.615775 0
M  V30 57 H 38.972041 38.046271 61.402559 0
M  V30 58 H 39.535394 37.613317 63.003648 0
M  V30 59 H 36.052158 30.420762 58.253490 0
M  V30 60 H 38.132593 27.499378 54.852778 0
M  V30 61 H 36.310917 32.545696 61.201007 0
M  V30 62 H 35.682148 31.909237 59.712398 0
M  V30 63 H 36.017989 30.821826 61.053454 0
M  V30 64 H 41.512641 26.810325 57.797097 0
M  V30 65 H 40.307749 27.661694 58.767424 0
M  V30 66 H 40.267531 25.900509 58.654717 0
M  V30 END ATOM
M  V30 BEGIN BOND
M  V30 1 1 7 2
M  V30 2 2 10 8
M  V30 3 1 11 8
M  V30 4 1 14 3
M  V30 5 2 14 11
M  V30 6 1 15 1
M  V30 7 1 15 7
M  V30 8 2 15 13
M  V30 9 2 16 4
M  V30 10 2 17 2
M  V30 11 1 19 18
M  V30 12 1 20 12
M  V30 13 1 21 18
M  V30 14 1 22 11
M  V30 15 1 22 20
M  V30 16 1 23 22
M  V30 17 2 24 3
M  V30 18 1 24 10
M  V30 19 2 26 4
M  V30 20 1 26 5
M  V30 21 1 27 7
M  V30 22 1 27 16
M  V30 23 1 27 21
M  V30 24 1 29 18
M  V30 25 2 30 1
M  V30 26 1 30 9
M  V30 27 1 30 17
M  V30 28 1 31 6
M  V30 29 1 31 8
M  V30 30 1 31 25
M  V30 31 1 32 5 CFG=3
M  V30 32 1 32 12
M  V30 33 1 32 23
M  V30 34 1 32 28
M  V30 35 1 33 1
M  V30 36 1 34 2
M  V30 37 1 35 3
M  V30 38 1 36 5
M  V30 39 1 37 5
M  V30 40 1 38 6
M  V30 41 1 39 10
M  V30 42 1 40 12
M  V30 43 1 41 12
M  V30 44 1 42 14
M  V30 45 1 43 16
M  V30 46 1 44 17
M  V30 47 1 45 18
M  V30 48 1 46 19
M  V30 49 1 47 19
M  V30 50 1 48 19
M  V30 51 1 49 20
M  V30 52 1 50 20
M  V30 53 1 51 21
M  V30 54 1 52 21
M  V30 55 1 53 23
M  V30 56 1 54 23
M  V30 57 1 55 24
M  V30 58 1 56 25
M  V30 59 1 57 25
M  V30 60 1 58 25
M  V30 61 1 59 26
M  V30 62 1 27 60 CFG=3
M  V30 63 1 61 28
M  V30 64 1 62 28
M  V30 65 1 63 28
M  V30 66 1 64 29
M  V30 67 1 65 29
M  V30 68 1 66 29
M  V30 END BOND
M  V30 END CTAB
M  END
>  <i_epik_Tot_Q>  (1) 
-1

>  <i_epik_Tot_abs_Q>  (1) 
1

>  <i_i_glide_confnum>  (1) 
298

>  <i_i_glide_lignum>  (1) 
161

>  <i_i_glide_posenum>  (1) 
331

>  <i_i_glide_rotatable_bonds>  (1) 
9

>  <i_lp_mmshare_version>  (1) 
72125

>  <i_m_source_file_index>  (1) 
65

>  <i_f3d_flags>  (1) 
0

>  <num_sample>  (1) 
100

>  <b_lp_Chiralities_Consistent>  (1) 
1

>  <r_epik_Charging_Adjusted_Penalty>  (1) 
0.52418754829992387

>  <r_epik_Ionization_Penalty>  (1) 
0.2719134954630722

>  <r_epik_Ionization_Penalty_Charging>  (1) 
0.27149649770889844

>  <r_epik_Ionization_Penalty_Neutral>  (1) 
0.00041699775417375828

>  <r_epik_State_Penalty>  (1) 
0.25269105059102542

>  <r_glide_ring_energy>  (1) 
0

>  <r_i_docking_score>  (1) 
-7.5655212778271927

>  <r_i_glide_ecoul>  (1) 
-0.24112318275680383

>  <r_i_glide_eff_state_penalty>  (1) 
0.25269105059102542

>  <r_i_glide_einternal>  (1) 
12.34200380907042

>  <r_i_glide_emodel>  (1) 
-57.992294828965647

>  <r_i_glide_emodel_strain>  (1) 
1.6444091605521862

>  <r_i_glide_energy>  (1) 
-46.698190941175625

>  <r_i_glide_erotb>  (1) 
0.62750977655133311

>  <r_i_glide_esite>  (1) 
0

>  <r_i_glide_evdw>  (1) 
-46.457067758418823

>  <r_i_glide_gscore>  (1) 
-7.8182123284182179

>  <r_i_glide_gscore_strain>  (1) 
0

>  <r_i_glide_hbond>  (1) 
0

>  <r_i_glide_ligand_efficiency>  (1) 
-0.23642253993209977

>  <r_i_glide_ligand_efficiency_ln>  (1) 
-1.6941264424266784

>  <r_i_glide_ligand_efficiency_sa>  (1) 
-0.75059477719441781

>  <r_i_glide_lipo>  (1) 
-4.4309403131768121

>  <r_i_glide_metal>  (1) 
-0

>  <r_i_glide_rewards>  (1) 
-1.6557599264582772

>  <r_lp_Energy>  (1) 
24.016719999999999

>  <r_lp_tautomer_probability>  (1) 
1

>  <s_epik_Chemistry_Notes>  (1) 
This compound has a N-S or N-O group and may undergo hydrolysis at high or low pH.

>  <s_epik_cmdline>  (1) 
J2VwaWtfcHl0aG9uJywgJy1waHQnLCAnMS4wJywgJy1waCcsICc3LjQnLCAnLXRuJywgJzgnLCAnLW1hJywgJzUwMCcsICctaW1hZScsICc8aW5maWxlLm1hZT4nLCAnLW9tYWUnLCAnPG91dGZpbGUubWFlPic=

>  <s_epik_input>  (1) 
Tz1DMVtDSDJdQyg9TylbQ0hdPVtDSF1OMVtDQEBIXShbQ0gyXVtDSF0oW0NIM10pW0NIM10pW0NIXT1DPVtDSF1bQ0gyXVtDQF0yKFtDSDNdKVtDSDJdW0NIMl1OKFtDSDJdMiljM1tjSF1bY0hdW2NIXVtjSF1jM04oW09IXSlbQ0gzXQ==

>  <s_glide_docking_method>  (1) 
confgen

>  <s_i_glide_gridfile>  (1) 
gpcr_5ht2c_6bqh_protein_autoprepared_prepared

>  <s_lp_Force_Field>  (1) 
S-OPLS

>  <s_lp_Variant>  (1) 
DiffSBDD_64_num_sample_100-1

>  <s_m_source_file>  (1) 
generated__ligand_DiffSBDD_2026-05-06_prepared.sdf

>  <GenAI_Model>  (1) 
DiffSBDD

>  <Protein>  (1) 
GPCR_5HT2C

$$$$
DiffSBDD_85_num_sample_100
     RDKit          3D

  0  0  0  0  0  0  0  0  0  0999 V3000
M  V30 BEGIN CTAB
M  V30 COUNTS 83 87 0 0 1
M  V30 BEGIN ATOM
M  V30 1 C 40.658202 36.811705 61.886949 0
M  V30 2 N 37.602976 28.406272 53.989113 0
M  V30 3 C 39.827424 30.364248 51.486465 0
M  V30 4 Cl 37.712910 36.421420 62.893439 0
M  V30 5 C 40.430399 34.889591 63.562198 0 CFG=1
M  V30 6 C 38.371622 27.446109 58.560652 0
M  V30 7 C 38.194693 28.802879 52.706322 0
M  V30 8 C 40.503332 29.155266 50.846252 0
M  V30 9 O 39.867442 31.478615 63.485878 0
M  V30 10 S 37.927897 30.491994 60.054621 0
M  V30 11 C 39.502285 28.001853 50.671737 0
M  V30 12 O 41.067388 30.873935 61.715309 0 CHG=-1
M  V30 13 C 39.183289 29.993582 52.839143 0
M  V30 14 C 37.897267 32.278122 60.404223 0 CFG=1
M  V30 15 C 37.632222 32.202081 57.956015 0 CFG=2
M  V30 16 C 38.317303 29.684675 57.302820 0 CFG=1
M  V30 17 C 41.377375 35.769341 62.734454 0
M  V30 18 N 38.675506 28.038915 54.918494 0 CHG=1
M  V30 19 C 39.432804 34.167338 62.596647 0 CFG=2
M  V30 20 C 39.816594 27.262403 58.159696 0 CFG=1
M  V30 21 C 38.858436 27.597599 52.006281 0
M  V30 22 C 41.216513 33.995127 64.533992 0
M  V30 23 C 38.362165 27.326175 56.179541 0 CFG=2
M  V30 24 C 39.864963 29.678448 57.288012 0
M  V30 25 C 37.817258 28.209135 57.352276 0 CFG=1
M  V30 26 C 39.544022 36.183812 61.053551 0
M  V30 27 C 40.362188 31.683248 62.360532 0
M  V30 28 C 40.083552 33.053761 61.695012 0 CFG=1
M  V30 29 C 39.672364 26.711124 56.737270 0
M  V30 30 O 38.884164 32.692433 57.532563 0
M  V30 31 C 39.334205 32.814563 60.386365 0
M  V30 32 C 37.126859 32.910139 59.237748 0 CFG=1
M  V30 33 C 38.631042 35.283889 61.848932 0 CFG=2
M  V30 34 C 40.525971 28.637994 58.223482 0
M  V30 35 C 37.588931 30.675214 58.276852 0 CFG=1
M  V30 36 O 35.749792 32.664686 59.453463 0
M  V30 37 H 40.267534 37.616753 62.508615 0
M  V30 38 H 41.387387 37.222025 61.194330 0
M  V30 39 H 37.232575 29.218900 54.464531 0
M  V30 40 H 39.085907 30.722492 50.768379 0
M  V30 41 H 40.543849 31.175998 51.617734 0
M  V30 42 H 39.867278 35.568269 64.202057 0
M  V30 43 H 37.882350 26.474903 58.651354 0
M  V30 44 H 38.267696 27.941029 59.520016 0
M  V30 45 H 37.372319 29.122275 52.069385 0
M  V30 46 H 40.891407 29.463587 49.875549 0
M  V30 47 H 41.348277 28.828586 51.453634 0
M  V30 48 H 38.726182 28.301680 49.967602 0
M  V30 49 H 40.005887 27.132420 50.253664 0
M  V30 50 H 38.674765 30.860215 53.261505 0
M  V30 51 H 39.992888 29.761290 53.528228 0
M  V30 52 H 37.418080 32.477651 61.362730 0
M  V30 53 H 37.067520 32.518530 57.098728 0
M  V30 54 H 38.009514 30.087486 56.338329 0
M  V30 55 H 42.140881 36.245506 63.350580 0
M  V30 56 H 41.867464 35.130113 62.020490 0
M  V30 57 H 39.159614 28.896201 55.144674 0
M  V30 58 H 38.667372 33.594469 63.084092 0
M  V30 59 H 40.300918 26.540215 58.809801 0
M  V30 60 H 39.627853 27.147122 52.632704 0
M  V30 61 H 38.113933 26.822284 51.824699 0
M  V30 62 H 41.916111 33.336863 64.016863 0
M  V30 63 H 41.799193 34.603868 65.226677 0
M  V30 64 H 40.546658 33.378412 65.131639 0
M  V30 65 H 37.658404 26.520355 55.965680 0
M  V30 66 H 40.228641 29.478227 56.282503 0
M  V30 67 H 40.224456 30.670374 57.453343 0
M  V30 68 H 36.739037 28.201805 57.453774 0
M  V30 69 H 38.889006 36.949602 60.653487 0
M  V30 70 H 39.995671 35.657612 60.218172 0
M  V30 71 H 41.072647 33.371595 61.385742 0
M  V30 72 H 40.553627 26.935787 56.135061 0
M  V30 73 H 39.587381 25.623942 56.762019 0
M  V30 74 H 39.491490 32.592766 58.247214 0
M  V30 75 H 39.867417 32.057994 59.853524 0
M  V30 76 H 39.427673 33.696219 59.761081 0
M  V30 77 H 37.254515 33.990411 59.161096 0
M  V30 78 H 37.876750 34.855118 61.194762 0
M  V30 79 H 41.578319 28.525187 57.958718 0
M  V30 80 H 40.519484 29.003566 59.251112 0
M  V30 81 H 36.531708 30.416165 58.229069 0
M  V30 82 H 35.406029 32.421417 58.590412 0
M  V30 83 H 39.290266 27.450481 54.375203 0
M  V30 END ATOM
M  V30 BEGIN BOND
M  V30 1 1 7 2
M  V30 2 1 8 3
M  V30 3 1 11 8
M  V30 4 1 13 3
M  V30 5 1 13 7
M  V30 6 1 14 10
M  V30 7 1 17 1
M  V30 8 1 17 5
M  V30 9 1 18 2
M  V30 10 1 19 5
M  V30 11 1 20 6
M  V30 12 1 21 7
M  V30 13 1 21 11
M  V30 14 1 22 5
M  V30 15 1 23 18
M  V30 16 1 24 16
M  V30 17 1 25 6
M  V30 18 1 25 16
M  V30 19 1 25 23
M  V30 20 1 26 1
M  V30 21 2 27 9
M  V30 22 1 27 12
M  V30 23 1 28 19
M  V30 24 1 28 27
M  V30 25 1 29 20
M  V30 26 1 29 23
M  V30 27 1 30 15
M  V30 28 1 31 14
M  V30 29 1 31 28
M  V30 30 1 32 14
M  V30 31 1 32 15
M  V30 32 1 33 4
M  V30 33 1 33 19
M  V30 34 1 33 26
M  V30 35 1 34 20
M  V30 36 1 34 24
M  V30 37 1 35 10
M  V30 38 1 35 15
M  V30 39 1 35 16
M  V30 40 1 36 32
M  V30 41 1 37 1
M  V30 42 1 38 1
M  V30 43 1 39 2
M  V30 44 1 40 3
M  V30 45 1 41 3
M  V30 46 1 5 42 CFG=1
M  V30 47 1 43 6
M  V30 48 1 44 6
M  V30 49 1 45 7
M  V30 50 1 46 8
M  V30 51 1 47 8
M  V30 52 1 48 11
M  V30 53 1 49 11
M  V30 54 1 50 13
M  V30 55 1 51 13
M  V30 56 1 14 52 CFG=1
M  V30 57 1 15 53 CFG=3
M  V30 58 1 16 54 CFG=3
M  V30 59 1 55 17
M  V30 60 1 56 17
M  V30 61 1 57 18
M  V30 62 1 19 58 CFG=1
M  V30 63 1 20 59 CFG=1
M  V30 64 1 60 21
M  V30 65 1 61 21
M  V30 66 1 62 22
M  V30 67 1 63 22
M  V30 68 1 64 22
M  V30 69 1 23 65 CFG=3
M  V30 70 1 66 24
M  V30 71 1 67 24
M  V30 72 1 25 68 CFG=1
M  V30 73 1 69 26
M  V30 74 1 70 26
M  V30 75 1 28 71 CFG=3
M  V30 76 1 72 29
M  V30 77 1 73 29
M  V30 78 1 74 30
M  V30 79 1 75 31
M  V30 80 1 76 31
M  V30 81 1 32 77 CFG=3
M  V30 82 1 33 78 CFG=3
M  V30 83 1 79 34
M  V30 84 1 80 34
M  V30 85 1 35 81 CFG=1
M  V30 86 1 82 36
M  V30 87 1 83 18
M  V30 END BOND
M  V30 END CTAB
M  END
>  <i_epik_Tot_Q>  (1) 
0

>  <i_epik_Tot_abs_Q>  (1) 
2

>  <i_i_glide_confnum>  (1) 
632

>  <i_i_glide_lignum>  (1) 
221

>  <i_i_glide_posenum>  (1) 
262

>  <i_i_glide_rotatable_bonds>  (1) 
10

>  <i_lp_mmshare_version>  (1) 
72125

>  <i_m_source_file_index>  (1) 
86

>  <i_f3d_flags>  (1) 
0

>  <num_sample>  (1) 
100

>  <b_lp_Chiralities_Consistent>  (1) 
1

>  <r_epik_Charging_Adjusted_Penalty>  (1) 
0.24139881983135253

>  <r_epik_Ionization_Penalty>  (1) 
0.013577590547947769

>  <r_epik_Ionization_Penalty_Charging>  (1) 
0.013577468157686226

>  <r_epik_Ionization_Penalty_Neutral>  (1) 
1.223902615442005e-07

>  <r_epik_State_Penalty>  (1) 
0.22782135167366629

>  <r_glide_ring_energy>  (1) 
0.90588264350334891

>  <r_i_docking_score>  (1) 
-7.565030586363422

>  <r_i_glide_ecoul>  (1) 
-6.8975247298897928

>  <r_i_glide_eff_state_penalty>  (1) 
0.22782135167366629

>  <r_i_glide_einternal>  (1) 
27.738897663202216

>  <r_i_glide_emodel>  (1) 
-26.270522540051889

>  <r_i_glide_emodel_strain>  (1) 
2.311920474371675

>  <r_i_glide_energy>  (1) 
-34.849447525258611

>  <r_i_glide_erotb>  (1) 
0.49083612240102314

>  <r_i_glide_esite>  (1) 
0

>  <r_i_glide_evdw>  (1) 
-27.951922795368816

>  <r_i_glide_gscore>  (1) 
-7.7928519380370886

>  <r_i_glide_gscore_strain>  (1) 
0

>  <r_i_glide_hbond>  (1) 
-0.31325592845254024

>  <r_i_glide_ligand_efficiency>  (1) 
-0.21013973851009504

>  <r_i_glide_ligand_efficiency_ln>  (1) 
-1.6504852904374798

>  <r_i_glide_ligand_efficiency_sa>  (1) 
-0.69386612866207453

>  <r_i_glide_lipo>  (1) 
-4.5346856535525566

>  <r_i_glide_metal>  (1) 
-0

>  <r_i_glide_rewards>  (1) 
-1.0035216291811049

>  <r_lp_Energy>  (1) 
69.175754999999995

>  <s_epik_cmdline>  (1) 
J2VwaWtfcHl0aG9uJywgJy1waHQnLCAnMS4wJywgJy1waCcsICc3LjQnLCAnLXRuJywgJzgnLCAnLW1hJywgJzUwMCcsICctaW1hZScsICc8aW5maWxlLm1hZT4nLCAnLW9tYWUnLCAnPG91dGZpbGUubWFlPic=

>  <s_epik_input>  (1) 
W0NIM11bQ0BIXTFbQ0gyXVtDSDJdW0NIMl1bQ0BIXShDbClbQ0BIXTFbQ0BASF0oQyg9TylbT0hdKVtDSDJdW0NAQEhdMlNbQ0BASF0oW0NAQEhdKFtPSF0pW0NASF0yW09IXSlbQ0BASF0oW0NIMl1bQ0gyXTMpW0NASF0oW0NIMl1bQ0BIXTM0KVtDQEhdKFtDSDJdNClbTkhdW05IXVtDSF01W0NIMl1bQ0gyXVtDSDJdW0NIMl1bQ0gyXTU=

>  <s_glide_docking_method>  (1) 
confgen

>  <s_i_glide_gridfile>  (1) 
gpcr_5ht2c_6bqh_protein_autoprepared_prepared

>  <s_lp_Force_Field>  (1) 
S-OPLS

>  <s_lp_Variant>  (1) 
DiffSBDD_85_num_sample_100-2

>  <s_m_source_file>  (1) 
generated__ligand_DiffSBDD_2026-05-06_prepared.sdf

>  <GenAI_Model>  (1) 
DiffSBDD

>  <Protein>  (1) 
GPCR_5HT2C

$$$$
DiffSBDD_19_num_sample_100
     RDKit          3D

  0  0  0  0  0  0  0  0  0  0999 V3000
M  V30 BEGIN CTAB
M  V30 COUNTS 71 72 0 0 1
M  V30 BEGIN ATOM
M  V30 1 C 36.909172 32.141324 58.975775 0
M  V30 2 C 39.705151 31.342651 55.332330 0
M  V30 3 C 38.483928 31.802809 61.088671 0
M  V30 4 C 39.917261 30.196531 63.214977 0
M  V30 5 O 38.270900 33.274057 56.088147 0
M  V30 6 C 37.692622 27.338577 57.551182 0
M  V30 7 C 40.572571 31.447413 62.603562 0 CFG=2
M  V30 8 C 38.418766 27.727745 52.669474 0
M  V30 9 C 38.954460 28.699393 53.648677 0
M  V30 10 C 39.633345 33.760733 62.220379 0
M  V30 11 C 38.832024 27.532707 51.418380 0
M  V30 12 C 41.592109 32.071416 63.604829 0
M  V30 13 C 41.560695 33.584753 63.689828 0
M  V30 14 O 36.449622 34.492284 61.413706 0
M  V30 15 O 35.546723 32.457102 61.453515 0 CHG=-1
M  V30 16 O 37.467405 26.976410 53.233280 0
M  V30 17 C 40.657138 34.339290 63.056276 0
M  V30 18 N 37.694081 31.219139 58.106647 0 CFG=2 CHG=1
M  V30 19 C 39.289715 32.349167 56.430654 0 CFG=1
M  V30 20 C 39.867376 28.290899 50.726810 0
M  V30 21 C 38.736747 31.192295 54.169839 0 CFG=1
M  V30 22 C 40.325143 29.540085 51.016910 0
M  V30 23 C 37.567351 29.777818 58.481851 0
M  V30 24 C 37.575447 32.750235 60.244905 0 CFG=2
M  V30 25 C 36.425333 33.280372 61.113101 0
M  V30 26 C 39.067395 31.687329 57.800842 0
M  V30 27 C 39.557165 32.431523 61.993251 0
M  V30 28 C 39.867401 30.443132 52.074114 0
M  V30 29 C 38.701989 26.766332 58.557619 0
M  V30 30 C 39.215365 30.111869 53.207339 0
M  V30 31 C 37.872947 28.842006 57.295945 0
M  V30 32 O 37.434000 30.925008 54.653626 0
M  V30 33 H 36.667153 32.992483 58.338268 0
M  V30 34 H 35.947981 31.669130 59.182040 0
M  V30 35 H 39.910710 30.363847 55.753668 0
M  V30 36 H 40.672345 31.622035 54.919458 0
M  V30 37 H 37.859265 31.141786 61.690162 0
M  V30 38 H 39.054309 31.154388 60.433015 0
M  V30 39 H 39.368216 29.618460 62.473166 0
M  V30 40 H 40.668201 29.526500 63.634680 0
M  V30 41 H 39.222926 30.453613 64.014416 0
M  V30 42 H 37.495021 32.805873 55.799381 0
M  V30 43 H 36.667852 27.125215 57.853358 0
M  V30 44 H 37.826824 26.813458 56.604141 0
M  V30 45 H 41.158848 31.106138 61.750801 0
M  V30 46 H 38.291948 28.696716 54.510163 0
M  V30 47 H 39.867595 28.287910 54.070253 0
M  V30 48 H 38.913799 34.418080 61.763961 0
M  V30 49 H 38.367103 26.730372 50.866644 0
M  V30 50 H 42.605339 31.754758 63.353324 0
M  V30 51 H 41.403630 31.700117 64.613271 0
M  V30 52 H 42.311606 34.054300 64.309452 0
M  V30 53 H 37.103720 26.421236 52.553555 0
M  V30 54 H 40.693516 35.412546 63.175366 0
M  V30 55 H 40.166602 32.981704 56.562221 0
M  V30 56 H 40.287849 27.823724 49.853663 0
M  V30 57 H 38.678396 32.142685 53.638084 0
M  V30 58 H 41.065876 29.941077 50.340526 0
M  V30 59 H 38.205550 29.534586 59.328601 0
M  V30 60 H 36.543797 29.579433 58.803872 0
M  V30 61 H 38.168275 33.598398 59.902070 0
M  V30 62 H 39.722717 30.821214 57.853481 0
M  V30 63 H 39.416443 32.400237 58.545521 0
M  V30 64 H 40.049857 31.495748 51.912268 0
M  V30 65 H 38.574699 25.687929 58.661994 0
M  V30 66 H 39.727244 26.941759 58.228978 0
M  V30 67 H 38.591724 27.220746 59.542627 0
M  V30 68 H 37.226255 29.139060 56.473987 0
M  V30 69 H 38.894305 28.972587 56.954874 0
M  V30 70 H 36.809773 31.071073 53.959328 0
M  V30 71 H 37.176399 31.280926 57.233348 0
M  V30 END ATOM
M  V30 BEGIN BOND
M  V30 1 1 7 4
M  V30 2 1 9 8
M  V30 3 2 11 8
M  V30 4 1 12 7
M  V30 5 1 13 12
M  V30 6 1 16 8
M  V30 7 1 17 10
M  V30 8 2 17 13
M  V30 9 1 18 1
M  V30 10 1 19 2
M  V30 11 1 19 5
M  V30 12 1 20 11
M  V30 13 1 21 2
M  V30 14 2 22 20
M  V30 15 1 23 18
M  V30 16 1 24 1
M  V30 17 1 24 3
M  V30 18 2 25 14
M  V30 19 1 25 15
M  V30 20 1 25 24
M  V30 21 1 26 18
M  V30 22 1 26 19
M  V30 23 1 27 3
M  V30 24 1 27 7
M  V30 25 2 27 10
M  V30 26 1 28 22
M  V30 27 1 29 6
M  V30 28 1 30 9
M  V30 29 1 30 21
M  V30 30 2 30 28
M  V30 31 1 31 6
M  V30 32 1 31 23
M  V30 33 1 32 21
M  V30 34 1 33 1
M  V30 35 1 34 1
M  V30 36 1 35 2
M  V30 37 1 36 2
M  V30 38 1 37 3
M  V30 39 1 38 3
M  V30 40 1 39 4
M  V30 41 1 40 4
M  V30 42 1 41 4
M  V30 43 1 42 5
M  V30 44 1 43 6
M  V30 45 1 44 6
M  V30 46 1 7 45 CFG=3
M  V30 47 1 46 9
M  V30 48 1 47 9
M  V30 49 1 48 10
M  V30 50 1 49 11
M  V30 51 1 50 12
M  V30 52 1 51 12
M  V30 53 1 52 13
M  V30 54 1 53 16
M  V30 55 1 54 17
M  V30 56 1 19 55 CFG=1
M  V30 57 1 56 20
M  V30 58 1 21 57 CFG=3
M  V30 59 1 58 22
M  V30 60 1 59 23
M  V30 61 1 60 23
M  V30 62 1 24 61 CFG=3
M  V30 63 1 62 26
M  V30 64 1 63 26
M  V30 65 1 64 28
M  V30 66 1 65 29
M  V30 67 1 66 29
M  V30 68 1 67 29
M  V30 69 1 68 31
M  V30 70 1 69 31
M  V30 71 1 70 32
M  V30 72 1 18 71 CFG=3
M  V30 END BOND
M  V30 END CTAB
M  END
>  <i_epik_Tot_Q>  (1) 
0

>  <i_epik_Tot_abs_Q>  (1) 
2

>  <i_i_glide_confnum>  (1) 
1869

>  <i_i_glide_lignum>  (1) 
51

>  <i_i_glide_posenum>  (1) 
379

>  <i_i_glide_rotatable_bonds>  (1) 
16

>  <i_lp_mmshare_version>  (1) 
72125

>  <i_m_source_file_index>  (1) 
20

>  <i_f3d_flags>  (1) 
0

>  <num_sample>  (1) 
100

>  <b_lp_Chiralities_Consistent>  (1) 
1

>  <r_epik_Charging_Adjusted_Penalty>  (1) 
0.015037487925518506

>  <r_epik_Ionization_Penalty>  (1) 
0.015045499532085388

>  <r_epik_Ionization_Penalty_Charging>  (1) 
0.0012943130925640431

>  <r_epik_Ionization_Penalty_Neutral>  (1) 
0.013751186439521345

>  <r_epik_State_Penalty>  (1) 
0.013743174832954463

>  <r_glide_ring_energy>  (1) 
0

>  <r_i_docking_score>  (1) 
-7.5602803624145158

>  <r_i_glide_ecoul>  (1) 
-5.9768341835186938

>  <r_i_glide_eff_state_penalty>  (1) 
0.013743174832954463

>  <r_i_glide_einternal>  (1) 
17.21238874824094

>  <r_i_glide_emodel>  (1) 
-65.955385594831611

>  <r_i_glide_emodel_strain>  (1) 
2.1646877601541377

>  <r_i_glide_energy>  (1) 
-46.036647017020968

>  <r_i_glide_erotb>  (1) 
1.1084889849388277

>  <r_i_glide_esite>  (1) 
-0.096941083531470448

>  <r_i_glide_evdw>  (1) 
-40.059812833502271

>  <r_i_glide_gscore>  (1) 
-7.57402353724747

>  <r_i_glide_gscore_strain>  (1) 
0

>  <r_i_glide_hbond>  (1) 
-0.45301236824266089

>  <r_i_glide_ligand_efficiency>  (1) 
-0.23625876132545362

>  <r_i_glide_ligand_efficiency_ln>  (1) 
-1.6929528586038216

>  <r_i_glide_ligand_efficiency_sa>  (1) 
-0.75007481252945785

>  <r_i_glide_lipo>  (1) 
-3.9804407227469123

>  <r_i_glide_metal>  (1) 
-0

>  <r_i_glide_rewards>  (1) 
-1.2526025784623367

>  <r_lp_Energy>  (1) 
24.107240999999998

>  <s_epik_cmdline>  (1) 
J2VwaWtfcHl0aG9uJywgJy1waHQnLCAnMS4wJywgJy1waCcsICc3LjQnLCAnLXRuJywgJzgnLCAnLW1hJywgJzUwMCcsICctaW1hZScsICc8aW5maWxlLm1hZT4nLCAnLW9tYWUnLCAnPG91dGZpbGUubWFlPic=

>  <s_epik_input>  (1) 
W0NIM11bQ0BIXTFbQ0gyXVtDSF09W0NIXVtDSF09QzFbQ0gyXVtDQEhdKEMoPU8pW09IXSlbQ0gyXU4oW0NIMl1bQ0gyXVtDSDJdW0NIM10pW0NIMl1bQ0BIXShbT0hdKVtDSDJdW0NASF0oW09IXSlDKFtDSDJdMik9W0NIXVtDSF09W0NIXVtDSF09QzJbT0hd

>  <s_glide_docking_method>  (1) 
confgen

>  <s_i_glide_gridfile>  (1) 
gpcr_5ht2c_6bqh_protein_autoprepared_prepared

>  <s_lp_Force_Field>  (1) 
S-OPLS

>  <s_lp_Variant>  (1) 
DiffSBDD_19_num_sample_100-3

>  <s_m_source_file>  (1) 
generated__ligand_DiffSBDD_2026-05-06_prepared.sdf

>  <GenAI_Model>  (1) 
DiffSBDD

>  <Protein>  (1) 
GPCR_5HT2C

$$$$
DiffSBDD_62_num_sample_100
     RDKit          3D

  0  0  0  0  0  0  0  0  0  0999 V3000
M  V30 BEGIN CTAB
M  V30 COUNTS 81 82 0 0 1
M  V30 BEGIN ATOM
M  V30 1 O 37.067253 39.026037 61.053300 0
M  V30 2 O 39.341669 30.122884 53.107937 0
M  V30 3 C 41.807324 35.070677 61.053492 0
M  V30 4 C 38.081932 26.932009 54.739250 0
M  V30 5 C 37.626902 34.917841 61.462633 0
M  V30 6 C 36.693694 36.775554 60.221201 0
M  V30 7 C 39.089545 29.582786 55.398541 0
M  V30 8 C 37.264571 37.684079 61.158771 0
M  V30 9 C 38.323346 31.067294 58.599863 0
M  V30 10 C 41.726014 33.616935 61.623758 0
M  V30 11 F 35.965913 37.221420 59.184223 0
M  V30 12 C 36.878467 35.398918 60.381805 0
M  V30 13 C 40.433239 32.596872 63.626730 0 CFG=2
M  V30 14 C 38.767158 27.152812 56.104875 0 CFG=1
M  V30 15 C 39.181467 32.883139 61.268360 0 CFG=1
M  V30 16 C 37.803054 33.410605 61.663198 0
M  V30 17 C 40.663747 31.082313 63.465907 0
M  V30 18 O 38.667481 27.221485 51.301771 0
M  V30 19 N 37.522485 30.573488 57.654087 0
M  V30 20 C 38.026931 37.196825 62.215293 0
M  V30 21 O 38.406086 24.834100 56.722567 0
M  V30 22 C 39.310994 33.213437 59.765526 0
M  V30 23 C 38.755626 28.653077 56.554725 0 CFG=2
M  V30 24 C 39.015154 29.225101 54.093713 0
M  V30 25 C 37.486229 29.168950 57.294166 0
M  V30 26 C 40.353766 33.341361 62.252320 0 CFG=2
M  V30 27 C 41.466811 33.126347 64.675151 0
M  V30 28 C 41.678445 34.647813 64.885665 0
M  V30 29 C 38.613763 27.520347 52.438279 0
M  V30 30 C 40.853805 35.306084 66.003055 0
M  V30 31 C 39.467641 31.485124 53.433873 0
M  V30 32 C 38.594381 27.904831 53.695013 0
M  V30 33 C 38.256281 26.165117 57.177256 0 CFG=1
M  V30 34 C 39.028311 26.247860 58.495349 0
M  V30 35 O 39.067426 30.366400 59.283723 0
M  V30 36 C 38.206613 35.832180 62.373027 0
M  V30 37 C 38.285669 32.584888 58.785870 0
M  V30 38 H 36.471509 39.253038 60.341661 0
M  V30 39 H 42.667387 35.221428 60.402356 0
M  V30 40 H 40.930986 35.340009 60.473000 0
M  V30 41 H 41.867275 35.816346 61.844956 0
M  V30 42 H 37.007497 27.068596 54.832483 0
M  V30 43 H 38.243509 25.910233 54.391224 0
M  V30 44 H 39.407034 30.574961 55.673170 0
M  V30 45 H 42.501075 33.513769 62.375707 0
M  V30 46 H 41.974372 32.820876 60.932223 0
M  V30 47 H 36.432061 34.713943 59.680433 0
M  V30 48 H 39.467434 32.729133 64.095614 0
M  V30 49 H 39.818308 26.905423 55.939252 0
M  V30 50 H 39.128694 31.801158 61.334297 0
M  V30 51 H 37.598684 33.072898 62.653504 0
M  V30 52 H 37.017742 32.894383 61.112555 0
M  V30 53 H 41.605479 30.888151 62.952884 0
M  V30 54 H 40.710888 30.590093 64.438234 0
M  V30 55 H 39.870381 30.584405 62.912430 0
M  V30 56 H 36.896932 31.209954 57.148861 0
M  V30 57 H 38.467284 37.871080 62.920811 0
M  V30 58 H 37.901031 24.727047 55.930646 0
M  V30 59 H 39.309421 34.286640 59.599575 0
M  V30 60 H 40.267403 32.896631 59.454340 0
M  V30 61 H 39.589657 28.756824 57.249272 0
M  V30 62 H 37.188924 28.558796 58.147574 0
M  V30 63 H 36.667474 29.221443 56.595886 0
M  V30 64 H 40.130296 34.332050 62.564299 0
M  V30 65 H 41.238032 32.675176 65.641735 0
M  V30 66 H 42.441635 32.706335 64.423354 0
M  V30 67 H 42.724344 34.776480 65.163471 0
M  V30 68 H 41.570436 35.220436 63.970155 0
M  V30 69 H 41.356698 36.208357 66.354888 0
M  V30 70 H 39.867770 35.621316 65.664341 0
M  V30 71 H 40.739345 34.641397 66.859455 0
M  V30 72 H 39.562785 32.021243 52.491719 0
M  V30 73 H 38.600843 31.885101 53.960722 0
M  V30 74 H 40.369887 31.621378 54.026980 0
M  V30 75 H 37.195952 26.329333 57.363744 0
M  V30 76 H 38.903684 27.208151 58.991876 0
M  V30 77 H 38.644495 25.487899 59.165339 0
M  V30 78 H 40.096037 26.072619 58.350520 0
M  V30 79 H 38.764199 35.479572 63.220142 0
M  V30 80 H 37.259828 32.868013 58.998646 0
M  V30 81 H 38.484408 33.012004 57.802124 0
M  V30 END ATOM
M  V30 BEGIN BOND
M  V30 1 1 8 1
M  V30 2 2 8 6
M  V30 3 1 10 3
M  V30 4 1 11 6
M  V30 5 2 12 5
M  V30 6 1 12 6
M  V30 7 1 14 4
M  V30 8 1 16 5
M  V30 9 1 16 15
M  V30 10 1 17 13
M  V30 11 1 19 9
M  V30 12 1 20 8
M  V30 13 1 22 15
M  V30 14 1 23 7
M  V30 15 1 23 14
M  V30 16 1 24 2
M  V30 17 2 24 7
M  V30 18 1 25 19
M  V30 19 1 25 23
M  V30 20 1 26 10
M  V30 21 1 26 13
M  V30 22 1 26 15
M  V30 23 1 27 13
M  V30 24 1 28 27
M  V30 25 2 29 18
M  V30 26 1 30 28
M  V30 27 1 31 2
M  V30 28 1 32 4
M  V30 29 1 32 24
M  V30 30 2 32 29
M  V30 31 1 33 14
M  V30 32 1 33 21
M  V30 33 1 34 33
M  V30 34 2 35 9
M  V30 35 1 36 5
M  V30 36 2 36 20
M  V30 37 1 37 9
M  V30 38 1 37 22
M  V30 39 1 38 1
M  V30 40 1 39 3
M  V30 41 1 40 3
M  V30 42 1 41 3
M  V30 43 1 42 4
M  V30 44 1 43 4
M  V30 45 1 44 7
M  V30 46 1 45 10
M  V30 47 1 46 10
M  V30 48 1 47 12
M  V30 49 1 13 48 CFG=1
M  V30 50 1 14 49 CFG=3
M  V30 51 1 15 50 CFG=3
M  V30 52 1 51 16
M  V30 53 1 52 16
M  V30 54 1 53 17
M  V30 55 1 54 17
M  V30 56 1 55 17
M  V30 57 1 56 19
M  V30 58 1 57 20
M  V30 59 1 58 21
M  V30 60 1 59 22
M  V30 61 1 60 22
M  V30 62 1 23 61 CFG=1
M  V30 63 1 62 25
M  V30 64 1 63 25
M  V30 65 1 26 64 CFG=1
M  V30 66 1 65 27
M  V30 67 1 66 27
M  V30 68 1 67 28
M  V30 69 1 68 28
M  V30 70 1 69 30
M  V30 71 1 70 30
M  V30 72 1 71 30
M  V30 73 1 72 31
M  V30 74 1 73 31
M  V30 75 1 74 31
M  V30 76 1 33 75 CFG=1
M  V30 77 1 76 34
M  V30 78 1 77 34
M  V30 79 1 78 34
M  V30 80 1 79 36
M  V30 81 1 80 37
M  V30 82 1 81 37
M  V30 END BOND
M  V30 END CTAB
M  END
>  <i_epik_Tot_Q>  (1) 
0

>  <i_epik_Tot_abs_Q>  (1) 
0

>  <i_i_glide_confnum>  (1) 
907

>  <i_i_glide_lignum>  (1) 
157

>  <i_i_glide_posenum>  (1) 
36

>  <i_i_glide_rotatable_bonds>  (1) 
17

>  <i_lp_mmshare_version>  (1) 
72125

>  <i_m_source_file_index>  (1) 
63

>  <i_f3d_flags>  (1) 
0

>  <num_sample>  (1) 
100

>  <b_lp_Chiralities_Consistent>  (1) 
1

>  <r_epik_Charging_Adjusted_Penalty>  (1) 
0.018006221857045448

>  <r_epik_Ionization_Penalty>  (1) 
0.018006279539151737

>  <r_epik_Ionization_Penalty_Charging>  (1) 
0

>  <r_epik_Ionization_Penalty_Neutral>  (1) 
0.018006279539151737

>  <r_epik_State_Penalty>  (1) 
0.018006221857045448

>  <r_glide_ring_energy>  (1) 
0

>  <r_i_docking_score>  (1) 
-7.5588940820085133

>  <r_i_glide_ecoul>  (1) 
-9.8293742988737272

>  <r_i_glide_eff_state_penalty>  (1) 
0.018006221857045448

>  <r_i_glide_einternal>  (1) 
5.9627168912243853

>  <r_i_glide_emodel>  (1) 
-46.907788407787784

>  <r_i_glide_emodel_strain>  (1) 
3.2128189824431956

>  <r_i_glide_energy>  (1) 
-31.578242689121421

>  <r_i_glide_erotb>  (1) 
0.91941413916602621

>  <r_i_glide_esite>  (1) 
-0.18148822114229335

>  <r_i_glide_evdw>  (1) 
-21.748868390247694

>  <r_i_glide_gscore>  (1) 
-7.5769003038655587

>  <r_i_glide_gscore_strain>  (1) 
0

>  <r_i_glide_hbond>  (1) 
-0.45458511165708787

>  <r_i_glide_ligand_efficiency>  (1) 
-0.20429443464887873

>  <r_i_glide_ligand_efficiency_ln>  (1) 
-1.6393469207682583

>  <r_i_glide_ligand_efficiency_sa>  (1) 
-0.68075437930664995

>  <r_i_glide_lipo>  (1) 
-4.6720664725411929

>  <r_i_glide_metal>  (1) 
-0

>  <r_i_glide_rewards>  (1) 
-0.62632507334756682

>  <r_lp_Energy>  (1) 
35.726849999999999

>  <r_lp_tautomer_probability>  (1) 
0.99999999999736477

>  <s_epik_cmdline>  (1) 
J2VwaWtfcHl0aG9uJywgJy1waHQnLCAnMS4wJywgJy1waCcsICc3LjQnLCAnLXRuJywgJzgnLCAnLW1hJywgJzUwMCcsICctaW1hZScsICc8aW5maWxlLm1hZT4nLCAnLW9tYWUnLCAnPG91dGZpbGUubWFlPic=

>  <s_epik_input>  (1) 
W2NIXTFbY0hdYyhbT0hdKWMoRilbY0hdYzFbQ0gyXVtDQEhdKFtDQEhdKFtDSDJdW0NIM10pW0NAQEhdKFtDSDNdKVtDSDJdW0NIMl1bQ0gzXSlbQ0gyXVtDSDJdQyg9TylbTkhdW0NIMl1bQ0BASF0yW0NIXT1DKE9bQ0gzXSlDKD1DPU8pW0NIMl1bQ0BASF0yW0NAQEhdKFtPSF0pW0NIM10=

>  <s_glide_docking_method>  (1) 
confgen

>  <s_i_glide_gridfile>  (1) 
gpcr_5ht2c_6bqh_protein_autoprepared_prepared

>  <s_lp_Force_Field>  (1) 
S-OPLS

>  <s_lp_Variant>  (1) 
DiffSBDD_62_num_sample_100-1

>  <s_m_source_file>  (1) 
generated__ligand_DiffSBDD_2026-05-06_prepared.sdf

>  <GenAI_Model>  (1) 
DiffSBDD

>  <Protein>  (1) 
GPCR_5HT2C

$$$$
DiffSBDD_84_num_sample_100
     RDKit          3D

  0  0  0  0  0  0  0  0  0  0999 V3000
M  V30 BEGIN CTAB
M  V30 COUNTS 48 50 0 0 1
M  V30 BEGIN ATOM
M  V30 1 C 39.467387 29.868571 52.687989 0
M  V30 2 C 36.678252 32.897630 61.462357 0
M  V30 3 C 37.035924 33.749496 60.245785 0 CFG=2
M  V30 4 C 39.420562 29.400268 55.862537 0
M  V30 5 C 36.614866 31.488328 59.430751 0 CFG=1
M  V30 6 C 39.565592 31.027901 53.529502 0
M  V30 7 C 39.593407 28.340624 50.853060 0
M  V30 8 N 39.137550 29.819128 57.035642 0
M  V30 9 Cl 40.667403 30.821356 50.440213 0
M  V30 10 C 36.590608 31.446097 60.970375 0
M  V30 11 C 37.784561 26.815250 53.917143 0
M  V30 12 O 37.067382 35.998923 59.304668 0
M  V30 13 C 38.637301 29.780637 54.615196 0 CFG=1
M  V30 14 C 38.872850 29.051831 53.398786 0
M  V30 15 C 39.876063 29.625200 51.381199 0
M  V30 16 C 38.527467 27.764766 52.999493 0
M  V30 17 C 36.548760 35.200836 60.344238 0
M  V30 18 C 38.902997 27.389129 51.676117 0
M  V30 19 C 37.935677 30.587154 57.344494 0 CFG=1
M  V30 20 C 36.381714 32.978625 59.109233 0
M  V30 21 C 37.928550 30.895733 58.859784 0
M  V30 22 N 37.867410 31.837293 56.566536 0 CHG=1
M  V30 23 H 37.416061 33.011602 62.253506 0
M  V30 24 H 35.707616 33.205392 61.853490 0
M  V30 25 H 38.119974 33.734184 60.119552 0
M  V30 26 H 40.271784 28.737883 55.682778 0
M  V30 27 H 35.780124 30.895992 59.053500 0
M  V30 28 H 38.995807 31.883811 53.168756 0
M  V30 29 H 40.599117 31.221451 53.818168 0
M  V30 30 H 39.883642 28.086427 49.853500 0
M  V30 31 H 37.408643 30.849309 61.375665 0
M  V30 32 H 35.662317 30.992001 61.320201 0
M  V30 33 H 37.237227 26.066203 53.345227 0
M  V30 34 H 38.485976 26.301377 54.574487 0
M  V30 35 H 37.067237 27.353764 54.535553 0
M  V30 36 H 36.667370 35.743049 58.482753 0
M  V30 37 H 37.568434 29.953129 54.745781 0
M  V30 38 H 36.832530 35.640168 61.301374 0
M  V30 39 H 35.467403 35.221366 60.264977 0
M  V30 40 H 38.667429 26.421430 51.292279 0
M  V30 41 H 37.053844 29.990525 57.102777 0
M  V30 42 H 35.306165 33.166395 59.109985 0
M  V30 43 H 36.743942 33.326727 58.149339 0
M  V30 44 H 38.770192 31.538496 59.120095 0
M  V30 45 H 38.113455 29.953169 59.377694 0
M  V30 46 H 36.881890 32.118522 56.653501 0
M  V30 47 H 38.477325 32.541550 56.952025 0
M  V30 48 H 38.063362 31.679607 55.591558 0
M  V30 END ATOM
M  V30 BEGIN BOND
M  V30 1 1 3 2
M  V30 2 1 6 1
M  V30 3 2 8 4
M  V30 4 1 10 2
M  V30 5 1 10 5
M  V30 6 1 13 4
M  V30 7 1 13 6
M  V30 8 1 14 1
M  V30 9 1 14 13
M  V30 10 2 15 1
M  V30 11 1 15 7
M  V30 12 1 15 9
M  V30 13 1 16 11
M  V30 14 2 16 14
M  V30 15 1 17 3
M  V30 16 1 17 12
M  V30 17 2 18 7
M  V30 18 1 18 16
M  V30 19 1 19 8
M  V30 20 1 20 3
M  V30 21 1 20 5
M  V30 22 1 21 5
M  V30 23 1 21 19
M  V30 24 1 22 19
M  V30 25 1 23 2
M  V30 26 1 24 2
M  V30 27 1 3 25 CFG=3
M  V30 28 1 26 4
M  V30 29 1 5 27 CFG=3
M  V30 30 1 28 6
M  V30 31 1 29 6
M  V30 32 1 30 7
M  V30 33 1 31 10
M  V30 34 1 32 10
M  V30 35 1 33 11
M  V30 36 1 34 11
M  V30 37 1 35 11
M  V30 38 1 36 12
M  V30 39 1 13 37 CFG=1
M  V30 40 1 38 17
M  V30 41 1 39 17
M  V30 42 1 40 18
M  V30 43 1 19 41 CFG=1
M  V30 44 1 42 20
M  V30 45 1 43 20
M  V30 46 1 44 21
M  V30 47 1 45 21
M  V30 48 1 46 22
M  V30 49 1 47 22
M  V30 50 1 48 22
M  V30 END BOND
M  V30 END CTAB
M  END
>  <i_epik_Tot_Q>  (1) 
1

>  <i_epik_Tot_abs_Q>  (1) 
1

>  <i_i_glide_confnum>  (1) 
181

>  <i_i_glide_lignum>  (1) 
219

>  <i_i_glide_posenum>  (1) 
284

>  <i_i_glide_rotatable_bonds>  (1) 
6

>  <i_lp_mmshare_version>  (1) 
72125

>  <i_m_source_file_index>  (1) 
85

>  <i_f3d_flags>  (1) 
0

>  <num_sample>  (1) 
100

>  <b_lp_Chiralities_Consistent>  (1) 
1

>  <r_epik_Charging_Adjusted_Penalty>  (1) 
0.46451758934955678

>  <r_epik_Ionization_Penalty>  (1) 
0.053840736014893024

>  <r_epik_Ionization_Penalty_Charging>  (1) 
0.053837750396952835

>  <r_epik_Ionization_Penalty_Neutral>  (1) 
2.9856179401856363e-06

>  <r_epik_State_Penalty>  (1) 
0.41067983895260396

>  <r_glide_ring_energy>  (1) 
0.40696222322696024

>  <r_i_docking_score>  (1) 
-7.5574772429976216

>  <r_i_glide_ecoul>  (1) 
-8.1582514671096913

>  <r_i_glide_eff_state_penalty>  (1) 
0.41067983895260396

>  <r_i_glide_einternal>  (1) 
3.6474283102398113

>  <r_i_glide_emodel>  (1) 
-64.467485688959897

>  <r_i_glide_emodel_strain>  (1) 
0.99774095088167769

>  <r_i_glide_energy>  (1) 
-42.276725932993706

>  <r_i_glide_erotb>  (1) 
0.90212786361762021

>  <r_i_glide_esite>  (1) 
-0.19038378191571992

>  <r_i_glide_evdw>  (1) 
-34.118474465884013

>  <r_i_glide_gscore>  (1) 
-7.9681570819502259

>  <r_i_glide_gscore_strain>  (1) 
0

>  <r_i_glide_hbond>  (1) 
-0.46379876296816336

>  <r_i_glide_ligand_efficiency>  (1) 
-0.34352169286352824

>  <r_i_glide_ligand_efficiency_ln>  (1) 
-1.8473231038689728

>  <r_i_glide_ligand_efficiency_sa>  (1) 
-0.96256129433692628

>  <r_i_glide_lipo>  (1) 
-3.1346320902868681

>  <r_i_glide_metal>  (1) 
-0

>  <r_i_glide_rewards>  (1) 
-2.1518088670364417

>  <r_lp_Energy>  (1) 
15.401159

>  <r_lp_tautomer_probability>  (1) 
0.49999300000000002

>  <s_epik_Chemistry_Notes>  (1) 
This compound has an imine and may undergo hydrolysis. This compound contains an acetal/aminal-like group ( X-CH(R)-Y where X, Y are N, S, or O) that may be acid/base labile, releasing an aldehyde.

>  <s_epik_cmdline>  (1) 
J2VwaWtfcHl0aG9uJywgJy1waHQnLCAnMS4wJywgJy1waCcsICc3LjQnLCAnLXRuJywgJzgnLCAnLW1hJywgJzUwMCcsICctaW1hZScsICc8aW5maWxlLm1hZT4nLCAnLW9tYWUnLCAnPG91dGZpbGUubWFlPic=

>  <s_epik_input>  (1) 
Q2xjMVtjSF1bY0hdYyhbQ0gzXSljKGMxMilbQ0BIXShbQ0gyXTIpL1tDSF09TlxbQ0BIXShbTkgyXSlbQ0gyXVtDQEhdKFtDSDJdMylbQ0gyXVtDSDJdW0NAQEhdM1tDSDJdW09IXQ==

>  <s_glide_docking_method>  (1) 
confgen

>  <s_i_glide_gridfile>  (1) 
gpcr_5ht2c_6bqh_protein_autoprepared_prepared

>  <s_lp_Force_Field>  (1) 
S-OPLS

>  <s_lp_Variant>  (1) 
DiffSBDD_84_num_sample_100-2

>  <s_m_source_file>  (1) 
generated__ligand_DiffSBDD_2026-05-06_prepared.sdf

>  <GenAI_Model>  (1) 
DiffSBDD

>  <Protein>  (1) 
GPCR_5HT2C

$$$$
DiffSBDD_49_num_sample_100
     RDKit          3D

  0  0  0  0  0  0  0  0  0  0999 V3000
M  V30 BEGIN CTAB
M  V30 COUNTS 44 46 0 0 1
M  V30 BEGIN ATOM
M  V30 1 Cl 39.281522 37.120731 62.431613 0
M  V30 2 C 38.760486 28.499931 56.661873 0
M  V30 3 O 38.386408 31.940176 61.323260 0
M  V30 4 C 36.667313 36.097305 59.544657 0
M  V30 5 C 38.999375 29.436801 54.337229 0
M  V30 6 C 37.459619 36.849778 60.432619 0
M  V30 7 C 36.715806 34.689676 59.571779 0
M  V30 8 N 38.618312 29.494724 55.720636 0
M  V30 9 C 39.437747 28.209749 59.760337 0
M  V30 10 O 41.239939 30.421475 50.065798 0
M  V30 11 C 39.867461 30.621567 52.394381 0
M  V30 12 C 39.740448 29.447071 51.617839 0
M  V30 13 S 39.452506 26.980490 56.424696 0
M  V30 14 O 38.279884 28.049340 58.942523 0
M  V30 15 C 38.305258 36.196880 61.349581 0
M  V30 16 N 38.305649 28.953357 57.870194 0
M  V30 17 C 36.887635 30.425827 59.469762 0
M  V30 18 N 36.866220 31.877262 59.637178 0
M  V30 19 C 37.443759 30.132921 58.063513 0
M  V30 20 C 39.486603 30.614603 53.742789 0
M  V30 21 N 40.108679 29.447759 50.248487 0
M  V30 22 C 39.231902 28.267941 52.197111 0
M  V30 23 C 38.857991 28.256420 53.556284 0
M  V30 24 C 38.359196 34.790568 61.381752 0
M  V30 25 C 37.566343 34.027420 60.494056 0
M  V30 26 C 37.642863 32.518212 60.529185 0
M  V30 27 O 39.867372 30.821724 49.697092 0
M  V30 28 H 36.020403 36.599772 58.840042 0
M  V30 29 H 37.419409 37.929041 60.408535 0
M  V30 30 H 36.104752 34.124375 58.883881 0
M  V30 31 H 38.316027 30.395628 56.061068 0
M  V30 32 H 39.326136 27.621469 60.668928 0
M  V30 33 H 40.340991 27.867252 59.253494 0
M  V30 34 H 39.595089 29.247009 60.057938 0
M  V30 35 H 40.249792 31.531196 51.954626 0
M  V30 36 H 37.455253 29.940967 60.259455 0
M  V30 37 H 35.870838 30.040733 59.550211 0
M  V30 38 H 36.279748 32.414575 59.010245 0
M  V30 39 H 36.598113 30.021436 57.382830 0
M  V30 40 H 38.007757 31.002122 57.720971 0
M  V30 41 H 39.579657 31.516411 54.330472 0
M  V30 42 H 39.123913 27.373869 51.599548 0
M  V30 43 H 38.450772 27.357234 53.983002 0
M  V30 44 H 39.011583 34.295204 62.086064 0
M  V30 END ATOM
M  V30 BEGIN BOND
M  V30 1 2 6 4
M  V30 2 1 7 4
M  V30 3 1 8 2
M  V30 4 1 8 5
M  V30 5 1 12 11
M  V30 6 2 13 2
M  V30 7 1 14 9
M  V30 8 1 15 1
M  V30 9 1 15 6
M  V30 10 1 16 2
M  V30 11 1 16 14
M  V30 12 1 18 17
M  V30 13 1 19 16
M  V30 14 1 19 17
M  V30 15 1 20 5
M  V30 16 2 20 11
M  V30 17 1 21 10
M  V30 18 1 21 12
M  V30 19 2 22 12
M  V30 20 2 23 5
M  V30 21 1 23 22
M  V30 22 2 24 15
M  V30 23 2 25 7
M  V30 24 1 25 24
M  V30 25 2 26 3
M  V30 26 1 26 18
M  V30 27 1 26 25
M  V30 28 1 27 10
M  V30 29 1 27 21
M  V30 30 1 28 4
M  V30 31 1 29 6
M  V30 32 1 30 7
M  V30 33 1 31 8
M  V30 34 1 32 9
M  V30 35 1 33 9
M  V30 36 1 34 9
M  V30 37 1 35 11
M  V30 38 1 36 17
M  V30 39 1 37 17
M  V30 40 1 38 18
M  V30 41 1 39 19
M  V30 42 1 40 19
M  V30 43 1 41 20
M  V30 44 1 42 22
M  V30 45 1 43 23
M  V30 46 1 44 24
M  V30 END BOND
M  V30 END CTAB
M  END
>  <i_epik_Tot_Q>  (1) 
0

>  <i_epik_Tot_abs_Q>  (1) 
0

>  <i_i_glide_confnum>  (1) 
19

>  <i_i_glide_lignum>  (1) 
133

>  <i_i_glide_posenum>  (1) 
192

>  <i_i_glide_rotatable_bonds>  (1) 
10

>  <i_lp_mmshare_version>  (1) 
72125

>  <i_m_source_file_index>  (1) 
50

>  <i_f3d_flags>  (1) 
0

>  <num_sample>  (1) 
100

>  <b_lp_Chiralities_Consistent>  (1) 
1

>  <r_epik_Charging_Adjusted_Penalty>  (1) 
0

>  <r_epik_Ionization_Penalty>  (1) 
1.2411307214121904e-05

>  <r_epik_Ionization_Penalty_Charging>  (1) 
0

>  <r_epik_Ionization_Penalty_Neutral>  (1) 
1.2411307214121904e-05

>  <r_epik_State_Penalty>  (1) 
-0

>  <r_glide_ring_energy>  (1) 
0

>  <r_i_docking_score>  (1) 
-7.5541581114475207

>  <r_i_glide_ecoul>  (1) 
-3.4001309747368751

>  <r_i_glide_eff_state_penalty>  (1) 
-0

>  <r_i_glide_einternal>  (1) 
14.771479467322337

>  <r_i_glide_emodel>  (1) 
-70.879903886968663

>  <r_i_glide_emodel_strain>  (1) 
1.6208788202706756

>  <r_i_glide_energy>  (1) 
-53.310215604169514

>  <r_i_glide_erotb>  (1) 
0.94204315138098349

>  <r_i_glide_esite>  (1) 
-0.080109358949761456

>  <r_i_glide_evdw>  (1) 
-49.910084629432639

>  <r_i_glide_gscore>  (1) 
-7.5541581114475207

>  <r_i_glide_gscore_strain>  (1) 
0

>  <r_i_glide_hbond>  (1) 
0

>  <r_i_glide_ligand_efficiency>  (1) 
-0.27978363375731558

>  <r_i_glide_ligand_efficiency_ln>  (1) 
-1.7584834683151835

>  <r_i_glide_ligand_efficiency_sa>  (1) 
-0.83935090127194689

>  <r_i_glide_lipo>  (1) 
-3.0839423717061276

>  <r_i_glide_metal>  (1) 
-0

>  <r_i_glide_rewards>  (1) 
-2.3266256544904524

>  <r_lp_Energy>  (1) 
32.022877999999999

>  <r_lp_tautomer_probability>  (1) 
1

>  <s_epik_Chemistry_Notes>  (1) 
This compound has a N-S or N-O group and may undergo hydrolysis at high or low pH.

>  <s_epik_cmdline>  (1) 
J2VwaWtfcHl0aG9uJywgJy1waHQnLCAnMS4wJywgJy1waCcsICc3LjQnLCAnLXRuJywgJzgnLCAnLW1hJywgJzUwMCcsICctaW1hZScsICc8aW5maWxlLm1hZT4nLCAnLW9tYWUnLCAnPG91dGZpbGUubWFlPic=

>  <s_epik_input>  (1) 
Q2xjMVtjSF1bY0hdW2NIXWMoW2NIXTEpQyg9TylbTkhdW0NIMl1bQ0gyXU4oT1tDSDNdKUMoPVMpW05IXWMyW2NIXVtjSF1jKC1uM29vMylbY0hdW2NIXTI=

>  <s_glide_docking_method>  (1) 
confgen

>  <s_i_glide_gridfile>  (1) 
gpcr_5ht2c_6bqh_protein_autoprepared_prepared

>  <s_lp_Force_Field>  (1) 
S-OPLS

>  <s_lp_Variant>  (1) 
DiffSBDD_49_num_sample_100-1

>  <s_m_source_file>  (1) 
generated__ligand_DiffSBDD_2026-05-06_prepared.sdf

>  <GenAI_Model>  (1) 
DiffSBDD

>  <Protein>  (1) 
GPCR_5HT2C

$$$$
DiffSBDD_30_num_sample_100
     RDKit          3D

  0  0  0  0  0  0  0  0  0  0999 V3000
M  V30 BEGIN CTAB
M  V30 COUNTS 69 72 0 0 1
M  V30 BEGIN ATOM
M  V30 1 C 40.039801 30.329534 65.559323 0
M  V30 2 C 42.533030 27.644824 64.101648 0 CFG=1
M  V30 3 O 41.182301 31.836332 64.045296 0
M  V30 4 C 39.868150 30.145359 51.279855 0
M  V30 5 C 39.851251 29.038234 50.418529 0
M  V30 6 N 39.954060 29.618311 62.653659 0
M  V30 7 C 39.118166 27.616732 52.253365 0
M  V30 8 C 41.189237 29.472961 63.432958 0 CFG=1
M  V30 9 O 45.389231 29.717691 64.628334 0
M  V30 10 O 41.494460 25.523295 64.652906 0
M  V30 11 C 38.345113 26.656222 56.149450 0
M  V30 12 C 42.378349 26.339268 64.910078 0
M  V30 13 C 43.367338 26.094689 66.047935 0
M  V30 14 C 37.647874 25.343463 56.422187 0
M  V30 15 C 37.388987 28.732003 55.046626 0 CFG=2
M  V30 16 C 39.249033 29.463284 59.005234 0
M  V30 17 N 39.279200 29.906503 60.412255 0 CHG=1
M  V30 18 C 39.083722 25.347805 55.959446 0
M  V30 19 C 38.525648 30.201103 56.615708 0 CFG=1
M  V30 20 C 39.469471 27.776383 50.905730 0
M  V30 21 C 37.264247 29.390450 56.405107 0
M  V30 22 N 37.944340 27.377557 54.940669 0
M  V30 23 C 39.506567 29.994583 52.632956 0
M  V30 24 C 39.957914 28.983019 61.341895 0
M  V30 25 C 39.134528 28.718230 53.134491 0
M  V30 26 C 38.755212 30.593267 58.081057 0
M  V30 27 C 44.537025 28.823681 63.956113 0
M  V30 28 C 41.205108 30.526914 64.571268 0 CFG=2
M  V30 29 C 38.776755 28.524939 54.580547 0 CFG=1
M  V30 30 O 39.517445 31.083048 53.453618 0
M  V30 31 S 39.866781 29.238230 55.855098 0
M  V30 32 O 41.251348 28.207919 64.017269 0
M  V30 33 O 43.458678 28.461289 64.758105 0
M  V30 34 H 40.077763 29.344117 66.026375 0
M  V30 35 H 40.081348 31.069038 66.358702 0
M  V30 36 H 39.067680 30.421267 65.078879 0
M  V30 37 H 42.870626 27.403942 63.091290 0
M  V30 38 H 40.374442 31.940758 63.567587 0
M  V30 39 H 40.156176 31.116901 50.903597 0
M  V30 40 H 40.125138 29.158098 49.380647 0
M  V30 41 H 39.206055 29.210963 63.223118 0
M  V30 42 H 38.838507 26.639828 52.618263 0
M  V30 43 H 42.043382 29.629077 62.775969 0
M  V30 44 H 45.787544 29.263788 65.358696 0
M  V30 45 H 38.639121 27.212089 57.033705 0
M  V30 46 H 44.386630 26.299560 65.726174 0
M  V30 47 H 43.136581 26.746799 66.888902 0
M  V30 48 H 43.308415 25.061570 66.388431 0
M  V30 49 H 37.454988 25.085078 57.461588 0
M  V30 50 H 36.894413 25.009406 55.712020 0
M  V30 51 H 36.668129 29.045620 54.297130 0
M  V30 52 H 38.602931 28.589881 58.931394 0
M  V30 53 H 40.248024 29.149690 58.704381 0
M  V30 54 H 39.760488 30.792873 60.457416 0
M  V30 55 H 39.287886 25.019077 54.942221 0
M  V30 56 H 39.847071 25.086546 56.691046 0
M  V30 57 H 38.415269 31.114561 56.029364 0
M  V30 58 H 39.455163 26.923766 50.248462 0
M  V30 59 H 37.086713 28.665915 57.196612 0
M  V30 60 H 36.380645 30.021374 56.395480 0
M  V30 61 H 39.439305 28.023627 61.376044 0
M  V30 62 H 40.974391 28.798031 60.989036 0
M  V30 63 H 39.467175 31.410411 58.077358 0
M  V30 64 H 37.828936 31.015405 58.471021 0
M  V30 65 H 45.122523 27.948051 63.666456 0
M  V30 66 H 44.200482 29.333879 63.053965 0
M  V30 67 H 42.140395 30.435443 65.122060 0
M  V30 68 H 39.378889 30.872623 54.363968 0
M  V30 69 H 38.330155 30.050675 60.722244 0
M  V30 END ATOM
M  V30 BEGIN BOND
M  V30 1 1 5 4
M  V30 2 1 8 6
M  V30 3 1 12 2
M  V30 4 2 12 10
M  V30 5 1 13 12
M  V30 6 1 14 11
M  V30 7 1 17 16
M  V30 8 1 18 11
M  V30 9 1 18 14
M  V30 10 2 20 5
M  V30 11 1 20 7
M  V30 12 1 21 15
M  V30 13 1 21 19
M  V30 14 1 22 11
M  V30 15 1 22 15
M  V30 16 2 23 4
M  V30 17 1 24 6
M  V30 18 1 24 17
M  V30 19 2 25 7
M  V30 20 1 25 23
M  V30 21 1 26 16
M  V30 22 1 26 19
M  V30 23 1 27 9
M  V30 24 1 28 1
M  V30 25 1 28 3
M  V30 26 1 28 8
M  V30 27 1 29 15
M  V30 28 1 29 22
M  V30 29 1 29 25 CFG=3
M  V30 30 1 30 23
M  V30 31 1 31 19
M  V30 32 1 31 29
M  V30 33 1 32 2
M  V30 34 1 32 8
M  V30 35 1 33 2
M  V30 36 1 33 27
M  V30 37 1 34 1
M  V30 38 1 35 1
M  V30 39 1 36 1
M  V30 40 1 2 37 CFG=3
M  V30 41 1 38 3
M  V30 42 1 39 4
M  V30 43 1 40 5
M  V30 44 1 41 6
M  V30 45 1 42 7
M  V30 46 1 8 43 CFG=3
M  V30 47 1 44 9
M  V30 48 1 45 11
M  V30 49 1 46 13
M  V30 50 1 47 13
M  V30 51 1 48 13
M  V30 52 1 49 14
M  V30 53 1 50 14
M  V30 54 1 15 51 CFG=3
M  V30 55 1 52 16
M  V30 56 1 53 16
M  V30 57 1 54 17
M  V30 58 1 55 18
M  V30 59 1 56 18
M  V30 60 1 19 57 CFG=3
M  V30 61 1 58 20
M  V30 62 1 59 21
M  V30 63 1 60 21
M  V30 64 1 61 24
M  V30 65 1 62 24
M  V30 66 1 63 26
M  V30 67 1 64 26
M  V30 68 1 65 27
M  V30 69 1 66 27
M  V30 70 1 28 67 CFG=1
M  V30 71 1 68 30
M  V30 72 1 69 17
M  V30 END BOND
M  V30 END CTAB
M  END
>  <i_epik_Tot_Q>  (1) 
1

>  <i_epik_Tot_abs_Q>  (1) 
1

>  <i_i_glide_confnum>  (1) 
2570

>  <i_i_glide_lignum>  (1) 
79

>  <i_i_glide_posenum>  (1) 
333

>  <i_i_glide_rotatable_bonds>  (1) 
17

>  <i_lp_mmshare_version>  (1) 
72125

>  <i_m_source_file_index>  (1) 
31

>  <i_f3d_flags>  (1) 
0

>  <num_sample>  (1) 
100

>  <b_lp_Chiralities_Consistent>  (1) 
1

>  <r_epik_Charging_Adjusted_Penalty>  (1) 
0.074635642036716146

>  <r_epik_Ionization_Penalty>  (1) 
0.2367700207343624

>  <r_epik_Ionization_Penalty_Charging>  (1) 
0.00051329390614008978

>  <r_epik_Ionization_Penalty_Neutral>  (1) 
0.23625672682822232

>  <r_epik_State_Penalty>  (1) 
0.074122348130576055

>  <r_glide_ring_energy>  (1) 
0

>  <r_i_docking_score>  (1) 
-7.5340409165398645

>  <r_i_glide_ecoul>  (1) 
-6.7252723596048547

>  <r_i_glide_eff_state_penalty>  (1) 
0.074122348130576055

>  <r_i_glide_einternal>  (1) 
17.827578442879172

>  <r_i_glide_emodel>  (1) 
-68.836090356188294

>  <r_i_glide_emodel_strain>  (1) 
0.92672626166024941

>  <r_i_glide_energy>  (1) 
-48.86140701123071

>  <r_i_glide_erotb>  (1) 
1.1326933877215775

>  <r_i_glide_esite>  (1) 
-0.022477350522300973

>  <r_i_glide_evdw>  (1) 
-42.136134651625859

>  <r_i_glide_gscore>  (1) 
-7.6081632646704405

>  <r_i_glide_gscore_strain>  (1) 
0

>  <r_i_glide_hbond>  (1) 
-0.32000000000000001

>  <r_i_glide_ligand_efficiency>  (1) 
-0.2283042701981777

>  <r_i_glide_ligand_efficiency_ln>  (1) 
-1.6755316906623261

>  <r_i_glide_ligand_efficiency_sa>  (1) 
-0.73229378434529813

>  <r_i_glide_lipo>  (1) 
-3.4799448786578608

>  <r_i_glide_metal>  (1) 
-0

>  <r_i_glide_rewards>  (1) 
-1.802836836689834

>  <r_lp_Energy>  (1) 
25.467389999999998

>  <r_lp_tautomer_probability>  (1) 
0.99999996999736518

>  <s_epik_Chemistry_Notes>  (1) 
This compound contains an acetal/aminal-like group ( X-CH(R)-Y where X, Y are N, S, or O) that may be acid/base labile, releasing an aldehyde.

>  <s_epik_cmdline>  (1) 
J2VwaWtfcHl0aG9uJywgJy1waHQnLCAnMS4wJywgJy1waCcsICc3LjQnLCAnLXRuJywgJzgnLCAnLW1hJywgJzUwMCcsICctaW1hZScsICc8aW5maWxlLm1hZT4nLCAnLW9tYWUnLCAnPG91dGZpbGUubWFlPic=

>  <s_epik_input>  (1) 
W09IXVtDSDJdT1tDQEBIXShDKD1PKVtDSDNdKU9bQ0BIXShbQ0BIXShbQ0gzXSlbT0hdKVtOSF1bQ0gyXVtOSF1bQ0gyXVtDSDJdW0NAQEhdKFMxKVtDSDJdW0NASF0oTjJbQ0hdM1tDSDJdW0NIMl0zKVtDQEBdMTJjNFtjSF1bY0hdW2NIXVtjSF1jNFtPSF0=

>  <s_glide_docking_method>  (1) 
confgen

>  <s_i_glide_gridfile>  (1) 
gpcr_5ht2c_6bqh_protein_autoprepared_prepared

>  <s_lp_Force_Field>  (1) 
S-OPLS

>  <s_lp_Variant>  (1) 
DiffSBDD_30_num_sample_100-1

>  <s_m_source_file>  (1) 
generated__ligand_DiffSBDD_2026-05-06_prepared.sdf

>  <GenAI_Model>  (1) 
DiffSBDD

>  <Protein>  (1) 
GPCR_5HT2C

$$$$
DiffSBDD_18_num_sample_100
     RDKit          3D

  0  0  0  0  0  0  0  0  0  0999 V3000
M  V30 BEGIN CTAB
M  V30 COUNTS 70 72 0 0 1
M  V30 BEGIN ATOM
M  V30 1 O 38.238366 30.889453 57.362347 0
M  V30 2 C 40.136567 36.066391 66.277473 0
M  V30 3 C 39.230767 32.494739 62.676873 0
M  V30 4 C 39.880982 36.265353 67.528407 0
M  V30 5 O 36.741284 31.971971 61.454194 0
M  V30 6 C 41.089103 34.320750 64.711359 0 CFG=2
M  V30 7 C 39.718603 26.508493 54.046009 0
M  V30 8 N 40.667422 34.835542 66.015029 0
M  V30 9 N 42.403604 34.865790 64.514067 0
M  V30 10 C 38.059861 30.472594 54.993893 0
M  V30 11 C 39.989157 27.556535 56.283504 0
M  V30 12 O 40.667404 26.021421 53.453507 0
M  V30 13 O 40.166232 34.896392 69.439083 0
M  V30 14 C 37.067204 26.283852 56.116396 0
M  V30 15 C 41.541118 33.136350 61.858039 0
M  V30 16 C 40.267420 35.083095 68.229977 0
M  V30 17 C 38.708368 24.976454 57.407934 0
M  V30 18 C 39.546056 28.802232 56.050155 0
M  V30 19 C 37.771492 31.525031 60.948523 0
M  V30 20 N 38.691643 27.205493 53.472170 0
M  V30 21 C 40.168060 33.675435 62.334676 0 CFG=2
M  V30 22 C 38.292177 31.510521 56.087050 0 CFG=2
M  V30 23 C 40.278902 34.760611 63.454501 0 CFG=2
M  V30 24 C 41.042324 35.974402 62.953147 0
M  V30 25 O 39.067417 23.789559 57.453492 0 CHG=-1
M  V30 26 C 40.867795 33.997647 67.248532 0
M  V30 27 C 38.202960 28.344796 53.799565 0
M  V30 28 C 37.712109 30.754134 59.643601 0
M  V30 29 C 37.949861 31.713886 58.468719 0
M  V30 30 C 39.579103 32.304000 55.861434 0
M  V30 31 C 38.608631 29.229482 54.970893 0
M  V30 32 C 39.606127 26.340237 55.519956 0 CFG=1
M  V30 33 C 38.388696 25.535463 56.032774 0 CFG=2
M  V30 34 N 38.990930 31.692479 61.484801 0
M  V30 35 N 42.267398 36.021395 63.712323 0
M  V30 36 O 38.594137 25.748134 58.384553 0
M  V30 37 H 39.980476 36.742688 65.450725 0
M  V30 38 H 38.286547 32.862401 63.053485 0
M  V30 39 H 39.662645 31.865299 63.457248 0
M  V30 40 H 39.460527 37.147418 67.991755 0
M  V30 41 H 41.156244 33.234527 64.783172 0
M  V30 42 H 42.814762 35.122139 65.409124 0
M  V30 43 H 37.386997 30.769691 54.203515 0
M  V30 44 H 40.667874 27.396529 57.108869 0
M  V30 45 H 40.289877 33.075592 67.236236 0
M  V30 46 H 36.304714 25.669088 56.599039 0
M  V30 47 H 37.173116 27.199458 56.699219 0
M  V30 48 H 36.679354 26.518707 55.127656 0
M  V30 49 H 42.081973 32.641180 62.664789 0
M  V30 50 H 41.444240 32.411065 61.053359 0
M  V30 51 H 42.172461 33.926723 61.461710 0
M  V30 52 H 39.911180 29.562584 56.716184 0
M  V30 53 H 39.717893 34.180258 61.478218 0
M  V30 54 H 37.467315 32.212692 56.025614 0
M  V30 55 H 39.304023 35.181567 63.683789 0
M  V30 56 H 41.264791 35.935470 61.886166 0
M  V30 57 H 40.489393 36.897618 63.128690 0
M  V30 58 H 41.920969 33.805109 67.451349 0
M  V30 59 H 37.416638 28.788681 53.181199 0
M  V30 60 H 36.742916 30.265048 59.545995 0
M  V30 61 H 38.464245 29.963208 59.652717 0
M  V30 62 H 38.786479 32.386330 58.666040 0
M  V30 63 H 37.067766 32.330230 58.288737 0
M  V30 64 H 39.463285 32.961282 55.006283 0
M  V30 65 H 39.833227 32.930635 56.714140 0
M  V30 66 H 40.413096 31.639911 55.654307 0
M  V30 67 H 40.455591 25.684992 55.730765 0
M  V30 68 H 38.233652 24.681800 55.368722 0
M  V30 69 H 39.791744 31.289782 61.020011 0
M  V30 70 H 42.271026 36.860729 64.303714 0
M  V30 END ATOM
M  V30 BEGIN BOND
M  V30 1 2 4 2
M  V30 2 1 8 2
M  V30 3 1 8 6
M  V30 4 1 9 6
M  V30 5 2 12 7
M  V30 6 1 16 4
M  V30 7 2 16 13
M  V30 8 2 18 11
M  V30 9 2 19 5
M  V30 10 1 20 7
M  V30 11 1 21 3
M  V30 12 1 21 15
M  V30 13 1 22 1
M  V30 14 1 22 10
M  V30 15 1 23 6
M  V30 16 1 23 21
M  V30 17 1 24 23
M  V30 18 1 25 17
M  V30 19 1 26 8
M  V30 20 1 26 16
M  V30 21 2 27 20
M  V30 22 1 28 19
M  V30 23 1 29 1
M  V30 24 1 29 28
M  V30 25 1 30 22
M  V30 26 2 31 10
M  V30 27 1 31 18
M  V30 28 1 31 27
M  V30 29 1 32 7
M  V30 30 1 32 11
M  V30 31 1 33 14
M  V30 32 1 33 17
M  V30 33 1 33 32
M  V30 34 1 34 3
M  V30 35 1 34 19
M  V30 36 1 35 9
M  V30 37 1 35 24
M  V30 38 2 36 17
M  V30 39 1 37 2
M  V30 40 1 38 3
M  V30 41 1 39 3
M  V30 42 1 40 4
M  V30 43 1 6 41 CFG=1
M  V30 44 1 42 9
M  V30 45 1 43 10
M  V30 46 1 44 11
M  V30 47 1 45 26
M  V30 48 1 46 14
M  V30 49 1 47 14
M  V30 50 1 48 14
M  V30 51 1 49 15
M  V30 52 1 50 15
M  V30 53 1 51 15
M  V30 54 1 52 18
M  V30 55 1 21 53 CFG=3
M  V30 56 1 22 54 CFG=1
M  V30 57 1 23 55 CFG=1
M  V30 58 1 56 24
M  V30 59 1 57 24
M  V30 60 1 58 26
M  V30 61 1 59 27
M  V30 62 1 60 28
M  V30 63 1 61 28
M  V30 64 1 62 29
M  V30 65 1 63 29
M  V30 66 1 64 30
M  V30 67 1 65 30
M  V30 68 1 66 30
M  V30 69 1 32 67 CFG=1
M  V30 70 1 33 68 CFG=3
M  V30 71 1 69 34
M  V30 72 1 70 35
M  V30 END BOND
M  V30 END CTAB
M  END
>  <i_epik_Tot_Q>  (1) 
-1

>  <i_epik_Tot_abs_Q>  (1) 
1

>  <i_i_glide_confnum>  (1) 
499

>  <i_i_glide_lignum>  (1) 
43

>  <i_i_glide_posenum>  (1) 
127

>  <i_i_glide_rotatable_bonds>  (1) 
12

>  <i_lp_mmshare_version>  (1) 
72125

>  <i_m_source_file_index>  (1) 
19

>  <i_f3d_flags>  (1) 
0

>  <num_sample>  (1) 
100

>  <b_lp_Chiralities_Consistent>  (1) 
1

>  <r_epik_Charging_Adjusted_Penalty>  (1) 
0.37971815023500188

>  <r_epik_Ionization_Penalty>  (1) 
0.19445293645399606

>  <r_epik_Ionization_Penalty_Charging>  (1) 
0.18991606969001057

>  <r_epik_Ionization_Penalty_Neutral>  (1) 
0.004536866763985496

>  <r_epik_State_Penalty>  (1) 
0.18980208054499129

>  <r_glide_ring_energy>  (1) 
1.845819541117304

>  <r_i_docking_score>  (1) 
-7.5332262955383715

>  <r_i_glide_ecoul>  (1) 
-5.4817494276330878

>  <r_i_glide_eff_state_penalty>  (1) 
0.18980208054499129

>  <r_i_glide_einternal>  (1) 
11.453421529059071

>  <r_i_glide_emodel>  (1) 
-63.593966984588661

>  <r_i_glide_emodel_strain>  (1) 
2.3844157658426184

>  <r_i_glide_energy>  (1) 
-45.887008204219079

>  <r_i_glide_erotb>  (1) 
0.89642714384868305

>  <r_i_glide_esite>  (1) 
-0.050453572611306202

>  <r_i_glide_evdw>  (1) 
-40.405258776585988

>  <r_i_glide_gscore>  (1) 
-7.7230283760833629

>  <r_i_glide_gscore_strain>  (1) 
0

>  <r_i_glide_hbond>  (1) 
-0.55262895214725261

>  <r_i_glide_ligand_efficiency>  (1) 
-0.20925628598717699

>  <r_i_glide_ligand_efficiency_ln>  (1) 
-1.6435464534320932

>  <r_i_glide_ligand_efficiency_sa>  (1) 
-0.69094903270354668

>  <r_i_glide_lipo>  (1) 
-2.9978872274625945

>  <r_i_glide_metal>  (1) 
-0

>  <r_i_glide_rewards>  (1) 
-2.1759604147366294

>  <r_lp_Energy>  (1) 
26.239971999999998

>  <r_lp_tautomer_probability>  (1) 
0.98846045845713826

>  <s_epik_Chemistry_Notes>  (1) 
This compound has an imine and may undergo hydrolysis. This compound contains an acetal/aminal-like group ( X-CH(R)-Y where X, Y are N, S, or O) that may be acid/base labile, releasing an aldehyde.

>  <s_epik_cmdline>  (1) 
J2VwaWtfcHl0aG9uJywgJy1waHQnLCAnMS4wJywgJy1waCcsICc3LjQnLCAnLXRuJywgJzgnLCAnLW1hJywgJzUwMCcsICctaW1hZScsICc8aW5maWxlLm1hZT4nLCAnLW9tYWUnLCAnPG91dGZpbGUubWFlPic=

>  <s_epik_input>  (1) 
W09IXUMoPU8pW0NASF0oW0NIM10pW0NAQEhdMVtDSF09W0NIXS9DKFtDSF09TkMxPU8pPVtDSF1cW0NASF0oW0NIM10pT1tDSDJdW0NIMl1DKD1PKVtOSF1bQ0gyXVtDQEhdKFtDSDNdKVtDQEBIXTJbQ0gyXVtOSF1bTkhdW0NASF0ybjNbY0hdW2NIXWMoW09IXSlbY0hdMw==

>  <s_glide_docking_method>  (1) 
confgen

>  <s_i_glide_gridfile>  (1) 
gpcr_5ht2c_6bqh_protein_autoprepared_prepared

>  <s_lp_Force_Field>  (1) 
S-OPLS

>  <s_lp_Variant>  (1) 
DiffSBDD_18_num_sample_100-3

>  <s_m_source_file>  (1) 
generated__ligand_DiffSBDD_2026-05-06_prepared.sdf

>  <GenAI_Model>  (1) 
DiffSBDD

>  <Protein>  (1) 
GPCR_5HT2C

$$$$
DiffSBDD_14_num_sample_100
     RDKit          3D

  0  0  0  0  0  0  0  0  0  0999 V3000
M  V30 BEGIN CTAB
M  V30 COUNTS 76 78 0 0 1
M  V30 BEGIN ATOM
M  V30 1 C 38.633394 27.588762 51.808191 0
M  V30 2 C 38.859573 28.070546 53.252526 0 CFG=1
M  V30 3 C 38.377783 30.023213 59.778941 0
M  V30 4 C 39.809524 30.235558 52.255275 0
M  V30 5 C 38.862379 29.625843 53.307972 0 CFG=2
M  V30 6 C 40.700494 30.229748 49.873959 0
M  V30 7 O 41.809898 34.846583 64.019314 0
M  V30 8 C 36.920926 25.865720 56.735571 0
M  V30 9 C 38.561832 34.247974 61.385323 0
M  V30 10 C 38.719617 24.486934 56.089359 0
M  V30 11 C 39.633465 29.694789 50.834570 0 CFG=1
M  V30 12 O 36.991144 30.021435 55.532388 0
M  V30 13 O 37.110287 24.840516 57.705279 0
M  V30 14 N 41.201124 36.021429 63.511659 0
M  V30 15 C 38.686398 30.441827 57.187345 0
M  V30 16 O 39.561532 36.782989 62.158665 0
M  V30 17 C 39.233704 30.228644 54.684948 0
M  V30 18 N 36.667396 30.421386 58.653529 0 CHG=1
M  V30 19 O 37.813322 27.525127 54.059080 0
M  V30 20 C 38.405079 24.288557 57.554277 0
M  V30 21 C 37.947881 26.138120 54.355420 0
M  V30 22 C 40.175622 35.841243 62.657208 0
M  V30 23 C 37.127414 30.882451 59.963656 0 CFG=2
M  V30 24 C 37.242590 32.409412 60.080940 0 CFG=2
M  V30 25 C 39.784460 34.391690 62.315744 0
M  V30 26 C 37.942961 29.776137 58.346230 0 CFG=2
M  V30 27 C 38.124011 32.775766 61.296548 0
M  V30 28 C 38.170643 25.870716 55.848506 0 CFG=1
M  V30 29 C 38.342179 29.783339 55.848624 0 CFG=2
M  V30 30 C 35.856902 33.075251 60.164074 0
M  V30 31 C 39.665720 28.172352 50.849483 0
M  V30 32 H 37.631221 27.863657 51.478228 0
M  V30 33 H 38.695513 26.506189 51.745650 0
M  V30 34 H 39.817868 27.701836 53.619524 0
M  V30 35 H 39.330664 30.548126 59.847867 0
M  V30 36 H 38.380385 29.116958 60.386723 0
M  V30 37 H 39.737719 31.324451 52.249731 0
M  V30 38 H 40.804184 29.993749 52.568930 0
M  V30 39 H 37.865400 29.957867 53.056257 0
M  V30 40 H 41.705937 30.103699 50.275826 0
M  V30 41 H 40.656910 29.683488 48.931783 0
M  V30 42 H 40.556201 31.290061 49.672910 0
M  V30 43 H 42.480188 35.176965 64.600116 0
M  V30 44 H 36.771493 26.821522 57.232060 0
M  V30 45 H 36.023030 25.621128 56.170518 0
M  V30 46 H 37.728020 34.855335 61.742601 0
M  V30 47 H 38.822754 34.623259 60.394109 0
M  V30 48 H 38.186378 23.753552 55.482488 0
M  V30 49 H 39.786816 24.421278 55.878477 0
M  V30 50 H 38.667398 30.018090 50.474904 0
M  V30 51 H 36.785517 30.945918 55.613303 0
M  V30 52 H 41.617519 36.869131 63.892404 0
M  V30 53 H 38.506001 31.516861 57.150978 0
M  V30 54 H 39.758476 30.327347 57.347538 0
M  V30 55 H 39.199802 31.316698 54.613251 0
M  V30 56 H 40.269710 29.981278 54.920086 0
M  V30 57 H 35.929882 29.736652 58.736371 0
M  V30 58 H 39.106418 24.861864 58.160929 0
M  V30 59 H 38.442231 23.241999 57.853505 0
M  V30 60 H 37.075557 25.599735 53.983358 0
M  V30 61 H 38.813563 25.716774 53.853372 0
M  V30 62 H 36.492873 30.451578 60.739221 0
M  V30 63 H 37.741651 32.792151 59.190128 0
M  V30 64 H 40.643438 33.901263 61.856119 0
M  V30 65 H 39.575678 33.861693 63.244879 0
M  V30 66 H 37.797803 28.705317 58.197436 0
M  V30 67 H 39.033745 32.178666 61.263463 0
M  V30 68 H 37.624890 32.486532 62.223379 0
M  V30 69 H 38.900309 26.574130 56.247408 0
M  V30 70 H 38.471599 28.715943 55.985581 0
M  V30 71 H 35.313394 32.765286 61.057956 0
M  V30 72 H 35.937008 34.162779 60.184528 0
M  V30 73 H 35.241577 32.824258 59.299472 0
M  V30 74 H 39.479888 27.782115 49.853596 0
M  V30 75 H 40.667406 27.868634 51.135075 0
M  V30 76 H 36.380885 31.159037 58.003242 0
M  V30 END ATOM
M  V30 BEGIN BOND
M  V30 1 1 2 1
M  V30 2 1 5 2
M  V30 3 1 5 4
M  V30 4 1 11 4
M  V30 5 1 11 6
M  V30 6 1 13 8
M  V30 7 1 14 7
M  V30 8 1 17 5
M  V30 9 1 19 2
M  V30 10 1 20 10
M  V30 11 1 20 13
M  V30 12 1 21 19
M  V30 13 1 22 14
M  V30 14 2 22 16
M  V30 15 1 23 3
M  V30 16 1 23 18
M  V30 17 1 24 23
M  V30 18 1 25 9
M  V30 19 1 25 22
M  V30 20 1 26 3
M  V30 21 1 26 15
M  V30 22 1 26 18
M  V30 23 1 27 9
M  V30 24 1 27 24
M  V30 25 1 28 8
M  V30 26 1 28 10
M  V30 27 1 28 21
M  V30 28 1 29 12
M  V30 29 1 29 15
M  V30 30 1 29 17
M  V30 31 1 30 24
M  V30 32 1 31 1
M  V30 33 1 31 11
M  V30 34 1 32 1
M  V30 35 1 33 1
M  V30 36 1 2 34 CFG=1
M  V30 37 1 35 3
M  V30 38 1 36 3
M  V30 39 1 37 4
M  V30 40 1 38 4
M  V30 41 1 5 39 CFG=3
M  V30 42 1 40 6
M  V30 43 1 41 6
M  V30 44 1 42 6
M  V30 45 1 43 7
M  V30 46 1 44 8
M  V30 47 1 45 8
M  V30 48 1 46 9
M  V30 49 1 47 9
M  V30 50 1 48 10
M  V30 51 1 49 10
M  V30 52 1 11 50 CFG=3
M  V30 53 1 51 12
M  V30 54 1 52 14
M  V30 55 1 53 15
M  V30 56 1 54 15
M  V30 57 1 55 17
M  V30 58 1 56 17
M  V30 59 1 57 18
M  V30 60 1 58 20
M  V30 61 1 59 20
M  V30 62 1 60 21
M  V30 63 1 61 21
M  V30 64 1 23 62 CFG=1
M  V30 65 1 24 63 CFG=3
M  V30 66 1 64 25
M  V30 67 1 65 25
M  V30 68 1 26 66 CFG=3
M  V30 69 1 67 27
M  V30 70 1 68 27
M  V30 71 1 28 69 CFG=1
M  V30 72 1 29 70 CFG=1
M  V30 73 1 71 30
M  V30 74 1 72 30
M  V30 75 1 73 30
M  V30 76 1 74 31
M  V30 77 1 75 31
M  V30 78 1 76 18
M  V30 END BOND
M  V30 END CTAB
M  END
>  <i_epik_Tot_Q>  (1) 
1

>  <i_epik_Tot_abs_Q>  (1) 
1

>  <i_i_glide_confnum>  (1) 
2317

>  <i_i_glide_lignum>  (1) 
32

>  <i_i_glide_posenum>  (1) 
128

>  <i_i_glide_rotatable_bonds>  (1) 
15

>  <i_lp_mmshare_version>  (1) 
72125

>  <i_m_source_file_index>  (1) 
15

>  <i_f3d_flags>  (1) 
0

>  <num_sample>  (1) 
100

>  <b_lp_Chiralities_Consistent>  (1) 
1

>  <r_epik_Charging_Adjusted_Penalty>  (1) 
0.00011085431656654283

>  <r_epik_Ionization_Penalty>  (1) 
0.0093428253379992804

>  <r_epik_Ionization_Penalty_Charging>  (1) 
0.00011085431656654283

>  <r_epik_Ionization_Penalty_Neutral>  (1) 
0.0092319710214327378

>  <r_epik_State_Penalty>  (1) 
-0

>  <r_glide_ring_energy>  (1) 
0

>  <r_i_docking_score>  (1) 
-7.5330148022294683

>  <r_i_glide_ecoul>  (1) 
-11.226743199532493

>  <r_i_glide_eff_state_penalty>  (1) 
-0

>  <r_i_glide_einternal>  (1) 
22.158184597212042

>  <r_i_glide_emodel>  (1) 
-63.97434105208859

>  <r_i_glide_emodel_strain>  (1) 
0.64049573195816834

>  <r_i_glide_energy>  (1) 
-50.107571199566166

>  <r_i_glide_erotb>  (1) 
1.3314850251941783

>  <r_i_glide_esite>  (1) 
-0.11453079360892758

>  <r_i_glide_evdw>  (1) 
-38.880828000033674

>  <r_i_glide_gscore>  (1) 
-7.5330148022294683

>  <r_i_glide_gscore_strain>  (1) 
0

>  <r_i_glide_hbond>  (1) 
-0.59255432136551023

>  <r_i_glide_ligand_efficiency>  (1) 
-0.24300047749127318

>  <r_i_glide_ligand_efficiency_ln>  (1) 
-1.6989256970812947

>  <r_i_glide_ligand_efficiency_sa>  (1) 
-0.76335699851295591

>  <r_i_glide_lipo>  (1) 
-4.3702555780215064

>  <r_i_glide_metal>  (1) 
-0

>  <r_i_glide_rewards>  (1) 
-0.15910625449614701

>  <r_lp_Energy>  (1) 
22.97654

>  <r_lp_tautomer_probability>  (1) 
1

>  <s_epik_Chemistry_Notes>  (1) 
This compound has a N-S or N-O group and may undergo hydrolysis at high or low pH.

>  <s_epik_cmdline>  (1) 
J2VwaWtfcHl0aG9uJywgJy1waHQnLCAnMS4wJywgJy1waCcsICc3LjQnLCAnLXRuJywgJzgnLCAnLW1hJywgJzUwMCcsICctaW1hZScsICc8aW5maWxlLm1hZT4nLCAnLW9tYWUnLCAnPG91dGZpbGUubWFlPic=

>  <s_epik_input>  (1) 
W0NIMl0xW0NIMl1PW0NIMl1bQ0BASF0xW0NIMl1PW0NASF0yW0NIMl1bQ0gyXVtDQEhdKFtDSDNdKVtDSDJdW0NAQEhdMltDSDJdW0NASF0oW09IXSlbQ0gyXVtDQEhdKFtOSF0zKVtDSDJdW0NASF0zW0NAQEhdKFtDSDNdKVtDSDJdW0NIMl1bQ0gyXUMoPU8pW05IXVtPSF0=

>  <s_glide_docking_method>  (1) 
confgen

>  <s_i_glide_gridfile>  (1) 
gpcr_5ht2c_6bqh_protein_autoprepared_prepared

>  <s_lp_Force_Field>  (1) 
S-OPLS

>  <s_lp_Variant>  (1) 
DiffSBDD_14_num_sample_100-1

>  <s_m_source_file>  (1) 
generated__ligand_DiffSBDD_2026-05-06_prepared.sdf

>  <GenAI_Model>  (1) 
DiffSBDD

>  <Protein>  (1) 
GPCR_5HT2C

$$$$
DiffSBDD_19_num_sample_100
     RDKit          3D

  0  0  0  0  0  0  0  0  0  0999 V3000
M  V30 BEGIN CTAB
M  V30 COUNTS 71 72 0 0 1
M  V30 BEGIN ATOM
M  V30 1 C 39.028532 33.375029 59.757394 0
M  V30 2 C 39.174315 31.195462 55.782385 0
M  V30 3 C 40.830475 32.722660 61.463005 0
M  V30 4 C 40.924137 34.875161 63.598618 0
M  V30 5 O 38.061218 33.323031 55.991802 0
M  V30 6 C 35.076926 33.651575 60.330540 0
M  V30 7 C 40.667398 33.399197 63.962049 0 CFG=2
M  V30 8 C 39.635226 29.695740 51.472110 0
M  V30 9 C 39.597899 30.150130 52.891997 0
M  V30 10 C 41.838611 31.283593 63.260850 0
M  V30 11 C 39.517146 28.451653 51.014034 0
M  V30 12 C 41.121769 33.119041 65.427095 0
M  V30 13 C 41.818176 31.789843 65.634838 0
M  V30 14 O 37.470272 31.221424 61.453492 0
M  V30 15 O 39.472571 30.315760 61.087970 0 CHG=-1
M  V30 16 O 39.869310 30.734875 50.657745 0
M  V30 17 C 42.144596 30.966479 64.633050 0
M  V30 18 N 37.796286 32.921331 59.058074 0 CFG=1 CHG=1
M  V30 19 C 38.763848 32.343214 56.729918 0 CFG=1
M  V30 20 C 39.260220 27.259940 51.809135 0
M  V30 21 C 38.061967 30.592869 54.890174 0 CFG=1
M  V30 22 C 38.741438 27.180292 53.066343 0
M  V30 23 C 36.906445 34.020521 58.602055 0
M  V30 24 C 39.312089 32.698390 61.127301 0 CFG=2
M  V30 25 C 38.701820 31.287513 61.240889 0
M  V30 26 C 38.037512 31.871311 58.027819 0
M  V30 27 C 41.166122 32.397103 62.915599 0
M  V30 28 C 38.296325 28.266000 53.949278 0
M  V30 29 C 35.134014 33.621425 61.853499 0
M  V30 30 C 38.625584 29.575505 53.881248 0
M  V30 31 C 36.110418 34.629902 59.754617 0
M  V30 32 O 37.067404 30.021429 55.721291 0
M  V30 33 H 39.867409 33.242996 59.092410 0
M  V30 34 H 38.985170 34.450966 59.925278 0
M  V30 35 H 39.651476 30.401679 56.358946 0
M  V30 36 H 39.961134 31.590779 55.139709 0
M  V30 37 H 41.364571 32.031654 60.809577 0
M  V30 38 H 41.244226 33.702129 61.233376 0
M  V30 39 H 40.404653 35.171312 62.688185 0
M  V30 40 H 40.563445 35.536940 64.387374 0
M  V30 41 H 41.988265 35.071473 63.464874 0
M  V30 42 H 37.165207 33.035883 55.841307 0
M  V30 43 H 34.079238 33.932682 59.991841 0
M  V30 44 H 35.234224 32.636890 59.960855 0
M  V30 45 H 39.596351 33.221430 63.911518 0
M  V30 46 H 40.595384 30.021432 53.307530 0
M  V30 47 H 39.447948 31.231477 52.882759 0
M  V30 48 H 42.150744 30.602007 62.490656 0
M  V30 49 H 39.629141 28.309975 49.949027 0
M  V30 50 H 40.267405 33.180860 66.099228 0
M  V30 51 H 41.822038 33.886535 65.758349 0
M  V30 52 H 42.062725 31.521552 66.652244 0
M  V30 53 H 39.842662 30.415244 49.769164 0
M  V30 54 H 42.650083 30.038760 64.858307 0
M  V30 55 H 39.698188 32.821427 57.014133 0
M  V30 56 H 39.467398 26.319143 51.324118 0
M  V30 57 H 37.577583 31.377764 54.307554 0
M  V30 58 H 38.589043 26.180754 53.446104 0
M  V30 59 H 37.467408 34.800352 58.092094 0
M  V30 60 H 36.206113 33.637242 57.866303 0
M  V30 61 H 38.780059 33.298844 61.864825 0
M  V30 62 H 37.083416 31.384520 57.848926 0
M  V30 63 H 38.648044 31.089240 58.478721 0
M  V30 64 H 37.633798 27.972855 54.747899 0
M  V30 65 H 34.326106 33.009338 62.253500 0
M  V30 66 H 36.087323 33.215344 62.186248 0
M  V30 67 H 35.067399 34.612040 62.297763 0
M  V30 68 H 36.790880 34.983815 60.530033 0
M  V30 69 H 35.591165 35.519654 59.396211 0
M  V30 70 H 36.475112 30.698804 56.048243 0
M  V30 71 H 37.265695 32.435093 59.775231 0
M  V30 END ATOM
M  V30 BEGIN BOND
M  V30 1 1 7 4
M  V30 2 1 9 8
M  V30 3 2 11 8
M  V30 4 1 12 7
M  V30 5 1 13 12
M  V30 6 1 16 8
M  V30 7 1 17 10
M  V30 8 2 17 13
M  V30 9 1 18 1
M  V30 10 1 19 2
M  V30 11 1 19 5
M  V30 12 1 20 11
M  V30 13 1 21 2
M  V30 14 2 22 20
M  V30 15 1 23 18
M  V30 16 1 24 1
M  V30 17 1 24 3
M  V30 18 2 25 14
M  V30 19 1 25 15
M  V30 20 1 25 24
M  V30 21 1 26 18
M  V30 22 1 26 19
M  V30 23 1 27 3
M  V30 24 1 27 7
M  V30 25 2 27 10
M  V30 26 1 28 22
M  V30 27 1 29 6
M  V30 28 1 30 9
M  V30 29 1 30 21
M  V30 30 2 30 28
M  V30 31 1 31 6
M  V30 32 1 31 23
M  V30 33 1 32 21
M  V30 34 1 33 1
M  V30 35 1 34 1
M  V30 36 1 35 2
M  V30 37 1 36 2
M  V30 38 1 37 3
M  V30 39 1 38 3
M  V30 40 1 39 4
M  V30 41 1 40 4
M  V30 42 1 41 4
M  V30 43 1 42 5
M  V30 44 1 43 6
M  V30 45 1 44 6
M  V30 46 1 7 45 CFG=1
M  V30 47 1 46 9
M  V30 48 1 47 9
M  V30 49 1 48 10
M  V30 50 1 49 11
M  V30 51 1 50 12
M  V30 52 1 51 12
M  V30 53 1 52 13
M  V30 54 1 53 16
M  V30 55 1 54 17
M  V30 56 1 19 55 CFG=1
M  V30 57 1 56 20
M  V30 58 1 21 57 CFG=3
M  V30 59 1 58 22
M  V30 60 1 59 23
M  V30 61 1 60 23
M  V30 62 1 24 61 CFG=1
M  V30 63 1 62 26
M  V30 64 1 63 26
M  V30 65 1 64 28
M  V30 66 1 65 29
M  V30 67 1 66 29
M  V30 68 1 67 29
M  V30 69 1 68 31
M  V30 70 1 69 31
M  V30 71 1 70 32
M  V30 72 1 18 71 CFG=1
M  V30 END BOND
M  V30 END CTAB
M  END
>  <i_epik_Tot_Q>  (1) 
0

>  <i_epik_Tot_abs_Q>  (1) 
2

>  <i_i_glide_confnum>  (1) 
4783

>  <i_i_glide_lignum>  (1) 
52

>  <i_i_glide_posenum>  (1) 
289

>  <i_i_glide_rotatable_bonds>  (1) 
16

>  <i_lp_mmshare_version>  (1) 
72125

>  <i_m_source_file_index>  (1) 
20

>  <i_f3d_flags>  (1) 
0

>  <num_sample>  (1) 
100

>  <b_lp_Chiralities_Consistent>  (1) 
1

>  <r_epik_Charging_Adjusted_Penalty>  (1) 
0.015037487925518506

>  <r_epik_Ionization_Penalty>  (1) 
0.015045499532085388

>  <r_epik_Ionization_Penalty_Charging>  (1) 
0.0012943130925640431

>  <r_epik_Ionization_Penalty_Neutral>  (1) 
0.013751186439521345

>  <r_epik_State_Penalty>  (1) 
0.013743174832954463

>  <r_glide_ring_energy>  (1) 
0

>  <r_i_docking_score>  (1) 
-7.5318659378535546

>  <r_i_glide_ecoul>  (1) 
-8.273111528944975

>  <r_i_glide_eff_state_penalty>  (1) 
0.013743174832954463

>  <r_i_glide_einternal>  (1) 
14.27087349571975

>  <r_i_glide_emodel>  (1) 
-66.366892777383583

>  <r_i_glide_emodel_strain>  (1) 
3.8883047301037976

>  <r_i_glide_energy>  (1) 
-51.546198882056721

>  <r_i_glide_erotb>  (1) 
1.1084889849388277

>  <r_i_glide_esite>  (1) 
-0.049385067417106812

>  <r_i_glide_evdw>  (1) 
-43.273087353111748

>  <r_i_glide_gscore>  (1) 
-7.5456091126865088

>  <r_i_glide_gscore_strain>  (1) 
0

>  <r_i_glide_hbond>  (1) 
-0.44916617551043286

>  <r_i_glide_ligand_efficiency>  (1) 
-0.23537081055792358

>  <r_i_glide_ligand_efficiency_ln>  (1) 
-1.6865900943966621

>  <r_i_glide_ligand_efficiency_sa>  (1) 
-0.74725574456451149

>  <r_i_glide_lipo>  (1) 
-3.6427747491975695

>  <r_i_glide_metal>  (1) 
-0

>  <r_i_glide_rewards>  (1) 
-1.1081510085028943

>  <r_lp_Energy>  (1) 
25.908189

>  <s_epik_cmdline>  (1) 
J2VwaWtfcHl0aG9uJywgJy1waHQnLCAnMS4wJywgJy1waCcsICc3LjQnLCAnLXRuJywgJzgnLCAnLW1hJywgJzUwMCcsICctaW1hZScsICc8aW5maWxlLm1hZT4nLCAnLW9tYWUnLCAnPG91dGZpbGUubWFlPic=

>  <s_epik_input>  (1) 
W0NIM11bQ0BIXTFbQ0gyXVtDSF09W0NIXVtDSF09QzFbQ0gyXVtDQEhdKEMoPU8pW09IXSlbQ0gyXU4oW0NIMl1bQ0gyXVtDSDJdW0NIM10pW0NIMl1bQ0BIXShbT0hdKVtDSDJdW0NASF0oW09IXSlDKFtDSDJdMik9W0NIXVtDSF09W0NIXVtDSF09QzJbT0hd

>  <s_glide_docking_method>  (1) 
confgen

>  <s_i_glide_gridfile>  (1) 
gpcr_5ht2c_6bqh_protein_autoprepared_prepared

>  <s_lp_Force_Field>  (1) 
S-OPLS

>  <s_lp_Variant>  (1) 
DiffSBDD_19_num_sample_100-4

>  <s_m_source_file>  (1) 
generated__ligand_DiffSBDD_2026-05-06_prepared.sdf

>  <GenAI_Model>  (1) 
DiffSBDD

>  <Protein>  (1) 
GPCR_5HT2C

$$$$
DiffSBDD_63_num_sample_100
     RDKit          3D

  0  0  0  0  0  0  0  0  0  0999 V3000
M  V30 BEGIN CTAB
M  V30 COUNTS 66 69 0 0 1
M  V30 BEGIN ATOM
M  V30 1 C 39.202780 28.733082 59.064195 0
M  V30 2 O 41.841655 31.240711 62.537148 0
M  V30 3 C 40.664895 31.872595 62.093816 0 CFG=2
M  V30 4 O 40.593303 30.650706 66.515626 0
M  V30 5 C 38.224968 30.018739 57.107013 0
M  V30 6 C 40.442928 29.532133 65.662690 0
M  V30 7 C 41.493871 35.450735 63.109248 0
M  V30 8 C 41.834702 30.824905 63.900836 0 CFG=1
M  V30 9 F 40.956783 30.038882 50.864883 0
M  V30 10 C 40.075282 29.709737 51.825458 0
M  V30 11 C 39.029894 30.667372 53.914293 0
M  V30 12 S 37.094285 30.021377 55.667043 0
M  V30 13 C 37.681177 30.994727 58.165328 0
M  V30 14 C 41.676189 34.008669 62.596403 0
M  V30 15 N 40.453364 33.212097 62.685012 0
M  V30 16 O 40.513325 36.088149 62.305473 0
M  V30 17 C 39.867319 30.695938 52.858065 0
M  V30 18 C 39.260555 35.429864 62.412925 0
M  V30 19 F 37.067401 27.585372 54.274097 0
M  V30 20 C 37.949326 28.409454 53.692810 0
M  V30 21 C 39.497876 28.508598 51.711236 0
M  V30 22 C 39.496174 30.859250 62.277517 0 CFG=2
M  V30 23 C 40.649993 29.873456 64.165005 0 CFG=2
M  V30 24 C 38.341406 28.641561 57.782283 0
M  V30 25 C 39.393781 33.951368 61.979866 0
M  V30 26 C 43.207965 30.221909 64.263822 0
M  V30 27 C 38.522541 31.020651 59.447427 0
M  V30 28 O 39.456451 30.432737 63.638517 0
M  V30 29 O 43.360734 28.874994 63.853498 0
M  V30 30 F 39.063713 31.767762 54.686272 0
M  V30 31 N 38.720144 29.702504 60.063653 0
M  V30 32 N 38.138748 29.658410 54.302966 0
M  V30 33 C 38.528710 27.909202 52.587832 0
M  V30 34 F 39.867380 27.770345 50.653463 0
M  V30 35 C 39.631589 29.709054 61.232026 0
M  V30 36 H 40.221922 28.991471 58.771890 0
M  V30 37 H 39.263120 27.743823 59.519739 0
M  V30 38 H 40.829628 32.025298 61.026680 0
M  V30 39 H 40.402594 30.375225 67.399605 0
M  V30 40 H 39.211390 30.355017 56.790192 0
M  V30 41 H 39.467401 29.088505 65.853501 0
M  V30 42 H 41.183269 28.791929 65.966947 0
M  V30 43 H 41.193082 35.454854 64.158405 0
M  V30 44 H 42.420567 36.021225 63.053402 0
M  V30 45 H 41.714237 31.729280 64.498766 0
M  V30 46 H 37.611153 32.000352 57.748333 0
M  V30 47 H 36.666446 30.704194 58.431591 0
M  V30 48 H 42.472357 33.536899 63.171829 0
M  V30 49 H 42.010720 34.027354 61.558337 0
M  V30 50 H 40.458016 31.593091 52.760909 0
M  V30 51 H 38.910500 35.527036 63.439659 0
M  V30 52 H 38.535313 35.943320 61.782121 0
M  V30 53 H 38.542465 31.357191 62.133208 0
M  V30 54 H 40.803101 28.935275 63.632182 0
M  V30 55 H 38.779166 27.922734 57.088823 0
M  V30 56 H 37.348931 28.267427 58.034662 0
M  V30 57 H 39.583730 33.927585 60.905807 0
M  V30 58 H 38.429313 33.469579 62.130204 0
M  V30 59 H 43.330673 30.239036 65.347016 0
M  V30 60 H 44.013404 30.821424 63.853506 0
M  V30 61 H 38.011142 31.686072 60.141430 0
M  V30 62 H 39.467403 31.490296 59.235911 0
M  V30 63 H 43.467264 28.837691 62.912354 0
M  V30 64 H 38.211823 26.913074 52.310634 0
M  V30 65 H 40.665969 29.673616 60.888672 0
M  V30 66 H 39.483374 28.764851 61.756050 0
M  V30 END ATOM
M  V30 BEGIN BOND
M  V30 1 1 3 2
M  V30 2 1 6 4
M  V30 3 1 8 2
M  V30 4 1 10 9
M  V30 5 1 12 5
M  V30 6 1 13 5
M  V30 7 1 14 7
M  V30 8 1 15 3
M  V30 9 1 15 14
M  V30 10 1 16 7
M  V30 11 1 17 10
M  V30 12 2 17 11
M  V30 13 1 18 16
M  V30 14 1 20 19
M  V30 15 2 21 10
M  V30 16 1 22 3
M  V30 17 1 23 6
M  V30 18 1 23 8
M  V30 19 1 24 1
M  V30 20 1 24 5
M  V30 21 1 25 15
M  V30 22 1 25 18
M  V30 23 1 26 8
M  V30 24 1 27 13
M  V30 25 1 28 22
M  V30 26 1 28 23
M  V30 27 1 29 26
M  V30 28 1 30 11
M  V30 29 1 31 1
M  V30 30 1 31 27
M  V30 31 1 32 11
M  V30 32 1 32 12
M  V30 33 1 32 20
M  V30 34 2 33 20
M  V30 35 1 33 21
M  V30 36 1 34 21
M  V30 37 1 35 22
M  V30 38 1 35 31
M  V30 39 1 36 1
M  V30 40 1 37 1
M  V30 41 1 3 38 CFG=3
M  V30 42 1 39 4
M  V30 43 1 40 5
M  V30 44 1 41 6
M  V30 45 1 42 6
M  V30 46 1 43 7
M  V30 47 1 44 7
M  V30 48 1 8 45 CFG=1
M  V30 49 1 46 13
M  V30 50 1 47 13
M  V30 51 1 48 14
M  V30 52 1 49 14
M  V30 53 1 50 17
M  V30 54 1 51 18
M  V30 55 1 52 18
M  V30 56 1 22 53 CFG=3
M  V30 57 1 23 54 CFG=3
M  V30 58 1 55 24
M  V30 59 1 56 24
M  V30 60 1 57 25
M  V30 61 1 58 25
M  V30 62 1 59 26
M  V30 63 1 60 26
M  V30 64 1 61 27
M  V30 65 1 62 27
M  V30 66 1 63 29
M  V30 67 1 64 33
M  V30 68 1 65 35
M  V30 69 1 66 35
M  V30 END BOND
M  V30 END CTAB
M  END
>  <i_epik_Tot_Q>  (1) 
0

>  <i_epik_Tot_abs_Q>  (1) 
0

>  <i_i_glide_confnum>  (1) 
492

>  <i_i_glide_lignum>  (1) 
160

>  <i_i_glide_posenum>  (1) 
261

>  <i_i_glide_rotatable_bonds>  (1) 
9

>  <i_lp_mmshare_version>  (1) 
72125

>  <i_m_source_file_index>  (1) 
64

>  <i_f3d_flags>  (1) 
0

>  <num_sample>  (1) 
100

>  <b_lp_Chiralities_Consistent>  (1) 
1

>  <r_epik_Charging_Adjusted_Penalty>  (1) 
0.48877855165897433

>  <r_epik_Ionization_Penalty>  (1) 
0.48879775138492404

>  <r_epik_Ionization_Penalty_Charging>  (1) 
0

>  <r_epik_Ionization_Penalty_Neutral>  (1) 
0.48879775138492404

>  <r_epik_State_Penalty>  (1) 
0.48877855165897433

>  <r_glide_ring_energy>  (1) 
0.0045149093831275133

>  <r_i_docking_score>  (1) 
-7.5178946124669661

>  <r_i_glide_ecoul>  (1) 
-2.4970169846117858

>  <r_i_glide_eff_state_penalty>  (1) 
0.48877855165897433

>  <r_i_glide_einternal>  (1) 
14.495261371391884

>  <r_i_glide_emodel>  (1) 
-53.986494703592413

>  <r_i_glide_emodel_strain>  (1) 
0.91899980340200216

>  <r_i_glide_energy>  (1) 
-45.418775450469461

>  <r_i_glide_erotb>  (1) 
0.52162944545335954

>  <r_i_glide_esite>  (1) 
0

>  <r_i_glide_evdw>  (1) 
-42.921758465857678

>  <r_i_glide_gscore>  (1) 
-8.0066731641259405

>  <r_i_glide_gscore_strain>  (1) 
0

>  <r_i_glide_hbond>  (1) 
-0.39915694001724605

>  <r_i_glide_ligand_efficiency>  (1) 
-0.21479698892762761

>  <r_i_glide_ligand_efficiency_ln>  (1) 
-1.650344718117746

>  <r_i_glide_ligand_efficiency_sa>  (1) 
-0.70261519401111427

>  <r_i_glide_lipo>  (1) 
-3.3326419522064024

>  <r_i_glide_metal>  (1) 
-0

>  <r_i_glide_rewards>  (1) 
-2.2758632463710007

>  <r_lp_Energy>  (1) 
32.449697999999998

>  <s_epik_Chemistry_Notes>  (1) 
This compound contains an acetal/aminal-like group ( X-CH(R)-Y where X, Y are N, S, or O) that may be acid/base labile, releasing an aldehyde. This compound has a N-S or N-O group and may undergo hydrolysis at high or low pH.

>  <s_epik_cmdline>  (1) 
J2VwaWtfcHl0aG9uJywgJy1waHQnLCAnMS4wJywgJy1waCcsICc3LjQnLCAnLXRuJywgJzgnLCAnLW1hJywgJzUwMCcsICctaW1hZScsICc8aW5maWxlLm1hZT4nLCAnLW9tYWUnLCAnPG91dGZpbGUubWFlPic=

>  <s_epik_input>  (1) 
RkMxPUMoRilbQ0hdPUMoRilOKEMoRik9W0NIXTEpU1tDSF0yW0NIMl1bQ0gyXU4oW0NIMl1bQ0gyXTIpW0NIMl1bQ0BIXTNPW0NASF0oW0NIMl1bT0hdKVtDQEBIXShbQ0gyXVtPSF0pT1tDQEBIXTNONFtDSDJdW0NIMl1PW0NIMl1bQ0gyXTQ=

>  <s_glide_docking_method>  (1) 
confgen

>  <s_i_glide_gridfile>  (1) 
gpcr_5ht2c_6bqh_protein_autoprepared_prepared

>  <s_lp_Force_Field>  (1) 
S-OPLS

>  <s_lp_Variant>  (1) 
DiffSBDD_63_num_sample_100-3

>  <s_m_source_file>  (1) 
generated__ligand_DiffSBDD_2026-05-06_prepared.sdf

>  <GenAI_Model>  (1) 
DiffSBDD

>  <Protein>  (1) 
GPCR_5HT2C

$$$$
DiffSBDD_64_num_sample_100
     RDKit          3D

  0  0  0  0  0  0  0  0  0  0999 V3000
M  V30 BEGIN CTAB
M  V30 COUNTS 67 69 0 0 1
M  V30 BEGIN ATOM
M  V30 1 C 39.883725 30.112336 52.263120 0
M  V30 2 C 38.252256 28.049524 53.102842 0
M  V30 3 C 41.294015 33.076584 63.232583 0
M  V30 4 C 37.867378 30.775001 57.009102 0
M  V30 5 C 37.686347 32.859741 58.347862 0
M  V30 6 O 39.867411 37.799997 62.653500 0
M  V30 7 N 38.663629 29.008496 54.051039 0
M  V30 8 C 39.837696 35.444151 62.651889 0
M  V30 9 O 39.866141 29.221493 50.119083 0
M  V30 10 C 41.076609 35.493093 63.353059 0
M  V30 11 C 39.334433 34.157875 62.202896 0
M  V30 12 C 36.516965 34.464263 59.856298 0
M  V30 13 O 39.856686 30.914295 54.522136 0
M  V30 14 C 40.084868 32.986172 62.527319 0
M  V30 15 C 39.484384 30.079405 53.698694 0
M  V30 16 C 37.493806 30.096784 55.946854 0
M  V30 17 C 38.629921 28.112564 51.835295 0
M  V30 18 C 39.027483 27.715317 57.704645 0
M  V30 19 C 38.467298 26.290013 57.568739 0
M  V30 20 C 37.679247 35.120492 60.600050 0
M  V30 21 C 39.404700 28.330574 56.335171 0
M  V30 22 N 38.100438 34.022066 61.453486 0
M  V30 23 C 37.848935 32.705823 60.890094 0
M  V30 24 C 41.788559 34.319253 63.636153 0
M  V30 25 C 37.944031 36.741357 63.317059 0
M  V30 26 C 38.277248 31.499233 58.022526 0
M  V30 27 C 38.218346 28.835238 55.457111 0 CFG=2
M  V30 28 C 35.672638 32.070467 59.756513 0
M  V30 29 C 40.236339 27.723728 58.652950 0
M  V30 30 C 39.473075 29.166399 51.397320 0
M  V30 31 N 39.108401 36.646525 62.435653 0
M  V30 32 C 36.916211 32.979383 59.689996 0 CFG=2
M  V30 33 H 40.524678 30.909967 51.915786 0
M  V30 34 H 39.383774 28.563429 49.641968 0
M  V30 35 H 37.616113 27.271785 53.499162 0
M  V30 36 H 41.847335 32.178869 63.464369 0
M  V30 37 H 38.527496 33.553442 58.355014 0
M  V30 38 H 37.067225 33.197764 57.517320 0
M  V30 39 H 40.185357 37.745426 63.545494 0
M  V30 40 H 41.473768 36.432087 63.693173 0
M  V30 41 H 36.287705 34.964700 58.914734 0
M  V30 42 H 35.621692 34.536364 60.476337 0
M  V30 43 H 39.733725 32.012166 62.234092 0
M  V30 44 H 36.647729 30.420968 55.358252 0
M  V30 45 H 38.296917 27.358047 51.136133 0
M  V30 46 H 38.255153 28.323668 58.174231 0
M  V30 47 H 39.190246 25.624562 57.095495 0
M  V30 48 H 38.230019 25.872427 58.547676 0
M  V30 49 H 37.553338 26.271253 56.975361 0
M  V30 50 H 37.260723 36.005242 61.063279 0
M  V30 51 H 38.480264 35.407990 59.920065 0
M  V30 52 H 39.971926 27.584146 55.776794 0
M  V30 53 H 40.106373 29.151350 56.487994 0
M  V30 54 H 37.383885 32.062817 61.638299 0
M  V30 55 H 38.750293 32.223135 60.521277 0
M  V30 56 H 42.720719 34.375176 64.178190 0
M  V30 57 H 37.165744 36.021424 63.093253 0
M  V30 58 H 38.232515 36.615118 64.361803 0
M  V30 59 H 37.467585 37.714339 63.218299 0
M  V30 60 H 39.067429 31.151213 58.665314 0
M  V30 61 H 37.467540 28.050795 55.476027 0
M  V30 62 H 35.212145 32.099248 60.744493 0
M  V30 63 H 34.907192 32.393907 59.053506 0
M  V30 64 H 35.915622 31.031261 59.535170 0
M  V30 65 H 41.060517 27.132343 58.250744 0
M  V30 66 H 40.602112 28.737868 58.817373 0
M  V30 67 H 39.974255 27.313323 59.628339 0
M  V30 END ATOM
M  V30 BEGIN BOND
M  V30 1 1 7 2
M  V30 2 2 10 8
M  V30 3 1 11 8
M  V30 4 1 14 3
M  V30 5 2 14 11
M  V30 6 1 15 1
M  V30 7 1 15 7
M  V30 8 2 15 13
M  V30 9 2 16 4
M  V30 10 2 17 2
M  V30 11 1 19 18
M  V30 12 1 20 12
M  V30 13 1 21 18
M  V30 14 1 22 11
M  V30 15 1 22 20
M  V30 16 1 23 22
M  V30 17 2 24 3
M  V30 18 1 24 10
M  V30 19 2 26 4
M  V30 20 1 26 5
M  V30 21 1 27 7
M  V30 22 1 27 16
M  V30 23 1 27 21
M  V30 24 1 29 18
M  V30 25 2 30 1
M  V30 26 1 30 9
M  V30 27 1 30 17
M  V30 28 1 31 6
M  V30 29 1 31 8
M  V30 30 1 31 25
M  V30 31 1 32 5 CFG=3
M  V30 32 1 32 12
M  V30 33 1 32 23
M  V30 34 1 32 28
M  V30 35 1 33 1
M  V30 36 1 34 9
M  V30 37 1 35 2
M  V30 38 1 36 3
M  V30 39 1 37 5
M  V30 40 1 38 5
M  V30 41 1 39 6
M  V30 42 1 40 10
M  V30 43 1 41 12
M  V30 44 1 42 12
M  V30 45 1 43 14
M  V30 46 1 44 16
M  V30 47 1 45 17
M  V30 48 1 46 18
M  V30 49 1 47 19
M  V30 50 1 48 19
M  V30 51 1 49 19
M  V30 52 1 50 20
M  V30 53 1 51 20
M  V30 54 1 52 21
M  V30 55 1 53 21
M  V30 56 1 54 23
M  V30 57 1 55 23
M  V30 58 1 56 24
M  V30 59 1 57 25
M  V30 60 1 58 25
M  V30 61 1 59 25
M  V30 62 1 60 26
M  V30 63 1 27 61 CFG=3
M  V30 64 1 62 28
M  V30 65 1 63 28
M  V30 66 1 64 28
M  V30 67 1 65 29
M  V30 68 1 66 29
M  V30 69 1 67 29
M  V30 END BOND
M  V30 END CTAB
M  END
>  <i_epik_Tot_Q>  (1) 
0

>  <i_epik_Tot_abs_Q>  (1) 
0

>  <i_i_glide_confnum>  (1) 
249

>  <i_i_glide_lignum>  (1) 
162

>  <i_i_glide_posenum>  (1) 
119

>  <i_i_glide_rotatable_bonds>  (1) 
10

>  <i_lp_mmshare_version>  (1) 
72125

>  <i_m_source_file_index>  (1) 
65

>  <i_f3d_flags>  (1) 
0

>  <num_sample>  (1) 
100

>  <b_lp_Chiralities_Consistent>  (1) 
1

>  <r_epik_Charging_Adjusted_Penalty>  (1) 
0.62675424586451389

>  <r_epik_Ionization_Penalty>  (1) 
0.6271712436186877

>  <r_epik_Ionization_Penalty_Charging>  (1) 
1.6245979767145579e-07

>  <r_epik_Ionization_Penalty_Neutral>  (1) 
0.62717108115888998

>  <r_epik_State_Penalty>  (1) 
0.62675408340471617

>  <r_glide_ring_energy>  (1) 
0

>  <r_i_docking_score>  (1) 
-7.5156833948794191

>  <r_i_glide_ecoul>  (1) 
-3.3605969338695401

>  <r_i_glide_eff_state_penalty>  (1) 
0.62675408340471617

>  <r_i_glide_einternal>  (1) 
15.511681070293211

>  <r_i_glide_emodel>  (1) 
-61.516161394980614

>  <r_i_glide_emodel_strain>  (1) 
0.31021998743152324

>  <r_i_glide_energy>  (1) 
-49.900181245187362

>  <r_i_glide_erotb>  (1) 
0.72903887146802748

>  <r_i_glide_esite>  (1) 
0

>  <r_i_glide_evdw>  (1) 
-46.539584311317824

>  <r_i_glide_gscore>  (1) 
-8.1424374782841351

>  <r_i_glide_gscore_strain>  (1) 
0

>  <r_i_glide_hbond>  (1) 
-0.11429294882603355

>  <r_i_glide_ligand_efficiency>  (1) 
-0.23486510608998185

>  <r_i_glide_ligand_efficiency_ln>  (1) 
-1.682966381905292

>  <r_i_glide_ligand_efficiency_sa>  (1) 
-0.74565023295571997

>  <r_i_glide_lipo>  (1) 
-4.1440924926373173

>  <r_i_glide_metal>  (1) 
-0

>  <r_i_glide_rewards>  (1) 
-1.7820221526424911

>  <r_lp_Energy>  (1) 
25.450896

>  <r_lp_tautomer_probability>  (1) 
0.99998436711719629

>  <s_epik_Chemistry_Notes>  (1) 
This compound has a N-S or N-O group and may undergo hydrolysis at high or low pH.

>  <s_epik_cmdline>  (1) 
J2VwaWtfcHl0aG9uJywgJy1waHQnLCAnMS4wJywgJy1waCcsICc3LjQnLCAnLXRuJywgJzgnLCAnLW1hJywgJzUwMCcsICctaW1hZScsICc8aW5maWxlLm1hZT4nLCAnLW9tYWUnLCAnPG91dGZpbGUubWFlPic=

>  <s_epik_input>  (1) 
Tz1DMVtDSDJdQyg9TylbQ0hdPVtDSF1OMVtDQEBIXShbQ0gyXVtDSF0oW0NIM10pW0NIM10pW0NIXT1DPVtDSF1bQ0gyXVtDQF0yKFtDSDNdKVtDSDJdW0NIMl1OKFtDSDJdMiljM1tjSF1bY0hdW2NIXVtjSF1jM04oW09IXSlbQ0gzXQ==

>  <s_glide_docking_method>  (1) 
confgen

>  <s_i_glide_gridfile>  (1) 
gpcr_5ht2c_6bqh_protein_autoprepared_prepared

>  <s_lp_Force_Field>  (1) 
S-OPLS

>  <s_lp_Variant>  (1) 
DiffSBDD_64_num_sample_100-2

>  <s_m_source_file>  (1) 
generated__ligand_DiffSBDD_2026-05-06_prepared.sdf

>  <GenAI_Model>  (1) 
DiffSBDD

>  <Protein>  (1) 
GPCR_5HT2C

$$$$
DiffSBDD_63_num_sample_100
     RDKit          3D

  0  0  0  0  0  0  0  0  0  0999 V3000
M  V30 BEGIN CTAB
M  V30 COUNTS 67 70 0 0 1
M  V30 BEGIN ATOM
M  V30 1 C 38.583298 32.034188 60.211710 0
M  V30 2 O 37.822536 28.010577 57.184046 0
M  V30 3 C 37.818217 29.253228 56.533610 0 CFG=2
M  V30 4 O 41.067343 28.421508 60.576571 0
M  V30 5 C 37.834473 34.410244 60.810172 0 CFG=1
M  V30 6 C 41.023475 28.315692 59.168362 0
M  V30 7 C 38.762298 27.973295 53.075119 0
M  V30 8 C 39.110081 27.556583 57.607683 0 CFG=1
M  V30 9 F 41.975446 35.620027 65.707046 0
M  V30 10 C 40.985738 35.919551 64.847348 0
M  V30 11 C 40.464788 35.830308 62.382481 0
M  V30 12 S 38.345961 36.167654 60.778810 0
M  V30 13 C 36.619693 34.169280 59.886939 0
M  V30 14 C 37.973500 28.156368 54.381755 0
M  V30 15 N 38.567427 29.167394 55.262274 0
M  V30 16 O 38.876898 29.222012 52.403322 0
M  V30 17 C 41.267830 35.687787 63.451452 0
M  V30 18 C 39.451446 30.252615 53.207250 0
M  V30 19 F 37.125058 37.178925 63.076716 0
M  V30 20 C 38.355612 36.734602 63.391729 0
M  V30 21 C 39.867350 36.421108 65.383713 0
M  V30 22 C 38.317347 30.285034 57.576770 0 CFG=2
M  V30 23 C 39.582222 28.555728 58.680403 0 CFG=2
M  V30 24 C 39.007044 33.492427 60.405131 0
M  V30 25 C 38.651225 30.422449 54.513179 0
M  V30 26 C 38.926929 26.123647 58.146292 0
M  V30 27 C 36.288128 32.667497 59.729530 0
M  V30 28 O 39.565042 29.861272 58.109013 0
M  V30 29 O 39.041845 25.181084 57.098147 0
M  V30 30 F 41.043155 35.535506 61.204403 0
M  V30 31 N 37.485203 31.953489 59.220222 0 CFG=2 CHG=1
M  V30 32 N 39.123993 36.229652 62.339224 0
M  V30 33 C 38.666942 36.821566 64.699009 0
M  V30 34 F 39.858989 36.561536 66.720972 0
M  V30 35 C 37.267259 30.581772 58.687620 0
M  V30 36 H 38.263567 31.595469 61.158657 0
M  V30 37 H 39.453480 31.464685 59.894153 0
M  V30 38 H 36.793653 29.536314 56.284094 0
M  V30 39 H 41.898385 28.058798 60.867141 0
M  V30 40 H 37.531673 34.164679 61.828802 0
M  V30 41 H 41.385027 27.327649 58.888028 0
M  V30 42 H 41.720862 29.026665 58.722597 0
M  V30 43 H 39.750446 27.558960 53.273846 0
M  V30 44 H 38.251158 27.266110 52.420972 0
M  V30 45 H 39.830707 27.543627 56.787895 0
M  V30 46 H 36.818627 34.595998 58.902215 0
M  V30 47 H 35.749750 34.699767 60.275462 0
M  V30 48 H 37.918038 27.192816 54.889906 0
M  V30 49 H 36.947069 28.434323 54.139926 0
M  V30 50 H 42.267325 35.352240 63.235797 0
M  V30 51 H 40.490821 30.021567 53.432332 0
M  V30 52 H 39.467426 31.186160 52.644435 0
M  V30 53 H 38.483385 31.225466 57.056246 0
M  V30 54 H 38.901981 28.492661 59.529508 0
M  V30 55 H 39.465609 33.860647 59.485730 0
M  V30 56 H 39.781033 33.505729 61.169753 0
M  V30 57 H 37.649340 30.792198 54.287556 0
M  V30 58 H 39.150241 31.191871 55.098590 0
M  V30 59 H 37.967909 26.013776 58.652338 0
M  V30 60 H 39.692360 25.876690 58.879617 0
M  V30 61 H 35.443544 32.552672 59.053533 0
M  V30 62 H 35.974736 32.239906 60.682814 0
M  V30 63 H 39.907072 25.247306 56.721004 0
M  V30 64 H 37.894752 37.226239 65.330852 0
M  V30 65 H 36.269769 30.505124 58.258640 0
M  V30 66 H 37.263614 29.853510 59.496322 0
M  V30 67 H 37.767490 32.488905 58.410607 0
M  V30 END ATOM
M  V30 BEGIN BOND
M  V30 1 1 3 2
M  V30 2 1 6 4
M  V30 3 1 8 2
M  V30 4 1 10 9
M  V30 5 1 12 5
M  V30 6 1 13 5
M  V30 7 1 14 7
M  V30 8 1 15 3
M  V30 9 1 15 14
M  V30 10 1 16 7
M  V30 11 1 17 10
M  V30 12 2 17 11
M  V30 13 1 18 16
M  V30 14 1 20 19
M  V30 15 2 21 10
M  V30 16 1 22 3
M  V30 17 1 23 6
M  V30 18 1 23 8
M  V30 19 1 24 1
M  V30 20 1 24 5
M  V30 21 1 25 15
M  V30 22 1 25 18
M  V30 23 1 26 8
M  V30 24 1 27 13
M  V30 25 1 28 22
M  V30 26 1 28 23
M  V30 27 1 29 26
M  V30 28 1 30 11
M  V30 29 1 31 1
M  V30 30 1 31 27
M  V30 31 1 32 11
M  V30 32 1 32 12
M  V30 33 1 32 20
M  V30 34 2 33 20
M  V30 35 1 33 21
M  V30 36 1 34 21
M  V30 37 1 35 22
M  V30 38 1 35 31
M  V30 39 1 36 1
M  V30 40 1 37 1
M  V30 41 1 3 38 CFG=3
M  V30 42 1 39 4
M  V30 43 1 5 40 CFG=1
M  V30 44 1 41 6
M  V30 45 1 42 6
M  V30 46 1 43 7
M  V30 47 1 44 7
M  V30 48 1 8 45 CFG=3
M  V30 49 1 46 13
M  V30 50 1 47 13
M  V30 51 1 48 14
M  V30 52 1 49 14
M  V30 53 1 50 17
M  V30 54 1 51 18
M  V30 55 1 52 18
M  V30 56 1 22 53 CFG=3
M  V30 57 1 23 54 CFG=1
M  V30 58 1 55 24
M  V30 59 1 56 24
M  V30 60 1 57 25
M  V30 61 1 58 25
M  V30 62 1 59 26
M  V30 63 1 60 26
M  V30 64 1 61 27
M  V30 65 1 62 27
M  V30 66 1 63 29
M  V30 67 1 64 33
M  V30 68 1 65 35
M  V30 69 1 66 35
M  V30 70 1 31 67 CFG=3
M  V30 END BOND
M  V30 END CTAB
M  END
>  <i_epik_Tot_Q>  (1) 
1

>  <i_epik_Tot_abs_Q>  (1) 
1

>  <i_i_glide_confnum>  (1) 
212

>  <i_i_glide_lignum>  (1) 
158

>  <i_i_glide_posenum>  (1) 
271

>  <i_i_glide_rotatable_bonds>  (1) 
9

>  <i_lp_mmshare_version>  (1) 
72125

>  <i_m_source_file_index>  (1) 
64

>  <i_f3d_flags>  (1) 
0

>  <num_sample>  (1) 
100

>  <b_lp_Chiralities_Consistent>  (1) 
1

>  <r_epik_Charging_Adjusted_Penalty>  (1) 
0.6833741402111444

>  <r_epik_Ionization_Penalty>  (1) 
0.34168859396029116

>  <r_epik_Ionization_Penalty_Charging>  (1) 
0.34168707010557214

>  <r_epik_Ionization_Penalty_Neutral>  (1) 
1.5238547190056168e-06

>  <r_epik_State_Penalty>  (1) 
0.3416870701055722

>  <r_glide_ring_energy>  (1) 
0.0045149093831275133

>  <r_i_docking_score>  (1) 
-7.4979212348618951

>  <r_i_glide_ecoul>  (1) 
-6.3119255081283017

>  <r_i_glide_eff_state_penalty>  (1) 
0.3416870701055722

>  <r_i_glide_einternal>  (1) 
7.6196032159963103

>  <r_i_glide_emodel>  (1) 
-58.311823018845786

>  <r_i_glide_emodel_strain>  (1) 
0.76228344169209095

>  <r_i_glide_energy>  (1) 
-44.073885554873527

>  <r_i_glide_erotb>  (1) 
0.51979340436673749

>  <r_i_glide_esite>  (1) 
-0.13293026310326089

>  <r_i_glide_evdw>  (1) 
-37.761960046745223

>  <r_i_glide_gscore>  (1) 
-7.8396083049674674

>  <r_i_glide_gscore_strain>  (1) 
0

>  <r_i_glide_hbond>  (1) 
-0.34512741312731993

>  <r_i_glide_ligand_efficiency>  (1) 
-0.21422632099605415

>  <r_i_glide_ligand_efficiency_ln>  (1) 
-1.6459601184482004

>  <r_i_glide_ligand_efficiency_sa>  (1) 
-0.70074850136583933

>  <r_i_glide_lipo>  (1) 
-3.1217888657441977

>  <r_i_glide_metal>  (1) 
-0

>  <r_i_glide_rewards>  (1) 
-1.92466833880292

>  <r_lp_Energy>  (1) 
44.144219

>  <s_epik_Chemistry_Notes>  (1) 
This compound contains an acetal/aminal-like group ( X-CH(R)-Y where X, Y are N, S, or O) that may be acid/base labile, releasing an aldehyde. This compound has a N-S or N-O group and may undergo hydrolysis at high or low pH.

>  <s_epik_cmdline>  (1) 
J2VwaWtfcHl0aG9uJywgJy1waHQnLCAnMS4wJywgJy1waCcsICc3LjQnLCAnLXRuJywgJzgnLCAnLW1hJywgJzUwMCcsICctaW1hZScsICc8aW5maWxlLm1hZT4nLCAnLW9tYWUnLCAnPG91dGZpbGUubWFlPic=

>  <s_epik_input>  (1) 
RkMxPUMoRilbQ0hdPUMoRilOKEMoRik9W0NIXTEpU1tDSF0yW0NIMl1bQ0gyXU4oW0NIMl1bQ0gyXTIpW0NIMl1bQ0BIXTNPW0NASF0oW0NIMl1bT0hdKVtDQEBIXShbQ0gyXVtPSF0pT1tDQEBIXTNONFtDSDJdW0NIMl1PW0NIMl1bQ0gyXTQ=

>  <s_glide_docking_method>  (1) 
confgen

>  <s_i_glide_gridfile>  (1) 
gpcr_5ht2c_6bqh_protein_autoprepared_prepared

>  <s_lp_Force_Field>  (1) 
S-OPLS

>  <s_lp_Variant>  (1) 
DiffSBDD_63_num_sample_100-1

>  <s_m_source_file>  (1) 
generated__ligand_DiffSBDD_2026-05-06_prepared.sdf

>  <GenAI_Model>  (1) 
DiffSBDD

>  <Protein>  (1) 
GPCR_5HT2C

$$$$
DiffSBDD_59_num_sample_100
     RDKit          3D

  0  0  0  0  0  0  0  0  0  0999 V3000
M  V30 BEGIN CTAB
M  V30 COUNTS 54 55 0 0 1
M  V30 BEGIN ATOM
M  V30 1 O 35.467461 37.221438 64.696714 0
M  V30 2 N 38.482222 30.503444 56.634664 0 CFG=2 CHG=1
M  V30 3 C 39.681759 30.041684 53.394510 0
M  V30 4 C 38.215126 31.865159 56.085148 0
M  V30 5 C 36.664996 36.648309 62.697687 0
M  V30 6 C 38.335383 27.622459 52.869723 0
M  V30 7 C 38.555448 28.018756 54.204594 0
M  V30 8 C 39.235989 29.246625 54.477294 0
M  V30 9 C 37.067439 34.986566 59.639036 0
M  V30 10 C 37.725550 32.795157 58.453104 0
M  V30 11 Cl 38.004350 26.997300 55.482099 0
M  V30 12 C 38.487130 32.973897 57.127946 0
M  V30 13 O 35.879242 35.307899 59.053501 0
M  V30 14 N 37.594990 35.770168 60.624903 0
M  V30 15 N 38.778536 35.281415 61.061393 0
M  V30 16 C 35.766823 37.679870 63.393317 0
M  V30 17 C 37.890911 33.933672 59.411273 0
M  V30 18 C 39.528432 29.713732 55.924237 0 CFG=2
M  V30 19 C 37.251766 29.758213 56.962354 0
M  V30 20 C 37.041366 36.973392 61.234497 0 CFG=2
M  V30 21 C 39.467505 29.622861 52.067941 0
M  V30 22 C 38.961048 34.166935 60.337608 0
M  V30 23 C 37.994159 38.171960 61.100346 0
M  V30 24 C 40.264629 28.719612 56.851671 0
M  V30 25 C 38.792076 28.419926 51.807134 0
M  V30 26 H 35.091129 36.341360 64.653841 0
M  V30 27 H 40.204609 30.968089 53.583299 0
M  V30 28 H 37.197052 31.931340 55.703975 0
M  V30 29 H 38.839678 32.066631 55.215340 0
M  V30 30 H 36.137645 35.692579 62.706271 0
M  V30 31 H 37.569047 36.494843 63.288629 0
M  V30 32 H 37.819574 26.696504 52.661969 0
M  V30 33 H 38.038799 31.870262 58.936605 0
M  V30 34 H 36.667654 32.676991 58.254615 0
M  V30 35 H 38.208266 33.931913 56.686398 0
M  V30 36 H 39.555025 33.031444 57.334111 0
M  V30 37 H 36.263185 38.647175 63.453358 0
M  V30 38 H 34.836162 37.842216 62.852678 0
M  V30 39 H 36.000993 35.313104 58.109306 0
M  V30 40 H 40.284973 30.476030 55.774861 0
M  V30 41 H 36.651697 29.621674 56.064424 0
M  V30 42 H 37.467756 28.790629 57.411247 0
M  V30 43 H 36.667484 30.302489 57.700500 0
M  V30 44 H 36.136517 37.227518 60.684387 0
M  V30 45 H 39.818589 30.232146 51.246341 0
M  V30 46 H 39.846606 33.572715 60.508188 0
M  V30 47 H 37.521871 39.087934 61.453502 0
M  V30 48 H 38.913718 38.021951 61.667540 0
M  V30 49 H 38.266089 38.340312 60.059008 0
M  V30 50 H 41.116571 28.266725 56.343476 0
M  V30 51 H 40.650842 29.223166 57.737821 0
M  V30 52 H 39.638244 27.916245 57.228809 0
M  V30 53 H 38.623658 28.106177 50.786943 0
M  V30 54 H 38.900340 30.693517 57.532493 0
M  V30 END ATOM
M  V30 BEGIN BOND
M  V30 1 1 4 2
M  V30 2 2 7 6
M  V30 3 2 8 3
M  V30 4 1 8 7
M  V30 5 1 11 7
M  V30 6 1 12 4
M  V30 7 1 12 10
M  V30 8 1 13 9
M  V30 9 1 14 9
M  V30 10 1 15 14
M  V30 11 1 16 1
M  V30 12 1 16 5
M  V30 13 2 17 9
M  V30 14 1 17 10
M  V30 15 1 18 2
M  V30 16 1 18 8
M  V30 17 1 19 2
M  V30 18 1 20 5
M  V30 19 1 20 14
M  V30 20 1 21 3
M  V30 21 2 22 15
M  V30 22 1 22 17
M  V30 23 1 23 20
M  V30 24 1 24 18
M  V30 25 1 25 6
M  V30 26 2 25 21
M  V30 27 1 26 1
M  V30 28 1 27 3
M  V30 29 1 28 4
M  V30 30 1 29 4
M  V30 31 1 30 5
M  V30 32 1 31 5
M  V30 33 1 32 6
M  V30 34 1 33 10
M  V30 35 1 34 10
M  V30 36 1 35 12
M  V30 37 1 36 12
M  V30 38 1 37 16
M  V30 39 1 38 16
M  V30 40 1 39 13
M  V30 41 1 18 40 CFG=3
M  V30 42 1 41 19
M  V30 43 1 42 19
M  V30 44 1 43 19
M  V30 45 1 20 44 CFG=3
M  V30 46 1 45 21
M  V30 47 1 46 22
M  V30 48 1 47 23
M  V30 49 1 48 23
M  V30 50 1 49 23
M  V30 51 1 50 24
M  V30 52 1 51 24
M  V30 53 1 52 24
M  V30 54 1 53 25
M  V30 55 1 2 54 CFG=1
M  V30 END BOND
M  V30 END CTAB
M  END
>  <i_epik_Tot_Q>  (1) 
1

>  <i_epik_Tot_abs_Q>  (1) 
1

>  <i_i_glide_confnum>  (1) 
198

>  <i_i_glide_lignum>  (1) 
149

>  <i_i_glide_posenum>  (1) 
393

>  <i_i_glide_rotatable_bonds>  (1) 
11

>  <i_lp_mmshare_version>  (1) 
72125

>  <i_m_source_file_index>  (1) 
60

>  <i_f3d_flags>  (1) 
0

>  <num_sample>  (1) 
100

>  <b_lp_Chiralities_Consistent>  (1) 
1

>  <r_epik_Charging_Adjusted_Penalty>  (1) 
0.34288875783321848

>  <r_epik_Ionization_Penalty>  (1) 
0.16299728195075516

>  <r_epik_Ionization_Penalty_Charging>  (1) 
0.10603582337888565

>  <r_epik_Ionization_Penalty_Neutral>  (1) 
0.05696145857186951

>  <r_epik_State_Penalty>  (1) 
0.23685293445433284

>  <r_glide_ring_energy>  (1) 
0

>  <r_i_docking_score>  (1) 
-7.4952370046080183

>  <r_i_glide_ecoul>  (1) 
-10.820398437854056

>  <r_i_glide_eff_state_penalty>  (1) 
0.23685293445433284

>  <r_i_glide_einternal>  (1) 
5.9158270561550559

>  <r_i_glide_emodel>  (1) 
-65.934472387931805

>  <r_i_glide_emodel_strain>  (1) 
1.1271506995412395

>  <r_i_glide_energy>  (1) 
-42.916400462521167

>  <r_i_glide_erotb>  (1) 
1.1440711446639862

>  <r_i_glide_esite>  (1) 
-0.053090427389521355

>  <r_i_glide_evdw>  (1) 
-32.096002024667115

>  <r_i_glide_gscore>  (1) 
-7.7320899390623508

>  <r_i_glide_gscore_strain>  (1) 
0

>  <r_i_glide_hbond>  (1) 
-0.60799999999999998

>  <r_i_glide_ligand_efficiency>  (1) 
-0.29980948018432074

>  <r_i_glide_ligand_efficiency_ln>  (1) 
-1.776595784219881

>  <r_i_glide_ligand_efficiency_sa>  (1) 
-0.8766482381433327

>  <r_i_glide_lipo>  (1) 
-3.1516369128847295

>  <r_i_glide_metal>  (1) 
-0

>  <r_i_glide_rewards>  (1) 
-1.8355738765406222

>  <r_lp_Energy>  (1) 
26.033631999999997

>  <r_lp_tautomer_probability>  (1) 
0.67048000943507491

>  <s_epik_cmdline>  (1) 
J2VwaWtfcHl0aG9uJywgJy1waHQnLCAnMS4wJywgJy1waCcsICc3LjQnLCAnLXRuJywgJzgnLCAnLW1hJywgJzUwMCcsICctaW1hZScsICc8aW5maWxlLm1hZT4nLCAnLW9tYWUnLCAnPG91dGZpbGUubWFlPic=

>  <s_epik_input>  (1) 
W09IXVtDSDJdW0NIMl1bQ0BASF0oW0NIM10pTihDMT1PKU49W0NIXVtDQEBIXTFbQ0gyXVtDSDJdW0NIMl1OKFtDSDNdKVtDQEBIXShbQ0gzXSljMltjSF1bY0hdW2NIXVtjSF1jMkNs

>  <s_glide_docking_method>  (1) 
confgen

>  <s_i_glide_gridfile>  (1) 
gpcr_5ht2c_6bqh_protein_autoprepared_prepared

>  <s_lp_Force_Field>  (1) 
S-OPLS

>  <s_lp_Variant>  (1) 
DiffSBDD_59_num_sample_100-2

>  <s_m_source_file>  (1) 
generated__ligand_DiffSBDD_2026-05-06_prepared.sdf

>  <GenAI_Model>  (1) 
DiffSBDD

>  <Protein>  (1) 
GPCR_5HT2C

$$$$
DiffSBDD_30_num_sample_100
     RDKit          3D

  0  0  0  0  0  0  0  0  0  0999 V3000
M  V30 BEGIN CTAB
M  V30 COUNTS 69 72 0 0 1
M  V30 BEGIN ATOM
M  V30 1 C 35.831885 31.877315 61.453475 0
M  V30 2 C 38.485954 35.392240 61.052562 0 CFG=1
M  V30 3 O 34.481929 33.221744 59.996287 0
M  V30 4 C 37.817548 25.524502 57.586303 0
M  V30 5 C 37.324572 24.381174 56.940676 0
M  V30 6 N 37.448232 33.015308 59.412205 0
M  V30 7 C 37.467397 25.527538 54.798920 0
M  V30 8 C 36.793358 33.958892 60.314541 0 CFG=1
M  V30 9 O 37.638815 37.154503 63.347601 0
M  V30 10 O 40.013160 34.401093 62.654460 0
M  V30 11 C 38.984704 28.491738 52.264462 0
M  V30 12 C 39.719505 35.385517 61.978822 0
M  V30 13 C 40.571767 36.652089 62.017265 0
M  V30 14 C 40.206573 28.816228 51.427512 0
M  V30 15 C 39.713034 28.402356 54.653479 0 CFG=2
M  V30 16 C 38.551993 32.933175 55.888952 0
M  V30 17 N 37.867457 32.609861 57.154283 0 CHG=1
M  V30 18 C 39.221277 27.796971 50.939694 0
M  V30 19 C 38.516113 30.465946 55.196497 0 CFG=1
M  V30 20 C 37.146266 24.382428 55.548379 0
M  V30 21 C 39.826765 29.925597 54.632354 0
M  V30 22 N 39.186856 27.687371 53.473359 0
M  V30 23 C 38.134070 26.675191 56.844974 0
M  V30 24 C 38.087992 33.569198 58.236360 0
M  V30 25 C 37.963034 26.683707 55.436780 0
M  V30 26 C 38.167091 31.915997 54.812403 0
M  V30 27 C 36.983630 36.894431 62.128431 0
M  V30 28 C 35.541399 33.291717 60.927698 0 CFG=2
M  V30 29 C 38.319708 27.889280 54.624086 0 CFG=1
M  V30 30 O 38.612687 27.780688 57.489491 0
M  V30 31 S 37.234875 29.336282 54.653316 0
M  V30 32 O 37.639046 34.321192 61.364778 0
M  V30 33 O 37.842154 36.641362 61.047270 0
M  V30 34 H 36.663098 31.890198 62.161140 0
M  V30 35 H 34.948730 31.482230 61.953019 0
M  V30 36 H 36.075527 31.176785 60.653485 0
M  V30 37 H 38.878210 35.249487 60.049109 0
M  V30 38 H 34.192066 34.097588 59.788170 0
M  V30 39 H 37.954599 25.520531 58.653633 0
M  V30 40 H 37.081610 23.498771 57.515234 0
M  V30 41 H 38.075759 32.413931 59.938022 0
M  V30 42 H 37.333509 25.522700 53.727776 0
M  V30 43 H 36.477088 34.856388 59.777552 0
M  V30 44 H 37.921129 36.331406 63.719122 0
M  V30 45 H 38.178525 29.218433 52.237436 0
M  V30 46 H 41.180645 36.723427 61.116498 0
M  V30 47 H 39.949003 37.543420 62.082838 0
M  V30 48 H 41.235490 36.639854 62.882170 0
M  V30 49 H 40.222961 29.778174 50.920463 0
M  V30 50 H 41.175338 28.437874 51.734557 0
M  V30 51 H 40.406953 27.878738 55.310216 0
M  V30 52 H 39.631669 32.933821 56.045240 0
M  V30 53 H 38.264154 33.935228 55.566410 0
M  V30 54 H 36.857992 32.512931 56.994814 0
M  V30 55 H 39.510359 26.749377 50.963562 0
M  V30 56 H 38.667346 28.104225 50.060500 0
M  V30 57 H 38.548134 30.336173 56.276958 0
M  V30 58 H 36.765671 23.501074 55.051916 0
M  V30 59 H 40.030081 30.312195 53.635655 0
M  V30 60 H 40.667492 30.238036 55.248887 0
M  V30 61 H 39.157102 33.693957 58.410009 0
M  V30 62 H 37.646334 34.523286 57.947718 0
M  V30 63 H 38.621339 32.176667 53.856159 0
M  V30 64 H 37.090272 31.999957 54.654532 0
M  V30 65 H 36.420720 37.795512 61.878385 0
M  V30 66 H 36.267926 36.088704 62.294145 0
M  V30 67 H 35.201508 33.919186 61.753005 0
M  V30 68 H 38.820957 28.487728 56.903209 0
M  V30 69 H 38.179287 31.704832 57.466404 0
M  V30 END ATOM
M  V30 BEGIN BOND
M  V30 1 1 5 4
M  V30 2 1 8 6
M  V30 3 1 12 2
M  V30 4 2 12 10
M  V30 5 1 13 12
M  V30 6 1 14 11
M  V30 7 1 17 16
M  V30 8 1 18 11
M  V30 9 1 18 14
M  V30 10 2 20 5
M  V30 11 1 20 7
M  V30 12 1 21 15
M  V30 13 1 21 19
M  V30 14 1 22 11
M  V30 15 1 22 15
M  V30 16 2 23 4
M  V30 17 1 24 6
M  V30 18 1 24 17
M  V30 19 2 25 7
M  V30 20 1 25 23
M  V30 21 1 26 16
M  V30 22 1 26 19
M  V30 23 1 27 9
M  V30 24 1 28 1
M  V30 25 1 28 3
M  V30 26 1 28 8
M  V30 27 1 29 15
M  V30 28 1 29 22
M  V30 29 1 29 25 CFG=1
M  V30 30 1 30 23
M  V30 31 1 31 19
M  V30 32 1 31 29
M  V30 33 1 32 2
M  V30 34 1 32 8
M  V30 35 1 33 2
M  V30 36 1 33 27
M  V30 37 1 34 1
M  V30 38 1 35 1
M  V30 39 1 36 1
M  V30 40 1 2 37 CFG=3
M  V30 41 1 38 3
M  V30 42 1 39 4
M  V30 43 1 40 5
M  V30 44 1 41 6
M  V30 45 1 42 7
M  V30 46 1 8 43 CFG=3
M  V30 47 1 44 9
M  V30 48 1 45 11
M  V30 49 1 46 13
M  V30 50 1 47 13
M  V30 51 1 48 13
M  V30 52 1 49 14
M  V30 53 1 50 14
M  V30 54 1 15 51 CFG=1
M  V30 55 1 52 16
M  V30 56 1 53 16
M  V30 57 1 54 17
M  V30 58 1 55 18
M  V30 59 1 56 18
M  V30 60 1 19 57 CFG=1
M  V30 61 1 58 20
M  V30 62 1 59 21
M  V30 63 1 60 21
M  V30 64 1 61 24
M  V30 65 1 62 24
M  V30 66 1 63 26
M  V30 67 1 64 26
M  V30 68 1 65 27
M  V30 69 1 66 27
M  V30 70 1 28 67 CFG=1
M  V30 71 1 68 30
M  V30 72 1 69 17
M  V30 END BOND
M  V30 END CTAB
M  END
>  <i_epik_Tot_Q>  (1) 
1

>  <i_epik_Tot_abs_Q>  (1) 
1

>  <i_i_glide_confnum>  (1) 
2715

>  <i_i_glide_lignum>  (1) 
79

>  <i_i_glide_posenum>  (1) 
388

>  <i_i_glide_rotatable_bonds>  (1) 
17

>  <i_lp_mmshare_version>  (1) 
72125

>  <i_m_source_file_index>  (1) 
31

>  <i_f3d_flags>  (1) 
0

>  <num_sample>  (1) 
100

>  <b_lp_Chiralities_Consistent>  (1) 
1

>  <r_epik_Charging_Adjusted_Penalty>  (1) 
0.074635642036716146

>  <r_epik_Ionization_Penalty>  (1) 
0.2367700207343624

>  <r_epik_Ionization_Penalty_Charging>  (1) 
0.00051329390614008978

>  <r_epik_Ionization_Penalty_Neutral>  (1) 
0.23625672682822232

>  <r_epik_State_Penalty>  (1) 
0.074122348130576055

>  <r_glide_ring_energy>  (1) 
0

>  <r_i_docking_score>  (1) 
-7.4906856866769616

>  <r_i_glide_ecoul>  (1) 
-5.3435122556995474

>  <r_i_glide_eff_state_penalty>  (1) 
0.074122348130576055

>  <r_i_glide_einternal>  (1) 
23.941561329307913

>  <r_i_glide_emodel>  (1) 
-67.436615894706378

>  <r_i_glide_emodel_strain>  (1) 
0.69773150050207278

>  <r_i_glide_energy>  (1) 
-50.459831579274464

>  <r_i_glide_erotb>  (1) 
1.1326933877215775

>  <r_i_glide_esite>  (1) 
-0.14359347254024715

>  <r_i_glide_evdw>  (1) 
-45.11631932357492

>  <r_i_glide_gscore>  (1) 
-7.5648080348075375

>  <r_i_glide_gscore_strain>  (1) 
0

>  <r_i_glide_hbond>  (1) 
-0.20192753063268692

>  <r_i_glide_ligand_efficiency>  (1) 
-0.22699047535384731

>  <r_i_glide_ligand_efficiency_ln>  (1) 
-1.6658897120221827

>  <r_i_glide_ligand_efficiency_sa>  (1) 
-0.72807974227953687

>  <r_i_glide_lipo>  (1) 
-3.785699013259082

>  <r_i_glide_metal>  (1) 
-0

>  <r_i_glide_rewards>  (1) 
-1.5089386015634201

>  <r_lp_Energy>  (1) 
25.467389999999998

>  <r_lp_tautomer_probability>  (1) 
0.99999996999736518

>  <s_epik_Chemistry_Notes>  (1) 
This compound contains an acetal/aminal-like group ( X-CH(R)-Y where X, Y are N, S, or O) that may be acid/base labile, releasing an aldehyde.

>  <s_epik_cmdline>  (1) 
J2VwaWtfcHl0aG9uJywgJy1waHQnLCAnMS4wJywgJy1waCcsICc3LjQnLCAnLXRuJywgJzgnLCAnLW1hJywgJzUwMCcsICctaW1hZScsICc8aW5maWxlLm1hZT4nLCAnLW9tYWUnLCAnPG91dGZpbGUubWFlPic=

>  <s_epik_input>  (1) 
W09IXVtDSDJdT1tDQEBIXShDKD1PKVtDSDNdKU9bQ0BIXShbQ0BIXShbQ0gzXSlbT0hdKVtOSF1bQ0gyXVtOSF1bQ0gyXVtDSDJdW0NAQEhdKFMxKVtDSDJdW0NASF0oTjJbQ0hdM1tDSDJdW0NIMl0zKVtDQEBdMTJjNFtjSF1bY0hdW2NIXVtjSF1jNFtPSF0=

>  <s_glide_docking_method>  (1) 
confgen

>  <s_i_glide_gridfile>  (1) 
gpcr_5ht2c_6bqh_protein_autoprepared_prepared

>  <s_lp_Force_Field>  (1) 
S-OPLS

>  <s_lp_Variant>  (1) 
DiffSBDD_30_num_sample_100-1

>  <s_m_source_file>  (1) 
generated__ligand_DiffSBDD_2026-05-06_prepared.sdf

>  <GenAI_Model>  (1) 
DiffSBDD

>  <Protein>  (1) 
GPCR_5HT2C

$$$$
DiffSBDD_46_num_sample_100
     RDKit          3D

  0  0  0  0  0  0  0  0  0  0999 V3000
M  V30 BEGIN CTAB
M  V30 COUNTS 67 70 0 0 1
M  V30 BEGIN ATOM
M  V30 1 N 40.275526 30.748437 61.057929 0 CHG=-1
M  V30 2 N 38.900713 28.982831 54.258983 0
M  V30 3 C 38.743246 27.224847 59.413226 0
M  V30 4 C 44.052533 32.419138 68.972845 0
M  V30 5 C 39.420100 28.077656 57.078148 0
M  V30 6 O 39.881290 33.876921 62.670104 0
M  V30 7 O 37.975934 31.982030 59.495805 0
M  V30 8 C 42.624500 32.788231 67.058781 0
M  V30 9 N 43.340621 33.066416 68.221136 0
M  V30 10 F 42.308659 35.134930 66.653501 0
M  V30 11 C 39.087053 28.325732 58.526818 0 CFG=2
M  V30 12 N 40.522224 31.817722 63.566157 0
M  V30 13 C 38.188587 27.701323 56.213074 0 CFG=2
M  V30 14 C 41.413000 33.567435 65.102938 0
M  V30 15 C 38.945280 32.686478 60.259120 0
M  V30 16 C 38.985826 25.170056 54.930960 0
M  V30 17 C 39.962207 29.537225 50.208536 0
M  V30 18 C 39.222810 29.161080 52.901373 0
M  V30 19 C 42.117388 33.854377 66.277415 0
M  V30 20 C 39.867396 29.381113 61.315005 0
M  V30 21 C 41.758880 31.216538 65.587621 0
M  V30 22 C 41.226800 32.213889 64.747569 0
M  V30 23 N 42.445755 31.485194 66.719817 0
M  V30 24 C 39.562219 26.519075 54.476481 0
M  V30 25 C 39.294806 28.362192 50.593400 0
M  V30 26 C 39.367622 31.833766 61.491130 0 CFG=2
M  V30 27 C 37.526072 26.359383 56.606159 0
M  V30 28 C 38.917597 28.172024 51.930225 0
M  V30 29 C 40.656760 28.421811 60.451332 0
M  V30 30 C 40.250495 30.527928 51.162327 0
M  V30 31 C 38.471427 25.169853 56.376255 0
M  V30 32 C 39.970359 32.648831 62.652973 0
M  V30 33 C 39.876244 30.343162 52.505484 0
M  V30 34 O 44.849477 31.814440 69.592647 0
M  V30 35 C 38.511307 27.644798 54.704012 0 CFG=2
M  V30 36 N 40.143684 27.762797 59.441869 0 CHG=1
M  V30 37 H 39.235370 29.645124 54.945267 0
M  V30 38 H 38.829961 26.199356 59.058604 0
M  V30 39 H 38.267192 27.379804 60.373733 0
M  V30 40 H 39.902509 28.979725 56.701359 0
M  V30 41 H 40.178240 27.298866 57.026608 0
M  V30 42 H 37.672358 32.533967 58.789272 0
M  V30 43 H 38.827666 29.347925 58.793950 0
M  V30 44 H 40.470427 30.824403 63.371462 0
M  V30 45 H 37.468428 28.501139 56.364787 0
M  V30 46 H 41.033270 34.369094 64.502762 0
M  V30 47 H 39.799978 32.935854 59.630938 0
M  V30 48 H 38.494767 33.632629 60.562316 0
M  V30 49 H 39.757957 24.421134 54.809883 0
M  V30 50 H 38.154202 24.892749 54.285006 0
M  V30 51 H 40.248354 29.680529 49.177453 0
M  V30 52 H 40.036101 29.104444 62.355260 0
M  V30 53 H 41.629027 30.170381 65.344166 0
M  V30 54 H 40.490336 26.723534 55.004591 0
M  V30 55 H 39.881390 26.411046 53.443926 0
M  V30 56 H 39.068636 27.604202 49.855171 0
M  V30 57 H 38.420613 31.494024 61.923486 0
M  V30 58 H 37.138581 26.377900 57.622299 0
M  V30 59 H 36.646944 26.205760 55.984921 0
M  V30 60 H 38.403543 27.267442 52.208112 0
M  V30 61 H 41.704632 28.255073 60.651063 0
M  V30 62 H 40.760044 31.429166 50.864582 0
M  V30 63 H 39.316013 25.198657 57.061938 0
M  V30 64 H 37.946379 24.235271 56.578809 0
M  V30 65 H 40.107894 31.104690 53.238069 0
M  V30 66 H 37.587223 27.390480 54.181465 0
M  V30 67 H 38.798887 29.266241 61.144117 0
M  V30 END ATOM
M  V30 BEGIN BOND
M  V30 1 2 9 4
M  V30 2 1 9 8
M  V30 3 1 11 3
M  V30 4 1 11 5
M  V30 5 1 13 5
M  V30 6 1 15 7
M  V30 7 1 18 2
M  V30 8 2 19 8
M  V30 9 1 19 10
M  V30 10 1 19 14
M  V30 11 1 20 1
M  V30 12 1 22 12
M  V30 13 2 22 14
M  V30 14 1 22 21
M  V30 15 1 23 8
M  V30 16 2 23 21
M  V30 17 1 24 16
M  V30 18 2 25 17
M  V30 19 1 26 1
M  V30 20 1 26 15
M  V30 21 1 27 13
M  V30 22 2 28 18
M  V30 23 1 28 25
M  V30 24 1 29 20
M  V30 25 1 30 17
M  V30 26 1 31 16
M  V30 27 1 31 27
M  V30 28 2 32 6
M  V30 29 1 32 12
M  V30 30 1 32 26
M  V30 31 1 33 18
M  V30 32 2 33 30
M  V30 33 2 34 4
M  V30 34 1 35 2
M  V30 35 1 35 13
M  V30 36 1 35 24
M  V30 37 1 36 3
M  V30 38 1 36 11
M  V30 39 2 36 29
M  V30 40 1 37 2
M  V30 41 1 38 3
M  V30 42 1 39 3
M  V30 43 1 40 5
M  V30 44 1 41 5
M  V30 45 1 42 7
M  V30 46 1 11 43 CFG=3
M  V30 47 1 44 12
M  V30 48 1 13 45 CFG=3
M  V30 49 1 46 14
M  V30 50 1 47 15
M  V30 51 1 48 15
M  V30 52 1 49 16
M  V30 53 1 50 16
M  V30 54 1 51 17
M  V30 55 1 52 20
M  V30 56 1 53 21
M  V30 57 1 54 24
M  V30 58 1 55 24
M  V30 59 1 56 25
M  V30 60 1 26 57 CFG=1
M  V30 61 1 58 27
M  V30 62 1 59 27
M  V30 63 1 60 28
M  V30 64 1 61 29
M  V30 65 1 62 30
M  V30 66 1 63 31
M  V30 67 1 64 31
M  V30 68 1 65 33
M  V30 69 1 35 66 CFG=3
M  V30 70 1 67 20
M  V30 END BOND
M  V30 END CTAB
M  END
>  <i_epik_Tot_Q>  (1) 
0

>  <i_epik_Tot_abs_Q>  (1) 
2

>  <i_i_glide_confnum>  (1) 
1544

>  <i_i_glide_lignum>  (1) 
128

>  <i_i_glide_posenum>  (1) 
246

>  <i_i_glide_rotatable_bonds>  (1) 
13

>  <i_lp_mmshare_version>  (1) 
72125

>  <i_m_source_file_index>  (1) 
47

>  <i_f3d_flags>  (1) 
0

>  <num_sample>  (1) 
100

>  <b_lp_Chiralities_Consistent>  (1) 
1

>  <r_epik_Charging_Adjusted_Penalty>  (1) 
1.3427112581869221

>  <r_epik_Ionization_Penalty>  (1) 
0.80930426782544973

>  <r_epik_Ionization_Penalty_Charging>  (1) 
0

>  <r_epik_Ionization_Penalty_Neutral>  (1) 
0.80930426782544973

>  <r_epik_State_Penalty>  (1) 
1.3427112581869221

>  <r_glide_ring_energy>  (1) 
0.05726729789671494

>  <r_i_docking_score>  (1) 
-7.4904739469552606

>  <r_i_glide_ecoul>  (1) 
-4.0873469214227756

>  <r_i_glide_eff_state_penalty>  (1) 
1.3427112581869221

>  <r_i_glide_einternal>  (1) 
16.799845761357297

>  <r_i_glide_emodel>  (1) 
-76.522564441074678

>  <r_i_glide_emodel_strain>  (1) 
0.70544136635652421

>  <r_i_glide_energy>  (1) 
-52.764030386523672

>  <r_i_glide_erotb>  (1) 
0.99979395072351473

>  <r_i_glide_esite>  (1) 
0

>  <r_i_glide_evdw>  (1) 
-48.676683465100893

>  <r_i_glide_gscore>  (1) 
-8.8331852051421826

>  <r_i_glide_gscore_strain>  (1) 
0

>  <r_i_glide_hbond>  (1) 
0

>  <r_i_glide_ligand_efficiency>  (1) 
-0.20806872074875724

>  <r_i_glide_ligand_efficiency_ln>  (1) 
-1.6342190460062362

>  <r_i_glide_ligand_efficiency_sa>  (1) 
-0.68702777868296849

>  <r_i_glide_lipo>  (1) 
-5.1242807831672232

>  <r_i_glide_metal>  (1) 
-0

>  <r_i_glide_rewards>  (1) 
-1.661762161230012

>  <r_lp_Energy>  (1) 
87.141047

>  <s_epik_Chemistry_Notes>  (1) 
This compound has an imine and may undergo hydrolysis.

>  <s_epik_cmdline>  (1) 
J2VwaWtfcHl0aG9uJywgJy1waHQnLCAnMS4wJywgJy1waCcsICc3LjQnLCAnLXRuJywgJzgnLCAnLW1hJywgJzUwMCcsICctaW1hZScsICc8aW5maWxlLm1hZT4nLCAnLW9tYWUnLCAnPG91dGZpbGUubWFlPic=

>  <s_epik_input>  (1) 
Tz1DPU5jMWMoRilbY0hdYyhbY0hdbjEpW05IXUMoPU8pW0NAQEhdKFtDSDJdW09IXSkvTj1bQ0hdL1tDSDJdTjJbQ0gyXVtDQEBIXTJbQ0gyXVtDQEBIXTNbQ0gyXVtDSDJdW0NIMl1bQ0gyXVtDQEBIXTNbTkhdYzRbY0hdW2NIXVtjSF1bY0hdW2NIXTQ=

>  <s_glide_docking_method>  (1) 
confgen

>  <s_i_glide_gridfile>  (1) 
gpcr_5ht2c_6bqh_protein_autoprepared_prepared

>  <s_lp_Force_Field>  (1) 
S-OPLS

>  <s_lp_Variant>  (1) 
DiffSBDD_46_num_sample_100-4

>  <s_m_source_file>  (1) 
generated__ligand_DiffSBDD_2026-05-06_prepared.sdf

>  <GenAI_Model>  (1) 
DiffSBDD

>  <Protein>  (1) 
GPCR_5HT2C

$$$$
DiffSBDD_85_num_sample_100
     RDKit          3D

  0  0  0  0  0  0  0  0  0  0999 V3000
M  V30 BEGIN CTAB
M  V30 COUNTS 83 87 0 0 1
M  V30 BEGIN ATOM
M  V30 1 C 40.366440 37.157576 61.861601 0
M  V30 2 N 37.863127 27.537030 53.792488 0 CHG=1
M  V30 3 C 39.463628 28.410618 50.444985 0
M  V30 4 Cl 37.425813 36.566844 62.959912 0
M  V30 5 C 40.267083 35.223300 63.527665 0 CFG=1
M  V30 6 C 38.906309 26.602991 58.348634 0
M  V30 7 C 38.888229 28.099085 52.889730 0
M  V30 8 C 39.788762 29.892410 50.636203 0
M  V30 9 O 40.185291 31.712407 63.019172 0
M  V30 10 S 39.197462 30.240894 60.284837 0
M  V30 11 C 40.149742 30.162243 52.094051 0
M  V30 12 O 42.008894 32.228086 61.851978 0 CHG=-1
M  V30 13 C 38.438940 27.877700 51.449409 0
M  V30 14 C 38.297250 31.806036 60.508550 0 CFG=1
M  V30 15 C 36.645885 30.290245 59.560322 0 CFG=2
M  V30 16 C 38.244690 29.006670 57.883586 0 CFG=1
M  V30 17 C 41.166863 36.199099 62.749781 0
M  V30 18 N 37.867439 28.059009 55.149584 0
M  V30 19 C 39.311312 34.453066 62.540898 0 CFG=2
M  V30 20 C 40.192179 26.824986 57.556769 0 CFG=1
M  V30 21 C 39.142566 29.608268 53.110206 0
M  V30 22 C 41.095918 34.393859 64.526617 0
M  V30 23 C 38.219829 27.042564 56.126430 0 CFG=2
M  V30 24 C 39.687444 29.335599 57.431154 0
M  V30 25 C 37.926437 27.501506 57.581484 0 CFG=1
M  V30 26 C 39.258216 36.462093 61.053511 0
M  V30 27 C 40.816026 32.394517 62.180800 0
M  V30 28 C 40.058984 33.545856 61.496701 0 CFG=1
M  V30 29 C 39.720871 26.661201 56.101107 0
M  V30 30 O 35.604701 30.021419 58.653482 0
M  V30 31 C 39.208990 33.031615 60.287509 0
M  V30 32 C 37.107998 31.750805 59.536887 0 CFG=1
M  V30 33 C 38.394320 35.521426 61.866928 0 CFG=2
M  V30 34 C 40.718302 28.255036 57.841228 0
M  V30 35 C 37.890573 29.401673 59.362599 0 CFG=1
M  V30 36 O 36.080856 32.619418 59.979490 0
M  V30 37 H 39.934261 37.950863 62.472350 0
M  V30 38 H 41.067164 37.621200 61.166299 0
M  V30 39 H 37.961761 26.533655 53.859485 0
M  V30 40 H 40.371844 27.815064 50.508589 0
M  V30 41 H 39.067290 28.280791 49.453586 0
M  V30 42 H 39.641788 35.840065 64.170920 0
M  V30 43 H 38.592658 25.559529 58.291683 0
M  V30 44 H 39.022603 26.846168 59.403093 0
M  V30 45 H 39.813169 27.549298 53.058999 0
M  V30 46 H 40.630814 30.158144 49.997682 0
M  V30 47 H 38.970644 30.517732 50.292011 0
M  V30 48 H 41.067273 29.621448 52.253455 0
M  V30 49 H 40.343065 31.221878 52.264842 0
M  V30 50 H 38.272741 26.821412 51.253999 0
M  V30 51 H 37.478734 28.368678 51.307489 0
M  V30 52 H 37.914087 31.808658 61.529246 0
M  V30 53 H 36.257439 30.084599 60.556305 0
M  V30 54 H 37.611088 29.618527 57.242906 0
M  V30 55 H 41.785518 36.771379 63.437089 0
M  V30 56 H 41.867417 35.644544 62.133821 0
M  V30 57 H 38.593868 28.757313 55.080985 0
M  V30 58 H 38.669055 33.748491 63.053465 0
M  V30 59 H 40.948722 26.086692 57.821612 0
M  V30 60 H 38.205965 30.153755 53.055951 0
M  V30 61 H 39.546277 29.795521 54.103014 0
M  V30 62 H 41.974886 33.949090 64.059763 0
M  V30 63 H 41.462565 35.024356 65.337454 0
M  V30 64 H 40.511484 33.591767 64.973653 0
M  V30 65 H 37.619772 26.151220 55.934916 0
M  V30 66 H 39.720403 29.420345 56.348896 0
M  V30 67 H 39.935948 30.341293 57.744342 0
M  V30 68 H 36.892042 27.285419 57.852937 0
M  V30 69 H 38.603477 37.214885 60.620929 0
M  V30 70 H 39.716699 35.917867 60.233768 0
M  V30 71 H 40.836700 34.155388 61.053397 0
M  V30 72 H 40.320097 27.272560 55.423925 0
M  V30 73 H 39.830380 25.623277 55.782205 0
M  V30 74 H 35.516164 30.749911 58.021871 0
M  V30 75 H 39.867338 32.821952 59.453207 0
M  V30 76 H 38.611739 33.838064 59.871174 0
M  V30 77 H 37.423001 32.031886 58.530495 0
M  V30 78 H 37.642396 35.045649 61.239814 0
M  V30 79 H 41.656934 28.418809 57.312110 0
M  V30 80 H 40.954118 28.341254 58.902991 0
M  V30 81 H 37.772338 28.492002 59.929836 0
M  V30 82 H 35.645852 32.224088 60.717394 0
M  V30 83 H 36.948291 27.756643 53.423795 0
M  V30 END ATOM
M  V30 BEGIN BOND
M  V30 1 1 7 2
M  V30 2 1 8 3
M  V30 3 1 11 8
M  V30 4 1 13 3
M  V30 5 1 13 7
M  V30 6 1 14 10
M  V30 7 1 17 1
M  V30 8 1 17 5
M  V30 9 1 18 2
M  V30 10 1 19 5
M  V30 11 1 20 6
M  V30 12 1 21 7
M  V30 13 1 21 11
M  V30 14 1 22 5
M  V30 15 1 23 18
M  V30 16 1 24 16
M  V30 17 1 25 6
M  V30 18 1 25 16
M  V30 19 1 25 23
M  V30 20 1 26 1
M  V30 21 2 27 9
M  V30 22 1 27 12
M  V30 23 1 28 19
M  V30 24 1 28 27
M  V30 25 1 29 20
M  V30 26 1 29 23
M  V30 27 1 30 15
M  V30 28 1 31 14
M  V30 29 1 31 28
M  V30 30 1 32 14
M  V30 31 1 32 15
M  V30 32 1 33 4
M  V30 33 1 33 19
M  V30 34 1 33 26
M  V30 35 1 34 20
M  V30 36 1 34 24
M  V30 37 1 35 10
M  V30 38 1 35 15
M  V30 39 1 35 16
M  V30 40 1 36 32
M  V30 41 1 37 1
M  V30 42 1 38 1
M  V30 43 1 39 2
M  V30 44 1 40 3
M  V30 45 1 41 3
M  V30 46 1 5 42 CFG=1
M  V30 47 1 43 6
M  V30 48 1 44 6
M  V30 49 1 45 7
M  V30 50 1 46 8
M  V30 51 1 47 8
M  V30 52 1 48 11
M  V30 53 1 49 11
M  V30 54 1 50 13
M  V30 55 1 51 13
M  V30 56 1 14 52 CFG=1
M  V30 57 1 15 53 CFG=1
M  V30 58 1 16 54 CFG=3
M  V30 59 1 55 17
M  V30 60 1 56 17
M  V30 61 1 57 18
M  V30 62 1 19 58 CFG=1
M  V30 63 1 20 59 CFG=1
M  V30 64 1 60 21
M  V30 65 1 61 21
M  V30 66 1 62 22
M  V30 67 1 63 22
M  V30 68 1 64 22
M  V30 69 1 23 65 CFG=3
M  V30 70 1 66 24
M  V30 71 1 67 24
M  V30 72 1 25 68 CFG=1
M  V30 73 1 69 26
M  V30 74 1 70 26
M  V30 75 1 28 71 CFG=3
M  V30 76 1 72 29
M  V30 77 1 73 29
M  V30 78 1 74 30
M  V30 79 1 75 31
M  V30 80 1 76 31
M  V30 81 1 32 77 CFG=3
M  V30 82 1 33 78 CFG=3
M  V30 83 1 79 34
M  V30 84 1 80 34
M  V30 85 1 35 81 CFG=1
M  V30 86 1 82 36
M  V30 87 1 83 2
M  V30 END BOND
M  V30 END CTAB
M  END
>  <i_epik_Tot_Q>  (1) 
0

>  <i_epik_Tot_abs_Q>  (1) 
2

>  <i_i_glide_confnum>  (1) 
109

>  <i_i_glide_lignum>  (1) 
223

>  <i_i_glide_posenum>  (1) 
93

>  <i_i_glide_rotatable_bonds>  (1) 
10

>  <i_lp_mmshare_version>  (1) 
72125

>  <i_m_source_file_index>  (1) 
86

>  <i_f3d_flags>  (1) 
0

>  <num_sample>  (1) 
100

>  <b_lp_Chiralities_Consistent>  (1) 
1

>  <r_epik_Charging_Adjusted_Penalty>  (1) 
0.73371446279801333

>  <r_epik_Ionization_Penalty>  (1) 
0.028997413797582132

>  <r_epik_Ionization_Penalty_Charging>  (1) 
0.028997299906531444

>  <r_epik_Ionization_Penalty_Neutral>  (1) 
1.138910506862436e-07

>  <r_epik_State_Penalty>  (1) 
0.7047171628914819

>  <r_glide_ring_energy>  (1) 
0

>  <r_i_docking_score>  (1) 
-7.4839780809882601

>  <r_i_glide_ecoul>  (1) 
-6.295193717139755

>  <r_i_glide_eff_state_penalty>  (1) 
0.7047171628914819

>  <r_i_glide_einternal>  (1) 
15.786819402235963

>  <r_i_glide_emodel>  (1) 
-45.604077089535572

>  <r_i_glide_emodel_strain>  (1) 
2.0637323432945323

>  <r_i_glide_energy>  (1) 
-35.933801240665893

>  <r_i_glide_erotb>  (1) 
0.49083612240102314

>  <r_i_glide_esite>  (1) 
0

>  <r_i_glide_evdw>  (1) 
-29.63860752352614

>  <r_i_glide_gscore>  (1) 
-8.1886952438797422

>  <r_i_glide_gscore_strain>  (1) 
0

>  <r_i_glide_hbond>  (1) 
-0.16330471385196929

>  <r_i_glide_ligand_efficiency>  (1) 
-0.20788828002745166

>  <r_i_glide_ligand_efficiency_ln>  (1) 
-1.6328018235502539

>  <r_i_glide_ligand_efficiency_sa>  (1) 
-0.68643197654847943

>  <r_i_glide_lipo>  (1) 
-5.053036159666922

>  <r_i_glide_metal>  (1) 
-0

>  <r_i_glide_rewards>  (1) 
-1.0369810590146038

>  <r_lp_Energy>  (1) 
63.234845

>  <s_epik_cmdline>  (1) 
J2VwaWtfcHl0aG9uJywgJy1waHQnLCAnMS4wJywgJy1waCcsICc3LjQnLCAnLXRuJywgJzgnLCAnLW1hJywgJzUwMCcsICctaW1hZScsICc8aW5maWxlLm1hZT4nLCAnLW9tYWUnLCAnPG91dGZpbGUubWFlPic=

>  <s_epik_input>  (1) 
W0NIM11bQ0BIXTFbQ0gyXVtDSDJdW0NIMl1bQ0BIXShDbClbQ0BIXTFbQ0BASF0oQyg9TylbT0hdKVtDSDJdW0NAQEhdMlNbQ0BASF0oW0NAQEhdKFtPSF0pW0NASF0yW09IXSlbQ0BASF0oW0NIMl1bQ0gyXTMpW0NASF0oW0NIMl1bQ0BIXTM0KVtDQEhdKFtDSDJdNClbTkhdW05IXVtDSF01W0NIMl1bQ0gyXVtDSDJdW0NIMl1bQ0gyXTU=

>  <s_glide_docking_method>  (1) 
confgen

>  <s_i_glide_gridfile>  (1) 
gpcr_5ht2c_6bqh_protein_autoprepared_prepared

>  <s_lp_Force_Field>  (1) 
S-OPLS

>  <s_lp_Variant>  (1) 
DiffSBDD_85_num_sample_100-4

>  <s_m_source_file>  (1) 
generated__ligand_DiffSBDD_2026-05-06_prepared.sdf

>  <GenAI_Model>  (1) 
DiffSBDD

>  <Protein>  (1) 
GPCR_5HT2C

$$$$
DiffSBDD_69_num_sample_100
     RDKit          3D

  0  0  0  0  0  0  0  0  0  0999 V3000
M  V30 BEGIN CTAB
M  V30 COUNTS 67 72 0 0 1
M  V30 BEGIN ATOM
M  V30 1 C 40.074333 30.335465 52.390326 0
M  V30 2 C 40.946575 32.774910 64.670320 0 CFG=1
M  V30 3 C 37.528481 33.272709 60.051310 0
M  V30 4 C 41.278299 34.216072 64.338089 0 CFG=1
M  V30 5 C 37.998280 30.891639 60.286840 0
M  V30 6 C 39.743294 27.121528 58.755736 0
M  V30 7 C 37.180939 34.611653 60.679425 0
M  V30 8 C 38.273093 28.291875 56.376033 0
M  V30 9 N 38.235269 35.619653 60.653519 0
M  V30 10 C 39.467474 34.563529 62.505146 0
M  V30 11 C 37.979411 31.911121 58.068318 0
M  V30 12 O 40.225372 36.531351 61.632743 0
M  V30 13 C 40.416055 28.219044 59.597585 0
M  V30 14 C 38.103071 31.778370 56.546446 0 CFG=1
M  V30 15 C 37.685313 32.132182 60.865420 0
M  V30 16 C 39.986543 29.978180 51.033420 0
M  V30 17 O 42.097742 31.947899 64.907901 0
M  V30 18 C 39.467404 29.524310 53.377909 0
M  V30 19 C 42.267254 33.103055 64.069183 0 CFG=1
M  V30 20 C 39.625263 29.866384 54.869102 0 CFG=1
M  V30 21 C 38.144483 30.779806 58.893045 0
M  V30 22 N 40.267312 28.135127 60.919337 0
M  V30 23 C 40.132376 31.248529 55.205067 0
M  V30 24 C 38.667105 28.019841 51.626702 0
M  V30 25 C 40.627100 34.957566 63.199206 0
M  V30 26 O 41.051048 29.121590 59.060502 0
M  V30 27 C 39.290555 28.818370 50.653623 0
M  V30 28 C 39.457130 32.100539 55.973773 0
M  V30 29 O 40.582207 30.753271 50.087048 0
M  V30 30 C 38.460291 29.495502 55.797591 0
M  V30 31 C 40.264228 26.992666 57.301386 0
M  V30 32 C 37.678566 33.163468 58.650735 0
M  V30 33 O 37.581664 30.527232 56.044999 0
M  V30 34 C 38.750810 28.369529 52.985179 0
M  V30 35 C 39.190838 27.090988 56.205541 0
M  V30 36 C 39.276049 35.546725 61.584217 0
M  V30 37 C 41.057033 36.137070 62.661432 0
M  V30 38 H 40.623232 31.220140 52.673217 0
M  V30 39 H 40.206352 32.288488 64.039162 0
M  V30 40 H 41.494310 34.883243 65.170673 0
M  V30 41 H 38.120038 30.021411 60.912363 0
M  V30 42 H 38.670137 27.304235 58.782870 0
M  V30 43 H 39.867413 26.158728 59.244645 0
M  V30 44 H 36.325088 35.014789 60.137003 0
M  V30 45 H 36.833724 34.463006 61.702714 0
M  V30 46 H 37.426970 28.151462 57.028604 0
M  V30 47 H 38.138578 36.385142 60.002672 0
M  V30 48 H 38.859778 33.691911 62.658451 0
M  V30 49 H 37.467456 32.550143 56.119386 0
M  V30 50 H 37.562730 32.208581 61.934041 0
M  V30 51 H 42.421779 32.847830 63.022403 0
M  V30 52 H 40.454874 29.244690 55.198351 0
M  V30 53 H 38.374162 29.825593 58.457527 0
M  V30 54 H 39.739631 27.374754 61.320398 0
M  V30 55 H 40.686361 28.830269 61.516929 0
M  V30 56 H 41.096747 31.526341 54.810231 0
M  V30 57 H 38.125877 27.133479 51.330618 0
M  V30 58 H 39.225079 28.544620 49.612499 0
M  V30 59 H 39.867084 33.074029 56.197170 0
M  V30 60 H 40.385319 30.472235 49.208295 0
M  V30 61 H 40.757610 26.026906 57.198211 0
M  V30 62 H 41.041336 27.723929 57.079038 0
M  V30 63 H 37.547681 34.033192 58.023197 0
M  V30 64 H 38.277965 27.744809 53.724356 0
M  V30 65 H 38.566626 26.196958 56.216555 0
M  V30 66 H 39.690533 27.092447 55.239151 0
M  V30 67 H 41.880435 36.801559 62.870889 0
M  V30 END ATOM
M  V30 BEGIN BOND
M  V30 1 1 4 2
M  V30 2 1 7 3
M  V30 3 1 9 7
M  V30 4 1 13 6
M  V30 5 1 14 11
M  V30 6 1 15 3
M  V30 7 2 15 5
M  V30 8 2 16 1
M  V30 9 1 17 2
M  V30 10 1 18 1
M  V30 11 1 19 2
M  V30 12 1 19 4
M  V30 13 1 19 17
M  V30 14 1 20 18
M  V30 15 1 21 5
M  V30 16 2 21 11
M  V30 17 1 22 13
M  V30 18 1 23 20
M  V30 19 1 25 4
M  V30 20 1 25 10
M  V30 21 2 26 13
M  V30 22 1 27 16
M  V30 23 2 27 24
M  V30 24 1 28 14
M  V30 25 2 28 23
M  V30 26 1 29 16
M  V30 27 2 30 8
M  V30 28 1 30 20
M  V30 29 1 31 6
M  V30 30 2 32 3
M  V30 31 1 32 11
M  V30 32 1 33 14
M  V30 33 1 33 30
M  V30 34 2 34 18
M  V30 35 1 34 24
M  V30 36 1 35 8
M  V30 37 1 35 31
M  V30 38 1 36 9
M  V30 39 2 36 10
M  V30 40 1 36 12
M  V30 41 1 37 12
M  V30 42 2 37 25
M  V30 43 1 38 1
M  V30 44 1 2 39 CFG=3
M  V30 45 1 4 40 CFG=1
M  V30 46 1 41 5
M  V30 47 1 42 6
M  V30 48 1 43 6
M  V30 49 1 44 7
M  V30 50 1 45 7
M  V30 51 1 46 8
M  V30 52 1 47 9
M  V30 53 1 48 10
M  V30 54 1 14 49 CFG=3
M  V30 55 1 50 15
M  V30 56 1 19 51 CFG=3
M  V30 57 1 20 52 CFG=1
M  V30 58 1 53 21
M  V30 59 1 54 22
M  V30 60 1 55 22
M  V30 61 1 56 23
M  V30 62 1 57 24
M  V30 63 1 58 27
M  V30 64 1 59 28
M  V30 65 1 60 29
M  V30 66 1 61 31
M  V30 67 1 62 31
M  V30 68 1 63 32
M  V30 69 1 64 34
M  V30 70 1 65 35
M  V30 71 1 66 35
M  V30 72 1 67 37
M  V30 END BOND
M  V30 END CTAB
M  END
>  <i_epik_Tot_Q>  (1) 
0

>  <i_epik_Tot_abs_Q>  (1) 
0

>  <i_i_glide_confnum>  (1) 
400

>  <i_i_glide_lignum>  (1) 
178

>  <i_i_glide_posenum>  (1) 
255

>  <i_i_glide_rotatable_bonds>  (1) 
11

>  <i_lp_mmshare_version>  (1) 
72125

>  <i_m_source_file_index>  (1) 
70

>  <i_f3d_flags>  (1) 
0

>  <num_sample>  (1) 
100

>  <b_lp_Chiralities_Consistent>  (1) 
1

>  <r_epik_Charging_Adjusted_Penalty>  (1) 
0

>  <r_epik_Ionization_Penalty>  (1) 
0.0027858750297933624

>  <r_epik_Ionization_Penalty_Charging>  (1) 
0

>  <r_epik_Ionization_Penalty_Neutral>  (1) 
0.0027858750297933624

>  <r_epik_State_Penalty>  (1) 
-0

>  <r_glide_ring_energy>  (1) 
1.6699314456563878

>  <r_i_docking_score>  (1) 
-7.4832816755051832

>  <r_i_glide_ecoul>  (1) 
-0.045750708843144638

>  <r_i_glide_eff_state_penalty>  (1) 
-0

>  <r_i_glide_einternal>  (1) 
9.8115244086223576

>  <r_i_glide_emodel>  (1) 
-64.574182347839496

>  <r_i_glide_emodel_strain>  (1) 
1.0066962186918147

>  <r_i_glide_energy>  (1) 
-48.652801418162298

>  <r_i_glide_erotb>  (1) 
0.7388310729384443

>  <r_i_glide_esite>  (1) 
0

>  <r_i_glide_evdw>  (1) 
-48.607050709319154

>  <r_i_glide_gscore>  (1) 
-7.4832816755051832

>  <r_i_glide_gscore_strain>  (1) 
0

>  <r_i_glide_hbond>  (1) 
0

>  <r_i_glide_ligand_efficiency>  (1) 
-0.20225085609473467

>  <r_i_glide_ligand_efficiency_ln>  (1) 
-1.6229483624039935

>  <r_i_glide_ligand_efficiency_sa>  (1) 
-0.67394472219297608

>  <r_i_glide_lipo>  (1) 
-4.5157419062677171

>  <r_i_glide_metal>  (1) 
-0

>  <r_i_glide_rewards>  (1) 
-1.2691557003834804

>  <r_lp_Energy>  (1) 
41.231663999999995

>  <r_lp_tautomer_probability>  (1) 
1

>  <s_epik_cmdline>  (1) 
J2VwaWtfcHl0aG9uJywgJy1waHQnLCAnMS4wJywgJy1waCcsICc3LjQnLCAnLXRuJywgJzgnLCAnLW1hJywgJzUwMCcsICctaW1hZScsICc8aW5maWxlLm1hZT4nLCAnLW9tYWUnLCAnPG91dGZpbGUubWFlPic=

>  <s_epik_input>  (1) 
W05IMl1DKD1PKVtDSDJdW0NIMl1bQ0gyXS9bQ0hdPUMoTzEpXFtDQEBIXShjKFtjSF1jMltPSF0pW2NIXVtjSF1bY0hdMilbQ0hdPVtDSF1bQ0BASF0xYyhbY0hdMylbY0hdW2NIXVtjSF1jM1tDSDJdW05IXWMob1tjSF00KVtjSF1jNFtDQEBIXTVbQ0hdKE82KVtDSF01Ng==

>  <s_glide_docking_method>  (1) 
confgen

>  <s_i_glide_gridfile>  (1) 
gpcr_5ht2c_6bqh_protein_autoprepared_prepared

>  <s_lp_Force_Field>  (1) 
S-OPLS

>  <s_lp_Variant>  (1) 
DiffSBDD_69_num_sample_100-2

>  <s_m_source_file>  (1) 
generated__ligand_DiffSBDD_2026-05-06_prepared.sdf

>  <GenAI_Model>  (1) 
DiffSBDD

>  <Protein>  (1) 
GPCR_5HT2C

$$$$
DiffSBDD_85_num_sample_100
     RDKit          3D

  0  0  0  0  0  0  0  0  0  0999 V3000
M  V30 BEGIN CTAB
M  V30 COUNTS 83 87 0 0 1
M  V30 BEGIN ATOM
M  V30 1 C 41.447075 36.148217 62.707225 0
M  V30 2 N 38.810839 27.454777 54.353404 0
M  V30 3 C 39.284381 29.840680 51.479562 0
M  V30 4 Cl 38.397631 35.519244 61.853668 0
M  V30 5 C 40.613214 34.266457 64.047753 0 CFG=1
M  V30 6 C 37.794322 25.526981 58.169581 0
M  V30 7 C 38.740546 27.919846 52.986067 0
M  V30 8 C 40.307407 29.021438 50.710476 0
M  V30 9 O 42.062397 30.550742 63.658464 0
M  V30 10 S 40.525372 29.221525 59.456518 0
M  V30 11 C 39.834675 27.569591 50.718777 0
M  V30 12 O 39.867446 30.813851 63.925061 0 CHG=-1
M  V30 13 C 39.132158 29.408674 52.938844 0
M  V30 14 C 39.853966 30.333666 60.727166 0 CFG=1
M  V30 15 C 37.890687 29.633297 59.248374 0 CFG=2
M  V30 16 C 38.912786 27.723505 57.646471 0 CFG=1
M  V30 17 C 41.831969 35.131513 63.769514 0
M  V30 18 N 37.471878 27.291782 54.892306 0 CHG=1
M  V30 19 C 40.076806 33.475323 62.785803 0 CFG=2
M  V30 20 C 38.693602 24.760670 57.223693 0 CFG=1
M  V30 21 C 39.703887 27.059416 52.161344 0
M  V30 22 C 40.797048 33.491058 65.364592 0
M  V30 23 C 37.331452 26.324176 56.006139 0 CFG=2
M  V30 24 C 40.196771 26.900040 57.284092 0
M  V30 25 C 37.626487 26.859966 57.439710 0 CFG=1
M  V30 26 C 41.048893 35.437302 61.412941 0
M  V30 27 C 40.969379 31.106416 63.416225 0
M  V30 28 C 40.977507 32.236504 62.382953 0 CFG=1
M  V30 29 C 38.097515 25.000236 55.837545 0
M  V30 30 O 37.655882 30.285529 58.009089 0
M  V30 31 C 40.789730 31.571134 60.985105 0
M  V30 32 C 38.431227 30.700595 60.264997 0 CFG=1
M  V30 33 C 39.846162 34.503749 61.620001 0 CFG=2
M  V30 34 C 40.093990 25.357924 57.342141 0
M  V30 35 C 38.928260 28.477711 59.043244 0 CFG=1
M  V30 36 O 37.633994 30.821565 61.427327 0
M  V30 37 H 40.634378 36.783306 63.060422 0
M  V30 38 H 42.267401 36.821399 62.558879 0
M  V30 39 H 39.100739 26.486939 54.360768 0
M  V30 40 H 38.327954 29.621434 51.009880 0
M  V30 41 H 39.483670 30.910264 51.394800 0
M  V30 42 H 39.867408 35.028250 64.253264 0
M  V30 43 H 36.833938 25.014535 58.253501 0
M  V30 44 H 38.267407 25.624924 59.144725 0
M  V30 45 H 37.737781 27.792091 52.571846 0
M  V30 46 H 40.385828 29.385798 49.684444 0
M  V30 47 H 41.293302 29.120794 51.166820 0
M  V30 48 H 38.863129 27.489485 50.234615 0
M  V30 49 H 40.499151 26.953400 50.123398 0
M  V30 50 H 38.365021 30.011960 53.425181 0
M  V30 51 H 40.054153 29.621481 53.479821 0
M  V30 52 H 39.793603 29.670714 61.590106 0
M  V30 53 H 36.935671 29.226726 59.577622 0
M  V30 54 H 38.899929 28.513639 56.898835 0
M  V30 55 H 42.149835 35.657300 64.671363 0
M  V30 56 H 42.667474 34.514124 63.455635 0
M  V30 57 H 36.899146 26.992130 54.115444 0
M  V30 58 H 39.089122 33.082414 63.035027 0
M  V30 59 H 38.722817 23.695829 57.459063 0
M  V30 60 H 40.667420 27.059467 52.653519 0
M  V30 61 H 39.392777 26.021543 52.145597 0
M  V30 62 H 41.714822 32.902826 65.357777 0
M  V30 63 H 40.864236 34.171794 66.213694 0
M  V30 64 H 39.962190 32.818063 65.551855 0
M  V30 65 H 36.280658 26.021775 56.004721 0
M  V30 66 H 40.495952 27.163026 56.271441 0
M  V30 67 H 41.064414 27.191173 57.871818 0
M  V30 68 H 36.765887 27.405274 57.829154 0
M  V30 69 H 40.827337 36.181886 60.652925 0
M  V30 70 H 41.889656 34.853704 61.053239 0
M  V30 71 H 41.996207 32.624052 62.372308 0
M  V30 72 H 38.866026 24.992603 55.064846 0
M  V30 73 H 37.399602 24.199881 55.586520 0
M  V30 74 H 36.899176 30.860516 58.072873 0
M  V30 75 H 41.789271 31.260124 60.709741 0
M  V30 76 H 40.585637 32.335001 60.253539 0
M  V30 77 H 38.438316 31.686428 59.796885 0
M  V30 78 H 39.610049 34.012298 60.683847 0
M  V30 79 H 40.667395 24.934444 56.527064 0
M  V30 80 H 40.553604 25.022147 58.266439 0
M  V30 81 H 38.759538 27.749745 59.836803 0
M  V30 82 H 38.221330 30.939181 62.167918 0
M  V30 83 H 37.179718 28.210852 55.197961 0
M  V30 END ATOM
M  V30 BEGIN BOND
M  V30 1 1 7 2
M  V30 2 1 8 3
M  V30 3 1 11 8
M  V30 4 1 13 3
M  V30 5 1 13 7
M  V30 6 1 14 10
M  V30 7 1 17 1
M  V30 8 1 17 5
M  V30 9 1 18 2
M  V30 10 1 19 5
M  V30 11 1 20 6
M  V30 12 1 21 7
M  V30 13 1 21 11
M  V30 14 1 22 5
M  V30 15 1 23 18
M  V30 16 1 24 16
M  V30 17 1 25 6
M  V30 18 1 25 16
M  V30 19 1 25 23
M  V30 20 1 26 1
M  V30 21 2 27 9
M  V30 22 1 27 12
M  V30 23 1 28 19
M  V30 24 1 28 27
M  V30 25 1 29 20
M  V30 26 1 29 23
M  V30 27 1 30 15
M  V30 28 1 31 14
M  V30 29 1 31 28
M  V30 30 1 32 14
M  V30 31 1 32 15
M  V30 32 1 33 4
M  V30 33 1 33 19
M  V30 34 1 33 26
M  V30 35 1 34 20
M  V30 36 1 34 24
M  V30 37 1 35 10
M  V30 38 1 35 15
M  V30 39 1 35 16
M  V30 40 1 36 32
M  V30 41 1 37 1
M  V30 42 1 38 1
M  V30 43 1 39 2
M  V30 44 1 40 3
M  V30 45 1 41 3
M  V30 46 1 5 42 CFG=1
M  V30 47 1 43 6
M  V30 48 1 44 6
M  V30 49 1 45 7
M  V30 50 1 46 8
M  V30 51 1 47 8
M  V30 52 1 48 11
M  V30 53 1 49 11
M  V30 54 1 50 13
M  V30 55 1 51 13
M  V30 56 1 14 52 CFG=1
M  V30 57 1 15 53 CFG=1
M  V30 58 1 16 54 CFG=3
M  V30 59 1 55 17
M  V30 60 1 56 17
M  V30 61 1 57 18
M  V30 62 1 19 58 CFG=1
M  V30 63 1 20 59 CFG=1
M  V30 64 1 60 21
M  V30 65 1 61 21
M  V30 66 1 62 22
M  V30 67 1 63 22
M  V30 68 1 64 22
M  V30 69 1 23 65 CFG=1
M  V30 70 1 66 24
M  V30 71 1 67 24
M  V30 72 1 25 68 CFG=1
M  V30 73 1 69 26
M  V30 74 1 70 26
M  V30 75 1 28 71 CFG=3
M  V30 76 1 72 29
M  V30 77 1 73 29
M  V30 78 1 74 30
M  V30 79 1 75 31
M  V30 80 1 76 31
M  V30 81 1 32 77 CFG=3
M  V30 82 1 33 78 CFG=3
M  V30 83 1 79 34
M  V30 84 1 80 34
M  V30 85 1 35 81 CFG=1
M  V30 86 1 82 36
M  V30 87 1 83 18
M  V30 END BOND
M  V30 END CTAB
M  END
>  <i_epik_Tot_Q>  (1) 
0

>  <i_epik_Tot_abs_Q>  (1) 
2

>  <i_i_glide_confnum>  (1) 
1250

>  <i_i_glide_lignum>  (1) 
221

>  <i_i_glide_posenum>  (1) 
30

>  <i_i_glide_rotatable_bonds>  (1) 
10

>  <i_lp_mmshare_version>  (1) 
72125

>  <i_m_source_file_index>  (1) 
86

>  <i_f3d_flags>  (1) 
0

>  <num_sample>  (1) 
100

>  <b_lp_Chiralities_Consistent>  (1) 
1

>  <r_epik_Charging_Adjusted_Penalty>  (1) 
0.24139881983135253

>  <r_epik_Ionization_Penalty>  (1) 
0.013577590547947769

>  <r_epik_Ionization_Penalty_Charging>  (1) 
0.013577468157686226

>  <r_epik_Ionization_Penalty_Neutral>  (1) 
1.223902615442005e-07

>  <r_epik_State_Penalty>  (1) 
0.22782135167366629

>  <r_glide_ring_energy>  (1) 
2.019034296644469

>  <r_i_docking_score>  (1) 
-7.4828042802333155

>  <r_i_glide_ecoul>  (1) 
-1.2890548865545948

>  <r_i_glide_eff_state_penalty>  (1) 
0.22782135167366629

>  <r_i_glide_einternal>  (1) 
19.055891735778332

>  <r_i_glide_emodel>  (1) 
-22.291796457369053

>  <r_i_glide_emodel_strain>  (1) 
5.0552129063990634

>  <r_i_glide_energy>  (1) 
-29.352728130341415

>  <r_i_glide_erotb>  (1) 
0.49083612240102314

>  <r_i_glide_esite>  (1) 
0

>  <r_i_glide_evdw>  (1) 
-28.06367324378682

>  <r_i_glide_gscore>  (1) 
-7.7106256319069821

>  <r_i_glide_gscore_strain>  (1) 
0.26380322659976585

>  <r_i_glide_hbond>  (1) 
-0.32341891753398189

>  <r_i_glide_ligand_efficiency>  (1) 
-0.20785567445092543

>  <r_i_glide_ligand_efficiency_ln>  (1) 
-1.6325457319379566

>  <r_i_glide_ligand_efficiency_sa>  (1) 
-0.68632431530688143

>  <r_i_glide_lipo>  (1) 
-5.6950144988552154

>  <r_i_glide_metal>  (1) 
-0

>  <r_i_glide_rewards>  (1) 
-0.850289669346044

>  <r_lp_Energy>  (1) 
69.175754999999995

>  <s_epik_cmdline>  (1) 
J2VwaWtfcHl0aG9uJywgJy1waHQnLCAnMS4wJywgJy1waCcsICc3LjQnLCAnLXRuJywgJzgnLCAnLW1hJywgJzUwMCcsICctaW1hZScsICc8aW5maWxlLm1hZT4nLCAnLW9tYWUnLCAnPG91dGZpbGUubWFlPic=

>  <s_epik_input>  (1) 
W0NIM11bQ0BIXTFbQ0gyXVtDSDJdW0NIMl1bQ0BIXShDbClbQ0BIXTFbQ0BASF0oQyg9TylbT0hdKVtDSDJdW0NAQEhdMlNbQ0BASF0oW0NAQEhdKFtPSF0pW0NASF0yW09IXSlbQ0BASF0oW0NIMl1bQ0gyXTMpW0NASF0oW0NIMl1bQ0BIXTM0KVtDQEhdKFtDSDJdNClbTkhdW05IXVtDSF01W0NIMl1bQ0gyXVtDSDJdW0NIMl1bQ0gyXTU=

>  <s_glide_docking_method>  (1) 
confgen

>  <s_i_glide_gridfile>  (1) 
gpcr_5ht2c_6bqh_protein_autoprepared_prepared

>  <s_lp_Force_Field>  (1) 
S-OPLS

>  <s_lp_Variant>  (1) 
DiffSBDD_85_num_sample_100-2

>  <s_m_source_file>  (1) 
generated__ligand_DiffSBDD_2026-05-06_prepared.sdf

>  <GenAI_Model>  (1) 
DiffSBDD

>  <Protein>  (1) 
GPCR_5HT2C

$$$$
DiffSBDD_77_num_sample_100
     RDKit          3D

  0  0  0  0  0  0  0  0  0  0999 V3000
M  V30 BEGIN CTAB
M  V30 COUNTS 77 79 0 0 1
M  V30 BEGIN ATOM
M  V30 1 C 40.993758 29.558783 65.405373 0
M  V30 2 F 44.270371 29.382296 63.748118 0
M  V30 3 C 39.301854 27.243290 58.896282 0
M  V30 4 C 40.454700 30.709365 64.797628 0
M  V30 5 C 39.578342 30.737738 53.236370 0
M  V30 6 C 39.186417 31.004486 61.720382 0
M  V30 7 C 37.439033 29.406356 57.986947 0
M  V30 8 C 38.421287 31.309474 59.283547 0 CFG=2
M  V30 9 O 38.750720 30.919149 55.749847 0
M  V30 10 C 40.017207 31.071064 51.791805 0
M  V30 11 N 40.227885 35.643315 62.016115 0
M  V30 12 C 40.620636 32.645606 63.151244 0
M  V30 13 C 43.030385 29.811467 64.087265 0
M  V30 14 O 40.598520 26.421360 56.137272 0
M  V30 15 C 40.806754 27.613052 56.853883 0
M  V30 16 C 41.201810 31.410031 63.825474 0
M  V30 17 F 42.794698 28.002000 65.632720 0
M  V30 18 C 39.581663 33.428169 60.094323 0
M  V30 19 O 39.467093 37.221883 63.438303 0
M  V30 20 O 36.847195 31.428755 61.134248 0
M  V30 21 C 42.280109 29.109217 65.049641 0
M  V30 22 C 39.663510 28.662635 51.194918 0
M  V30 23 N 39.224180 28.855236 54.896350 0
M  V30 24 C 38.985654 34.887157 62.007660 0
M  V30 25 C 42.491229 30.959445 63.474475 0
M  V30 26 C 39.534165 28.012762 57.602873 0
M  V30 27 C 40.362080 36.757035 62.737538 0
M  V30 28 C 39.467166 28.278230 52.574658 0
M  V30 29 C 38.582488 32.824457 59.112360 0
M  V30 30 F 39.600787 27.717196 50.253564 0
M  V30 31 C 39.303708 26.817827 52.934858 0
M  V30 32 C 39.305498 32.411838 62.358228 0 CFG=1
M  V30 33 C 38.901629 29.709071 55.903911 0
M  V30 34 N 37.467270 30.817552 58.312882 0
M  V30 35 C 38.667883 28.997253 57.180520 0
M  V30 36 C 39.423841 29.229578 53.531792 0
M  V30 37 C 39.903732 29.923890 50.822268 0
M  V30 38 C 38.049400 30.821745 60.699948 0 CFG=2
M  V30 39 N 38.968498 33.525147 61.428790 0 CFG=2 CHG=1
M  V30 40 H 40.418254 29.019199 66.143032 0
M  V30 41 H 39.609957 27.830666 59.762952 0
M  V30 42 H 38.267339 26.941425 59.013198 0
M  V30 43 H 39.869080 26.313553 58.896868 0
M  V30 44 H 39.467647 31.046709 65.073045 0
M  V30 45 H 38.628665 31.242893 53.411421 0
M  V30 46 H 40.316902 31.181533 53.908501 0
M  V30 47 H 40.130421 30.709376 61.262634 0
M  V30 48 H 39.026798 30.275862 62.516842 0
M  V30 49 H 36.569769 29.222765 57.360443 0
M  V30 50 H 37.282102 28.813350 58.877776 0
M  V30 51 H 39.382196 30.850293 59.048941 0
M  V30 52 H 41.066231 31.351098 51.794774 0
M  V30 53 H 39.467458 31.926267 51.401033 0
M  V30 54 H 41.003508 35.309855 61.461999 0
M  V30 55 H 41.378563 33.047152 62.477976 0
M  V30 56 H 40.469824 33.407110 63.917480 0
M  V30 57 H 41.337489 25.840620 56.294932 0
M  V30 58 H 41.573756 27.411557 57.602009 0
M  V30 59 H 41.253298 28.392434 56.237340 0
M  V30 60 H 40.484022 32.823668 60.176690 0
M  V30 61 H 39.867760 34.410940 59.721747 0
M  V30 62 H 36.199668 31.266565 60.458547 0
M  V30 63 H 39.250638 27.863263 55.100169 0
M  V30 64 H 38.233162 35.478958 61.483956 0
M  V30 65 H 38.667527 34.832365 63.043461 0
M  V30 66 H 43.067348 31.494005 62.734986 0
M  V30 67 H 41.365619 37.190945 62.622663 0
M  V30 68 H 38.935238 33.017530 58.097535 0
M  V30 69 H 37.619104 33.333346 59.193363 0
M  V30 70 H 39.466992 26.187603 52.062335 0
M  V30 71 H 40.044034 26.521370 53.674274 0
M  V30 72 H 38.303740 26.612835 53.319409 0
M  V30 73 H 38.478685 32.446984 63.053515 0
M  V30 74 H 36.640924 31.372005 58.047581 0
M  V30 75 H 40.043757 30.156305 49.777012 0
M  V30 76 H 37.867473 29.751320 60.652866 0
M  V30 77 H 37.988315 33.348884 61.245006 0
M  V30 END ATOM
M  V30 BEGIN BOND
M  V30 1 2 4 1
M  V30 2 1 10 5
M  V30 3 1 13 2
M  V30 4 1 15 14
M  V30 5 1 16 4
M  V30 6 1 16 12
M  V30 7 1 21 1
M  V30 8 2 21 13
M  V30 9 1 21 17
M  V30 10 1 24 11
M  V30 11 1 25 13
M  V30 12 2 25 16
M  V30 13 1 26 3
M  V30 14 1 26 15
M  V30 15 1 27 11
M  V30 16 2 27 19
M  V30 17 1 28 22
M  V30 18 1 29 8
M  V30 19 1 29 18
M  V30 20 1 30 22
M  V30 21 1 31 28
M  V30 22 1 32 6
M  V30 23 1 32 12
M  V30 24 2 33 9
M  V30 25 1 33 23
M  V30 26 1 34 7
M  V30 27 1 34 8
M  V30 28 1 35 7
M  V30 29 2 35 26
M  V30 30 1 35 33
M  V30 31 1 36 5
M  V30 32 1 36 23
M  V30 33 2 36 28
M  V30 34 1 37 10
M  V30 35 2 37 22
M  V30 36 1 38 6
M  V30 37 1 38 8
M  V30 38 1 38 20
M  V30 39 1 39 18
M  V30 40 1 39 24
M  V30 41 1 39 32
M  V30 42 1 40 1
M  V30 43 1 41 3
M  V30 44 1 42 3
M  V30 45 1 43 3
M  V30 46 1 44 4
M  V30 47 1 45 5
M  V30 48 1 46 5
M  V30 49 1 47 6
M  V30 50 1 48 6
M  V30 51 1 49 7
M  V30 52 1 50 7
M  V30 53 1 8 51 CFG=3
M  V30 54 1 52 10
M  V30 55 1 53 10
M  V30 56 1 54 11
M  V30 57 1 55 12
M  V30 58 1 56 12
M  V30 59 1 57 14
M  V30 60 1 58 15
M  V30 61 1 59 15
M  V30 62 1 60 18
M  V30 63 1 61 18
M  V30 64 1 62 20
M  V30 65 1 63 23
M  V30 66 1 64 24
M  V30 67 1 65 24
M  V30 68 1 66 25
M  V30 69 1 67 27
M  V30 70 1 68 29
M  V30 71 1 69 29
M  V30 72 1 70 31
M  V30 73 1 71 31
M  V30 74 1 72 31
M  V30 75 1 32 73 CFG=1
M  V30 76 1 74 34
M  V30 77 1 75 37
M  V30 78 1 38 76 CFG=3
M  V30 79 1 39 77 CFG=3
M  V30 END BOND
M  V30 END CTAB
M  END
>  <i_epik_Tot_Q>  (1) 
1

>  <i_epik_Tot_abs_Q>  (1) 
1

>  <i_i_glide_confnum>  (1) 
9857

>  <i_i_glide_lignum>  (1) 
195

>  <i_i_glide_posenum>  (1) 
248

>  <i_i_glide_rotatable_bonds>  (1) 
14

>  <i_lp_mmshare_version>  (1) 
72125

>  <i_m_source_file_index>  (1) 
78

>  <i_f3d_flags>  (1) 
0

>  <num_sample>  (1) 
100

>  <b_lp_Chiralities_Consistent>  (1) 
1

>  <r_epik_Charging_Adjusted_Penalty>  (1) 
1.2599673287133732

>  <r_epik_Ionization_Penalty>  (1) 
0.56885031527891383

>  <r_epik_Ionization_Penalty_Charging>  (1) 
0.52000942162343

>  <r_epik_Ionization_Penalty_Neutral>  (1) 
0.048840893655483872

>  <r_epik_State_Penalty>  (1) 
0.73995790708994325

>  <r_glide_ring_energy>  (1) 
0

>  <r_i_docking_score>  (1) 
-7.4763866494845619

>  <r_i_glide_ecoul>  (1) 
-6.2062006974151576

>  <r_i_glide_eff_state_penalty>  (1) 
0.73995790708994325

>  <r_i_glide_einternal>  (1) 
28.342532172393685

>  <r_i_glide_emodel>  (1) 
-55.323026313373681

>  <r_i_glide_emodel_strain>  (1) 
5.3226442560448248

>  <r_i_glide_energy>  (1) 
-48.432081357370855

>  <r_i_glide_erotb>  (1) 
0.67934156738045093

>  <r_i_glide_esite>  (1) 
0

>  <r_i_glide_evdw>  (1) 
-42.225880659955699

>  <r_i_glide_gscore>  (1) 
-8.216344556574505

>  <r_i_glide_gscore_strain>  (1) 
0.33066106401120621

>  <r_i_glide_hbond>  (1) 
-0.67756304493972697

>  <r_i_glide_ligand_efficiency>  (1) 
-0.19170222178165544

>  <r_i_glide_ligand_efficiency_ln>  (1) 
-1.6031495275052958

>  <r_i_glide_ligand_efficiency_sa>  (1) 
-0.65010276815718959

>  <r_i_glide_lipo>  (1) 
-3.6548764369695617

>  <r_i_glide_metal>  (1) 
-0

>  <r_i_glide_rewards>  (1) 
-1.8516835684468151

>  <r_lp_Energy>  (1) 
52.196855999999997

>  <s_epik_Chemistry_Notes>  (1) 
This compound contains an acetal/aminal-like group ( X-CH(R)-Y where X, Y are N, S, or O) that may be acid/base labile, releasing an aldehyde.

>  <s_epik_cmdline>  (1) 
J2VwaWtfcHl0aG9uJywgJy1waHQnLCAnMS4wJywgJy1waCcsICc3LjQnLCAnLXRuJywgJzgnLCAnLW1hJywgJzUwMCcsICctaW1hZScsICc8aW5maWxlLm1hZT4nLCAnLW9tYWUnLCAnPG91dGZpbGUubWFlPic=

>  <s_epik_input>  (1) 
RmMxYyhGKVtjSF1bY0hdYyhbY0hdMSlbQ0gyXVtDQEhdKFtDSDJdW0NASF0yW09IXSlOKFtDSDJdW05IXVtDSF09TylbQ0gyXVtDSDJdW0NAQEhdMltOSF1bQ0gyXS9DKD1DKFxbQ0gzXSlbQ0gyXVtPSF0pQyg9TylbTkhdQyg9QzNbQ0gzXSlbQ0gyXVtDSDJdW0NIXT1DM0Y=

>  <s_glide_docking_method>  (1) 
confgen

>  <s_i_glide_gridfile>  (1) 
gpcr_5ht2c_6bqh_protein_autoprepared_prepared

>  <s_lp_Force_Field>  (1) 
S-OPLS

>  <s_lp_Variant>  (1) 
DiffSBDD_77_num_sample_100-6

>  <s_m_source_file>  (1) 
generated__ligand_DiffSBDD_2026-05-06_prepared.sdf

>  <GenAI_Model>  (1) 
DiffSBDD

>  <Protein>  (1) 
GPCR_5HT2C

$$$$
DiffSBDD_77_num_sample_100
     RDKit          3D

  0  0  0  0  0  0  0  0  0  0999 V3000
M  V30 BEGIN CTAB
M  V30 COUNTS 77 79 0 0 1
M  V30 BEGIN ATOM
M  V30 1 C 38.881713 27.897418 51.265191 0
M  V30 2 F 40.014762 31.295994 52.038124 0
M  V30 3 C 40.230335 28.463777 62.262514 0
M  V30 4 C 38.755164 27.365125 52.559749 0
M  V30 5 C 40.648635 35.280060 62.318224 0
M  V30 6 C 37.861880 29.493645 56.400125 0
M  V30 7 C 38.534703 30.718782 61.122708 0
M  V30 8 C 38.921694 30.387525 58.615659 0 CFG=2
M  V30 9 O 41.261458 32.735349 62.750483 0
M  V30 10 C 40.762158 36.804300 62.159657 0
M  V30 11 N 38.884549 25.026441 57.054671 0
M  V30 12 C 39.098444 27.519033 55.065119 0
M  V30 13 C 39.597624 30.021459 52.208464 0
M  V30 14 O 42.565627 28.974182 63.612738 0
M  V30 15 C 41.877839 30.170598 63.288711 0
M  V30 16 C 39.067520 28.154187 53.682367 0
M  V30 17 F 39.467402 29.724972 49.844825 0
M  V30 18 C 40.162966 28.232846 57.880897 0
M  V30 19 O 36.668209 24.867581 56.594709 0
M  V30 20 O 36.760475 29.221430 58.568751 0
M  V30 21 C 39.315449 29.221444 51.090053 0
M  V30 22 C 38.332421 36.858035 61.523833 0
M  V30 23 N 39.262320 33.244239 61.762675 0
M  V30 24 C 38.758198 26.132064 58.002356 0
M  V30 25 C 39.467400 29.495626 53.502417 0
M  V30 26 C 40.591873 29.937524 62.467006 0
M  V30 27 C 37.824164 24.481424 56.435394 0
M  V30 28 C 38.254852 35.407753 61.455277 0
M  V30 29 C 39.857018 29.209640 59.003935 0
M  V30 30 F 37.234914 37.581569 61.244662 0
M  V30 31 C 36.975684 34.729510 60.980786 0
M  V30 32 C 38.267445 27.991493 56.285546 0 CFG=1
M  V30 33 C 40.219885 32.377728 62.208570 0
M  V30 34 N 38.626013 31.274504 59.752596 0
M  V30 35 C 39.819227 30.965349 61.954749 0
M  V30 36 C 39.327455 34.667886 61.823728 0
M  V30 37 C 39.459114 37.503115 61.853493 0
M  V30 38 C 37.620018 30.053584 57.832931 0 CFG=2
M  V30 39 N 38.893691 27.547157 57.553885 0 CFG=2 CHG=1
M  V30 40 H 38.667483 27.282099 50.404880 0
M  V30 41 H 40.326862 27.934547 63.210545 0
M  V30 42 H 39.213414 28.250020 61.956756 0
M  V30 43 H 40.916535 28.003598 61.552031 0
M  V30 44 H 38.456742 26.343011 52.689939 0
M  V30 45 H 40.765913 35.050919 63.378826 0
M  V30 46 H 41.492657 34.864285 61.769183 0
M  V30 47 H 38.629837 30.135765 55.993806 0
M  V30 48 H 36.981670 29.669662 55.780326 0
M  V30 49 H 38.219008 29.689418 61.076681 0
M  V30 50 H 37.713329 31.206091 61.648739 0
M  V30 51 H 39.467409 30.995663 57.897989 0
M  V30 52 H 41.446332 37.026178 61.340718 0
M  V30 53 H 41.209392 37.221431 63.053514 0
M  V30 54 H 39.807499 24.656069 56.875131 0
M  V30 55 H 40.157586 27.530230 55.317249 0
M  V30 56 H 38.898231 26.463670 54.904082 0
M  V30 57 H 42.969315 28.613715 62.834497 0
M  V30 58 H 41.628304 30.671787 64.224974 0
M  V30 59 H 42.598003 30.782173 62.746556 0
M  V30 60 H 40.581766 28.782029 57.037444 0
M  V30 61 H 40.927390 27.519153 58.191864 0
M  V30 62 H 35.876546 29.529131 58.410334 0
M  V30 63 H 38.416789 32.853988 61.370303 0
M  V30 64 H 39.464364 25.945974 58.812144 0
M  V30 65 H 37.789296 26.066415 58.494379 0
M  V30 66 H 39.734442 30.103754 54.346406 0
M  V30 67 H 38.128659 23.656651 55.773928 0
M  V30 68 H 40.792312 29.602771 59.403600 0
M  V30 69 H 39.407183 28.607752 59.784486 0
M  V30 70 H 36.266833 35.451699 60.580096 0
M  V30 71 H 37.185580 34.015477 60.183263 0
M  V30 72 H 36.491500 34.202989 61.803828 0
M  V30 73 H 37.362933 27.407309 56.224016 0
M  V30 74 H 39.185163 32.122040 59.716363 0
M  V30 75 H 39.468280 38.581496 61.885658 0
M  V30 76 H 37.086191 30.995440 57.721496 0
M  V30 77 H 38.257424 27.998523 58.205465 0
M  V30 END ATOM
M  V30 BEGIN BOND
M  V30 1 2 4 1
M  V30 2 1 10 5
M  V30 3 1 13 2
M  V30 4 1 15 14
M  V30 5 1 16 4
M  V30 6 1 16 12
M  V30 7 1 21 1
M  V30 8 2 21 13
M  V30 9 1 21 17
M  V30 10 1 24 11
M  V30 11 1 25 13
M  V30 12 2 25 16
M  V30 13 1 26 3
M  V30 14 1 26 15
M  V30 15 1 27 11
M  V30 16 2 27 19
M  V30 17 1 28 22
M  V30 18 1 29 8
M  V30 19 1 29 18
M  V30 20 1 30 22
M  V30 21 1 31 28
M  V30 22 1 32 6
M  V30 23 1 32 12
M  V30 24 2 33 9
M  V30 25 1 33 23
M  V30 26 1 34 7
M  V30 27 1 34 8
M  V30 28 1 35 7
M  V30 29 2 35 26
M  V30 30 1 35 33
M  V30 31 1 36 5
M  V30 32 1 36 23
M  V30 33 2 36 28
M  V30 34 1 37 10
M  V30 35 2 37 22
M  V30 36 1 38 6
M  V30 37 1 38 8
M  V30 38 1 38 20
M  V30 39 1 39 18
M  V30 40 1 39 24
M  V30 41 1 39 32
M  V30 42 1 40 1
M  V30 43 1 41 3
M  V30 44 1 42 3
M  V30 45 1 43 3
M  V30 46 1 44 4
M  V30 47 1 45 5
M  V30 48 1 46 5
M  V30 49 1 47 6
M  V30 50 1 48 6
M  V30 51 1 49 7
M  V30 52 1 50 7
M  V30 53 1 8 51 CFG=3
M  V30 54 1 52 10
M  V30 55 1 53 10
M  V30 56 1 54 11
M  V30 57 1 55 12
M  V30 58 1 56 12
M  V30 59 1 57 14
M  V30 60 1 58 15
M  V30 61 1 59 15
M  V30 62 1 60 18
M  V30 63 1 61 18
M  V30 64 1 62 20
M  V30 65 1 63 23
M  V30 66 1 64 24
M  V30 67 1 65 24
M  V30 68 1 66 25
M  V30 69 1 67 27
M  V30 70 1 68 29
M  V30 71 1 69 29
M  V30 72 1 70 31
M  V30 73 1 71 31
M  V30 74 1 72 31
M  V30 75 1 32 73 CFG=3
M  V30 76 1 74 34
M  V30 77 1 75 37
M  V30 78 1 38 76 CFG=3
M  V30 79 1 39 77 CFG=1
M  V30 END BOND
M  V30 END CTAB
M  END
>  <i_epik_Tot_Q>  (1) 
1

>  <i_epik_Tot_abs_Q>  (1) 
1

>  <i_i_glide_confnum>  (1) 
2547

>  <i_i_glide_lignum>  (1) 
195

>  <i_i_glide_posenum>  (1) 
50

>  <i_i_glide_rotatable_bonds>  (1) 
14

>  <i_lp_mmshare_version>  (1) 
72125

>  <i_m_source_file_index>  (1) 
78

>  <i_f3d_flags>  (1) 
0

>  <num_sample>  (1) 
100

>  <b_lp_Chiralities_Consistent>  (1) 
1

>  <r_epik_Charging_Adjusted_Penalty>  (1) 
1.2599673287133732

>  <r_epik_Ionization_Penalty>  (1) 
0.56885031527891383

>  <r_epik_Ionization_Penalty_Charging>  (1) 
0.52000942162343

>  <r_epik_Ionization_Penalty_Neutral>  (1) 
0.048840893655483872

>  <r_epik_State_Penalty>  (1) 
0.73995790708994325

>  <r_glide_ring_energy>  (1) 
0

>  <r_i_docking_score>  (1) 
-7.4656818840625192

>  <r_i_glide_ecoul>  (1) 
-1.2167243220662289

>  <r_i_glide_eff_state_penalty>  (1) 
0.73995790708994325

>  <r_i_glide_einternal>  (1) 
27.848221707083678

>  <r_i_glide_emodel>  (1) 
-54.422317995864042

>  <r_i_glide_emodel_strain>  (1) 
6.5391164815060421

>  <r_i_glide_energy>  (1) 
-48.53506586546235

>  <r_i_glide_erotb>  (1) 
0.67934156738045093

>  <r_i_glide_esite>  (1) 
0

>  <r_i_glide_evdw>  (1) 
-47.318341543396123

>  <r_i_glide_gscore>  (1) 
-8.2056397911524623

>  <r_i_glide_gscore_strain>  (1) 
0.63477912037651052

>  <r_i_glide_hbond>  (1) 
-0.17929898160458577

>  <r_i_glide_ligand_efficiency>  (1) 
-0.19142774061698767

>  <r_i_glide_ligand_efficiency_ln>  (1) 
-1.6008541219259729

>  <r_i_glide_ligand_efficiency_sa>  (1) 
-0.6491719444906765

>  <r_i_glide_lipo>  (1) 
-4.0983777642487098

>  <r_i_glide_metal>  (1) 
-0

>  <r_i_glide_rewards>  (1) 
-2.6936580075763885

>  <r_lp_Energy>  (1) 
52.196855999999997

>  <s_epik_Chemistry_Notes>  (1) 
This compound contains an acetal/aminal-like group ( X-CH(R)-Y where X, Y are N, S, or O) that may be acid/base labile, releasing an aldehyde.

>  <s_epik_cmdline>  (1) 
J2VwaWtfcHl0aG9uJywgJy1waHQnLCAnMS4wJywgJy1waCcsICc3LjQnLCAnLXRuJywgJzgnLCAnLW1hJywgJzUwMCcsICctaW1hZScsICc8aW5maWxlLm1hZT4nLCAnLW9tYWUnLCAnPG91dGZpbGUubWFlPic=

>  <s_epik_input>  (1) 
RmMxYyhGKVtjSF1bY0hdYyhbY0hdMSlbQ0gyXVtDQEhdKFtDSDJdW0NASF0yW09IXSlOKFtDSDJdW05IXVtDSF09TylbQ0gyXVtDSDJdW0NAQEhdMltOSF1bQ0gyXS9DKD1DKFxbQ0gzXSlbQ0gyXVtPSF0pQyg9TylbTkhdQyg9QzNbQ0gzXSlbQ0gyXVtDSDJdW0NIXT1DM0Y=

>  <s_glide_docking_method>  (1) 
confgen

>  <s_i_glide_gridfile>  (1) 
gpcr_5ht2c_6bqh_protein_autoprepared_prepared

>  <s_lp_Force_Field>  (1) 
S-OPLS

>  <s_lp_Variant>  (1) 
DiffSBDD_77_num_sample_100-6

>  <s_m_source_file>  (1) 
generated__ligand_DiffSBDD_2026-05-06_prepared.sdf

>  <GenAI_Model>  (1) 
DiffSBDD

>  <Protein>  (1) 
GPCR_5HT2C

$$$$
DiffSBDD_6_num_sample_100
     RDKit          3D

  0  0  0  0  0  0  0  0  0  0999 V3000
M  V30 BEGIN CTAB
M  V30 COUNTS 67 70 0 0 1
M  V30 BEGIN ATOM
M  V30 1 C 38.760005 33.667080 59.947565 0 CFG=1
M  V30 2 C 39.432597 28.334642 50.616727 0
M  V30 3 O 39.786111 30.421385 57.506196 0
M  V30 4 C 38.574744 27.190500 57.128363 0 CFG=2
M  V30 5 N 38.346236 32.618960 60.894698 0
M  V30 6 N 38.486655 29.218377 54.789593 0
M  V30 7 O 39.810686 25.221434 57.853382 0
M  V30 8 C 38.003253 28.575444 57.536164 0 CFG=1
M  V30 9 O 37.467883 26.421185 56.686511 0
M  V30 10 O 38.767970 31.403380 54.221556 0
M  V30 11 S 39.502830 36.691609 62.741359 0
M  V30 12 S 39.234025 29.472540 58.567043 0
M  V30 13 O 40.667807 28.221318 56.203372 0
M  V30 14 C 39.090563 26.341791 58.320393 0
M  V30 15 C 37.971595 33.552406 58.624413 0
M  V30 16 C 40.267408 29.235129 49.938308 0
M  V30 17 C 37.378103 35.574265 61.161826 0
M  V30 18 S 37.446831 36.527244 62.653438 0
M  V30 19 C 41.727223 27.808222 57.053767 0
M  V30 20 O 39.867424 37.919736 62.022542 0
M  V30 21 C 38.930051 31.309374 60.606728 0
M  V30 22 C 38.995856 28.620576 51.916035 0
M  V30 23 C 36.472701 33.734583 58.804818 0
M  V30 24 S 37.467404 29.621428 56.139961 0
M  V30 25 C 39.819634 35.220728 61.684658 0
M  V30 26 C 39.421534 29.813128 52.564800 0
M  V30 27 C 38.724494 35.092532 60.599320 0 CFG=1
M  V30 28 C 36.141566 35.151668 59.199876 0
M  V30 29 O 39.954593 36.421308 64.112901 0
M  V30 30 C 38.926429 27.812645 54.676821 0
M  V30 31 C 38.883398 30.210228 53.938495 0
M  V30 32 C 40.687505 30.416855 50.564870 0
M  V30 33 C 40.266980 30.705739 51.872426 0
M  V30 34 C 39.591265 27.313363 55.962043 0 CFG=2
M  V30 35 N 36.267523 35.345374 60.607518 0
M  V30 36 C 38.077738 30.424605 59.667380 0
M  V30 37 H 39.806433 33.492985 59.697071 0
M  V30 38 H 39.105663 27.430352 50.127310 0
M  V30 39 H 38.619404 32.898335 61.824991 0
M  V30 40 H 40.510923 25.519294 57.291541 0
M  V30 41 H 37.131329 28.418656 58.172509 0
M  V30 42 H 37.021535 26.895048 56.002193 0
M  V30 43 H 38.268170 26.003167 58.952724 0
M  V30 44 H 39.756630 26.885098 58.983750 0
M  V30 45 H 38.267400 34.299548 57.898183 0
M  V30 46 H 38.196294 32.622047 58.110196 0
M  V30 47 H 40.590653 29.018442 48.931488 0
M  V30 48 H 42.583315 28.467566 56.937798 0
M  V30 49 H 41.466585 27.824347 58.107102 0
M  V30 50 H 42.068356 26.821378 56.793555 0
M  V30 51 H 39.022978 30.780589 61.556050 0
M  V30 52 H 39.953064 31.428187 60.253473 0
M  V30 53 H 38.312114 27.943452 52.393719 0
M  V30 54 H 35.995402 33.621410 57.853463 0
M  V30 55 H 36.024551 32.998598 59.471964 0
M  V30 56 H 40.818603 35.301417 61.257263 0
M  V30 57 H 39.817305 34.362463 62.352817 0
M  V30 58 H 36.748850 35.876351 58.653666 0
M  V30 59 H 35.110458 35.366987 58.918059 0
M  V30 60 H 38.094721 27.172782 54.383454 0
M  V30 61 H 39.732349 27.647003 53.970473 0
M  V30 62 H 41.328959 31.110108 50.037730 0
M  V30 63 H 40.577279 31.621426 52.342726 0
M  V30 64 H 40.006212 26.338163 55.705327 0
M  V30 65 H 38.983648 35.833697 59.853531 0
M  V30 66 H 37.360641 30.975265 59.065028 0
M  V30 67 H 37.484722 29.725197 60.252981 0
M  V30 END ATOM
M  V30 BEGIN BOND
M  V30 1 1 5 1
M  V30 2 1 8 4
M  V30 3 1 4 9 CFG=3
M  V30 4 2 12 3
M  V30 5 1 12 8
M  V30 6 1 14 4
M  V30 7 1 14 7
M  V30 8 1 15 1
M  V30 9 2 16 2
M  V30 10 1 18 11
M  V30 11 1 18 17
M  V30 12 1 19 13
M  V30 13 2 20 11
M  V30 14 1 21 5
M  V30 15 1 22 2
M  V30 16 1 23 15
M  V30 17 1 24 6
M  V30 18 1 24 8
M  V30 19 1 25 11
M  V30 20 2 26 22
M  V30 21 1 27 1
M  V30 22 1 27 17
M  V30 23 1 27 25
M  V30 24 1 28 23
M  V30 25 2 29 11
M  V30 26 1 30 6
M  V30 27 1 31 6
M  V30 28 2 31 10
M  V30 29 1 31 26
M  V30 30 1 32 16
M  V30 31 1 33 26
M  V30 32 2 33 32
M  V30 33 1 34 4
M  V30 34 1 34 13
M  V30 35 1 34 30
M  V30 36 2 35 17
M  V30 37 1 35 28
M  V30 38 1 12 36 CFG=1
M  V30 39 1 36 21
M  V30 40 1 1 37 CFG=3
M  V30 41 1 38 2
M  V30 42 1 39 5
M  V30 43 1 40 7
M  V30 44 1 8 41 CFG=1
M  V30 45 1 42 9
M  V30 46 1 43 14
M  V30 47 1 44 14
M  V30 48 1 45 15
M  V30 49 1 46 15
M  V30 50 1 47 16
M  V30 51 1 48 19
M  V30 52 1 49 19
M  V30 53 1 50 19
M  V30 54 1 51 21
M  V30 55 1 52 21
M  V30 56 1 53 22
M  V30 57 1 54 23
M  V30 58 1 55 23
M  V30 59 1 56 25
M  V30 60 1 57 25
M  V30 61 1 58 28
M  V30 62 1 59 28
M  V30 63 1 60 30
M  V30 64 1 61 30
M  V30 65 1 62 32
M  V30 66 1 63 33
M  V30 67 1 34 64 CFG=3
M  V30 68 1 27 65 CFG=3
M  V30 69 1 66 36
M  V30 70 1 67 36
M  V30 END BOND
M  V30 END CTAB
M  END
>  <i_epik_Tot_Q>  (1) 
0

>  <i_epik_Tot_abs_Q>  (1) 
0

>  <i_i_glide_confnum>  (1) 
1025

>  <i_i_glide_lignum>  (1) 
25

>  <i_i_glide_posenum>  (1) 
63

>  <i_i_glide_rotatable_bonds>  (1) 
11

>  <i_lp_mmshare_version>  (1) 
72125

>  <i_m_source_file_index>  (1) 
7

>  <i_f3d_flags>  (1) 
0

>  <num_sample>  (1) 
100

>  <b_lp_Chiralities_Consistent>  (1) 
1

>  <r_epik_Charging_Adjusted_Penalty>  (1) 
0.04024977574551479

>  <r_epik_Ionization_Penalty>  (1) 
0.04050266925573108

>  <r_epik_Ionization_Penalty_Charging>  (1) 
0

>  <r_epik_Ionization_Penalty_Neutral>  (1) 
0.04050266925573108

>  <r_epik_State_Penalty>  (1) 
0.04024977574551479

>  <r_glide_ring_energy>  (1) 
1.134744657807722

>  <r_i_docking_score>  (1) 
-7.4653395670921787

>  <r_i_glide_ecoul>  (1) 
-1.731047632550031

>  <r_i_glide_eff_state_penalty>  (1) 
0.04024977574551479

>  <r_i_glide_einternal>  (1) 
17.407386868652672

>  <r_i_glide_emodel>  (1) 
-49.715950123927897

>  <r_i_glide_emodel_strain>  (1) 
3.2398101254911609

>  <r_i_glide_energy>  (1) 
-40.207760233954033

>  <r_i_glide_erotb>  (1) 
0.34065271397431773

>  <r_i_glide_esite>  (1) 
-0.0080448297168970312

>  <r_i_glide_evdw>  (1) 
-38.476712601404003

>  <r_i_glide_gscore>  (1) 
-7.5055893428376939

>  <r_i_glide_gscore_strain>  (1) 
0

>  <r_i_glide_hbond>  (1) 
-0.029148785362735956

>  <r_i_glide_ligand_efficiency>  (1) 
-0.20737054353033829

>  <r_i_glide_ligand_efficiency_ln>  (1) 
-1.6287354033725816

>  <r_i_glide_ligand_efficiency_sa>  (1) 
-0.68472244830091344

>  <r_i_glide_lipo>  (1) 
-3.5425410388155174

>  <r_i_glide_metal>  (1) 
-0

>  <r_i_glide_rewards>  (1) 
-2.0830146279641566

>  <r_lp_Energy>  (1) 
38.802732999999996

>  <r_lp_tautomer_probability>  (1) 
0.99960115913750414

>  <s_epik_Chemistry_Notes>  (1) 
This compound has an imine and may undergo hydrolysis. This compound contains an acetal/aminal-like group ( X-CH(R)-Y where X, Y are N, S, or O) that may be acid/base labile, releasing an aldehyde. This compound has a N-S or N-O group and may undergo hydrolysis at high or low pH.

>  <s_epik_cmdline>  (1) 
J2VwaWtfcHl0aG9uJywgJy1waHQnLCAnMS4wJywgJy1waCcsICc3LjQnLCAnLXRuJywgJzgnLCAnLW1hJywgJzUwMCcsICctaW1hZScsICc8aW5maWxlLm1hZT4nLCAnLW9tYWUnLCAnPG91dGZpbGUubWFlPic=

>  <s_epik_input>  (1) 
UzFTKD1PKSg9TylbQ0gyXUMoPUMxMilbQ0BIXShbQ0gyXVtDSDJdW0NIMl1bTkhdMilbTkhdW0NIMl1bQ0gyXVtTQF0oPU8pW0NASF0oW0NAXTMoW09IXSlbQ0gyXVtPSF0pU04oW0NIMl1bQ0BIXTNPW0NIM10pQyg9TyljNFtjSF1bY0hdW2NIXVtjSF1bY0hdNA==

>  <s_glide_docking_method>  (1) 
confgen

>  <s_i_glide_gridfile>  (1) 
gpcr_5ht2c_6bqh_protein_autoprepared_prepared

>  <s_lp_Force_Field>  (1) 
S-OPLS

>  <s_lp_Variant>  (1) 
DiffSBDD_6_num_sample_100-1

>  <s_m_source_file>  (1) 
generated__ligand_DiffSBDD_2026-05-06_prepared.sdf

>  <GenAI_Model>  (1) 
DiffSBDD

>  <Protein>  (1) 
GPCR_5HT2C

$$$$
DiffSBDD_13_num_sample_100
     RDKit          3D

  0  0  0  0  0  0  0  0  0  0999 V3000
M  V30 BEGIN CTAB
M  V30 COUNTS 69 72 0 0 1
M  V30 BEGIN ATOM
M  V30 1 C 37.131133 32.500715 59.650803 0 CFG=1
M  V30 2 N 37.734419 24.821251 55.864198 0
M  V30 3 C 41.004468 33.973564 61.953372 0 CFG=2
M  V30 4 C 38.087740 30.558555 58.280286 0
M  V30 5 C 42.040570 32.739756 65.589332 0
M  V30 6 C 37.867409 31.949753 58.411239 0
M  V30 7 C 40.360679 26.582139 57.380744 0
M  V30 8 C 36.873599 36.485192 59.844762 0
M  V30 9 C 39.001248 34.220632 60.303594 0
M  V30 10 O 36.667411 36.646423 61.237316 0
M  V30 11 C 38.908124 32.311732 56.230111 0
M  V30 12 C 38.250023 25.444302 56.691431 0
M  V30 13 C 38.906163 26.236701 57.745532 0 CFG=2
M  V30 14 C 38.714893 30.042058 57.119355 0
M  V30 15 C 36.092349 38.015144 63.106715 0
M  V30 16 O 37.180132 31.625650 60.765296 0
M  V30 17 C 40.408787 28.098173 57.134031 0
M  V30 18 N 41.428116 34.850538 65.974571 0
M  V30 19 C 41.327568 34.616226 64.608798 0
M  V30 20 C 38.223528 27.593125 57.946964 0
M  V30 21 C 38.287569 32.821417 57.380870 0
M  V30 22 C 39.118359 30.930488 56.089702 0
M  V30 23 N 40.792497 35.382903 62.456021 0
M  V30 24 C 38.946745 28.530811 56.967743 0 CFG=1
M  V30 25 C 37.481510 33.932639 60.172317 0 CFG=1
M  V30 26 C 41.122625 36.092984 66.663682 0
M  V30 27 C 41.684146 33.356192 64.358275 0
M  V30 28 C 41.874447 33.679427 66.575909 0
M  V30 29 O 42.029986 31.776680 62.626927 0
M  V30 30 C 36.632239 35.018345 59.452829 0
M  V30 31 C 40.900141 35.621449 63.701452 0
M  V30 32 Cl 39.867391 30.328206 54.653579 0
M  V30 33 C 39.652198 33.422626 61.454471 0
M  V30 34 C 36.457062 37.994785 61.622196 0
M  V30 35 C 41.642086 32.892852 62.964073 0
M  V30 36 H 36.078918 32.501842 59.361575 0
M  V30 37 H 41.677090 34.042499 61.102513 0
M  V30 38 H 37.762127 29.892927 59.061615 0
M  V30 39 H 42.377388 31.724214 65.739357 0
M  V30 40 H 40.667406 26.038428 56.486026 0
M  V30 41 H 41.048575 26.303011 58.179151 0
M  V30 42 H 37.867406 36.829535 59.560395 0
M  V30 43 H 36.164927 37.098656 59.286209 0
M  V30 44 H 39.537818 34.021436 59.378257 0
M  V30 45 H 39.141041 35.280074 60.501680 0
M  V30 46 H 39.218315 32.985000 55.445453 0
M  V30 47 H 38.861973 25.641213 58.657097 0
M  V30 48 H 35.867399 39.028136 63.441387 0
M  V30 49 H 35.211860 37.403733 63.304914 0
M  V30 50 H 36.908646 37.621432 63.712598 0
M  V30 51 H 36.670165 32.021586 61.453147 0
M  V30 52 H 41.034329 28.357408 56.279882 0
M  V30 53 H 40.836426 28.588111 58.010395 0
M  V30 54 H 38.403694 27.888333 58.980455 0
M  V30 55 H 37.144831 27.560085 57.789381 0
M  V30 56 H 38.127711 33.878009 57.463953 0
M  V30 57 H 38.614913 28.251683 55.966425 0
M  V30 58 H 37.089523 34.000166 61.188695 0
M  V30 59 H 41.067353 35.918010 67.737897 0
M  V30 60 H 41.907584 36.821417 66.468625 0
M  V30 61 H 40.160128 36.488338 66.337760 0
M  V30 62 H 42.028973 33.627008 67.644137 0
M  V30 63 H 36.717353 34.944977 58.377015 0
M  V30 64 H 35.580688 34.802648 59.647610 0
M  V30 65 H 40.667426 36.609353 64.103885 0
M  V30 66 H 38.971089 33.389133 62.306185 0
M  V30 67 H 39.771484 32.387721 61.129398 0
M  V30 68 H 37.350647 38.589814 61.430275 0
M  V30 69 H 35.635130 38.430486 61.053476 0
M  V30 END ATOM
M  V30 BEGIN BOND
M  V30 1 1 6 1
M  V30 2 2 6 4
M  V30 3 1 10 8
M  V30 4 3 12 2
M  V30 5 1 13 7
M  V30 6 1 13 12
M  V30 7 1 14 4
M  V30 8 1 16 1
M  V30 9 1 17 7
M  V30 10 1 19 18
M  V30 11 1 20 13
M  V30 12 1 21 6
M  V30 13 2 21 11
M  V30 14 1 22 11
M  V30 15 2 22 14
M  V30 16 1 23 3
M  V30 17 1 24 14
M  V30 18 1 24 17
M  V30 19 1 24 20
M  V30 20 1 25 1
M  V30 21 1 25 9
M  V30 22 1 26 18
M  V30 23 1 27 5
M  V30 24 2 27 19
M  V30 25 2 28 5
M  V30 26 1 28 18
M  V30 27 1 30 8
M  V30 28 1 30 25
M  V30 29 1 31 19
M  V30 30 2 31 23
M  V30 31 1 32 22
M  V30 32 1 33 3
M  V30 33 1 33 9
M  V30 34 1 34 10
M  V30 35 1 34 15
M  V30 36 1 35 3
M  V30 37 1 35 27
M  V30 38 2 35 29
M  V30 39 1 1 36 CFG=3
M  V30 40 1 3 37 CFG=3
M  V30 41 1 38 4
M  V30 42 1 39 5
M  V30 43 1 40 7
M  V30 44 1 41 7
M  V30 45 1 42 8
M  V30 46 1 43 8
M  V30 47 1 44 9
M  V30 48 1 45 9
M  V30 49 1 46 11
M  V30 50 1 13 47 CFG=1
M  V30 51 1 48 15
M  V30 52 1 49 15
M  V30 53 1 50 15
M  V30 54 1 51 16
M  V30 55 1 52 17
M  V30 56 1 53 17
M  V30 57 1 54 20
M  V30 58 1 55 20
M  V30 59 1 56 21
M  V30 60 1 24 57 CFG=3
M  V30 61 1 25 58 CFG=1
M  V30 62 1 59 26
M  V30 63 1 60 26
M  V30 64 1 61 26
M  V30 65 1 62 28
M  V30 66 1 63 30
M  V30 67 1 64 30
M  V30 68 1 65 31
M  V30 69 1 66 33
M  V30 70 1 67 33
M  V30 71 1 68 34
M  V30 72 1 69 34
M  V30 END BOND
M  V30 END CTAB
M  END
>  <i_epik_Tot_Q>  (1) 
0

>  <i_epik_Tot_abs_Q>  (1) 
0

>  <i_i_glide_confnum>  (1) 
515

>  <i_i_glide_lignum>  (1) 
31

>  <i_i_glide_posenum>  (1) 
340

>  <i_i_glide_rotatable_bonds>  (1) 
11

>  <i_lp_mmshare_version>  (1) 
72125

>  <i_m_source_file_index>  (1) 
14

>  <i_f3d_flags>  (1) 
0

>  <num_sample>  (1) 
100

>  <b_lp_Chiralities_Consistent>  (1) 
1

>  <r_epik_Charging_Adjusted_Penalty>  (1) 
0

>  <r_epik_Ionization_Penalty>  (1) 
0.00035140533553461783

>  <r_epik_Ionization_Penalty_Charging>  (1) 
0

>  <r_epik_Ionization_Penalty_Neutral>  (1) 
0.00035140533553461783

>  <r_epik_State_Penalty>  (1) 
-0

>  <r_glide_ring_energy>  (1) 
0

>  <r_i_docking_score>  (1) 
-7.4639726660952901

>  <r_i_glide_ecoul>  (1) 
-2.1699770557729945

>  <r_i_glide_eff_state_penalty>  (1) 
-0

>  <r_i_glide_einternal>  (1) 
8.1107174210936233

>  <r_i_glide_emodel>  (1) 
-76.856607206466833

>  <r_i_glide_emodel_strain>  (1) 
0.56601085871275814

>  <r_i_glide_energy>  (1) 
-56.053775824948509

>  <r_i_glide_erotb>  (1) 
0.74574999833683076

>  <r_i_glide_esite>  (1) 
0

>  <r_i_glide_evdw>  (1) 
-53.883798769175513

>  <r_i_glide_gscore>  (1) 
-7.4639726660952901

>  <r_i_glide_gscore_strain>  (1) 
0

>  <r_i_glide_hbond>  (1) 
-0.016900505347755123

>  <r_i_glide_ligand_efficiency>  (1) 
-0.21325636188843686

>  <r_i_glide_ligand_efficiency_ln>  (1) 
-1.6385076541560417

>  <r_i_glide_ligand_efficiency_sa>  (1) 
-0.69757570080665188

>  <r_i_glide_lipo>  (1) 
-3.4349142241049408

>  <r_i_glide_metal>  (1) 
-0

>  <r_i_glide_rewards>  (1) 
-1.7382214381547001

>  <r_lp_Energy>  (1) 
44.436326000000001

>  <r_lp_tautomer_probability>  (1) 
1

>  <s_epik_Chemistry_Notes>  (1) 
This compound has an imine and may undergo hydrolysis.

>  <s_epik_cmdline>  (1) 
J2VwaWtfcHl0aG9uJywgJy1waHQnLCAnMS4wJywgJy1waCcsICc3LjQnLCAnLXRuJywgJzgnLCAnLW1hJywgJzUwMCcsICctaW1hZScsICc8aW5maWxlLm1hZT4nLCAnLW9tYWUnLCAnPG91dGZpbGUubWFlPic=

>  <s_epik_input>  (1) 
TiNDW0NASF0xW0NIMl1bQ0gyXVtDQEBIXShbQ0gyXTEpYyhjKENsKVtjSF1bY0hdMilbY0hdYzJbQ0BASF0oW09IXSlbQ0BIXShbQ0gyXVtDSDJdT1tDSDJdW0NIM10pW0NIMl1bQ0gyXVtDQEBIXShOPVtDSF0zKUMoPU8pYyhjMzQpW2NIXVtjSF1uNFtDSDNd

>  <s_glide_docking_method>  (1) 
confgen

>  <s_i_glide_gridfile>  (1) 
gpcr_5ht2c_6bqh_protein_autoprepared_prepared

>  <s_lp_Force_Field>  (1) 
S-OPLS

>  <s_lp_Variant>  (1) 
DiffSBDD_13_num_sample_100-1

>  <s_m_source_file>  (1) 
generated__ligand_DiffSBDD_2026-05-06_prepared.sdf

>  <GenAI_Model>  (1) 
DiffSBDD

>  <Protein>  (1) 
GPCR_5HT2C

$$$$
DiffSBDD_63_num_sample_100
     RDKit          3D

  0  0  0  0  0  0  0  0  0  0999 V3000
M  V30 BEGIN CTAB
M  V30 COUNTS 67 70 0 0 1
M  V30 BEGIN ATOM
M  V30 1 C 37.988543 32.096854 58.262293 0
M  V30 2 O 37.891807 27.526597 55.862259 0
M  V30 3 C 37.990280 28.797874 55.298708 0 CFG=2
M  V30 4 O 41.466116 28.339557 59.053547 0
M  V30 5 C 38.428953 32.560568 60.751423 0 CFG=2
M  V30 6 C 41.157347 27.674346 57.845141 0
M  V30 7 C 38.899047 27.886619 51.732592 0
M  V30 8 C 39.117275 27.005707 56.375673 0 CFG=1
M  V30 9 F 41.572543 33.490430 66.604823 0
M  V30 10 C 41.358022 32.983045 65.378275 0
M  V30 11 C 40.766901 33.732838 63.044046 0
M  V30 12 S 40.246796 32.640520 60.661853 0
M  V30 13 C 37.914382 31.134924 61.032318 0
M  V30 14 C 38.137464 27.942627 53.063306 0
M  V30 15 N 38.808706 28.765633 54.076104 0
M  V30 16 O 39.067413 29.210398 51.242495 0
M  V30 17 C 41.067464 33.941265 64.339332 0
M  V30 18 C 39.781335 30.034813 52.151991 0
M  V30 19 F 40.861344 30.233164 61.936706 0
M  V30 20 C 40.937457 31.236651 62.830173 0
M  V30 21 C 41.444444 31.651708 65.264888 0
M  V30 22 C 38.434560 29.736180 56.452497 0 CFG=2
M  V30 23 C 39.691354 27.958238 57.462669 0 CFG=2
M  V30 24 C 37.799683 33.079075 59.439352 0
M  V30 25 C 39.070242 30.092277 53.521051 0
M  V30 26 C 38.726659 25.619209 56.906313 0
M  V30 27 C 38.140956 30.204898 59.827144 0
M  V30 28 O 39.685222 29.294799 56.964913 0
M  V30 29 O 39.867409 24.821435 57.077323 0
M  V30 30 F 40.537593 34.852747 62.334485 0
M  V30 31 N 37.467416 30.754373 58.625862 0 CFG=2 CHG=1
M  V30 32 N 40.655234 32.522124 62.350757 0
M  V30 33 C 41.272526 30.853222 64.075626 0
M  V30 34 F 41.735771 30.977216 66.390380 0
M  V30 35 C 37.306159 29.773454 57.516884 0
M  V30 36 H 39.043950 32.028308 57.993986 0
M  V30 37 H 37.467407 32.476280 57.383128 0
M  V30 38 H 36.985310 29.093485 54.996826 0
M  V30 39 H 42.312193 28.041560 59.361302 0
M  V30 40 H 38.124171 33.219395 61.565402 0
M  V30 41 H 41.325021 26.614868 58.024436 0
M  V30 42 H 41.843450 27.978861 57.053643 0
M  V30 43 H 39.867381 27.401379 51.857881 0
M  V30 44 H 38.338419 27.300363 51.005032 0
M  V30 45 H 39.830011 26.894526 55.556469 0
M  V30 46 H 36.846162 31.177953 61.248759 0
M  V30 47 H 38.375592 30.717648 61.926357 0
M  V30 48 H 38.009703 26.925136 53.434221 0
M  V30 49 H 37.134108 28.327378 52.873363 0
M  V30 50 H 41.087417 34.976644 64.648788 0
M  V30 51 H 40.779371 29.621468 52.253472 0
M  V30 52 H 39.886810 31.034905 51.730574 0
M  V30 53 H 38.561095 30.737190 56.044999 0
M  V30 54 H 39.076555 27.882200 58.358979 0
M  V30 55 H 36.732199 33.246042 59.593045 0
M  V30 56 H 38.218854 34.051546 59.180397 0
M  V30 57 H 38.136612 30.650114 53.453508 0
M  V30 58 H 39.711681 30.655826 54.198554 0
M  V30 59 H 38.077709 25.111222 56.191993 0
M  V30 60 H 38.172375 25.688713 57.843163 0
M  V30 61 H 37.742880 29.218937 60.057733 0
M  V30 62 H 39.205385 30.070297 59.629411 0
M  V30 63 H 40.329594 24.758260 56.253551 0
M  V30 64 H 41.434726 29.792553 64.205115 0
M  V30 65 H 36.381978 30.021430 57.001116 0
M  V30 66 H 37.099437 28.785949 57.927988 0
M  V30 67 H 36.509717 30.933199 58.898645 0
M  V30 END ATOM
M  V30 BEGIN BOND
M  V30 1 1 3 2
M  V30 2 1 6 4
M  V30 3 1 8 2
M  V30 4 1 10 9
M  V30 5 1 12 5
M  V30 6 1 13 5
M  V30 7 1 14 7
M  V30 8 1 15 3
M  V30 9 1 15 14
M  V30 10 1 16 7
M  V30 11 1 17 10
M  V30 12 2 17 11
M  V30 13 1 18 16
M  V30 14 1 20 19
M  V30 15 2 21 10
M  V30 16 1 22 3
M  V30 17 1 23 6
M  V30 18 1 23 8
M  V30 19 1 24 1
M  V30 20 1 24 5
M  V30 21 1 25 15
M  V30 22 1 25 18
M  V30 23 1 26 8
M  V30 24 1 27 13
M  V30 25 1 28 22
M  V30 26 1 28 23
M  V30 27 1 29 26
M  V30 28 1 30 11
M  V30 29 1 31 1
M  V30 30 1 31 27
M  V30 31 1 32 11
M  V30 32 1 32 12
M  V30 33 1 32 20
M  V30 34 2 33 20
M  V30 35 1 33 21
M  V30 36 1 34 21
M  V30 37 1 35 22
M  V30 38 1 35 31
M  V30 39 1 36 1
M  V30 40 1 37 1
M  V30 41 1 3 38 CFG=3
M  V30 42 1 39 4
M  V30 43 1 5 40 CFG=1
M  V30 44 1 41 6
M  V30 45 1 42 6
M  V30 46 1 43 7
M  V30 47 1 44 7
M  V30 48 1 8 45 CFG=3
M  V30 49 1 46 13
M  V30 50 1 47 13
M  V30 51 1 48 14
M  V30 52 1 49 14
M  V30 53 1 50 17
M  V30 54 1 51 18
M  V30 55 1 52 18
M  V30 56 1 22 53 CFG=3
M  V30 57 1 23 54 CFG=1
M  V30 58 1 55 24
M  V30 59 1 56 24
M  V30 60 1 57 25
M  V30 61 1 58 25
M  V30 62 1 59 26
M  V30 63 1 60 26
M  V30 64 1 61 27
M  V30 65 1 62 27
M  V30 66 1 63 29
M  V30 67 1 64 33
M  V30 68 1 65 35
M  V30 69 1 66 35
M  V30 70 1 31 67 CFG=1
M  V30 END BOND
M  V30 END CTAB
M  END
>  <i_epik_Tot_Q>  (1) 
1

>  <i_epik_Tot_abs_Q>  (1) 
1

>  <i_i_glide_confnum>  (1) 
51

>  <i_i_glide_lignum>  (1) 
159

>  <i_i_glide_posenum>  (1) 
77

>  <i_i_glide_rotatable_bonds>  (1) 
9

>  <i_lp_mmshare_version>  (1) 
72125

>  <i_m_source_file_index>  (1) 
64

>  <i_f3d_flags>  (1) 
0

>  <num_sample>  (1) 
100

>  <b_lp_Chiralities_Consistent>  (1) 
1

>  <r_epik_Charging_Adjusted_Penalty>  (1) 
0.6833741402111444

>  <r_epik_Ionization_Penalty>  (1) 
0.34168859396029116

>  <r_epik_Ionization_Penalty_Charging>  (1) 
0.34168707010557214

>  <r_epik_Ionization_Penalty_Neutral>  (1) 
1.5238547190056168e-06

>  <r_epik_State_Penalty>  (1) 
0.3416870701055722

>  <r_glide_ring_energy>  (1) 
0.0045149093831275133

>  <r_i_docking_score>  (1) 
-7.4619932285112531

>  <r_i_glide_ecoul>  (1) 
-5.8836989466873764

>  <r_i_glide_eff_state_penalty>  (1) 
0.3416870701055722

>  <r_i_glide_einternal>  (1) 
11.879461592435252

>  <r_i_glide_emodel>  (1) 
-65.238622987144637

>  <r_i_glide_emodel_strain>  (1) 
0.010922625014643472

>  <r_i_glide_energy>  (1) 
-47.107733281986796

>  <r_i_glide_erotb>  (1) 
0.51979340436673749

>  <r_i_glide_esite>  (1) 
-0.13202126578788184

>  <r_i_glide_evdw>  (1) 
-41.224034335299422

>  <r_i_glide_gscore>  (1) 
-7.8036802986168254

>  <r_i_glide_gscore_strain>  (1) 
0

>  <r_i_glide_hbond>  (1) 
-0.13518824677097077

>  <r_i_glide_ligand_efficiency>  (1) 
-0.21319980652889295

>  <r_i_glide_ligand_efficiency_ln>  (1) 
-1.6380731236750954

>  <r_i_glide_ligand_efficiency_sa>  (1) 
-0.6973907044753872

>  <r_i_glide_lipo>  (1) 
-3.3777974166719207

>  <r_i_glide_metal>  (1) 
-0

>  <r_i_glide_rewards>  (1) 
-1.734710214984712

>  <r_lp_Energy>  (1) 
40.670952999999997

>  <s_epik_Chemistry_Notes>  (1) 
This compound contains an acetal/aminal-like group ( X-CH(R)-Y where X, Y are N, S, or O) that may be acid/base labile, releasing an aldehyde. This compound has a N-S or N-O group and may undergo hydrolysis at high or low pH.

>  <s_epik_cmdline>  (1) 
J2VwaWtfcHl0aG9uJywgJy1waHQnLCAnMS4wJywgJy1waCcsICc3LjQnLCAnLXRuJywgJzgnLCAnLW1hJywgJzUwMCcsICctaW1hZScsICc8aW5maWxlLm1hZT4nLCAnLW9tYWUnLCAnPG91dGZpbGUubWFlPic=

>  <s_epik_input>  (1) 
RkMxPUMoRilbQ0hdPUMoRilOKEMoRik9W0NIXTEpU1tDSF0yW0NIMl1bQ0gyXU4oW0NIMl1bQ0gyXTIpW0NIMl1bQ0BIXTNPW0NASF0oW0NIMl1bT0hdKVtDQEBIXShbQ0gyXVtPSF0pT1tDQEBIXTNONFtDSDJdW0NIMl1PW0NIMl1bQ0gyXTQ=

>  <s_glide_docking_method>  (1) 
confgen

>  <s_i_glide_gridfile>  (1) 
gpcr_5ht2c_6bqh_protein_autoprepared_prepared

>  <s_lp_Force_Field>  (1) 
S-OPLS

>  <s_lp_Variant>  (1) 
DiffSBDD_63_num_sample_100-2

>  <s_m_source_file>  (1) 
generated__ligand_DiffSBDD_2026-05-06_prepared.sdf

>  <GenAI_Model>  (1) 
DiffSBDD

>  <Protein>  (1) 
GPCR_5HT2C

$$$$
DiffSBDD_5_num_sample_100
     RDKit          3D

  0  0  0  0  0  0  0  0  0  0999 V3000
M  V30 BEGIN CTAB
M  V30 COUNTS 50 52 0 0 1
M  V30 BEGIN ATOM
M  V30 1 C 38.756431 31.879821 60.855874 0
M  V30 2 O 36.201400 31.097774 59.453478 0
M  V30 3 C 37.551775 30.529007 55.273352 0
M  V30 4 C 39.068425 28.373868 51.083485 0
M  V30 5 C 37.814239 29.148260 54.622570 0 CFG=1
M  V30 6 C 40.603331 29.720091 49.587299 0
M  V30 7 C 39.471653 30.284696 53.017528 0
M  V30 8 C 39.555743 32.287498 62.099819 0
M  V30 9 C 37.888231 28.894672 57.953001 0
M  V30 10 C 38.063257 26.730567 55.318763 0
M  V30 11 N 40.136483 30.416317 51.852700 0
M  V30 12 N 38.108945 29.771248 58.847314 0
M  V30 13 S 38.992301 31.228512 56.149866 0
M  V30 14 C 37.876700 30.631712 61.090334 0
M  V30 15 C 38.581761 29.218863 53.293177 0
M  V30 16 C 38.390753 28.235934 52.303202 0
M  V30 17 C 38.946513 28.495121 56.906028 0 CFG=1
M  V30 18 C 39.298438 25.955258 57.251898 0
M  V30 19 C 37.130034 30.107075 59.844563 0 CFG=1
M  V30 20 C 38.512321 25.686209 56.205859 0
M  V30 21 C 38.267380 28.037224 55.591531 0
M  V30 22 C 39.867338 29.693968 56.615664 0
M  V30 23 C 39.912613 29.487196 50.902713 0
M  V30 24 C 39.795251 27.352602 57.570036 0
M  V30 25 H 39.462285 31.698484 60.044999 0
M  V30 26 H 38.133253 32.714345 60.534335 0
M  V30 27 H 36.194449 31.210409 58.504212 0
M  V30 28 H 37.186841 31.252005 54.543208 0
M  V30 29 H 36.742663 30.421419 55.991654 0
M  V30 30 H 38.927458 27.653141 50.291003 0
M  V30 31 H 36.824251 28.821441 54.303325 0
M  V30 32 H 40.666473 28.821421 48.982927 0
M  V30 33 H 41.602989 30.131625 49.731911 0
M  V30 34 H 40.000034 30.449887 49.054125 0
M  V30 35 H 39.642949 31.061483 53.733369 0
M  V30 36 H 40.186736 33.150871 61.889171 0
M  V30 37 H 40.206850 31.479151 62.434254 0
M  V30 38 H 38.897388 32.553481 62.926125 0
M  V30 39 H 36.931745 28.370508 57.874820 0
M  V30 40 H 37.555813 26.457148 54.408081 0
M  V30 41 H 38.510829 29.837959 61.489551 0
M  V30 42 H 37.138512 30.857446 61.854754 0
M  V30 43 H 37.720352 27.406669 52.466030 0
M  V30 44 H 39.630940 25.156361 57.898141 0
M  V30 45 H 36.542871 29.222580 60.085196 0
M  V30 46 H 38.216970 24.664501 56.013851 0
M  V30 47 H 40.440680 29.897515 57.517708 0
M  V30 48 H 40.570249 29.432897 55.822671 0
M  V30 49 H 40.823382 27.392626 57.207220 0
M  V30 50 H 39.867866 27.473123 58.652143 0
M  V30 END ATOM
M  V30 BEGIN BOND
M  V30 1 1 5 3
M  V30 2 1 8 1
M  V30 3 1 11 7
M  V30 4 2 12 9
M  V30 5 1 13 3
M  V30 6 1 14 1
M  V30 7 1 15 5
M  V30 8 2 15 7
M  V30 9 2 16 4
M  V30 10 1 16 15
M  V30 11 1 17 9 CFG=1
M  V30 12 1 19 2
M  V30 13 1 19 12
M  V30 14 1 19 14
M  V30 15 1 20 10
M  V30 16 2 20 18
M  V30 17 1 21 5
M  V30 18 2 21 10
M  V30 19 1 21 17
M  V30 20 1 22 13
M  V30 21 1 22 17
M  V30 22 1 23 4
M  V30 23 1 23 6
M  V30 24 2 23 11
M  V30 25 1 24 17
M  V30 26 1 24 18
M  V30 27 1 25 1
M  V30 28 1 26 1
M  V30 29 1 27 2
M  V30 30 1 28 3
M  V30 31 1 29 3
M  V30 32 1 30 4
M  V30 33 1 5 31 CFG=3
M  V30 34 1 32 6
M  V30 35 1 33 6
M  V30 36 1 34 6
M  V30 37 1 35 7
M  V30 38 1 36 8
M  V30 39 1 37 8
M  V30 40 1 38 8
M  V30 41 1 39 9
M  V30 42 1 40 10
M  V30 43 1 41 14
M  V30 44 1 42 14
M  V30 45 1 43 16
M  V30 46 1 44 18
M  V30 47 1 19 45 CFG=1
M  V30 48 1 46 20
M  V30 49 1 47 22
M  V30 50 1 48 22
M  V30 51 1 49 24
M  V30 52 1 50 24
M  V30 END BOND
M  V30 END CTAB
M  END
>  <i_epik_Tot_Q>  (1) 
0

>  <i_epik_Tot_abs_Q>  (1) 
0

>  <i_i_glide_confnum>  (1) 
16

>  <i_i_glide_lignum>  (1) 
23

>  <i_i_glide_posenum>  (1) 
71

>  <i_i_glide_rotatable_bonds>  (1) 
6

>  <i_lp_mmshare_version>  (1) 
72125

>  <i_m_source_file_index>  (1) 
6

>  <i_f3d_flags>  (1) 
0

>  <num_sample>  (1) 
100

>  <b_lp_Chiralities_Consistent>  (1) 
1

>  <r_epik_Charging_Adjusted_Penalty>  (1) 
0.0081103479682914613

>  <r_epik_Ionization_Penalty>  (1) 
0.0085425111303935736

>  <r_epik_Ionization_Penalty_Charging>  (1) 
0

>  <r_epik_Ionization_Penalty_Neutral>  (1) 
0.0085425111303935736

>  <r_epik_State_Penalty>  (1) 
0.0081103479682914613

>  <r_glide_ring_energy>  (1) 
0

>  <r_i_docking_score>  (1) 
-7.4592198320940577

>  <r_i_glide_ecoul>  (1) 
-2.2788415997727962

>  <r_i_glide_eff_state_penalty>  (1) 
0.0081103479682914613

>  <r_i_glide_einternal>  (1) 
6.3009320010763439

>  <r_i_glide_emodel>  (1) 
-51.534212444189393

>  <r_i_glide_emodel_strain>  (1) 
0.80492011196186297

>  <r_i_glide_energy>  (1) 
-40.302043571840947

>  <r_i_glide_erotb>  (1) 
0.64660109196089122

>  <r_i_glide_esite>  (1) 
-0.032223246115187391

>  <r_i_glide_evdw>  (1) 
-38.023201972068151

>  <r_i_glide_gscore>  (1) 
-7.4673301800623495

>  <r_i_glide_gscore_strain>  (1) 
0

>  <r_i_glide_hbond>  (1) 
-0.1575818780104688

>  <r_i_glide_ligand_efficiency>  (1) 
-0.31080082633725242

>  <r_i_glide_ligand_efficiency_ln>  (1) 
-1.7853335871148552

>  <r_i_glide_ligand_efficiency_sa>  (1) 
-0.89650471647217944

>  <r_i_glide_lipo>  (1) 
-3.7550089424212332

>  <r_i_glide_metal>  (1) 
-0

>  <r_i_glide_rewards>  (1) 
-1.9261308669070247

>  <r_lp_Energy>  (1) 
35.538015999999999

>  <s_epik_Chemistry_Notes>  (1) 
This compound has an imine and may undergo hydrolysis. This compound contains an acetal/aminal-like group ( X-CH(R)-Y where X, Y are N, S, or O) that may be acid/base labile, releasing an aldehyde.

>  <s_epik_cmdline>  (1) 
J2VwaWtfcHl0aG9uJywgJy1waHQnLCAnMS4wJywgJy1waCcsICc3LjQnLCAnLXRuJywgJzgnLCAnLW1hJywgJzUwMCcsICctaW1hZScsICc8aW5maWxlLm1hZT4nLCAnLW9tYWUnLCAnPG91dGZpbGUubWFlPic=

>  <s_epik_input>  (1) 
W0NIM11bQ0gyXVtDSDJdW0NAQEhdKFtPSF0pXE49W0NIXVxbQ0BAXTEyQyg9W0NIXVtDSF09W0NIXVtDSDJdMilbQ0BASF0oW0NIMl1TW0NIMl0xKWMzW2NIXW5jKFtDSDNdKVtjSF1bY0hdMw==

>  <s_glide_docking_method>  (1) 
confgen

>  <s_i_glide_gridfile>  (1) 
gpcr_5ht2c_6bqh_protein_autoprepared_prepared

>  <s_lp_Force_Field>  (1) 
S-OPLS

>  <s_lp_Variant>  (1) 
DiffSBDD_5_num_sample_100-1

>  <s_m_source_file>  (1) 
generated__ligand_DiffSBDD_2026-05-06_prepared.sdf

>  <GenAI_Model>  (1) 
DiffSBDD

>  <Protein>  (1) 
GPCR_5HT2C

$$$$
DiffSBDD_76_num_sample_100
     RDKit          3D

  0  0  0  0  0  0  0  0  0  0999 V3000
M  V30 BEGIN CTAB
M  V30 COUNTS 62 64 0 0 1
M  V30 BEGIN ATOM
M  V30 1 C 38.981030 28.823680 53.008608 0
M  V30 2 C 37.830134 28.293741 58.180290 0
M  V30 3 O 37.310776 32.328878 60.809302 0
M  V30 4 C 38.481667 35.260818 61.554751 0
M  V30 5 Cl 37.864287 33.884831 56.788263 0
M  V30 6 C 38.325533 31.851009 58.634384 0
M  V30 7 N 37.888000 34.041488 59.474155 0
M  V30 8 C 37.793700 32.734921 59.748382 0
M  V30 9 C 39.344465 30.147719 60.148981 0
M  V30 10 C 38.018745 31.879489 54.841592 0
M  V30 11 C 38.405762 29.966058 56.411156 0 CFG=2
M  V30 12 C 38.752151 31.428591 56.134192 0 CFG=2
M  V30 13 O 40.672855 36.608658 62.839726 0
M  V30 14 S 39.739726 26.201194 55.018885 0
M  V30 15 C 39.259599 28.206461 50.663778 0
M  V30 16 C 38.335975 32.286672 57.320025 0
M  V30 17 C 37.477914 35.090076 60.398742 0
M  V30 18 C 39.776232 29.974891 52.787553 0
M  V30 19 C 40.030148 29.361604 50.446954 0
M  V30 20 C 38.761389 29.477348 57.836914 0 CFG=1
M  V30 21 O 39.731678 28.969306 60.321404 0 CHG=-1
M  V30 22 C 40.847930 35.288403 62.358689 0
M  V30 23 C 39.376771 36.806937 63.376700 0
M  V30 24 C 38.158486 27.059928 54.750202 0
M  V30 25 C 40.284608 30.244701 51.505600 0
M  V30 26 C 39.950312 35.068445 61.147128 0
M  V30 27 N 38.750384 30.489473 58.936950 0
M  V30 28 O 39.124899 29.158586 55.463487 0
M  V30 29 C 38.325510 36.620190 62.268523 0
M  V30 30 C 38.726284 27.940758 51.935410 0
M  V30 31 F 40.528805 29.621482 49.218045 0
M  V30 32 O 39.527679 31.011016 61.032539 0
M  V30 33 C 38.378270 28.551012 54.400347 0 CFG=1
M  V30 34 H 38.106749 27.399548 57.631800 0
M  V30 35 H 37.867404 28.017988 59.225922 0
M  V30 36 H 36.787520 28.527281 57.971142 0
M  V30 37 H 38.271026 34.457913 62.253646 0
M  V30 38 H 38.269813 34.325146 58.583835 0
M  V30 39 H 38.413001 32.805822 54.429291 0
M  V30 40 H 38.003978 31.156203 54.044509 0
M  V30 41 H 36.964708 32.020866 55.041798 0
M  V30 42 H 37.324284 29.870757 56.297587 0
M  V30 43 H 39.830599 31.521775 56.008858 0
M  V30 44 H 40.207749 27.043727 55.946966 0
M  V30 45 H 39.067671 27.527006 49.853104 0
M  V30 46 H 37.423671 36.013217 59.821556 0
M  V30 47 H 36.470905 34.905734 60.777045 0
M  V30 48 H 39.989908 30.652977 53.599718 0
M  V30 49 H 39.791992 29.114156 57.784769 0
M  V30 50 H 40.663347 34.547893 63.140622 0
M  V30 51 H 41.867586 35.167921 62.039002 0
M  V30 52 H 39.207797 36.120298 64.206113 0
M  V30 53 H 39.337633 37.813410 63.787523 0
M  V30 54 H 37.566238 26.534360 54.003639 0
M  V30 55 H 37.556836 26.975933 55.650018 0
M  V30 56 H 40.880395 31.128593 51.337808 0
M  V30 57 H 40.131017 34.060836 60.771651 0
M  V30 58 H 40.222176 35.752822 60.344987 0
M  V30 59 H 38.444436 37.425833 61.543219 0
M  V30 60 H 37.325216 36.715797 62.688855 0
M  V30 61 H 38.122372 27.061373 52.083137 0
M  V30 62 H 37.386159 28.998273 54.341820 0
M  V30 END ATOM
M  V30 BEGIN BOND
M  V30 1 2 8 3
M  V30 2 1 8 6
M  V30 3 1 8 7
M  V30 4 1 12 10
M  V30 5 1 12 11
M  V30 6 1 16 5
M  V30 7 2 16 6
M  V30 8 1 16 12
M  V30 9 1 17 4
M  V30 10 1 17 7
M  V30 11 2 18 1
M  V30 12 1 19 15
M  V30 13 1 20 2
M  V30 14 1 20 11
M  V30 15 1 21 9
M  V30 16 1 22 13
M  V30 17 1 23 13
M  V30 18 1 24 14
M  V30 19 1 25 18
M  V30 20 2 25 19
M  V30 21 1 26 4
M  V30 22 1 26 22
M  V30 23 1 27 6
M  V30 24 1 27 9
M  V30 25 1 27 20
M  V30 26 1 28 11
M  V30 27 1 29 4
M  V30 28 1 29 23
M  V30 29 1 30 1
M  V30 30 2 30 15
M  V30 31 1 31 19
M  V30 32 2 32 9
M  V30 33 1 33 1
M  V30 34 1 33 24
M  V30 35 1 33 28
M  V30 36 1 34 2
M  V30 37 1 35 2
M  V30 38 1 36 2
M  V30 39 1 37 4
M  V30 40 1 38 7
M  V30 41 1 39 10
M  V30 42 1 40 10
M  V30 43 1 41 10
M  V30 44 1 11 42 CFG=3
M  V30 45 1 12 43 CFG=3
M  V30 46 1 44 14
M  V30 47 1 45 15
M  V30 48 1 46 17
M  V30 49 1 47 17
M  V30 50 1 48 18
M  V30 51 1 20 49 CFG=3
M  V30 52 1 50 22
M  V30 53 1 51 22
M  V30 54 1 52 23
M  V30 55 1 53 23
M  V30 56 1 54 24
M  V30 57 1 55 24
M  V30 58 1 56 25
M  V30 59 1 57 26
M  V30 60 1 58 26
M  V30 61 1 59 29
M  V30 62 1 60 29
M  V30 63 1 61 30
M  V30 64 1 33 62 CFG=3
M  V30 END BOND
M  V30 END CTAB
M  END
>  <i_epik_Tot_Q>  (1) 
-1

>  <i_epik_Tot_abs_Q>  (1) 
1

>  <i_i_glide_confnum>  (1) 
113

>  <i_i_glide_lignum>  (1) 
189

>  <i_i_glide_posenum>  (1) 
150

>  <i_i_glide_rotatable_bonds>  (1) 
10

>  <i_lp_mmshare_version>  (1) 
72125

>  <i_m_source_file_index>  (1) 
77

>  <i_f3d_flags>  (1) 
0

>  <num_sample>  (1) 
100

>  <b_lp_Chiralities_Consistent>  (1) 
1

>  <r_epik_Charging_Adjusted_Penalty>  (1) 
0.0069450066625796414

>  <r_epik_Ionization_Penalty>  (1) 
0.006947181281074642

>  <r_epik_Ionization_Penalty_Charging>  (1) 
2.7704327777150034e-06

>  <r_epik_Ionization_Penalty_Neutral>  (1) 
0.0069444108482969273

>  <r_epik_State_Penalty>  (1) 
0.0069422362298019267

>  <r_glide_ring_energy>  (1) 
0

>  <r_i_docking_score>  (1) 
-7.4516693451145271

>  <r_i_glide_ecoul>  (1) 
-1.5523299673815536

>  <r_i_glide_eff_state_penalty>  (1) 
0.0069422362298019267

>  <r_i_glide_einternal>  (1) 
11.64821536875975

>  <r_i_glide_emodel>  (1) 
-63.248387573963441

>  <r_i_glide_emodel_strain>  (1) 
1.6111760652700582

>  <r_i_glide_energy>  (1) 
-48.931860749711419

>  <r_i_glide_erotb>  (1) 
0.57163862173476065

>  <r_i_glide_esite>  (1) 
-0.033865375018605891

>  <r_i_glide_evdw>  (1) 
-47.379530782329866

>  <r_i_glide_gscore>  (1) 
-7.4586115813443286

>  <r_i_glide_gscore_strain>  (1) 
0

>  <r_i_glide_hbond>  (1) 
0

>  <r_i_glide_ligand_efficiency>  (1) 
-0.2258081619731675

>  <r_i_glide_ligand_efficiency_ln>  (1) 
-1.6572126796745024

>  <r_i_glide_ligand_efficiency_sa>  (1) 
-0.72428743152219288

>  <r_i_glide_lipo>  (1) 
-3.8116092955262277

>  <r_i_glide_metal>  (1) 
-0

>  <r_i_glide_rewards>  (1) 
-1.5829494983105294

>  <r_lp_Energy>  (1) 
51.555678999999998

>  <s_epik_cmdline>  (1) 
J2VwaWtfcHl0aG9uJywgJy1waHQnLCAnMS4wJywgJy1waCcsICc3LjQnLCAnLXRuJywgJzgnLCAnLW1hJywgJzUwMCcsICctaW1hZScsICc8aW5maWxlLm1hZT4nLCAnLW9tYWUnLCAnPG91dGZpbGUubWFlPic=

>  <s_epik_input>  (1) 
W2NIXTFbY0hdYyhGKVtjSF1bY0hdYzFbQ0BASF0oW0NIMl1bU0hdKU9bQ0BASF0oW0NASF0oW0NIM10pTjJDKD1PKVtPSF0pW0NAQEhdKFtDSDNdKUMoQ2wpPUMyQyg9TylbTkhdW0NIMl1bQ0hdM1tDSDJdW0NIMl1PW0NIMl1bQ0gyXTM=

>  <s_glide_docking_method>  (1) 
confgen

>  <s_i_glide_gridfile>  (1) 
gpcr_5ht2c_6bqh_protein_autoprepared_prepared

>  <s_lp_Force_Field>  (1) 
S-OPLS

>  <s_lp_Variant>  (1) 
DiffSBDD_76_num_sample_100-1

>  <s_m_source_file>  (1) 
generated__ligand_DiffSBDD_2026-05-06_prepared.sdf

>  <GenAI_Model>  (1) 
DiffSBDD

>  <Protein>  (1) 
GPCR_5HT2C

$$$$
DiffSBDD_63_num_sample_100
     RDKit          3D

  0  0  0  0  0  0  0  0  0  0999 V3000
M  V30 BEGIN CTAB
M  V30 COUNTS 67 70 0 0 1
M  V30 BEGIN ATOM
M  V30 1 C 38.650574 32.110709 58.818170 0
M  V30 2 O 37.867431 27.670078 56.421107 0
M  V30 3 C 37.868230 28.934802 55.824191 0 CFG=2
M  V30 4 O 41.466456 28.420657 59.474418 0
M  V30 5 C 37.717106 33.936588 60.276337 0 CFG=1
M  V30 6 C 41.204632 27.931859 58.178873 0
M  V30 7 C 38.878714 27.924908 52.296543 0
M  V30 8 C 39.150846 27.192850 56.830110 0 CFG=1
M  V30 9 F 41.917097 35.601631 64.878867 0
M  V30 10 C 40.822888 35.868524 64.144489 0
M  V30 11 C 39.956384 35.594806 61.804202 0
M  V30 12 S 37.615903 35.759696 60.491550 0
M  V30 13 C 36.341559 33.234294 60.182594 0
M  V30 14 C 38.051107 28.017772 53.589113 0
M  V30 15 N 38.658655 28.917861 54.572651 0
M  V30 16 O 39.030109 29.221442 51.730991 0
M  V30 17 C 40.907029 35.549473 62.747895 0
M  V30 18 C 39.625390 30.159219 52.621711 0
M  V30 19 F 36.773975 37.085483 62.816077 0
M  V30 20 C 38.019840 36.613593 63.006794 0
M  V30 21 C 39.794678 36.421946 64.791652 0
M  V30 22 C 38.340553 29.914010 56.923651 0 CFG=2
M  V30 23 C 39.722048 28.187234 57.864632 0 CFG=2
M  V30 24 C 38.484606 33.608039 58.989598 0
M  V30 25 C 38.836324 30.231453 53.946907 0
M  V30 26 C 38.909107 25.794870 57.430094 0
M  V30 27 C 36.470928 31.715489 59.854018 0
M  V30 28 O 39.640263 29.523700 57.359772 0
M  V30 29 O 38.844773 24.827538 56.403846 0
M  V30 30 F 40.367441 35.221947 60.592844 0
M  V30 31 N 37.321551 31.485598 58.653783 0 CFG=2 CHG=1
M  V30 32 N 38.613204 35.958095 61.925738 0
M  V30 33 C 38.520206 36.821649 64.241063 0
M  V30 34 F 39.966077 36.643988 66.107046 0
M  V30 35 C 37.343256 30.087693 58.122168 0
M  V30 36 H 39.171558 31.665345 59.666606 0
M  V30 37 H 39.286639 31.995817 57.945290 0
M  V30 38 H 36.854228 29.228202 55.547053 0
M  V30 39 H 42.332371 28.134058 59.741631 0
M  V30 40 H 38.248680 33.518468 61.130323 0
M  V30 41 H 41.441468 26.868039 58.178689 0
M  V30 42 H 41.859061 28.393077 57.439932 0
M  V30 43 H 39.858028 27.487667 52.499682 0
M  V30 44 H 38.380813 27.281129 51.571827 0
M  V30 45 H 39.837946 27.115163 55.985083 0
M  V30 46 H 35.742487 33.717110 59.408234 0
M  V30 47 H 35.794439 33.365594 61.116719 0
M  V30 48 H 37.945128 27.017500 54.011666 0
M  V30 49 H 37.043888 28.358749 53.345617 0
M  V30 50 H 41.866924 35.213582 62.409981 0
M  V30 51 H 40.664953 29.890847 52.795769 0
M  V30 52 H 39.644615 31.138530 52.143930 0
M  V30 53 H 38.394229 30.880198 56.427615 0
M  V30 54 H 39.149566 28.076403 58.784135 0
M  V30 55 H 37.962316 34.020456 58.123694 0
M  V30 56 H 39.483594 34.020906 58.967955 0
M  V30 57 H 37.862551 30.691798 53.775123 0
M  V30 58 H 39.389620 30.898930 54.605693 0
M  V30 59 H 37.993359 25.775461 58.020872 0
M  V30 60 H 39.718729 25.497072 58.096514 0
M  V30 61 H 35.479584 31.292966 59.681298 0
M  V30 62 H 36.902579 31.182545 60.702057 0
M  V30 63 H 39.658446 24.839830 55.922664 0
M  V30 64 H 37.866814 37.332347 64.924433 0
M  V30 65 H 36.331104 29.862418 57.781034 0
M  V30 66 H 37.532228 29.393390 58.936804 0
M  V30 67 H 36.837223 31.994810 57.914852 0
M  V30 END ATOM
M  V30 BEGIN BOND
M  V30 1 1 3 2
M  V30 2 1 6 4
M  V30 3 1 8 2
M  V30 4 1 10 9
M  V30 5 1 12 5
M  V30 6 1 13 5
M  V30 7 1 14 7
M  V30 8 1 15 3
M  V30 9 1 15 14
M  V30 10 1 16 7
M  V30 11 1 17 10
M  V30 12 2 17 11
M  V30 13 1 18 16
M  V30 14 1 20 19
M  V30 15 2 21 10
M  V30 16 1 22 3
M  V30 17 1 23 6
M  V30 18 1 23 8
M  V30 19 1 24 1
M  V30 20 1 24 5
M  V30 21 1 25 15
M  V30 22 1 25 18
M  V30 23 1 26 8
M  V30 24 1 27 13
M  V30 25 1 28 22
M  V30 26 1 28 23
M  V30 27 1 29 26
M  V30 28 1 30 11
M  V30 29 1 31 1
M  V30 30 1 31 27
M  V30 31 1 32 11
M  V30 32 1 32 12
M  V30 33 1 32 20
M  V30 34 2 33 20
M  V30 35 1 33 21
M  V30 36 1 34 21
M  V30 37 1 35 22
M  V30 38 1 35 31
M  V30 39 1 36 1
M  V30 40 1 37 1
M  V30 41 1 3 38 CFG=3
M  V30 42 1 39 4
M  V30 43 1 5 40 CFG=1
M  V30 44 1 41 6
M  V30 45 1 42 6
M  V30 46 1 43 7
M  V30 47 1 44 7
M  V30 48 1 8 45 CFG=3
M  V30 49 1 46 13
M  V30 50 1 47 13
M  V30 51 1 48 14
M  V30 52 1 49 14
M  V30 53 1 50 17
M  V30 54 1 51 18
M  V30 55 1 52 18
M  V30 56 1 22 53 CFG=3
M  V30 57 1 23 54 CFG=1
M  V30 58 1 55 24
M  V30 59 1 56 24
M  V30 60 1 57 25
M  V30 61 1 58 25
M  V30 62 1 59 26
M  V30 63 1 60 26
M  V30 64 1 61 27
M  V30 65 1 62 27
M  V30 66 1 63 29
M  V30 67 1 64 33
M  V30 68 1 65 35
M  V30 69 1 66 35
M  V30 70 1 31 67 CFG=3
M  V30 END BOND
M  V30 END CTAB
M  END
>  <i_epik_Tot_Q>  (1) 
1

>  <i_epik_Tot_abs_Q>  (1) 
1

>  <i_i_glide_confnum>  (1) 
212

>  <i_i_glide_lignum>  (1) 
158

>  <i_i_glide_posenum>  (1) 
271

>  <i_i_glide_rotatable_bonds>  (1) 
9

>  <i_lp_mmshare_version>  (1) 
72125

>  <i_m_source_file_index>  (1) 
64

>  <i_f3d_flags>  (1) 
0

>  <num_sample>  (1) 
100

>  <b_lp_Chiralities_Consistent>  (1) 
1

>  <r_epik_Charging_Adjusted_Penalty>  (1) 
0.6833741402111444

>  <r_epik_Ionization_Penalty>  (1) 
0.34168859396029116

>  <r_epik_Ionization_Penalty_Charging>  (1) 
0.34168707010557214

>  <r_epik_Ionization_Penalty_Neutral>  (1) 
1.5238547190056168e-06

>  <r_epik_State_Penalty>  (1) 
0.3416870701055722

>  <r_glide_ring_energy>  (1) 
0.0045149093831275133

>  <r_i_docking_score>  (1) 
-7.446537216715452

>  <r_i_glide_ecoul>  (1) 
-6.5709990744615352

>  <r_i_glide_eff_state_penalty>  (1) 
0.3416870701055722

>  <r_i_glide_einternal>  (1) 
8.191464362708416

>  <r_i_glide_emodel>  (1) 
-56.64387079728651

>  <r_i_glide_emodel_strain>  (1) 
2.4591302698972726

>  <r_i_glide_energy>  (1) 
-44.511999361115215

>  <r_i_glide_erotb>  (1) 
0.51979340436673749

>  <r_i_glide_esite>  (1) 
-0.15019333778651328

>  <r_i_glide_evdw>  (1) 
-37.941000286653683

>  <r_i_glide_gscore>  (1) 
-7.7882242868210243

>  <r_i_glide_gscore_strain>  (1) 
0

>  <r_i_glide_hbond>  (1) 
-0.47626377718047835

>  <r_i_glide_ligand_efficiency>  (1) 
-0.21275820619187005

>  <r_i_glide_ligand_efficiency_ln>  (1) 
-1.634680186058217

>  <r_i_glide_ligand_efficiency_sa>  (1) 
-0.69594620049038369

>  <r_i_glide_lipo>  (1) 
-3.301551054590921

>  <r_i_glide_metal>  (1) 
-0

>  <r_i_glide_rewards>  (1) 
-1.4973096461279336

>  <r_lp_Energy>  (1) 
44.144219

>  <s_epik_Chemistry_Notes>  (1) 
This compound contains an acetal/aminal-like group ( X-CH(R)-Y where X, Y are N, S, or O) that may be acid/base labile, releasing an aldehyde. This compound has a N-S or N-O group and may undergo hydrolysis at high or low pH.

>  <s_epik_cmdline>  (1) 
J2VwaWtfcHl0aG9uJywgJy1waHQnLCAnMS4wJywgJy1waCcsICc3LjQnLCAnLXRuJywgJzgnLCAnLW1hJywgJzUwMCcsICctaW1hZScsICc8aW5maWxlLm1hZT4nLCAnLW9tYWUnLCAnPG91dGZpbGUubWFlPic=

>  <s_epik_input>  (1) 
RkMxPUMoRilbQ0hdPUMoRilOKEMoRik9W0NIXTEpU1tDSF0yW0NIMl1bQ0gyXU4oW0NIMl1bQ0gyXTIpW0NIMl1bQ0BIXTNPW0NASF0oW0NIMl1bT0hdKVtDQEBIXShbQ0gyXVtPSF0pT1tDQEBIXTNONFtDSDJdW0NIMl1PW0NIMl1bQ0gyXTQ=

>  <s_glide_docking_method>  (1) 
confgen

>  <s_i_glide_gridfile>  (1) 
gpcr_5ht2c_6bqh_protein_autoprepared_prepared

>  <s_lp_Force_Field>  (1) 
S-OPLS

>  <s_lp_Variant>  (1) 
DiffSBDD_63_num_sample_100-1

>  <s_m_source_file>  (1) 
generated__ligand_DiffSBDD_2026-05-06_prepared.sdf

>  <GenAI_Model>  (1) 
DiffSBDD

>  <Protein>  (1) 
GPCR_5HT2C

$$$$
DiffSBDD_13_num_sample_100
     RDKit          3D

  0  0  0  0  0  0  0  0  0  0999 V3000
M  V30 BEGIN CTAB
M  V30 COUNTS 69 72 0 0 1
M  V30 BEGIN ATOM
M  V30 1 C 37.152234 32.384836 59.717802 0 CFG=1
M  V30 2 N 37.748179 24.821575 55.618482 0
M  V30 3 C 40.931273 34.233032 61.971974 0 CFG=2
M  V30 4 C 38.078260 30.495224 58.262499 0
M  V30 5 C 42.216920 33.059736 65.548281 0
M  V30 6 C 37.867412 31.880778 58.447223 0
M  V30 7 C 40.316011 26.544128 57.283181 0
M  V30 8 C 36.722590 36.355071 59.790613 0
M  V30 9 C 38.926612 34.227060 60.321729 0
M  V30 10 O 36.667404 36.562478 61.190706 0
M  V30 11 C 38.898813 32.318770 56.274144 0
M  V30 12 C 38.231677 25.424990 56.478997 0
M  V30 13 C 38.846678 26.191894 57.576150 0 CFG=2
M  V30 14 C 38.698639 30.018623 57.081788 0
M  V30 15 C 36.267244 37.980566 63.059188 0
M  V30 16 O 37.341049 31.517718 60.825186 0
M  V30 17 C 40.377214 28.066092 57.078574 0
M  V30 18 N 41.353188 35.066363 66.007768 0
M  V30 19 C 41.243961 34.853292 64.636437 0
M  V30 20 C 38.156545 27.542326 57.788469 0
M  V30 21 C 38.283846 32.789092 57.445927 0
M  V30 22 C 39.105646 30.942121 56.084880 0
M  V30 23 N 40.553742 35.592163 62.516096 0
M  V30 24 C 38.924254 28.512395 56.876019 0 CFG=1
M  V30 25 C 37.424026 33.842278 60.210686 0 CFG=1
M  V30 26 C 40.913457 36.244077 66.743632 0
M  V30 27 C 41.750743 33.654179 64.343305 0
M  V30 28 C 41.960851 33.946763 66.564235 0
M  V30 29 O 42.257843 32.179737 62.551458 0
M  V30 30 C 36.502348 34.864115 59.482347 0
M  V30 31 C 40.667433 35.817066 63.764534 0
M  V30 32 Cl 39.858651 30.388950 54.631717 0
M  V30 33 C 39.646911 33.524141 61.491207 0
M  V30 34 C 36.520739 37.923959 61.554713 0
M  V30 35 C 41.730000 33.221427 62.936910 0
M  V30 36 H 36.088091 32.304388 59.489025 0
M  V30 37 H 41.566350 34.404978 61.104653 0
M  V30 38 H 37.753350 29.803525 59.021001 0
M  V30 39 H 42.684320 32.092572 65.662330 0
M  V30 40 H 40.667408 26.021995 56.391844 0
M  V30 41 H 40.965401 26.245259 58.106369 0
M  V30 42 H 37.668680 36.720600 59.391577 0
M  V30 43 H 35.934882 36.922836 59.292646 0
M  V30 44 H 39.473850 34.026403 59.404006 0
M  V30 45 H 39.004645 35.299964 60.477453 0
M  V30 46 H 39.210169 33.018795 55.513216 0
M  V30 47 H 38.764320 25.577306 58.472347 0
M  V30 48 H 36.047837 38.999406 63.376730 0
M  V30 49 H 35.415271 37.359898 63.337910 0
M  V30 50 H 37.133924 37.621428 63.614532 0
M  V30 51 H 38.262036 31.517778 61.035597 0
M  V30 52 H 41.031272 28.348032 56.253512 0
M  V30 53 H 40.777924 28.529090 57.981990 0
M  V30 54 H 38.288973 27.797164 58.839122 0
M  V30 55 H 37.086437 27.515878 57.581058 0
M  V30 56 H 38.129306 33.844060 57.569646 0
M  V30 57 H 38.628035 28.272751 55.853618 0
M  V30 58 H 37.039496 33.896492 61.231040 0
M  V30 59 H 40.804489 35.997533 67.799785 0
M  V30 60 H 41.651712 37.039803 66.653495 0
M  V30 61 H 39.944508 36.592196 66.385999 0
M  V30 62 H 42.151339 33.888724 67.626138 0
M  V30 63 H 36.521347 34.735591 58.405870 0
M  V30 64 H 35.472245 34.626663 59.752559 0
M  V30 65 H 40.326919 36.760947 64.196666 0
M  V30 66 H 38.971311 33.436556 62.343882 0
M  V30 67 H 39.881252 32.503547 61.184953 0
M  V30 68 H 37.412603 38.490090 61.283753 0
M  V30 69 H 35.669107 38.374401 61.043706 0
M  V30 END ATOM
M  V30 BEGIN BOND
M  V30 1 1 6 1
M  V30 2 2 6 4
M  V30 3 1 10 8
M  V30 4 3 12 2
M  V30 5 1 13 7
M  V30 6 1 13 12
M  V30 7 1 14 4
M  V30 8 1 16 1
M  V30 9 1 17 7
M  V30 10 1 19 18
M  V30 11 1 20 13
M  V30 12 1 21 6
M  V30 13 2 21 11
M  V30 14 1 22 11
M  V30 15 2 22 14
M  V30 16 1 23 3
M  V30 17 1 24 14
M  V30 18 1 24 17
M  V30 19 1 24 20
M  V30 20 1 25 1
M  V30 21 1 25 9
M  V30 22 1 26 18
M  V30 23 1 27 5
M  V30 24 2 27 19
M  V30 25 2 28 5
M  V30 26 1 28 18
M  V30 27 1 30 8
M  V30 28 1 30 25
M  V30 29 1 31 19
M  V30 30 2 31 23
M  V30 31 1 32 22
M  V30 32 1 33 3
M  V30 33 1 33 9
M  V30 34 1 34 10
M  V30 35 1 34 15
M  V30 36 1 35 3
M  V30 37 1 35 27
M  V30 38 2 35 29
M  V30 39 1 1 36 CFG=3
M  V30 40 1 3 37 CFG=3
M  V30 41 1 38 4
M  V30 42 1 39 5
M  V30 43 1 40 7
M  V30 44 1 41 7
M  V30 45 1 42 8
M  V30 46 1 43 8
M  V30 47 1 44 9
M  V30 48 1 45 9
M  V30 49 1 46 11
M  V30 50 1 13 47 CFG=1
M  V30 51 1 48 15
M  V30 52 1 49 15
M  V30 53 1 50 15
M  V30 54 1 51 16
M  V30 55 1 52 17
M  V30 56 1 53 17
M  V30 57 1 54 20
M  V30 58 1 55 20
M  V30 59 1 56 21
M  V30 60 1 24 57 CFG=3
M  V30 61 1 25 58 CFG=1
M  V30 62 1 59 26
M  V30 63 1 60 26
M  V30 64 1 61 26
M  V30 65 1 62 28
M  V30 66 1 63 30
M  V30 67 1 64 30
M  V30 68 1 65 31
M  V30 69 1 66 33
M  V30 70 1 67 33
M  V30 71 1 68 34
M  V30 72 1 69 34
M  V30 END BOND
M  V30 END CTAB
M  END
>  <i_epik_Tot_Q>  (1) 
0

>  <i_epik_Tot_abs_Q>  (1) 
0

>  <i_i_glide_confnum>  (1) 
515

>  <i_i_glide_lignum>  (1) 
31

>  <i_i_glide_posenum>  (1) 
183

>  <i_i_glide_rotatable_bonds>  (1) 
11

>  <i_lp_mmshare_version>  (1) 
72125

>  <i_m_source_file_index>  (1) 
14

>  <i_f3d_flags>  (1) 
0

>  <num_sample>  (1) 
100

>  <b_lp_Chiralities_Consistent>  (1) 
1

>  <r_epik_Charging_Adjusted_Penalty>  (1) 
0

>  <r_epik_Ionization_Penalty>  (1) 
0.00035140533553461783

>  <r_epik_Ionization_Penalty_Charging>  (1) 
0

>  <r_epik_Ionization_Penalty_Neutral>  (1) 
0.00035140533553461783

>  <r_epik_State_Penalty>  (1) 
-0

>  <r_glide_ring_energy>  (1) 
0

>  <r_i_docking_score>  (1) 
-7.4341700620372508

>  <r_i_glide_ecoul>  (1) 
-3.286006785538846

>  <r_i_glide_eff_state_penalty>  (1) 
-0

>  <r_i_glide_einternal>  (1) 
7.8999431872721164

>  <r_i_glide_emodel>  (1) 
-78.483507655292101

>  <r_i_glide_emodel_strain>  (1) 
0.38476333481548863

>  <r_i_glide_energy>  (1) 
-57.49555692895148

>  <r_i_glide_erotb>  (1) 
0.74574999833683076

>  <r_i_glide_esite>  (1) 
-0.0069341333322234357

>  <r_i_glide_evdw>  (1) 
-54.209550143412635

>  <r_i_glide_gscore>  (1) 
-7.4341700620372508

>  <r_i_glide_gscore_strain>  (1) 
0

>  <r_i_glide_hbond>  (1) 
0

>  <r_i_glide_ligand_efficiency>  (1) 
-0.21240485891535002

>  <r_i_glide_ligand_efficiency_ln>  (1) 
-1.6319653211321421

>  <r_i_glide_ligand_efficiency_sa>  (1) 
-0.69479037811836208

>  <r_i_glide_lipo>  (1) 
-3.3764376739675113

>  <r_i_glide_metal>  (1) 
-0

>  <r_i_glide_rewards>  (1) 
-1.5931697280728878

>  <r_lp_Energy>  (1) 
44.436326000000001

>  <r_lp_tautomer_probability>  (1) 
1

>  <s_epik_Chemistry_Notes>  (1) 
This compound has an imine and may undergo hydrolysis.

>  <s_epik_cmdline>  (1) 
J2VwaWtfcHl0aG9uJywgJy1waHQnLCAnMS4wJywgJy1waCcsICc3LjQnLCAnLXRuJywgJzgnLCAnLW1hJywgJzUwMCcsICctaW1hZScsICc8aW5maWxlLm1hZT4nLCAnLW9tYWUnLCAnPG91dGZpbGUubWFlPic=

>  <s_epik_input>  (1) 
TiNDW0NASF0xW0NIMl1bQ0gyXVtDQEBIXShbQ0gyXTEpYyhjKENsKVtjSF1bY0hdMilbY0hdYzJbQ0BASF0oW09IXSlbQ0BIXShbQ0gyXVtDSDJdT1tDSDJdW0NIM10pW0NIMl1bQ0gyXVtDQEBIXShOPVtDSF0zKUMoPU8pYyhjMzQpW2NIXVtjSF1uNFtDSDNd

>  <s_glide_docking_method>  (1) 
confgen

>  <s_i_glide_gridfile>  (1) 
gpcr_5ht2c_6bqh_protein_autoprepared_prepared

>  <s_lp_Force_Field>  (1) 
S-OPLS

>  <s_lp_Variant>  (1) 
DiffSBDD_13_num_sample_100-1

>  <s_m_source_file>  (1) 
generated__ligand_DiffSBDD_2026-05-06_prepared.sdf

>  <GenAI_Model>  (1) 
DiffSBDD

>  <Protein>  (1) 
GPCR_5HT2C

$$$$
DiffSBDD_5_num_sample_100
     RDKit          3D

  0  0  0  0  0  0  0  0  0  0999 V3000
M  V30 BEGIN CTAB
M  V30 COUNTS 50 52 0 0 1
M  V30 BEGIN ATOM
M  V30 1 C 39.094894 30.084888 61.545580 0
M  V30 2 O 36.057565 30.986583 59.453484 0
M  V30 3 C 37.478472 30.533418 55.236867 0
M  V30 4 C 39.067400 28.378545 51.075380 0
M  V30 5 C 37.788319 29.153263 54.608937 0 CFG=1
M  V30 6 C 40.610050 29.721246 49.587900 0
M  V30 7 C 39.467426 30.282827 53.015426 0
M  V30 8 C 39.745870 30.751039 62.761429 0
M  V30 9 C 37.887367 28.939311 57.965509 0
M  V30 10 C 38.100905 26.755955 55.338504 0
M  V30 11 N 40.140839 30.412257 51.853963 0
M  V30 12 N 38.066551 29.875035 58.809951 0
M  V30 13 S 38.888154 31.293524 56.109586 0
M  V30 14 C 37.850804 30.839555 61.025678 0
M  V30 15 C 38.568552 29.221563 53.283933 0
M  V30 16 C 38.379441 28.241674 52.291110 0
M  V30 17 C 38.940798 28.568267 56.900375 0 CFG=1
M  V30 18 C 39.371941 26.043317 57.270797 0
M  V30 19 C 37.117536 30.144965 59.854922 0 CFG=1
M  V30 20 C 38.583855 25.737926 56.236384 0
M  V30 21 C 38.267320 28.071852 55.593925 0
M  V30 22 C 39.820999 29.795080 56.594552 0
M  V30 23 C 39.916589 29.487257 50.901155 0
M  V30 24 C 39.833997 27.458067 57.562889 0
M  V30 25 H 38.839215 29.059524 61.806117 0
M  V30 26 H 39.840585 30.017296 60.753091 0
M  V30 27 H 36.117878 31.195465 58.522194 0
M  V30 28 H 37.095730 31.231705 54.491770 0
M  V30 29 H 36.668336 30.413948 55.952967 0
M  V30 30 H 38.926681 27.662032 50.279689 0
M  V30 31 H 36.810392 28.791971 54.290936 0
M  V30 32 H 40.666913 28.821699 48.984227 0
M  V30 33 H 41.609130 30.133815 49.731044 0
M  V30 34 H 40.004078 30.447938 49.053559 0
M  V30 35 H 39.638402 31.057640 53.732411 0
M  V30 36 H 40.637139 30.202965 63.068278 0
M  V30 37 H 39.067617 30.765229 63.612487 0
M  V30 38 H 40.044164 31.777352 62.544724 0
M  V30 39 H 36.974642 28.337409 57.949034 0
M  V30 40 H 37.602526 26.455011 54.430849 0
M  V30 41 H 37.152810 30.989716 61.848079 0
M  V30 42 H 38.155762 31.839302 60.712395 0
M  V30 43 H 37.701585 27.416441 52.448302 0
M  V30 44 H 39.733615 25.263211 57.924944 0
M  V30 45 H 36.666256 29.221610 60.194175 0
M  V30 46 H 38.315109 24.706863 56.061566 0
M  V30 47 H 40.366741 30.021465 57.504981 0
M  V30 48 H 40.544626 29.555509 55.814227 0
M  V30 49 H 40.851133 27.520320 57.173763 0
M  V30 50 H 39.926824 27.593209 58.642273 0
M  V30 END ATOM
M  V30 BEGIN BOND
M  V30 1 1 5 3
M  V30 2 1 8 1
M  V30 3 1 11 7
M  V30 4 2 12 9
M  V30 5 1 13 3
M  V30 6 1 14 1
M  V30 7 1 15 5
M  V30 8 2 15 7
M  V30 9 2 16 4
M  V30 10 1 16 15
M  V30 11 1 17 9 CFG=1
M  V30 12 1 19 2
M  V30 13 1 19 12
M  V30 14 1 19 14
M  V30 15 1 20 10
M  V30 16 2 20 18
M  V30 17 1 21 5
M  V30 18 2 21 10
M  V30 19 1 21 17
M  V30 20 1 22 13
M  V30 21 1 22 17
M  V30 22 1 23 4
M  V30 23 1 23 6
M  V30 24 2 23 11
M  V30 25 1 24 17
M  V30 26 1 24 18
M  V30 27 1 25 1
M  V30 28 1 26 1
M  V30 29 1 27 2
M  V30 30 1 28 3
M  V30 31 1 29 3
M  V30 32 1 30 4
M  V30 33 1 5 31 CFG=3
M  V30 34 1 32 6
M  V30 35 1 33 6
M  V30 36 1 34 6
M  V30 37 1 35 7
M  V30 38 1 36 8
M  V30 39 1 37 8
M  V30 40 1 38 8
M  V30 41 1 39 9
M  V30 42 1 40 10
M  V30 43 1 41 14
M  V30 44 1 42 14
M  V30 45 1 43 16
M  V30 46 1 44 18
M  V30 47 1 19 45 CFG=1
M  V30 48 1 46 20
M  V30 49 1 47 22
M  V30 50 1 48 22
M  V30 51 1 49 24
M  V30 52 1 50 24
M  V30 END BOND
M  V30 END CTAB
M  END
>  <i_epik_Tot_Q>  (1) 
0

>  <i_epik_Tot_abs_Q>  (1) 
0

>  <i_i_glide_confnum>  (1) 
16

>  <i_i_glide_lignum>  (1) 
23

>  <i_i_glide_posenum>  (1) 
205

>  <i_i_glide_rotatable_bonds>  (1) 
6

>  <i_lp_mmshare_version>  (1) 
72125

>  <i_m_source_file_index>  (1) 
6

>  <i_f3d_flags>  (1) 
0

>  <num_sample>  (1) 
100

>  <b_lp_Chiralities_Consistent>  (1) 
1

>  <r_epik_Charging_Adjusted_Penalty>  (1) 
0.0081103479682914613

>  <r_epik_Ionization_Penalty>  (1) 
0.0085425111303935736

>  <r_epik_Ionization_Penalty_Charging>  (1) 
0

>  <r_epik_Ionization_Penalty_Neutral>  (1) 
0.0085425111303935736

>  <r_epik_State_Penalty>  (1) 
0.0081103479682914613

>  <r_glide_ring_energy>  (1) 
0

>  <r_i_docking_score>  (1) 
-7.4265555876071865

>  <r_i_glide_ecoul>  (1) 
-2.3391487166916223

>  <r_i_glide_eff_state_penalty>  (1) 
0.0081103479682914613

>  <r_i_glide_einternal>  (1) 
5.7527909641021253

>  <r_i_glide_emodel>  (1) 
-52.53244800700179

>  <r_i_glide_emodel_strain>  (1) 
0.39177430494936516

>  <r_i_glide_energy>  (1) 
-40.679497531768185

>  <r_i_glide_erotb>  (1) 
0.64660109196089122

>  <r_i_glide_esite>  (1) 
-0.035965842996085524

>  <r_i_glide_evdw>  (1) 
-38.34034881507656

>  <r_i_glide_gscore>  (1) 
-7.4346659355754783

>  <r_i_glide_gscore_strain>  (1) 
0

>  <r_i_glide_hbond>  (1) 
-0.15881264341027262

>  <r_i_glide_ligand_efficiency>  (1) 
-0.30943981615029942

>  <r_i_glide_ligand_efficiency_ln>  (1) 
-1.7775155345446347

>  <r_i_glide_ligand_efficiency_sa>  (1) 
-0.89257888375754568

>  <r_i_glide_lipo>  (1) 
-3.6809144597016212

>  <r_i_glide_metal>  (1) 
-0

>  <r_i_glide_rewards>  (1) 
-1.9376843331708185

>  <r_lp_Energy>  (1) 
35.538015999999999

>  <s_epik_Chemistry_Notes>  (1) 
This compound has an imine and may undergo hydrolysis. This compound contains an acetal/aminal-like group ( X-CH(R)-Y where X, Y are N, S, or O) that may be acid/base labile, releasing an aldehyde.

>  <s_epik_cmdline>  (1) 
J2VwaWtfcHl0aG9uJywgJy1waHQnLCAnMS4wJywgJy1waCcsICc3LjQnLCAnLXRuJywgJzgnLCAnLW1hJywgJzUwMCcsICctaW1hZScsICc8aW5maWxlLm1hZT4nLCAnLW9tYWUnLCAnPG91dGZpbGUubWFlPic=

>  <s_epik_input>  (1) 
W0NIM11bQ0gyXVtDSDJdW0NAQEhdKFtPSF0pXE49W0NIXVxbQ0BAXTEyQyg9W0NIXVtDSF09W0NIXVtDSDJdMilbQ0BASF0oW0NIMl1TW0NIMl0xKWMzW2NIXW5jKFtDSDNdKVtjSF1bY0hdMw==

>  <s_glide_docking_method>  (1) 
confgen

>  <s_i_glide_gridfile>  (1) 
gpcr_5ht2c_6bqh_protein_autoprepared_prepared

>  <s_lp_Force_Field>  (1) 
S-OPLS

>  <s_lp_Variant>  (1) 
DiffSBDD_5_num_sample_100-1

>  <s_m_source_file>  (1) 
generated__ligand_DiffSBDD_2026-05-06_prepared.sdf

>  <GenAI_Model>  (1) 
DiffSBDD

>  <Protein>  (1) 
GPCR_5HT2C

$$$$
DiffSBDD_14_num_sample_100
     RDKit          3D

  0  0  0  0  0  0  0  0  0  0999 V3000
M  V30 BEGIN CTAB
M  V30 COUNTS 76 78 0 0 1
M  V30 BEGIN ATOM
M  V30 1 C 37.892130 28.544770 52.319272 0
M  V30 2 C 38.094948 29.052976 53.764203 0 CFG=2
M  V30 3 C 38.411307 30.651573 59.745940 0
M  V30 4 C 39.937618 30.563715 52.812423 0
M  V30 5 C 38.738623 30.464777 53.774465 0 CFG=2
M  V30 6 C 41.060262 30.019922 50.587418 0
M  V30 7 O 41.024986 36.038454 63.213024 0
M  V30 8 C 38.657375 26.719401 57.245163 0
M  V30 9 C 38.494736 34.125194 60.441527 0
M  V30 10 C 38.316341 24.731851 56.035139 0
M  V30 11 C 39.760274 29.965481 51.398947 0 CFG=1
M  V30 12 O 37.869444 32.969105 55.326056 0
M  V30 13 O 38.670836 25.626712 58.162321 0
M  V30 14 N 41.240796 34.649105 63.049289 0
M  V30 15 C 38.352570 31.899274 57.399364 0
M  V30 16 O 40.626336 32.849531 61.831394 0
M  V30 17 C 39.153980 30.954811 55.177462 0
M  V30 18 N 36.667424 30.568669 58.653512 0 CHG=1
M  V30 19 O 38.877540 28.133106 54.519339 0
M  V30 20 C 38.756348 24.396987 57.449516 0
M  V30 21 C 38.247360 26.871694 54.705476 0
M  V30 22 C 40.499291 34.042850 62.102721 0
M  V30 23 C 36.958273 31.045754 60.009412 0 CFG=2
M  V30 24 C 36.496441 32.497351 60.266556 0 CFG=2
M  V30 25 C 39.460008 34.905816 61.354589 0
M  V30 26 C 38.073798 30.660118 58.260573 0 CFG=2
M  V30 27 C 37.450551 33.277451 61.200732 0
M  V30 28 C 38.902293 26.114104 55.859915 0 CFG=1
M  V30 29 C 38.029407 31.693509 55.914501 0 CFG=2
M  V30 30 C 35.067824 32.508628 60.823123 0
M  V30 31 C 39.190066 28.544434 51.498661 0
M  V30 32 H 37.173866 29.199141 51.848711 0
M  V30 33 H 37.437166 27.557940 52.287813 0
M  V30 34 H 37.119516 29.136967 54.247178 0
M  V30 35 H 39.171468 31.363877 60.054761 0
M  V30 36 H 38.647615 29.650833 60.114767 0
M  V30 37 H 40.266645 31.600314 52.729075 0
M  V30 38 H 40.716631 30.021543 53.319342 0
M  V30 39 H 37.981499 31.170736 53.453530 0
M  V30 40 H 41.851473 29.438973 51.053513 0
M  V30 41 H 40.906169 29.629214 49.581200 0
M  V30 42 H 41.418883 31.043127 50.483258 0
M  V30 43 H 41.598459 36.291982 63.924071 0
M  V30 44 H 39.406604 27.467531 57.505431 0
M  V30 45 H 37.675505 27.193151 57.296176 0
M  V30 46 H 37.965089 34.847104 59.819284 0
M  V30 47 H 39.070861 33.517497 59.746998 0
M  V30 48 H 37.226869 24.767339 55.985073 0
M  V30 49 H 38.666692 24.021558 55.287453 0
M  V30 50 H 39.067425 30.563849 50.816705 0
M  V30 51 H 36.944707 33.219798 55.420606 0
M  V30 52 H 41.980029 34.301914 63.643680 0
M  V30 53 H 37.797851 32.760962 57.761924 0
M  V30 54 H 39.398991 32.190661 57.484147 0
M  V30 55 H 40.001917 31.636332 55.098507 0
M  V30 56 H 39.528666 30.123066 55.771855 0
M  V30 57 H 36.351014 29.610905 58.653765 0
M  V30 58 H 39.791810 24.054046 57.452922 0
M  V30 59 H 38.138079 23.621191 57.898788 0
M  V30 60 H 37.180384 26.987836 54.905331 0
M  V30 61 H 38.344180 26.272894 53.799215 0
M  V30 62 H 36.535695 30.362105 60.742312 0
M  V30 63 H 36.425703 33.052684 59.333002 0
M  V30 64 H 38.869866 35.475569 62.073091 0
M  V30 65 H 40.008696 35.631562 60.752152 0
M  V30 66 H 38.398174 29.733059 57.786532 0
M  V30 67 H 37.933980 32.593134 61.900199 0
M  V30 68 H 36.872905 33.961996 61.822553 0
M  V30 69 H 39.976743 26.024451 55.685813 0
M  V30 70 H 37.093006 31.147125 55.799846 0
M  V30 71 H 35.012563 31.994654 61.783306 0
M  V30 72 H 34.703381 33.527329 60.967145 0
M  V30 73 H 34.383786 32.020243 60.127925 0
M  V30 74 H 38.999774 28.147194 50.499990 0
M  V30 75 H 39.917742 27.878707 51.964431 0
M  V30 76 H 36.067741 31.172996 58.069483 0
M  V30 END ATOM
M  V30 BEGIN BOND
M  V30 1 1 2 1
M  V30 2 1 5 2
M  V30 3 1 5 4
M  V30 4 1 11 4
M  V30 5 1 11 6
M  V30 6 1 13 8
M  V30 7 1 14 7
M  V30 8 1 17 5
M  V30 9 1 19 2
M  V30 10 1 20 10
M  V30 11 1 20 13
M  V30 12 1 21 19
M  V30 13 1 22 14
M  V30 14 2 22 16
M  V30 15 1 23 3
M  V30 16 1 23 18
M  V30 17 1 24 23
M  V30 18 1 25 9
M  V30 19 1 25 22
M  V30 20 1 26 3
M  V30 21 1 26 15
M  V30 22 1 26 18
M  V30 23 1 27 9
M  V30 24 1 27 24
M  V30 25 1 28 8
M  V30 26 1 28 10
M  V30 27 1 28 21
M  V30 28 1 29 12
M  V30 29 1 29 15
M  V30 30 1 29 17
M  V30 31 1 30 24
M  V30 32 1 31 1
M  V30 33 1 31 11
M  V30 34 1 32 1
M  V30 35 1 33 1
M  V30 36 1 2 34 CFG=1
M  V30 37 1 35 3
M  V30 38 1 36 3
M  V30 39 1 37 4
M  V30 40 1 38 4
M  V30 41 1 5 39 CFG=3
M  V30 42 1 40 6
M  V30 43 1 41 6
M  V30 44 1 42 6
M  V30 45 1 43 7
M  V30 46 1 44 8
M  V30 47 1 45 8
M  V30 48 1 46 9
M  V30 49 1 47 9
M  V30 50 1 48 10
M  V30 51 1 49 10
M  V30 52 1 11 50 CFG=3
M  V30 53 1 51 12
M  V30 54 1 52 14
M  V30 55 1 53 15
M  V30 56 1 54 15
M  V30 57 1 55 17
M  V30 58 1 56 17
M  V30 59 1 57 18
M  V30 60 1 58 20
M  V30 61 1 59 20
M  V30 62 1 60 21
M  V30 63 1 61 21
M  V30 64 1 23 62 CFG=1
M  V30 65 1 24 63 CFG=3
M  V30 66 1 64 25
M  V30 67 1 65 25
M  V30 68 1 26 66 CFG=3
M  V30 69 1 67 27
M  V30 70 1 68 27
M  V30 71 1 28 69 CFG=3
M  V30 72 1 29 70 CFG=1
M  V30 73 1 71 30
M  V30 74 1 72 30
M  V30 75 1 73 30
M  V30 76 1 74 31
M  V30 77 1 75 31
M  V30 78 1 76 18
M  V30 END BOND
M  V30 END CTAB
M  END
>  <i_epik_Tot_Q>  (1) 
1

>  <i_epik_Tot_abs_Q>  (1) 
1

>  <i_i_glide_confnum>  (1) 
3459

>  <i_i_glide_lignum>  (1) 
33

>  <i_i_glide_posenum>  (1) 
49

>  <i_i_glide_rotatable_bonds>  (1) 
15

>  <i_lp_mmshare_version>  (1) 
72125

>  <i_m_source_file_index>  (1) 
15

>  <i_f3d_flags>  (1) 
0

>  <num_sample>  (1) 
100

>  <b_lp_Chiralities_Consistent>  (1) 
1

>  <r_epik_Charging_Adjusted_Penalty>  (1) 
0.00011085431656654283

>  <r_epik_Ionization_Penalty>  (1) 
0.0093428253379992804

>  <r_epik_Ionization_Penalty_Charging>  (1) 
0.00011085431656654283

>  <r_epik_Ionization_Penalty_Neutral>  (1) 
0.0092319710214327378

>  <r_epik_State_Penalty>  (1) 
-0

>  <r_glide_ring_energy>  (1) 
0

>  <r_i_docking_score>  (1) 
-7.4265266809237271

>  <r_i_glide_ecoul>  (1) 
-12.283680986740784

>  <r_i_glide_eff_state_penalty>  (1) 
-0

>  <r_i_glide_einternal>  (1) 
11.466896138818718

>  <r_i_glide_emodel>  (1) 
-73.785267650348345

>  <r_i_glide_emodel_strain>  (1) 
0.78145170041618428

>  <r_i_glide_energy>  (1) 
-53.80801127719085

>  <r_i_glide_erotb>  (1) 
1.3314850251941783

>  <r_i_glide_esite>  (1) 
-0.10000000000000001

>  <r_i_glide_evdw>  (1) 
-41.524330290450067

>  <r_i_glide_gscore>  (1) 
-7.4265266809237271

>  <r_i_glide_gscore_strain>  (1) 
0

>  <r_i_glide_hbond>  (1) 
-0.41238731736855372

>  <r_i_glide_ligand_efficiency>  (1) 
-0.2395653768039912

>  <r_i_glide_ligand_efficiency_ln>  (1) 
-1.6749093622578599

>  <r_i_glide_ligand_efficiency_sa>  (1) 
-0.75256603967491187

>  <r_i_glide_lipo>  (1) 
-4.1535769626695833

>  <r_i_glide_metal>  (1) 
-0

>  <r_i_glide_rewards>  (1) 
-0.17327876354614924

>  <r_lp_Energy>  (1) 
17.773495

>  <r_lp_tautomer_probability>  (1) 
1

>  <s_epik_Chemistry_Notes>  (1) 
This compound has a N-S or N-O group and may undergo hydrolysis at high or low pH.

>  <s_epik_cmdline>  (1) 
J2VwaWtfcHl0aG9uJywgJy1waHQnLCAnMS4wJywgJy1waCcsICc3LjQnLCAnLXRuJywgJzgnLCAnLW1hJywgJzUwMCcsICctaW1hZScsICc8aW5maWxlLm1hZT4nLCAnLW9tYWUnLCAnPG91dGZpbGUubWFlPic=

>  <s_epik_input>  (1) 
W0NIMl0xW0NIMl1PW0NIMl1bQ0BASF0xW0NIMl1PW0NASF0yW0NIMl1bQ0gyXVtDQEhdKFtDSDNdKVtDSDJdW0NAQEhdMltDSDJdW0NASF0oW09IXSlbQ0gyXVtDQEhdKFtOSF0zKVtDSDJdW0NASF0zW0NAQEhdKFtDSDNdKVtDSDJdW0NIMl1bQ0gyXUMoPU8pW05IXVtPSF0=

>  <s_glide_docking_method>  (1) 
confgen

>  <s_i_glide_gridfile>  (1) 
gpcr_5ht2c_6bqh_protein_autoprepared_prepared

>  <s_lp_Force_Field>  (1) 
S-OPLS

>  <s_lp_Variant>  (1) 
DiffSBDD_14_num_sample_100-2

>  <s_m_source_file>  (1) 
generated__ligand_DiffSBDD_2026-05-06_prepared.sdf

>  <GenAI_Model>  (1) 
DiffSBDD

>  <Protein>  (1) 
GPCR_5HT2C

$$$$
DiffSBDD_80_num_sample_100
     RDKit          3D

  0  0  0  0  0  0  0  0  0  0999 V3000
M  V30 BEGIN CTAB
M  V30 COUNTS 73 76 0 0 1
M  V30 BEGIN ATOM
M  V30 1 C 40.713867 27.555775 58.584781 0
M  V30 2 C 41.022891 28.981048 61.880825 0
M  V30 3 N 41.220034 29.445620 63.277141 0 CFG=2 CHG=1
M  V30 4 O 39.867401 29.251238 56.471557 0
M  V30 5 O 39.404024 31.118796 60.653530 0
M  V30 6 O 39.867370 26.438481 58.385353 0
M  V30 7 C 42.567704 30.685844 65.579755 0 CFG=2
M  V30 8 C 41.504690 31.482201 64.764491 0 CFG=1
M  V30 9 C 39.867404 30.009956 51.783459 0
M  V30 10 C 38.058499 30.710731 56.125125 0
M  V30 11 O 38.346054 27.651089 54.881557 0
M  V30 12 C 38.836685 28.428171 53.873453 0
M  V30 13 O 41.790029 33.500502 61.853497 0
M  V30 14 C 39.867401 30.505165 53.097597 0
M  V30 15 C 40.640046 33.798218 63.945394 0
M  V30 16 C 38.834389 27.941528 52.557522 0
M  V30 17 O 37.067398 30.421440 58.287112 0
M  V30 18 C 42.347444 29.162784 65.461056 0
M  V30 19 O 39.360478 28.248747 50.253501 0
M  V30 20 C 41.701001 33.014529 64.713349 0
M  V30 21 C 39.353803 28.728244 51.516546 0
M  V30 22 C 39.040257 29.180952 57.622241 0 CFG=1
M  V30 23 C 39.557921 28.819436 61.549943 0 CFG=2
M  V30 24 C 39.905832 28.837463 58.850955 0 CFG=1
M  V30 25 C 41.434633 30.911078 63.333745 0
M  V30 26 C 38.292561 30.514569 57.608586 0 CFG=1
M  V30 27 C 41.067413 34.222322 62.538340 0
M  V30 28 C 39.057412 28.726713 60.117336 0 CFG=2
M  V30 29 C 42.736088 33.636922 65.308456 0
M  V30 30 C 41.516846 31.000423 67.764271 0
M  V30 31 C 38.704563 29.932892 60.961398 0 CFG=2
M  V30 32 C 39.398478 30.244047 55.568551 0 CFG=2
M  V30 33 C 39.361003 29.716675 54.148490 0
M  V30 34 C 42.294158 28.717482 63.992285 0
M  V30 35 O 42.682360 31.071560 66.951656 0
M  V30 36 H 41.345113 27.672301 57.702815 0
M  V30 37 H 41.396039 27.378947 59.410505 0
M  V30 38 H 41.508965 28.021408 61.723885 0
M  V30 39 H 41.467404 29.668441 61.169007 0
M  V30 40 H 38.870284 31.620305 60.052636 0
M  V30 41 H 40.389832 25.720913 58.059499 0
M  V30 42 H 43.545041 30.888632 65.137756 0
M  V30 43 H 40.526928 31.312774 65.216429 0
M  V30 44 H 40.265257 30.613027 50.979651 0
M  V30 45 H 39.361683 28.928305 49.595316 0
M  V30 46 H 37.802974 31.734860 55.848695 0
M  V30 47 H 37.250661 30.060051 55.783961 0
M  V30 48 H 38.640581 27.969550 55.724804 0
M  V30 49 H 40.267225 31.486165 53.302339 0
M  V30 50 H 39.720082 33.221290 63.866900 0
M  V30 51 H 40.410857 34.707975 64.500960 0
M  V30 52 H 38.439367 26.958206 52.345794 0
M  V30 53 H 36.425440 30.965265 57.819270 0
M  V30 54 H 41.418711 28.865168 65.946957 0
M  V30 55 H 43.150008 28.632980 65.976359 0
M  V30 56 H 38.317337 28.380867 57.454357 0
M  V30 57 H 39.065389 28.137133 62.237808 0
M  V30 58 H 40.643128 29.621438 58.985536 0
M  V30 59 H 42.349863 31.160636 62.794167 0
M  V30 60 H 40.606462 31.379377 62.811237 0
M  V30 61 H 38.904618 31.326550 58.000454 0
M  V30 62 H 40.683923 35.184710 62.200022 0
M  V30 63 H 38.267392 27.993189 59.993622 0
M  V30 64 H 42.840058 34.711389 65.253695 0
M  V30 65 H 43.487678 33.088659 65.853638 0
M  V30 66 H 41.777222 31.306634 68.777503 0
M  V30 67 H 40.736087 31.676399 67.417928 0
M  V30 68 H 41.111358 29.991470 67.827836 0
M  V30 69 H 37.678975 30.096951 61.270639 0
M  V30 70 H 40.106324 31.072841 55.622772 0
M  V30 71 H 42.104492 27.643825 63.947627 0
M  V30 72 H 43.254044 28.891708 63.501676 0
M  V30 73 H 40.359127 29.240462 63.768895 0
M  V30 END ATOM
M  V30 BEGIN BOND
M  V30 1 1 3 2
M  V30 2 1 6 1
M  V30 3 1 8 7
M  V30 4 1 12 11
M  V30 5 2 14 9
M  V30 6 1 16 12
M  V30 7 1 18 7
M  V30 8 1 20 8
M  V30 9 1 20 15
M  V30 10 1 21 9
M  V30 11 2 21 16
M  V30 12 1 21 19
M  V30 13 1 22 4
M  V30 14 1 23 2
M  V30 15 1 24 1
M  V30 16 1 24 22
M  V30 17 1 25 3
M  V30 18 1 25 8
M  V30 19 1 26 10
M  V30 20 1 26 17
M  V30 21 1 26 22
M  V30 22 2 27 13
M  V30 23 1 27 15
M  V30 24 1 28 23
M  V30 25 1 28 24
M  V30 26 2 29 20
M  V30 27 1 31 5
M  V30 28 1 31 23
M  V30 29 1 31 28
M  V30 30 1 32 4
M  V30 31 1 32 10
M  V30 32 2 33 12
M  V30 33 1 33 14
M  V30 34 1 33 32
M  V30 35 1 34 3
M  V30 36 1 34 18
M  V30 37 1 35 7
M  V30 38 1 35 30
M  V30 39 1 36 1
M  V30 40 1 37 1
M  V30 41 1 38 2
M  V30 42 1 39 2
M  V30 43 1 40 5
M  V30 44 1 41 6
M  V30 45 1 7 42 CFG=3
M  V30 46 1 8 43 CFG=1
M  V30 47 1 44 9
M  V30 48 1 45 19
M  V30 49 1 46 10
M  V30 50 1 47 10
M  V30 51 1 48 11
M  V30 52 1 49 14
M  V30 53 1 50 15
M  V30 54 1 51 15
M  V30 55 1 52 16
M  V30 56 1 53 17
M  V30 57 1 54 18
M  V30 58 1 55 18
M  V30 59 1 22 56 CFG=3
M  V30 60 1 23 57 CFG=1
M  V30 61 1 24 58 CFG=1
M  V30 62 1 59 25
M  V30 63 1 60 25
M  V30 64 1 26 61 CFG=1
M  V30 65 1 62 27
M  V30 66 1 28 63 CFG=1
M  V30 67 1 64 29
M  V30 68 1 65 29
M  V30 69 1 66 30
M  V30 70 1 67 30
M  V30 71 1 68 30
M  V30 72 1 31 69 CFG=1
M  V30 73 1 32 70 CFG=3
M  V30 74 1 71 34
M  V30 75 1 72 34
M  V30 76 1 3 73 CFG=1
M  V30 END BOND
M  V30 END CTAB
M  END
>  <i_epik_Tot_Q>  (1) 
1

>  <i_epik_Tot_abs_Q>  (1) 
1

>  <i_i_glide_confnum>  (1) 
1253

>  <i_i_glide_lignum>  (1) 
207

>  <i_i_glide_posenum>  (1) 
270

>  <i_i_glide_rotatable_bonds>  (1) 
15

>  <i_lp_mmshare_version>  (1) 
72125

>  <i_m_source_file_index>  (1) 
81

>  <i_f3d_flags>  (1) 
0

>  <num_sample>  (1) 
100

>  <b_lp_Chiralities_Consistent>  (1) 
1

>  <r_epik_Charging_Adjusted_Penalty>  (1) 
0.034071705691259377

>  <r_epik_Ionization_Penalty>  (1) 
0.043305258844254187

>  <r_epik_Ionization_Penalty_Charging>  (1) 
0.034071705691259377

>  <r_epik_Ionization_Penalty_Neutral>  (1) 
0.009233553152994808

>  <r_epik_State_Penalty>  (1) 
-0

>  <r_glide_ring_energy>  (1) 
0

>  <r_i_docking_score>  (1) 
-7.426191243100047

>  <r_i_glide_ecoul>  (1) 
-9.0589971924309225

>  <r_i_glide_eff_state_penalty>  (1) 
-0

>  <r_i_glide_einternal>  (1) 
15.059965372238249

>  <r_i_glide_emodel>  (1) 
-70.213162957312136

>  <r_i_glide_emodel_strain>  (1) 
1.5724306603241871

>  <r_i_glide_energy>  (1) 
-49.100247772343423

>  <r_i_glide_erotb>  (1) 
0.67144220787932085

>  <r_i_glide_esite>  (1) 
-0.025462654123811875

>  <r_i_glide_evdw>  (1) 
-40.0412505799125

>  <r_i_glide_gscore>  (1) 
-7.426191243100047

>  <r_i_glide_gscore_strain>  (1) 
0

>  <r_i_glide_hbond>  (1) 
-0.18157931337228714

>  <r_i_glide_ligand_efficiency>  (1) 
-0.21217689266000134

>  <r_i_glide_ligand_efficiency_ln>  (1) 
-1.6302137932950804

>  <r_i_glide_ligand_efficiency_sa>  (1) 
-0.69404468538063113

>  <r_i_glide_lipo>  (1) 
-3.851347826852463

>  <r_i_glide_metal>  (1) 
-0

>  <r_i_glide_rewards>  (1) 
-0.67833154877054225

>  <r_lp_Energy>  (1) 
41.479424999999999

>  <r_lp_tautomer_probability>  (1) 
1

>  <s_epik_cmdline>  (1) 
J2VwaWtfcHl0aG9uJywgJy1waHQnLCAnMS4wJywgJy1waCcsICc3LjQnLCAnLXRuJywgJzgnLCAnLW1hJywgJzUwMCcsICctaW1hZScsICc8aW5maWxlLm1hZT4nLCAnLW9tYWUnLCAnPG91dGZpbGUubWFlPic=

>  <s_epik_input>  (1) 
Tz1bQ0hdW0NIMl1DKD1bQ0gyXSlbQ0BASF0oW0NASF0oW0NIMl1bQ0gyXTEpT1tDSDNdKVtDSDJdTjFbQ0gyXVtDQEBIXTJbQ0BASF0oW0NAQEhdMltPSF0pW0NAQEhdKFtDSDJdW09IXSlbQ0BASF0zT1tDQEhdKFtDSDJdW0NASF0zW09IXSlDND1bQ0hdW0NIMl1DKD1PKVtDSF09QzRbT0hd

>  <s_glide_docking_method>  (1) 
confgen

>  <s_i_glide_gridfile>  (1) 
gpcr_5ht2c_6bqh_protein_autoprepared_prepared

>  <s_lp_Force_Field>  (1) 
S-OPLS

>  <s_lp_Variant>  (1) 
DiffSBDD_80_num_sample_100-3

>  <s_m_source_file>  (1) 
generated__ligand_DiffSBDD_2026-05-06_prepared.sdf

>  <GenAI_Model>  (1) 
DiffSBDD

>  <Protein>  (1) 
GPCR_5HT2C

$$$$
DiffSBDD_76_num_sample_100
     RDKit          3D

  0  0  0  0  0  0  0  0  0  0999 V3000
M  V30 BEGIN CTAB
M  V30 COUNTS 62 64 0 0 1
M  V30 BEGIN ATOM
M  V30 1 C 39.067300 29.503386 52.799927 0
M  V30 2 C 38.364955 27.879406 57.793420 0
M  V30 3 O 38.037489 30.821461 61.509338 0
M  V30 4 C 38.667481 34.974873 62.212740 0
M  V30 5 Cl 37.785638 33.524205 58.288728 0
M  V30 6 C 38.794635 31.131857 59.232399 0
M  V30 7 N 38.733114 32.858318 60.843343 0
M  V30 8 C 38.467381 31.561210 60.622435 0
M  V30 9 C 40.164479 29.179063 59.930608 0
M  V30 10 C 38.286727 32.502476 55.623366 0
M  V30 11 C 38.611952 30.087694 56.512213 0 CFG=2
M  V30 12 C 38.876325 31.587801 56.719670 0 CFG=2
M  V30 13 O 38.619763 37.728097 61.453400 0
M  V30 14 S 37.926799 26.777080 54.667445 0
M  V30 15 C 40.463022 30.632429 51.164275 0
M  V30 16 C 38.533463 31.948169 58.164384 0
M  V30 17 C 38.648763 33.437610 62.170466 0
M  V30 18 C 38.888604 28.428987 51.892312 0
M  V30 19 C 40.268464 29.575915 50.267629 0
M  V30 20 C 39.179537 29.192199 57.659368 0 CFG=1
M  V30 21 O 40.621122 28.047916 59.653372 0 CHG=-1
M  V30 22 C 39.830102 37.136325 61.920642 0
M  V30 23 C 37.435263 37.143237 61.986226 0
M  V30 24 C 37.286343 28.434360 54.272074 0
M  V30 25 C 39.491559 28.470407 50.634932 0
M  V30 26 C 39.879284 35.642364 61.567618 0
M  V30 27 N 39.350165 29.815003 59.003289 0
M  V30 28 O 39.209419 29.611732 55.285582 0
M  V30 29 C 37.391265 35.638110 61.673994 0
M  V30 30 C 39.867412 30.597126 52.432946 0
M  V30 31 F 40.831966 29.621431 49.053511 0
M  V30 32 O 40.464031 29.742792 61.006832 0
M  V30 33 C 38.354213 29.510763 54.142274 0 CFG=1
M  V30 34 H 38.864744 27.069122 57.267143 0
M  V30 35 H 38.267380 27.541622 58.824375 0
M  V30 36 H 37.348740 27.970265 57.416595 0
M  V30 37 H 38.744073 35.240867 63.263925 0
M  V30 38 H 39.079181 33.432652 60.089568 0
M  V30 39 H 38.478035 33.560830 55.797458 0
M  V30 40 H 38.745756 32.300387 54.660401 0
M  V30 41 H 37.215576 32.351755 55.513884 0
M  V30 42 H 37.528267 29.992530 56.519894 0
M  V30 43 H 39.950134 31.725305 56.653453 0
M  V30 44 H 38.679682 27.178595 55.696763 0
M  V30 45 H 41.066382 31.475179 50.875107 0
M  V30 46 H 37.755525 33.045277 62.653498 0
M  V30 47 H 39.491358 33.057633 62.750425 0
M  V30 48 H 38.276625 27.583463 52.151287 0
M  V30 49 H 40.191284 28.926363 57.343890 0
M  V30 50 H 39.932060 37.291522 62.996379 0
M  V30 51 H 40.667579 37.637773 61.453493 0
M  V30 52 H 37.392560 37.313284 63.063476 0
M  V30 53 H 36.568815 37.643038 61.550203 0
M  V30 54 H 36.663520 28.389870 53.381694 0
M  V30 55 H 36.667371 28.821412 55.053501 0
M  V30 56 H 39.346368 27.657161 49.941241 0
M  V30 57 H 40.806376 35.201201 61.935654 0
M  V30 58 H 39.867707 35.507772 60.485964 0
M  V30 59 H 37.308489 35.480509 60.598180 0
M  V30 60 H 36.502435 35.197223 62.126721 0
M  V30 61 H 40.008228 31.418689 53.116098 0
M  V30 62 H 37.782044 30.434878 54.089539 0
M  V30 END ATOM
M  V30 BEGIN BOND
M  V30 1 2 8 3
M  V30 2 1 8 6
M  V30 3 1 8 7
M  V30 4 1 12 10
M  V30 5 1 12 11
M  V30 6 1 16 5
M  V30 7 2 16 6
M  V30 8 1 16 12
M  V30 9 1 17 4
M  V30 10 1 17 7
M  V30 11 2 18 1
M  V30 12 1 19 15
M  V30 13 1 20 2
M  V30 14 1 20 11
M  V30 15 1 21 9
M  V30 16 1 22 13
M  V30 17 1 23 13
M  V30 18 1 24 14
M  V30 19 1 25 18
M  V30 20 2 25 19
M  V30 21 1 26 4
M  V30 22 1 26 22
M  V30 23 1 27 6
M  V30 24 1 27 9
M  V30 25 1 27 20
M  V30 26 1 28 11
M  V30 27 1 29 4
M  V30 28 1 29 23
M  V30 29 1 30 1
M  V30 30 2 30 15
M  V30 31 1 31 19
M  V30 32 2 32 9
M  V30 33 1 33 1
M  V30 34 1 33 24
M  V30 35 1 33 28
M  V30 36 1 34 2
M  V30 37 1 35 2
M  V30 38 1 36 2
M  V30 39 1 37 4
M  V30 40 1 38 7
M  V30 41 1 39 10
M  V30 42 1 40 10
M  V30 43 1 41 10
M  V30 44 1 11 42 CFG=3
M  V30 45 1 12 43 CFG=1
M  V30 46 1 44 14
M  V30 47 1 45 15
M  V30 48 1 46 17
M  V30 49 1 47 17
M  V30 50 1 48 18
M  V30 51 1 20 49 CFG=3
M  V30 52 1 50 22
M  V30 53 1 51 22
M  V30 54 1 52 23
M  V30 55 1 53 23
M  V30 56 1 54 24
M  V30 57 1 55 24
M  V30 58 1 56 25
M  V30 59 1 57 26
M  V30 60 1 58 26
M  V30 61 1 59 29
M  V30 62 1 60 29
M  V30 63 1 61 30
M  V30 64 1 33 62 CFG=3
M  V30 END BOND
M  V30 END CTAB
M  END
>  <i_epik_Tot_Q>  (1) 
-1

>  <i_epik_Tot_abs_Q>  (1) 
1

>  <i_i_glide_confnum>  (1) 
132

>  <i_i_glide_lignum>  (1) 
189

>  <i_i_glide_posenum>  (1) 
22

>  <i_i_glide_rotatable_bonds>  (1) 
10

>  <i_lp_mmshare_version>  (1) 
72125

>  <i_m_source_file_index>  (1) 
77

>  <i_f3d_flags>  (1) 
0

>  <num_sample>  (1) 
100

>  <b_lp_Chiralities_Consistent>  (1) 
1

>  <r_epik_Charging_Adjusted_Penalty>  (1) 
0.0069450066625796414

>  <r_epik_Ionization_Penalty>  (1) 
0.006947181281074642

>  <r_epik_Ionization_Penalty_Charging>  (1) 
2.7704327777150034e-06

>  <r_epik_Ionization_Penalty_Neutral>  (1) 
0.0069444108482969273

>  <r_epik_State_Penalty>  (1) 
0.0069422362298019267

>  <r_glide_ring_energy>  (1) 
0

>  <r_i_docking_score>  (1) 
-7.4247401178292609

>  <r_i_glide_ecoul>  (1) 
-3.181102699995749

>  <r_i_glide_eff_state_penalty>  (1) 
0.0069422362298019267

>  <r_i_glide_einternal>  (1) 
7.0298717706473468

>  <r_i_glide_emodel>  (1) 
-54.699084957528768

>  <r_i_glide_emodel_strain>  (1) 
3.2413588879941244

>  <r_i_glide_energy>  (1) 
-39.782103807049701

>  <r_i_glide_erotb>  (1) 
0.57163862173476065

>  <r_i_glide_esite>  (1) 
0

>  <r_i_glide_evdw>  (1) 
-36.601001107053953

>  <r_i_glide_gscore>  (1) 
-7.4316823540590624

>  <r_i_glide_gscore_strain>  (1) 
0

>  <r_i_glide_hbond>  (1) 
-0.12738659247595752

>  <r_i_glide_ligand_efficiency>  (1) 
-0.22499212478270489

>  <r_i_glide_ligand_efficiency_ln>  (1) 
-1.6512237589583358

>  <r_i_glide_ligand_efficiency_sa>  (1) 
-0.72166996421923069

>  <r_i_glide_lipo>  (1) 
-3.7024954635762017

>  <r_i_glide_metal>  (1) 
-0

>  <r_i_glide_rewards>  (1) 
-1.8662234593896039

>  <r_lp_Energy>  (1) 
51.555678999999998

>  <s_epik_cmdline>  (1) 
J2VwaWtfcHl0aG9uJywgJy1waHQnLCAnMS4wJywgJy1waCcsICc3LjQnLCAnLXRuJywgJzgnLCAnLW1hJywgJzUwMCcsICctaW1hZScsICc8aW5maWxlLm1hZT4nLCAnLW9tYWUnLCAnPG91dGZpbGUubWFlPic=

>  <s_epik_input>  (1) 
W2NIXTFbY0hdYyhGKVtjSF1bY0hdYzFbQ0BASF0oW0NIMl1bU0hdKU9bQ0BASF0oW0NASF0oW0NIM10pTjJDKD1PKVtPSF0pW0NAQEhdKFtDSDNdKUMoQ2wpPUMyQyg9TylbTkhdW0NIMl1bQ0hdM1tDSDJdW0NIMl1PW0NIMl1bQ0gyXTM=

>  <s_glide_docking_method>  (1) 
confgen

>  <s_i_glide_gridfile>  (1) 
gpcr_5ht2c_6bqh_protein_autoprepared_prepared

>  <s_lp_Force_Field>  (1) 
S-OPLS

>  <s_lp_Variant>  (1) 
DiffSBDD_76_num_sample_100-1

>  <s_m_source_file>  (1) 
generated__ligand_DiffSBDD_2026-05-06_prepared.sdf

>  <GenAI_Model>  (1) 
DiffSBDD

>  <Protein>  (1) 
GPCR_5HT2C

$$$$
DiffSBDD_23_num_sample_100
     RDKit          3D

  0  0  0  0  0  0  0  0  0  0999 V3000
M  V30 BEGIN CTAB
M  V30 COUNTS 83 87 0 0 1
M  V30 BEGIN ATOM
M  V30 1 C 38.655786 27.730296 54.522094 0
M  V30 2 C 38.347995 31.951493 62.253520 0
M  V30 3 C 39.864935 35.240011 61.082765 0
M  V30 4 O 41.807626 34.873987 64.787336 0
M  V30 5 N 36.950868 35.321823 59.065426 0
M  V30 6 C 39.467404 31.199519 60.027925 0
M  V30 7 C 38.240011 30.979896 56.558817 0
M  V30 8 N 38.306285 33.319413 61.678311 0
M  V30 9 C 40.128117 34.084158 63.218981 0
M  V30 10 C 40.888209 36.120979 61.453503 0
M  V30 11 C 37.110637 36.213922 62.655362 0
M  V30 12 C 37.067407 36.216099 61.147993 0
M  V30 13 C 38.208741 29.485347 56.238803 0 CFG=1
M  V30 14 C 36.982430 37.221412 60.372392 0
M  V30 15 N 38.443185 29.173477 54.803493 0 CFG=1 CHG=1
M  V30 16 C 39.067400 29.559627 61.849196 0
M  V30 17 C 41.628346 33.714485 65.588526 0
M  V30 18 C 41.150727 34.983029 63.577557 0
M  V30 19 C 38.544937 30.835323 61.196112 0 CFG=1
M  V30 20 C 36.819202 25.441046 57.319878 0
M  V30 21 C 37.080910 35.049992 60.320176 0
M  V30 22 C 39.626424 29.321392 58.453710 0
M  V30 23 C 38.739799 24.578624 55.206664 0
M  V30 24 O 40.561297 28.815257 59.076469 0
M  V30 25 C 39.125909 25.332950 56.477169 0
M  V30 26 C 39.434327 34.233834 61.986414 0
M  V30 27 C 37.198518 33.613729 60.861371 0
M  V30 28 C 39.466170 30.017041 54.130779 0
M  V30 29 C 36.923913 36.863871 58.918726 0
M  V30 30 C 38.269825 27.404250 57.705000 0
M  V30 31 C 37.654209 26.753541 55.216416 0 CFG=2
M  V30 32 C 41.502337 36.009724 62.703562 0
M  V30 33 C 37.968719 31.111067 58.047233 0
M  V30 34 C 37.956203 26.295272 56.685491 0 CFG=2
M  V30 35 C 37.707659 25.435022 54.472394 0
M  V30 36 O 36.356105 32.770123 60.548894 0
M  V30 37 N 39.042563 30.486034 58.826863 0
M  V30 38 C 39.072819 28.617954 57.206049 0 CFG=1
M  V30 39 H 38.543883 27.650496 53.439513 0
M  V30 40 H 39.688658 27.441839 54.715083 0
M  V30 41 H 37.411297 31.765716 62.770146 0
M  V30 42 H 39.122372 31.778525 62.988511 0
M  V30 43 H 39.423604 35.342713 60.114940 0
M  V30 44 H 40.499062 30.976146 60.303407 0
M  V30 45 H 39.467441 32.260965 59.790128 0
M  V30 46 H 39.202092 31.441308 56.332102 0
M  V30 47 H 37.477939 31.515861 55.990273 0
M  V30 48 H 39.846612 33.314756 63.907862 0
M  V30 49 H 41.203408 36.891829 60.773964 0
M  V30 50 H 36.287701 35.621391 63.053502 0
M  V30 51 H 36.892115 37.228662 62.989186 0
M  V30 52 H 38.073982 35.999305 63.103015 0
M  V30 53 H 37.162979 29.221472 56.397845 0
M  V30 54 H 36.939827 38.248611 60.702574 0
M  V30 55 H 40.069721 29.681699 62.262197 0
M  V30 56 H 39.067461 28.701558 61.179205 0
M  V30 57 H 38.403350 29.326352 62.653504 0
M  V30 58 H 42.331438 33.750760 66.420731 0
M  V30 59 H 41.829247 32.799816 65.028157 0
M  V30 60 H 40.623761 33.673211 66.009717 0
M  V30 61 H 37.556363 30.599538 60.798935 0
M  V30 62 H 35.959260 26.021428 57.628959 0
M  V30 63 H 37.174679 24.947210 58.225256 0
M  V30 64 H 36.446363 24.651364 56.670189 0
M  V30 65 H 38.268221 23.621418 55.437311 0
M  V30 66 H 39.640888 24.421410 54.626214 0
M  V30 67 H 40.058488 25.876703 56.321584 0
M  V30 68 H 39.298828 24.660025 57.318797 0
M  V30 69 H 40.412012 30.004385 54.673531 0
M  V30 70 H 39.132343 31.051992 54.047183 0
M  V30 71 H 39.654761 29.672491 53.112812 0
M  V30 72 H 37.806484 37.221434 58.389209 0
M  V30 73 H 36.001563 37.220749 58.457153 0
M  V30 74 H 37.336286 27.791770 58.113450 0
M  V30 75 H 38.766233 26.933375 58.557001 0
M  V30 76 H 36.667401 27.147666 55.053507 0
M  V30 77 H 42.270283 36.705401 62.985670 0
M  V30 78 H 37.876895 32.171263 58.284163 0
M  V30 79 H 37.011616 30.659946 58.314525 0
M  V30 80 H 37.953339 25.621432 53.442521 0
M  V30 81 H 36.734164 24.942506 54.471161 0
M  V30 82 H 39.981055 28.284062 56.705303 0
M  V30 83 H 37.572413 29.411462 54.349527 0
M  V30 END ATOM
M  V30 BEGIN BOND
M  V30 1 1 8 2
M  V30 2 1 10 3
M  V30 3 1 12 11
M  V30 4 1 13 7
M  V30 5 2 14 12
M  V30 6 1 15 1
M  V30 7 1 15 13
M  V30 8 1 17 4
M  V30 9 1 18 4
M  V30 10 2 18 9
M  V30 11 1 19 2
M  V30 12 1 19 6
M  V30 13 1 19 16
M  V30 14 2 21 5
M  V30 15 1 21 12
M  V30 16 2 24 22
M  V30 17 1 25 23
M  V30 18 2 26 3
M  V30 19 1 26 8
M  V30 20 1 26 9
M  V30 21 1 27 8
M  V30 22 1 27 21
M  V30 23 1 28 15
M  V30 24 1 29 5
M  V30 25 1 29 14
M  V30 26 1 31 1
M  V30 27 2 32 10
M  V30 28 1 32 18
M  V30 29 1 33 7
M  V30 30 1 34 20 CFG=1
M  V30 31 1 34 25
M  V30 32 1 34 30
M  V30 33 1 34 31
M  V30 34 1 35 23
M  V30 35 1 35 31
M  V30 36 2 36 27
M  V30 37 1 37 6
M  V30 38 1 37 22
M  V30 39 1 37 33
M  V30 40 1 38 13
M  V30 41 1 38 22
M  V30 42 1 38 30
M  V30 43 1 39 1
M  V30 44 1 40 1
M  V30 45 1 41 2
M  V30 46 1 42 2
M  V30 47 1 43 3
M  V30 48 1 44 6
M  V30 49 1 45 6
M  V30 50 1 46 7
M  V30 51 1 47 7
M  V30 52 1 48 9
M  V30 53 1 49 10
M  V30 54 1 50 11
M  V30 55 1 51 11
M  V30 56 1 52 11
M  V30 57 1 13 53 CFG=1
M  V30 58 1 54 14
M  V30 59 1 55 16
M  V30 60 1 56 16
M  V30 61 1 57 16
M  V30 62 1 58 17
M  V30 63 1 59 17
M  V30 64 1 60 17
M  V30 65 1 19 61 CFG=3
M  V30 66 1 62 20
M  V30 67 1 63 20
M  V30 68 1 64 20
M  V30 69 1 65 23
M  V30 70 1 66 23
M  V30 71 1 67 25
M  V30 72 1 68 25
M  V30 73 1 69 28
M  V30 74 1 70 28
M  V30 75 1 71 28
M  V30 76 1 72 29
M  V30 77 1 73 29
M  V30 78 1 74 30
M  V30 79 1 75 30
M  V30 80 1 31 76 CFG=1
M  V30 81 1 77 32
M  V30 82 1 78 33
M  V30 83 1 79 33
M  V30 84 1 80 35
M  V30 85 1 81 35
M  V30 86 1 38 82 CFG=3
M  V30 87 1 15 83 CFG=3
M  V30 END BOND
M  V30 END CTAB
M  END
>  <i_epik_Tot_Q>  (1) 
1

>  <i_epik_Tot_abs_Q>  (1) 
1

>  <i_i_glide_confnum>  (1) 
157

>  <i_i_glide_lignum>  (1) 
58

>  <i_i_glide_posenum>  (1) 
208

>  <i_i_glide_rotatable_bonds>  (1) 
8

>  <i_lp_mmshare_version>  (1) 
72125

>  <i_m_source_file_index>  (1) 
24

>  <i_f3d_flags>  (1) 
0

>  <num_sample>  (1) 
100

>  <b_lp_Chiralities_Consistent>  (1) 
1

>  <r_epik_Charging_Adjusted_Penalty>  (1) 
0.0029773975431382485

>  <r_epik_Ionization_Penalty>  (1) 
0.013183626931022738

>  <r_epik_Ionization_Penalty_Charging>  (1) 
0.0029773975431382485

>  <r_epik_Ionization_Penalty_Neutral>  (1) 
0.010206229387884489

>  <r_epik_State_Penalty>  (1) 
-0

>  <r_glide_ring_energy>  (1) 
0

>  <r_i_docking_score>  (1) 
-7.4182450818902037

>  <r_i_glide_ecoul>  (1) 
1.395883200037529

>  <r_i_glide_eff_state_penalty>  (1) 
-0

>  <r_i_glide_einternal>  (1) 
19.690320660922424

>  <r_i_glide_emodel>  (1) 
-44.018467119966459

>  <r_i_glide_emodel_strain>  (1) 
3.8648562855895534

>  <r_i_glide_energy>  (1) 
-31.932657526541131

>  <r_i_glide_erotb>  (1) 
0.5287100460970352

>  <r_i_glide_esite>  (1) 
-0.0033243792334917244

>  <r_i_glide_evdw>  (1) 
-33.328540726578659

>  <r_i_glide_gscore>  (1) 
-7.4182450818902037

>  <r_i_glide_gscore_strain>  (1) 
0

>  <r_i_glide_hbond>  (1) 
0

>  <r_i_glide_ligand_efficiency>  (1) 
-0.19521697583921588

>  <r_i_glide_ligand_efficiency_ln>  (1) 
-1.5995918623165537

>  <r_i_glide_ligand_efficiency_sa>  (1) 
-0.65631467176111136

>  <r_i_glide_lipo>  (1) 
-4.8950826956186217

>  <r_i_glide_metal>  (1) 
-0

>  <r_i_glide_rewards>  (1) 
-1.5915034968118213

>  <r_lp_Energy>  (1) 
97.856698999999992

>  <r_lp_tautomer_probability>  (1) 
1

>  <s_epik_Chemistry_Notes>  (1) 
This compound has an imine and may undergo hydrolysis.

>  <s_epik_cmdline>  (1) 
J2VwaWtfcHl0aG9uJywgJy1waHQnLCAnMS4wJywgJy1waCcsICc3LjQnLCAnLXRuJywgJzgnLCAnLW1hJywgJzUwMCcsICctaW1hZScsICc8aW5maWxlLm1hZT4nLCAnLW9tYWUnLCAnPG91dGZpbGUubWFlPic=

>  <s_epik_input>  (1) 
W0NIMl0xW0NIMl1bQ0gyXVtDQEBIXShbQ0BAXTEyW0NIM10pW0NIMl1OKFtDSDNdKVtDQEhdM1tDQEhdKFtDSDJdMilDKD1PKU4oW0NIMl1bQ0gyXTMpW0NIMl1bQ0BASF0oW0NIM10pW0NIMl1OKGMoW2NIXVtjSF1bY0hdNClbY0hdYzRPW0NIM10pQyg9TylDNT1OW0NIMl1bQ0hdPUM1W0NIM10=

>  <s_glide_docking_method>  (1) 
confgen

>  <s_i_glide_gridfile>  (1) 
gpcr_5ht2c_6bqh_protein_autoprepared_prepared

>  <s_lp_Force_Field>  (1) 
S-OPLS

>  <s_lp_Variant>  (1) 
DiffSBDD_23_num_sample_100-1

>  <s_m_source_file>  (1) 
generated__ligand_DiffSBDD_2026-05-06_prepared.sdf

>  <GenAI_Model>  (1) 
DiffSBDD

>  <Protein>  (1) 
GPCR_5HT2C

$$$$
DiffSBDD_39_num_sample_100
     RDKit          3D

  0  0  0  0  0  0  0  0  0  0999 V3000
M  V30 BEGIN CTAB
M  V30 COUNTS 61 64 0 0 1
M  V30 BEGIN ATOM
M  V30 1 C 40.253558 33.484037 62.566446 0
M  V30 2 C 39.381235 29.122846 57.932506 0
M  V30 3 C 36.522138 31.865110 61.240165 0
M  V30 4 C 39.946483 28.948012 59.341659 0
M  V30 5 C 39.810493 31.445873 61.189765 0
M  V30 6 C 37.866743 27.569946 56.555874 0
M  V30 7 N 38.498092 27.062305 52.846230 0
M  V30 8 O 36.825011 32.904551 61.853303 0 CHG=-1
M  V30 9 C 38.291404 27.899906 55.142548 0
M  V30 10 C 39.180521 33.804510 60.390456 0
M  V30 11 O 35.474960 31.221202 61.449408 0
M  V30 12 C 39.103226 35.193330 60.653424 0
M  V30 13 C 39.595135 35.720322 61.863744 0
M  V30 14 N 38.784366 30.846320 60.506085 0
M  V30 15 C 40.695065 35.436172 64.138593 0
M  V30 16 C 37.472923 32.419999 59.008252 0
M  V30 17 C 39.444002 28.468543 51.083795 0
M  V30 18 C 38.924951 29.379842 60.420999 0
M  V30 19 C 41.286734 34.871144 66.598506 0
M  V30 20 C 38.822899 29.160599 54.716658 0
M  V30 21 C 37.434140 31.370981 60.108824 0 CFG=2
M  V30 22 C 39.837616 29.993276 51.035355 0
M  V30 23 O 41.595774 34.024270 67.467516 0 CHG=-1
M  V30 24 C 39.738376 32.939292 61.378334 0
M  V30 25 S 39.867389 30.746283 52.736706 0
M  V30 26 C 39.186481 29.293650 53.371904 0
M  V30 27 O 38.938989 30.219146 55.552861 0
M  V30 28 C 40.175305 34.866456 62.820184 0
M  V30 29 Cl 37.494257 25.348831 54.629299 0
M  V30 30 C 41.166453 34.367837 65.165465 0
M  V30 31 C 38.139114 26.887292 54.150529 0
M  V30 32 C 38.298973 28.090674 57.725875 0
M  V30 33 C 38.708643 33.261279 59.036463 0
M  V30 34 O 40.748299 30.812064 61.689150 0
M  V30 35 C 39.018051 28.255800 52.507477 0
M  V30 36 O 41.067124 36.084808 66.801313 0
M  V30 37 H 40.690644 32.823119 63.297749 0
M  V30 38 H 40.194463 28.986074 57.220914 0
M  V30 39 H 38.983078 30.133098 57.888419 0
M  V30 40 H 40.224398 27.906406 59.507367 0
M  V30 41 H 40.877624 29.507204 59.428978 0
M  V30 42 H 37.112335 26.803979 56.633218 0
M  V30 43 H 38.672066 35.855547 59.917315 0
M  V30 44 H 39.530509 36.782549 62.054495 0
M  V30 45 H 41.510786 36.126256 63.924330 0
M  V30 46 H 39.885072 36.032761 64.562571 0
M  V30 47 H 36.596701 33.070739 59.047346 0
M  V30 48 H 37.425135 31.931268 58.034849 0
M  V30 49 H 40.307022 27.850083 50.855942 0
M  V30 50 H 38.656674 28.219560 50.375703 0
M  V30 51 H 37.960720 28.913080 60.251007 0
M  V30 52 H 39.205860 28.967199 61.393557 0
M  V30 53 H 36.863891 30.561782 59.651972 0
M  V30 54 H 40.794120 30.143227 50.534596 0
M  V30 55 H 39.095042 30.532682 50.446874 0
M  V30 56 H 38.545145 30.036971 56.393990 0
M  V30 57 H 40.448038 33.551505 65.243198 0
M  V30 58 H 42.116865 33.934755 64.854493 0
M  V30 59 H 37.843620 27.720265 58.625434 0
M  V30 60 H 38.580960 34.021816 58.286434 0
M  V30 61 H 39.467788 32.632727 58.608210 0
M  V30 END ATOM
M  V30 BEGIN BOND
M  V30 1 1 4 2
M  V30 2 1 8 3
M  V30 3 1 9 6
M  V30 4 2 11 3
M  V30 5 1 12 10
M  V30 6 2 13 12
M  V30 7 1 14 5
M  V30 8 1 18 4
M  V30 9 1 18 14
M  V30 10 2 20 9
M  V30 11 1 21 3
M  V30 12 1 21 14
M  V30 13 1 21 16
M  V30 14 1 22 17
M  V30 15 1 23 19
M  V30 16 1 24 1
M  V30 17 1 24 5
M  V30 18 2 24 10
M  V30 19 1 25 22
M  V30 20 1 26 20
M  V30 21 1 26 25
M  V30 22 1 27 20
M  V30 23 2 28 1
M  V30 24 1 28 13
M  V30 25 1 28 15
M  V30 26 1 30 15
M  V30 27 1 30 19
M  V30 28 2 31 7
M  V30 29 1 31 9
M  V30 30 1 31 29
M  V30 31 1 32 2
M  V30 32 2 32 6
M  V30 33 1 33 10
M  V30 34 1 33 16
M  V30 35 2 34 5
M  V30 36 1 35 7
M  V30 37 1 35 17
M  V30 38 2 35 26
M  V30 39 2 36 19
M  V30 40 1 37 1
M  V30 41 1 38 2
M  V30 42 1 39 2
M  V30 43 1 40 4
M  V30 44 1 41 4
M  V30 45 1 42 6
M  V30 46 1 43 12
M  V30 47 1 44 13
M  V30 48 1 45 15
M  V30 49 1 46 15
M  V30 50 1 47 16
M  V30 51 1 48 16
M  V30 52 1 49 17
M  V30 53 1 50 17
M  V30 54 1 51 18
M  V30 55 1 52 18
M  V30 56 1 21 53 CFG=3
M  V30 57 1 54 22
M  V30 58 1 55 22
M  V30 59 1 56 27
M  V30 60 1 57 30
M  V30 61 1 58 30
M  V30 62 1 59 32
M  V30 63 1 60 33
M  V30 64 1 61 33
M  V30 END BOND
M  V30 END CTAB
M  END
>  <i_epik_Tot_Q>  (1) 
-2

>  <i_epik_Tot_abs_Q>  (1) 
2

>  <i_i_glide_confnum>  (1) 
385

>  <i_i_glide_lignum>  (1) 
97

>  <i_i_glide_posenum>  (1) 
15

>  <i_i_glide_rotatable_bonds>  (1) 
10

>  <i_lp_mmshare_version>  (1) 
72125

>  <i_m_source_file_index>  (1) 
40

>  <i_f3d_flags>  (1) 
0

>  <num_sample>  (1) 
100

>  <b_lp_Chiralities_Consistent>  (1) 
1

>  <r_epik_Charging_Adjusted_Penalty>  (1) 
1.1553041349672681

>  <r_epik_Ionization_Penalty>  (1) 
1.0836065631352982

>  <r_epik_Ionization_Penalty_Charging>  (1) 
0.00098582723969229671

>  <r_epik_Ionization_Penalty_Neutral>  (1) 
1.0826207358956059

>  <r_epik_State_Penalty>  (1) 
1.1543183077275758

>  <r_glide_ring_energy>  (1) 
0

>  <r_i_docking_score>  (1) 
-7.4133009402165433

>  <r_i_glide_ecoul>  (1) 
-3.0916770809261473

>  <r_i_glide_eff_state_penalty>  (1) 
1.1543183077275758

>  <r_i_glide_einternal>  (1) 
13.457571677270565

>  <r_i_glide_emodel>  (1) 
-58.735255864597725

>  <r_i_glide_emodel_strain>  (1) 
0.77272752506941345

>  <r_i_glide_energy>  (1) 
-47.693232321619647

>  <r_i_glide_erotb>  (1) 
0.51538728504810294

>  <r_i_glide_esite>  (1) 
-0.054945787658732807

>  <r_i_glide_evdw>  (1) 
-44.6015552406935

>  <r_i_glide_gscore>  (1) 
-8.5676192479441191

>  <r_i_glide_gscore_strain>  (1) 
0

>  <r_i_glide_hbond>  (1) 
-0.35750859262780105

>  <r_i_glide_ligand_efficiency>  (1) 
-0.20592502611712621

>  <r_i_glide_ligand_efficiency_ln>  (1) 
-1.6173819809095418

>  <r_i_glide_ligand_efficiency_sa>  (1) 
-0.67994945496547676

>  <r_i_glide_lipo>  (1) 
-4.6038038831162975

>  <r_i_glide_metal>  (1) 
-0

>  <r_i_glide_rewards>  (1) 
-1.3729189454157931

>  <r_lp_Energy>  (1) 
49.855823000000001

>  <s_epik_cmdline>  (1) 
J2VwaWtfcHl0aG9uJywgJy1waHQnLCAnMS4wJywgJy1waCcsICc3LjQnLCAnLXRuJywgJzgnLCAnLW1hJywgJzUwMCcsICctaW1hZScsICc8aW5maWxlLm1hZT4nLCAnLW9tYWUnLCAnPG91dGZpbGUubWFlPic=

>  <s_epik_input>  (1) 
W09IXUMoPU8pW0NIMl1bQ0gyXWMoW2NIXVtjSF0xKVtjSF1jKGMxMilDKD1PKU4oW0NAQEhdKEMoPU8pW09IXSlbQ0gyXVtDSDJdMilbQ0gyXVtDSDJdW0NIMl0vW0NIXT1bQ0hdXGMoYzNbT0hdKWMoQ2wpbmMoYzM0KVtDSDJdW0NIMl1TNA==

>  <s_glide_docking_method>  (1) 
confgen

>  <s_i_glide_gridfile>  (1) 
gpcr_5ht2c_6bqh_protein_autoprepared_prepared

>  <s_lp_Force_Field>  (1) 
S-OPLS

>  <s_lp_Variant>  (1) 
DiffSBDD_39_num_sample_100-4

>  <s_m_source_file>  (1) 
generated__ligand_DiffSBDD_2026-05-06_prepared.sdf

>  <GenAI_Model>  (1) 
DiffSBDD

>  <Protein>  (1) 
GPCR_5HT2C

$$$$
DiffSBDD_6_num_sample_100
     RDKit          3D

  0  0  0  0  0  0  0  0  0  0999 V3000
M  V30 BEGIN CTAB
M  V30 COUNTS 67 70 0 0 1
M  V30 BEGIN ATOM
M  V30 1 C 40.885332 30.078227 62.885119 0 CFG=1
M  V30 2 C 40.674966 30.421441 50.529809 0
M  V30 3 O 39.067394 31.354800 57.992692 0
M  V30 4 C 38.662475 27.490924 57.291732 0 CFG=2
M  V30 5 N 40.467526 30.066402 61.482511 0
M  V30 6 N 38.533282 29.314222 54.807793 0
M  V30 7 O 39.867369 25.621430 58.253501 0
M  V30 8 C 38.048780 28.884444 57.571889 0 CFG=1
M  V30 9 O 37.582908 26.638534 56.933542 0
M  V30 10 O 38.778488 31.479666 54.163694 0
M  V30 11 S 40.832519 33.560047 62.859733 0
M  V30 12 S 39.174130 29.948128 58.583554 0
M  V30 13 O 40.760329 28.403980 56.290491 0
M  V30 14 C 39.206024 26.817889 58.572396 0
M  V30 15 C 41.306400 28.661385 63.342979 0
M  V30 16 C 40.267403 29.221428 49.938347 0
M  V30 17 C 42.023103 31.558171 64.565654 0
M  V30 18 S 41.414291 33.216807 64.841926 0
M  V30 19 C 41.830013 27.951298 57.112183 0
M  V30 20 O 39.472880 33.037974 62.653487 0
M  V30 21 C 39.212356 29.343740 61.304635 0
M  V30 22 C 40.267403 30.735520 51.834053 0
M  V30 23 C 41.613416 28.560932 64.849197 0
M  V30 24 S 37.467404 29.739347 56.096341 0
M  V30 25 C 42.036670 32.349596 62.199627 0
M  V30 26 C 39.453202 29.847852 52.562457 0
M  V30 27 C 42.043176 31.089457 63.108310 0 CFG=2
M  V30 28 C 42.790369 29.440756 65.329255 0
M  V30 29 O 41.209290 34.918911 62.444739 0
M  V30 30 C 39.010866 27.919350 54.770995 0
M  V30 31 C 38.916441 30.280371 53.923467 0
M  V30 32 C 39.463120 28.318529 50.653520 0
M  V30 33 C 39.045093 28.628464 51.956538 0
M  V30 34 C 39.664161 27.510568 56.104300 0 CFG=2
M  V30 35 N 42.395346 30.824383 65.537473 0
M  V30 36 C 38.325950 30.013091 60.235101 0
M  V30 37 H 40.025299 30.405793 63.473316 0
M  V30 38 H 41.294325 31.113361 49.977111 0
M  V30 39 H 40.270523 31.028063 61.238071 0
M  V30 40 H 40.556357 25.805722 57.633136 0
M  V30 41 H 37.151381 28.745156 58.172953 0
M  V30 42 H 37.123104 27.021175 56.201645 0
M  V30 43 H 38.398734 26.616173 59.275849 0
M  V30 44 H 39.928351 27.426499 59.106007 0
M  V30 45 H 40.515037 27.944265 63.127546 0
M  V30 46 H 42.171970 28.326721 62.769684 0
M  V30 47 H 40.575598 28.988614 48.931498 0
M  V30 48 H 42.759111 28.421884 56.797996 0
M  V30 49 H 41.681025 28.230682 58.152811 0
M  V30 50 H 41.983340 26.875179 57.053502 0
M  V30 51 H 38.667401 29.345274 62.247209 0
M  V30 52 H 39.411269 28.298484 61.073356 0
M  V30 53 H 40.565177 31.666630 52.272609 0
M  V30 54 H 40.715805 28.782143 65.429433 0
M  V30 55 H 41.853040 27.519991 65.069052 0
M  V30 56 H 41.839471 32.169597 61.144567 0
M  V30 57 H 43.016936 32.821455 62.248130 0
M  V30 58 H 43.135508 29.048666 66.286521 0
M  V30 59 H 43.652530 29.357441 64.665234 0
M  V30 60 H 38.192323 27.247642 54.512561 0
M  V30 61 H 39.814310 27.735099 54.066017 0
M  V30 62 H 39.144711 27.395433 50.192316 0
M  V30 63 H 38.383394 27.952693 52.467033 0
M  V30 64 H 40.057797 26.508396 55.929502 0
M  V30 65 H 42.992946 30.592378 62.919226 0
M  V30 66 H 38.154704 31.059234 60.492640 0
M  V30 67 H 37.343853 29.550020 60.186212 0
M  V30 END ATOM
M  V30 BEGIN BOND
M  V30 1 1 5 1
M  V30 2 1 8 4
M  V30 3 1 4 9 CFG=3
M  V30 4 2 12 3
M  V30 5 1 12 8
M  V30 6 1 14 4
M  V30 7 1 14 7
M  V30 8 1 15 1
M  V30 9 2 16 2
M  V30 10 1 18 11
M  V30 11 1 18 17
M  V30 12 1 19 13
M  V30 13 2 20 11
M  V30 14 1 21 5
M  V30 15 1 22 2
M  V30 16 1 23 15
M  V30 17 1 24 6
M  V30 18 1 24 8
M  V30 19 1 25 11
M  V30 20 2 26 22
M  V30 21 1 27 1
M  V30 22 1 27 17
M  V30 23 1 27 25
M  V30 24 1 28 23
M  V30 25 2 29 11
M  V30 26 1 30 6
M  V30 27 1 31 6
M  V30 28 2 31 10
M  V30 29 1 31 26
M  V30 30 1 32 16
M  V30 31 1 33 26
M  V30 32 2 33 32
M  V30 33 1 34 4
M  V30 34 1 34 13
M  V30 35 1 34 30
M  V30 36 2 35 17
M  V30 37 1 35 28
M  V30 38 1 12 36 CFG=1
M  V30 39 1 36 21
M  V30 40 1 1 37 CFG=1
M  V30 41 1 38 2
M  V30 42 1 39 5
M  V30 43 1 40 7
M  V30 44 1 8 41 CFG=1
M  V30 45 1 42 9
M  V30 46 1 43 14
M  V30 47 1 44 14
M  V30 48 1 45 15
M  V30 49 1 46 15
M  V30 50 1 47 16
M  V30 51 1 48 19
M  V30 52 1 49 19
M  V30 53 1 50 19
M  V30 54 1 51 21
M  V30 55 1 52 21
M  V30 56 1 53 22
M  V30 57 1 54 23
M  V30 58 1 55 23
M  V30 59 1 56 25
M  V30 60 1 57 25
M  V30 61 1 58 28
M  V30 62 1 59 28
M  V30 63 1 60 30
M  V30 64 1 61 30
M  V30 65 1 62 32
M  V30 66 1 63 33
M  V30 67 1 34 64 CFG=3
M  V30 68 1 27 65 CFG=1
M  V30 69 1 66 36
M  V30 70 1 67 36
M  V30 END BOND
M  V30 END CTAB
M  END
>  <i_epik_Tot_Q>  (1) 
0

>  <i_epik_Tot_abs_Q>  (1) 
0

>  <i_i_glide_confnum>  (1) 
1002

>  <i_i_glide_lignum>  (1) 
26

>  <i_i_glide_posenum>  (1) 
196

>  <i_i_glide_rotatable_bonds>  (1) 
11

>  <i_lp_mmshare_version>  (1) 
72125

>  <i_m_source_file_index>  (1) 
7

>  <i_f3d_flags>  (1) 
0

>  <num_sample>  (1) 
100

>  <b_lp_Chiralities_Consistent>  (1) 
1

>  <r_epik_Charging_Adjusted_Penalty>  (1) 
0.04024977574551479

>  <r_epik_Ionization_Penalty>  (1) 
0.04050266925573108

>  <r_epik_Ionization_Penalty_Charging>  (1) 
0

>  <r_epik_Ionization_Penalty_Neutral>  (1) 
0.04050266925573108

>  <r_epik_State_Penalty>  (1) 
0.04024977574551479

>  <r_glide_ring_energy>  (1) 
1.1347446578081875

>  <r_i_docking_score>  (1) 
-7.4112576500283796

>  <r_i_glide_ecoul>  (1) 
-2.3784514369429455

>  <r_i_glide_eff_state_penalty>  (1) 
0.04024977574551479

>  <r_i_glide_einternal>  (1) 
14.432507691646101

>  <r_i_glide_emodel>  (1) 
-62.136181278151241

>  <r_i_glide_emodel_strain>  (1) 
4.2577705118000893

>  <r_i_glide_energy>  (1) 
-49.59895715994957

>  <r_i_glide_erotb>  (1) 
0.34065271397431773

>  <r_i_glide_esite>  (1) 
0

>  <r_i_glide_evdw>  (1) 
-47.220505723006625

>  <r_i_glide_gscore>  (1) 
-7.4515074257738947

>  <r_i_glide_gscore_strain>  (1) 
0.064442627950022313

>  <r_i_glide_hbond>  (1) 
-0.15850713210078143

>  <r_i_glide_ligand_efficiency>  (1) 
-0.20586826805634387

>  <r_i_glide_ligand_efficiency_ln>  (1) 
-1.6169361901938057

>  <r_i_glide_ligand_efficiency_sa>  (1) 
-0.67976204397798523

>  <r_i_glide_lipo>  (1) 
-3.3597273567697798

>  <r_i_glide_metal>  (1) 
-0

>  <r_i_glide_rewards>  (1) 
-1.6205752771359008

>  <r_lp_Energy>  (1) 
36.868558999999998

>  <r_lp_tautomer_probability>  (1) 
0.99960115913750414

>  <s_epik_Chemistry_Notes>  (1) 
This compound has an imine and may undergo hydrolysis. This compound contains an acetal/aminal-like group ( X-CH(R)-Y where X, Y are N, S, or O) that may be acid/base labile, releasing an aldehyde. This compound has a N-S or N-O group and may undergo hydrolysis at high or low pH.

>  <s_epik_cmdline>  (1) 
J2VwaWtfcHl0aG9uJywgJy1waHQnLCAnMS4wJywgJy1waCcsICc3LjQnLCAnLXRuJywgJzgnLCAnLW1hJywgJzUwMCcsICctaW1hZScsICc8aW5maWxlLm1hZT4nLCAnLW9tYWUnLCAnPG91dGZpbGUubWFlPic=

>  <s_epik_input>  (1) 
UzFTKD1PKSg9TylbQ0gyXUMoPUMxMilbQ0BIXShbQ0gyXVtDSDJdW0NIMl1bTkhdMilbTkhdW0NIMl1bQ0gyXVtTQF0oPU8pW0NASF0oW0NAXTMoW09IXSlbQ0gyXVtPSF0pU04oW0NIMl1bQ0BIXTNPW0NIM10pQyg9TyljNFtjSF1bY0hdW2NIXVtjSF1bY0hdNA==

>  <s_glide_docking_method>  (1) 
confgen

>  <s_i_glide_gridfile>  (1) 
gpcr_5ht2c_6bqh_protein_autoprepared_prepared

>  <s_lp_Force_Field>  (1) 
S-OPLS

>  <s_lp_Variant>  (1) 
DiffSBDD_6_num_sample_100-2

>  <s_m_source_file>  (1) 
generated__ligand_DiffSBDD_2026-05-06_prepared.sdf

>  <GenAI_Model>  (1) 
DiffSBDD

>  <Protein>  (1) 
GPCR_5HT2C

$$$$
DiffSBDD_49_num_sample_100
     RDKit          3D

  0  0  0  0  0  0  0  0  0  0999 V3000
M  V30 BEGIN CTAB
M  V30 COUNTS 44 46 0 0 1
M  V30 BEGIN ATOM
M  V30 1 Cl 38.995449 36.147129 62.187421 0
M  V30 2 C 38.639329 27.377066 55.898679 0
M  V30 3 O 39.483892 31.010964 60.653512 0
M  V30 4 C 36.463262 34.599766 59.466072 0
M  V30 5 C 38.969198 28.850437 53.886740 0
M  V30 6 C 37.104260 35.487778 60.349874 0
M  V30 7 C 36.925838 33.276245 59.334863 0
M  V30 8 N 38.516649 28.573795 55.229098 0
M  V30 9 C 37.067526 25.385621 57.750246 0
M  V30 10 O 41.330429 30.821429 50.041229 0
M  V30 11 C 39.867401 30.460291 52.293082 0
M  V30 12 C 39.835085 29.474213 51.276317 0
M  V30 13 S 39.475954 26.021320 55.362135 0
M  V30 14 O 38.106285 26.337364 57.973924 0
M  V30 15 C 38.208985 35.054345 61.107287 0
M  V30 16 N 37.981053 27.434896 57.101394 0
M  V30 17 C 38.352040 29.293450 58.733364 0
M  V30 18 N 37.938399 30.664294 59.027183 0
M  V30 19 C 37.390958 28.630782 57.734951 0
M  V30 20 C 39.426859 30.147794 53.589904 0
M  V30 21 N 40.260824 29.780170 49.959277 0
M  V30 22 C 39.358738 28.184151 51.559765 0
M  V30 23 C 38.920757 27.866602 52.856776 0
M  V30 24 C 38.674794 33.730251 60.983212 0
M  V30 25 C 38.038392 32.833592 60.093976 0
M  V30 26 C 38.553042 31.417781 59.956674 0
M  V30 27 O 39.949666 31.221073 49.691696 0
M  V30 28 H 35.615845 34.934458 58.885040 0
M  V30 29 H 36.748501 36.502884 60.446565 0
M  V30 30 H 36.426874 32.606061 58.653501 0
M  V30 31 H 38.121927 29.347856 55.741418 0
M  V30 32 H 37.166546 24.564690 58.458487 0
M  V30 33 H 36.079376 25.829333 57.853500 0
M  V30 34 H 37.114524 24.943033 56.756053 0
M  V30 35 H 40.223828 31.457023 52.077914 0
M  V30 36 H 39.358630 29.326972 58.312472 0
M  V30 37 H 38.408276 28.700286 59.648096 0
M  V30 38 H 37.179882 31.061199 58.486563 0
M  V30 39 H 36.476781 28.345123 58.253473 0
M  V30 40 H 37.066721 29.361647 56.994720 0
M  V30 41 H 39.449175 30.903362 54.361972 0
M  V30 42 H 39.320007 27.437329 50.779143 0
M  V30 43 H 38.534093 26.882850 53.050855 0
M  V30 44 H 39.524044 33.403433 61.566070 0
M  V30 END ATOM
M  V30 BEGIN BOND
M  V30 1 2 6 4
M  V30 2 1 7 4
M  V30 3 1 8 2
M  V30 4 1 8 5
M  V30 5 1 12 11
M  V30 6 2 13 2
M  V30 7 1 14 9
M  V30 8 1 15 1
M  V30 9 1 15 6
M  V30 10 1 16 2
M  V30 11 1 16 14
M  V30 12 1 18 17
M  V30 13 1 19 16
M  V30 14 1 19 17
M  V30 15 1 20 5
M  V30 16 2 20 11
M  V30 17 1 21 10
M  V30 18 1 21 12
M  V30 19 2 22 12
M  V30 20 2 23 5
M  V30 21 1 23 22
M  V30 22 2 24 15
M  V30 23 2 25 7
M  V30 24 1 25 24
M  V30 25 2 26 3
M  V30 26 1 26 18
M  V30 27 1 26 25
M  V30 28 1 27 10
M  V30 29 1 27 21
M  V30 30 1 28 4
M  V30 31 1 29 6
M  V30 32 1 30 7
M  V30 33 1 31 8
M  V30 34 1 32 9
M  V30 35 1 33 9
M  V30 36 1 34 9
M  V30 37 1 35 11
M  V30 38 1 36 17
M  V30 39 1 37 17
M  V30 40 1 38 18
M  V30 41 1 39 19
M  V30 42 1 40 19
M  V30 43 1 41 20
M  V30 44 1 42 22
M  V30 45 1 43 23
M  V30 46 1 44 24
M  V30 END BOND
M  V30 END CTAB
M  END
>  <i_epik_Tot_Q>  (1) 
0

>  <i_epik_Tot_abs_Q>  (1) 
0

>  <i_i_glide_confnum>  (1) 
19

>  <i_i_glide_lignum>  (1) 
133

>  <i_i_glide_posenum>  (1) 
192

>  <i_i_glide_rotatable_bonds>  (1) 
10

>  <i_lp_mmshare_version>  (1) 
72125

>  <i_m_source_file_index>  (1) 
50

>  <i_f3d_flags>  (1) 
0

>  <num_sample>  (1) 
100

>  <b_lp_Chiralities_Consistent>  (1) 
1

>  <r_epik_Charging_Adjusted_Penalty>  (1) 
0

>  <r_epik_Ionization_Penalty>  (1) 
1.2411307214121904e-05

>  <r_epik_Ionization_Penalty_Charging>  (1) 
0

>  <r_epik_Ionization_Penalty_Neutral>  (1) 
1.2411307214121904e-05

>  <r_epik_State_Penalty>  (1) 
-0

>  <r_glide_ring_energy>  (1) 
0

>  <r_i_docking_score>  (1) 
-7.409057156150288

>  <r_i_glide_ecoul>  (1) 
-2.6105168413712487

>  <r_i_glide_eff_state_penalty>  (1) 
-0

>  <r_i_glide_einternal>  (1) 
20.561893613888714

>  <r_i_glide_emodel>  (1) 
-68.353018426698313

>  <r_i_glide_emodel_strain>  (1) 
0.02733359562108717

>  <r_i_glide_energy>  (1) 
-52.595472108700605

>  <r_i_glide_erotb>  (1) 
0.94204315138098349

>  <r_i_glide_esite>  (1) 
-0.040437586558259742

>  <r_i_glide_evdw>  (1) 
-49.984955267329354

>  <r_i_glide_gscore>  (1) 
-7.409057156150288

>  <r_i_glide_gscore_strain>  (1) 
0

>  <r_i_glide_hbond>  (1) 
0

>  <r_i_glide_ligand_efficiency>  (1) 
-0.2744095243018625

>  <r_i_glide_ligand_efficiency_ln>  (1) 
-1.7247063580981945

>  <r_i_glide_ligand_efficiency_sa>  (1) 
-0.82322857290558771

>  <r_i_glide_lipo>  (1) 
-2.8303502089239716

>  <r_i_glide_metal>  (1) 
-0

>  <r_i_glide_rewards>  (1) 
-2.5894872224768846

>  <r_lp_Energy>  (1) 
32.022877999999999

>  <r_lp_tautomer_probability>  (1) 
1

>  <s_epik_Chemistry_Notes>  (1) 
This compound has a N-S or N-O group and may undergo hydrolysis at high or low pH.

>  <s_epik_cmdline>  (1) 
J2VwaWtfcHl0aG9uJywgJy1waHQnLCAnMS4wJywgJy1waCcsICc3LjQnLCAnLXRuJywgJzgnLCAnLW1hJywgJzUwMCcsICctaW1hZScsICc8aW5maWxlLm1hZT4nLCAnLW9tYWUnLCAnPG91dGZpbGUubWFlPic=

>  <s_epik_input>  (1) 
Q2xjMVtjSF1bY0hdW2NIXWMoW2NIXTEpQyg9TylbTkhdW0NIMl1bQ0gyXU4oT1tDSDNdKUMoPVMpW05IXWMyW2NIXVtjSF1jKC1uM29vMylbY0hdW2NIXTI=

>  <s_glide_docking_method>  (1) 
confgen

>  <s_i_glide_gridfile>  (1) 
gpcr_5ht2c_6bqh_protein_autoprepared_prepared

>  <s_lp_Force_Field>  (1) 
S-OPLS

>  <s_lp_Variant>  (1) 
DiffSBDD_49_num_sample_100-1

>  <s_m_source_file>  (1) 
generated__ligand_DiffSBDD_2026-05-06_prepared.sdf

>  <GenAI_Model>  (1) 
DiffSBDD

>  <Protein>  (1) 
GPCR_5HT2C

$$$$
DiffSBDD_91_num_sample_100
     RDKit          3D

  0  0  0  0  0  0  0  0  0  0999 V3000
M  V30 BEGIN CTAB
M  V30 COUNTS 73 75 0 0 1
M  V30 BEGIN ATOM
M  V30 1 C 43.202432 29.527098 64.306415 0
M  V30 2 C 41.661343 33.740181 64.138892 0 CFG=1
M  V30 3 N 38.049336 30.654219 56.423909 0
M  V30 4 C 39.578187 33.334991 62.164294 0 CFG=2
M  V30 5 O 39.098949 33.003886 60.891414 0
M  V30 6 C 40.953407 34.947157 63.489541 0 CFG=2
M  V30 7 F 43.292861 27.714621 65.865140 0
M  V30 8 C 40.461445 34.601295 62.067425 0 CFG=2
M  V30 9 C 41.444851 31.209253 64.525464 0
M  V30 10 C 39.940702 26.499452 57.919555 0
M  V30 11 C 38.065030 32.117762 60.860278 0
M  V30 12 C 39.059718 29.804829 56.774576 0
M  V30 13 C 37.516843 25.039566 55.882025 0 CFG=1
M  V30 14 O 37.520823 31.621380 61.851622 0
M  V30 15 C 39.698944 26.308337 56.412497 0
M  V30 16 C 39.645747 35.758413 61.455424 0
M  V30 17 S 40.614521 28.141980 58.321177 0
M  V30 18 C 42.578966 30.706151 63.853529 0
M  V30 19 O 41.888054 34.043413 65.504852 0
M  V30 20 O 41.867399 36.021430 63.391811 0
M  V30 21 C 39.049461 24.967352 56.034709 0
M  V30 22 C 37.278226 30.294519 59.215054 0
M  V30 23 C 40.766015 32.478766 64.031957 0 CFG=2
M  V30 24 C 42.694073 28.848578 65.431254 0
M  V30 25 C 41.562360 29.349134 66.104664 0
M  V30 26 N 38.471060 29.455175 59.135125 0
M  V30 27 O 37.058489 23.809496 55.367116 0
M  V30 28 C 40.937437 30.528382 65.653277 0
M  V30 29 C 39.261891 29.247653 57.999658 0
M  V30 30 C 39.852401 29.587436 55.679663 0
M  V30 31 C 37.607453 31.786341 59.436792 0
M  V30 32 C 36.774267 25.304636 57.195833 0
M  V30 33 C 38.063037 31.080676 54.974635 0 CFG=2
M  V30 34 C 39.361255 30.256238 54.661290 0
M  V30 35 C 38.266554 32.580782 54.798219 0
M  V30 36 O 40.364503 32.302539 62.677124 0
M  V30 37 H 44.070018 29.142078 63.789882 0
M  V30 38 H 42.616194 33.565479 63.641209 0
M  V30 39 H 38.732478 33.511367 62.829295 0
M  V30 40 H 40.106744 35.269280 64.095388 0
M  V30 41 H 41.315983 34.372642 61.430122 0
M  V30 42 H 39.030959 26.350676 58.498807 0
M  V30 43 H 40.654680 25.747566 58.253502 0
M  V30 44 H 37.251886 25.812767 55.159017 0
M  V30 45 H 40.659410 26.393055 55.902504 0
M  V30 46 H 39.075075 27.107955 56.021087 0
M  V30 47 H 38.731128 35.941623 62.020002 0
M  V30 48 H 40.219072 36.685860 61.453499 0
M  V30 49 H 39.365451 35.551031 60.422397 0
M  V30 50 H 42.968709 31.223627 62.990477 0
M  V30 51 H 41.057914 34.202886 65.926233 0
M  V30 52 H 41.882085 36.516442 64.204141 0
M  V30 53 H 39.335290 24.190464 56.745597 0
M  V30 54 H 39.467416 24.662330 55.074567 0
M  V30 55 H 36.632444 30.149150 58.350710 0
M  V30 56 H 36.681244 29.931820 60.051760 0
M  V30 57 H 39.867413 32.628952 64.629371 0
M  V30 58 H 41.172723 28.827332 66.966728 0
M  V30 59 H 38.737477 28.983780 59.987952 0
M  V30 60 H 37.418482 23.693276 54.500404 0
M  V30 61 H 40.068011 30.908347 66.169771 0
M  V30 62 H 40.734030 28.966678 55.653486 0
M  V30 63 H 38.358880 32.120497 58.721135 0
M  V30 64 H 36.712721 32.377470 59.239830 0
M  V30 65 H 36.968440 26.311970 57.563163 0
M  V30 66 H 35.698447 25.221442 57.053415 0
M  V30 67 H 37.067359 24.594061 57.969204 0
M  V30 68 H 37.192060 30.700639 54.439858 0
M  V30 69 H 39.795781 30.257047 53.672586 0
M  V30 70 H 38.267373 32.821426 53.737478 0
M  V30 71 H 37.467405 33.147632 55.271522 0
M  V30 72 H 39.208627 32.911446 55.235315 0
M  V30 73 H 37.284373 30.909171 57.040582 0
M  V30 END ATOM
M  V30 BEGIN BOND
M  V30 1 1 5 4
M  V30 2 1 6 2
M  V30 3 1 8 4
M  V30 4 1 8 6
M  V30 5 1 11 5
M  V30 6 1 12 3
M  V30 7 2 14 11
M  V30 8 1 15 10
M  V30 9 1 16 8
M  V30 10 1 17 10
M  V30 11 2 18 1
M  V30 12 1 18 9
M  V30 13 1 19 2
M  V30 14 1 20 6
M  V30 15 1 21 13
M  V30 16 1 21 15
M  V30 17 1 23 2
M  V30 18 1 23 9
M  V30 19 1 24 1
M  V30 20 1 24 7
M  V30 21 2 25 24
M  V30 22 1 26 22
M  V30 23 1 27 13
M  V30 24 2 28 9
M  V30 25 1 28 25
M  V30 26 2 29 12
M  V30 27 1 29 17
M  V30 28 1 29 26
M  V30 29 1 30 12
M  V30 30 1 31 11
M  V30 31 1 31 22
M  V30 32 1 32 13
M  V30 33 1 33 3
M  V30 34 2 34 30
M  V30 35 1 34 33
M  V30 36 1 35 33
M  V30 37 1 36 4
M  V30 38 1 36 23
M  V30 39 1 37 1
M  V30 40 1 2 38 CFG=3
M  V30 41 1 4 39 CFG=1
M  V30 42 1 6 40 CFG=1
M  V30 43 1 8 41 CFG=3
M  V30 44 1 42 10
M  V30 45 1 43 10
M  V30 46 1 13 44 CFG=3
M  V30 47 1 45 15
M  V30 48 1 46 15
M  V30 49 1 47 16
M  V30 50 1 48 16
M  V30 51 1 49 16
M  V30 52 1 50 18
M  V30 53 1 51 19
M  V30 54 1 52 20
M  V30 55 1 53 21
M  V30 56 1 54 21
M  V30 57 1 55 22
M  V30 58 1 56 22
M  V30 59 1 23 57 CFG=1
M  V30 60 1 58 25
M  V30 61 1 59 26
M  V30 62 1 60 27
M  V30 63 1 61 28
M  V30 64 1 62 30
M  V30 65 1 63 31
M  V30 66 1 64 31
M  V30 67 1 65 32
M  V30 68 1 66 32
M  V30 69 1 67 32
M  V30 70 1 33 68 CFG=3
M  V30 71 1 69 34
M  V30 72 1 70 35
M  V30 73 1 71 35
M  V30 74 1 72 35
M  V30 75 1 73 3
M  V30 END BOND
M  V30 END CTAB
M  END
>  <i_epik_Tot_Q>  (1) 
0

>  <i_epik_Tot_abs_Q>  (1) 
0

>  <i_i_glide_confnum>  (1) 
4

>  <i_i_glide_lignum>  (1) 
245

>  <i_i_glide_posenum>  (1) 
335

>  <i_i_glide_rotatable_bonds>  (1) 
15

>  <i_lp_mmshare_version>  (1) 
72125

>  <i_m_source_file_index>  (1) 
92

>  <i_f3d_flags>  (1) 
0

>  <num_sample>  (1) 
100

>  <b_lp_Chiralities_Consistent>  (1) 
1

>  <r_epik_Charging_Adjusted_Penalty>  (1) 
0.41626047813520761

>  <r_epik_Ionization_Penalty>  (1) 
0.0056919315549441929

>  <r_epik_Ionization_Penalty_Charging>  (1) 
0.0055806391826036302

>  <r_epik_Ionization_Penalty_Neutral>  (1) 
0.00011129237234056257

>  <r_epik_State_Penalty>  (1) 
0.41067983895260396

>  <r_glide_ring_energy>  (1) 
0

>  <r_i_docking_score>  (1) 
-7.4088116068879177

>  <r_i_glide_ecoul>  (1) 
-7.0690979912652487

>  <r_i_glide_eff_state_penalty>  (1) 
0.41067983895260396

>  <r_i_glide_einternal>  (1) 
8.2623783285931225

>  <r_i_glide_emodel>  (1) 
-81.228824087794379

>  <r_i_glide_emodel_strain>  (1) 
0.44378240521903933

>  <r_i_glide_energy>  (1) 
-58.519114006529549

>  <r_i_glide_erotb>  (1) 
0.89707811728232589

>  <r_i_glide_esite>  (1) 
-0.085745050825957209

>  <r_i_glide_evdw>  (1) 
-51.450016015264303

>  <r_i_glide_gscore>  (1) 
-7.819491445840522

>  <r_i_glide_gscore_strain>  (1) 
0

>  <r_i_glide_hbond>  (1) 
-0.52134933842731945

>  <r_i_glide_ligand_efficiency>  (1) 
-0.20580032241355328

>  <r_i_glide_ligand_efficiency_ln>  (1) 
-1.6164025296650057

>  <r_i_glide_ligand_efficiency_sa>  (1) 
-0.67953769240861128

>  <r_i_glide_lipo>  (1) 
-3.9774872410905657

>  <r_i_glide_metal>  (1) 
-0

>  <r_i_glide_rewards>  (1) 
-0.4991224333260032

>  <r_lp_Energy>  (1) 
38.539941999999996

>  <r_lp_tautomer_probability>  (1) 
0.49957765584955821

>  <s_epik_Chemistry_Notes>  (1) 
This compound has an ester and may undergo hydrolysis at high or low pH. This compound has an imine and may undergo hydrolysis. This compound contains an acetal/aminal-like group ( X-CH(R)-Y where X, Y are N, S, or O) that may be acid/base labile, releasing an aldehyde.

>  <s_epik_cmdline>  (1) 
J2VwaWtfcHl0aG9uJywgJy1waHQnLCAnMS4wJywgJy1waCcsICc3LjQnLCAnLXRuJywgJzgnLCAnLW1hJywgJzUwMCcsICctaW1hZScsICc8aW5maWxlLm1hZT4nLCAnLW9tYWUnLCAnPG91dGZpbGUubWFlPic=

>  <s_epik_input>  (1) 
W2NIXTFbY0hdYyhGKVtjSF1bY0hdYzFbQ0BASF0yT1tDQEBIXShbQ0BASF0oW0NIM10pW0NASF0oW09IXSlbQ0BIXTJbT0hdKU9DKD1PKVtDSDJdW0NIMl1bTkhdW0NAQEhdKEMzPU5bQ0BASF0oW0NIM10pW0NIXT1bQ0hdMylTW0NIMl1bQ0gyXVtDSDJdW0NAQEhdKFtPSF0pW0NIM10=

>  <s_glide_docking_method>  (1) 
confgen

>  <s_i_glide_gridfile>  (1) 
gpcr_5ht2c_6bqh_protein_autoprepared_prepared

>  <s_lp_Force_Field>  (1) 
S-OPLS

>  <s_lp_Variant>  (1) 
DiffSBDD_91_num_sample_100-1

>  <s_m_source_file>  (1) 
generated__ligand_DiffSBDD_2026-05-06_prepared.sdf

>  <GenAI_Model>  (1) 
DiffSBDD

>  <Protein>  (1) 
GPCR_5HT2C

$$$$
DiffSBDD_66_num_sample_100
     RDKit          3D

  0  0  0  0  0  0  0  0  0  0999 V3000
M  V30 BEGIN CTAB
M  V30 COUNTS 112 116 0 0 1
M  V30 BEGIN ATOM
M  V30 1 C 38.834069 29.760567 54.975841 0
M  V30 2 C 41.867258 32.012698 62.415939 0
M  V30 3 C 34.350117 34.296583 58.923903 0
M  V30 4 C 40.015582 35.692956 66.813027 0
M  V30 5 C 43.366101 26.453902 66.431814 0
M  V30 6 C 42.666284 25.237259 64.317703 0
M  V30 7 C 36.575229 34.725905 59.796633 0
M  V30 8 S 41.067394 34.963247 62.822093 0
M  V30 9 C 40.660131 32.463187 61.637217 0 CFG=1
M  V30 10 C 39.268006 31.147516 55.236200 0
M  V30 11 C 39.019451 29.957267 58.075716 0
M  V30 12 C 39.067371 31.276460 57.781385 0
M  V30 13 C 43.350344 27.908969 68.519781 0
M  V30 14 C 38.037214 28.023610 53.890767 0
M  V30 15 C 42.878516 31.576867 65.799371 0 CFG=2
M  V30 16 C 39.356948 28.829131 57.159730 0
M  V30 17 C 38.782750 32.304975 58.883273 0
M  V30 18 O 41.067416 28.199099 67.708688 0
M  V30 19 C 37.793493 32.976185 61.182414 0 CFG=1
M  V30 20 N 38.382549 29.346460 53.805558 0 CHG=1
M  V30 21 C 35.467395 35.138741 59.053622 0
M  V30 22 C 36.573839 33.458470 60.418836 0
M  V30 23 C 43.352897 26.490907 67.970932 0
M  V30 24 C 38.188218 26.294718 55.864404 0
M  V30 25 C 39.378942 31.792662 56.430786 0
M  V30 26 C 42.625016 33.116048 65.845439 0
M  V30 27 C 42.729762 25.182813 65.848841 0 CFG=1
M  V30 28 C 41.845111 30.790958 66.622732 0
M  V30 29 C 38.503095 31.860279 60.360561 0 CFG=2
M  V30 30 C 39.732491 31.304858 61.144576 0 CFG=2
M  V30 31 C 42.267605 35.968892 65.884472 0
M  V30 32 C 41.911477 31.015247 68.130145 0
M  V30 33 N 38.830853 28.747473 55.822213 0
M  V30 34 C 35.446668 32.620484 60.299139 0
M  V30 35 C 38.325418 27.619981 55.187255 0
M  V30 36 C 44.296207 31.292497 66.355201 0
M  V30 37 O 43.467396 24.049325 66.253539 0
M  V30 38 C 42.881824 30.984599 64.368100 0
M  V30 39 C 41.157422 33.653583 65.833416 0
M  V30 40 C 40.952863 35.209105 65.681803 0
M  V30 41 C 39.930801 33.584132 62.415923 0 CFG=2
M  V30 42 N 41.741052 31.404294 63.547642 0 CHG=1
M  V30 43 C 41.969141 30.031499 69.055478 0
M  V30 44 C 40.348047 35.692940 64.320908 0
M  V30 45 C 34.336150 33.043626 59.551566 0
M  V30 46 C 39.250346 30.324254 62.235983 0
M  V30 47 C 44.494713 28.566041 68.786495 0
M  V30 48 C 41.966626 28.531526 68.748445 0 CFG=2
M  V30 49 C 38.770596 34.105435 61.579182 0
M  V30 50 H 42.870463 32.200591 62.051558 0
M  V30 51 H 33.495710 34.619724 58.348094 0
M  V30 52 H 39.036890 35.221370 66.784455 0
M  V30 53 H 39.843321 36.769321 66.757812 0
M  V30 54 H 40.447367 35.487371 67.793162 0
M  V30 55 H 42.817436 27.309605 66.038708 0
M  V30 56 H 44.389683 26.576040 66.074342 0
M  V30 57 H 42.018391 26.052599 63.995537 0
M  V30 58 H 42.268629 24.315069 63.895788 0
M  V30 59 H 43.647229 25.407909 63.876799 0
M  V30 60 H 37.428259 35.377454 59.878361 0
M  V30 61 H 39.480752 31.726912 54.349058 0
M  V30 62 H 38.778394 29.659957 59.082280 0
M  V30 63 H 37.633548 27.475459 53.050374 0
M  V30 64 H 40.443306 28.783580 57.073596 0
M  V30 65 H 39.065096 27.923498 57.688983 0
M  V30 66 H 39.553517 33.073470 58.869659 0
M  V30 67 H 37.912703 32.805607 58.466069 0
M  V30 68 H 40.248172 27.908512 68.117928 0
M  V30 69 H 37.408945 32.541299 62.106069 0
M  V30 70 H 35.467704 36.109491 58.588340 0
M  V30 71 H 42.480254 25.968802 68.365345 0
M  V30 72 H 44.217527 25.948438 68.354504 0
M  V30 73 H 37.809983 25.550745 55.162338 0
M  V30 74 H 37.488215 26.366281 56.698240 0
M  V30 75 H 39.155058 25.952331 56.236477 0
M  V30 76 H 39.669405 32.831768 56.378161 0
M  V30 77 H 43.076057 33.457782 66.775819 0
M  V30 78 H 43.191653 33.596053 65.053500 0
M  V30 79 H 41.714804 25.074911 66.233426 0
M  V30 80 H 40.827378 30.983102 66.284675 0
M  V30 81 H 42.050077 29.759409 66.373214 0
M  V30 82 H 37.761740 31.064539 60.285098 0
M  V30 83 H 40.319209 30.698246 60.455103 0
M  V30 84 H 42.866983 36.021054 64.975782 0
M  V30 85 H 42.870794 35.527117 66.653516 0
M  V30 86 H 42.091143 36.970723 66.253530 0
M  V30 87 H 41.912468 32.043914 68.458868 0
M  V30 88 H 35.439983 31.648547 60.770153 0
M  V30 89 H 45.068009 31.793464 65.770101 0
M  V30 90 H 44.522596 30.224924 66.337015 0
M  V30 91 H 44.418340 31.628506 67.385241 0
M  V30 92 H 44.342218 24.119860 65.904984 0
M  V30 93 H 43.806353 31.221419 63.853551 0
M  V30 94 H 42.847906 29.894319 64.393372 0
M  V30 95 H 40.565366 33.124107 65.102655 0
M  V30 96 H 40.712042 33.342846 66.777804 0
M  V30 97 H 39.506587 33.174645 63.328414 0
M  V30 98 H 42.019435 30.299274 70.101065 0
M  V30 99 H 39.271537 35.621463 64.252092 0
M  V30 100 H 40.511968 36.766992 64.235837 0
M  V30 101 H 33.475850 32.405224 59.453465 0
M  V30 102 H 38.753595 30.828045 63.063645 0
M  V30 103 H 40.056086 29.709024 62.633748 0
M  V30 104 H 38.539313 29.621471 61.815023 0
M  V30 105 H 44.486930 29.571262 69.177025 0
M  V30 106 H 45.453977 28.100538 68.615102 0
M  V30 107 H 41.564421 28.038679 69.634466 0
M  V30 108 H 38.242911 34.881410 62.134622 0
M  V30 109 H 39.193158 34.582031 60.695036 0
M  V30 110 H 38.292590 29.925323 52.980649 0
M  V30 111 H 41.057352 32.910478 60.731969 0
M  V30 112 H 40.810674 31.213356 63.909127 0
M  V30 END ATOM
M  V30 BEGIN BOND
M  V30 1 1 9 2
M  V30 2 1 10 1
M  V30 3 2 12 11
M  V30 4 1 16 11
M  V30 5 1 17 12
M  V30 6 2 20 1
M  V30 7 1 20 14
M  V30 8 2 21 3
M  V30 9 1 21 7
M  V30 10 2 22 7
M  V30 11 1 22 19
M  V30 12 1 23 5
M  V30 13 1 23 13
M  V30 14 2 25 10
M  V30 15 1 25 12
M  V30 16 1 26 15
M  V30 17 1 27 5
M  V30 18 1 27 6
M  V30 19 1 15 28 CFG=1
M  V30 20 1 29 17
M  V30 21 1 29 19
M  V30 22 1 30 9
M  V30 23 1 30 29
M  V30 24 1 32 28
M  V30 25 1 33 1
M  V30 26 1 33 16
M  V30 27 1 34 22
M  V30 28 2 35 14
M  V30 29 1 35 24
M  V30 30 1 35 33
M  V30 31 1 36 15
M  V30 32 1 37 27
M  V30 33 1 38 15
M  V30 34 1 39 26
M  V30 35 1 40 4
M  V30 36 1 40 31
M  V30 37 1 40 39
M  V30 38 1 41 8
M  V30 39 1 41 9
M  V30 40 2 42 2
M  V30 41 1 42 38
M  V30 42 2 43 32
M  V30 43 1 44 8
M  V30 44 1 44 40
M  V30 45 1 45 3
M  V30 46 2 45 34
M  V30 47 1 46 30
M  V30 48 2 47 13
M  V30 49 1 48 13
M  V30 50 1 48 18
M  V30 51 1 48 43
M  V30 52 1 49 19
M  V30 53 1 49 41
M  V30 54 1 50 2
M  V30 55 1 51 3
M  V30 56 1 52 4
M  V30 57 1 53 4
M  V30 58 1 54 4
M  V30 59 1 55 5
M  V30 60 1 56 5
M  V30 61 1 57 6
M  V30 62 1 58 6
M  V30 63 1 59 6
M  V30 64 1 60 7
M  V30 65 1 61 10
M  V30 66 1 62 11
M  V30 67 1 63 14
M  V30 68 1 64 16
M  V30 69 1 65 16
M  V30 70 1 66 17
M  V30 71 1 67 17
M  V30 72 1 68 18
M  V30 73 1 19 69 CFG=1
M  V30 74 1 70 21
M  V30 75 1 71 23
M  V30 76 1 72 23
M  V30 77 1 73 24
M  V30 78 1 74 24
M  V30 79 1 75 24
M  V30 80 1 76 25
M  V30 81 1 77 26
M  V30 82 1 78 26
M  V30 83 1 27 79 CFG=1
M  V30 84 1 80 28
M  V30 85 1 81 28
M  V30 86 1 29 82 CFG=3
M  V30 87 1 30 83 CFG=3
M  V30 88 1 84 31
M  V30 89 1 85 31
M  V30 90 1 86 31
M  V30 91 1 87 32
M  V30 92 1 88 34
M  V30 93 1 89 36
M  V30 94 1 90 36
M  V30 95 1 91 36
M  V30 96 1 92 37
M  V30 97 1 93 38
M  V30 98 1 94 38
M  V30 99 1 95 39
M  V30 100 1 96 39
M  V30 101 1 41 97 CFG=1
M  V30 102 1 98 43
M  V30 103 1 99 44
M  V30 104 1 100 44
M  V30 105 1 101 45
M  V30 106 1 102 46
M  V30 107 1 103 46
M  V30 108 1 104 46
M  V30 109 1 105 47
M  V30 110 1 106 47
M  V30 111 1 48 107 CFG=1
M  V30 112 1 108 49
M  V30 113 1 109 49
M  V30 114 1 110 20
M  V30 115 1 9 111 CFG=3
M  V30 116 1 112 42
M  V30 END BOND
M  V30 END CTAB
M  END
>  <i_epik_Tot_Q>  (1) 
2

>  <i_epik_Tot_abs_Q>  (1) 
2

>  <i_i_glide_confnum>  (1) 
125

>  <i_i_glide_lignum>  (1) 
165

>  <i_i_glide_posenum>  (1) 
142

>  <i_i_glide_rotatable_bonds>  (1) 
12

>  <i_lp_mmshare_version>  (1) 
72125

>  <i_m_source_file_index>  (1) 
67

>  <i_f3d_flags>  (1) 
0

>  <num_sample>  (1) 
100

>  <b_lp_Chiralities_Consistent>  (1) 
1

>  <r_epik_Charging_Adjusted_Penalty>  (1) 
0.52025287817150023

>  <r_epik_Ionization_Penalty>  (1) 
3.4472135568412994

>  <r_epik_Ionization_Penalty_Charging>  (1) 
0.14055655438482481

>  <r_epik_Ionization_Penalty_Neutral>  (1) 
3.3066570024564745

>  <r_epik_State_Penalty>  (1) 
0.37969632378667539

>  <r_glide_ring_energy>  (1) 
0

>  <r_i_docking_score>  (1) 
-7.4028622800390176

>  <r_i_glide_ecoul>  (1) 
-5.2818038233521527

>  <r_i_glide_eff_state_penalty>  (1) 
0.37969632378667539

>  <r_i_glide_einternal>  (1) 
27.091965418143559

>  <r_i_glide_emodel>  (1) 
-84.592478000244128

>  <r_i_glide_emodel_strain>  (1) 
1.7288183481695114

>  <r_i_glide_energy>  (1) 
-38.589381336084429

>  <r_i_glide_erotb>  (1) 
0.28524200512041686

>  <r_i_glide_esite>  (1) 
0

>  <r_i_glide_evdw>  (1) 
-33.30757751273228

>  <r_i_glide_gscore>  (1) 
-7.7825586038256933

>  <r_i_glide_gscore_strain>  (1) 
0

>  <r_i_glide_hbond>  (1) 
-0.28570736835459437

>  <r_i_glide_ligand_efficiency>  (1) 
-0.1510788220416126

>  <r_i_glide_ligand_efficiency_ln>  (1) 
-1.5133144369383791

>  <r_i_glide_ligand_efficiency_sa>  (1) 
-0.55284359616041745

>  <r_i_glide_lipo>  (1) 
-4.2243105114397625

>  <r_i_glide_metal>  (1) 
-0

>  <r_i_glide_rewards>  (1) 
-1.100133280012316

>  <r_lp_Energy>  (1) 
65.466734000000002

>  <s_epik_Chemistry_Notes>  (1) 
This compound has an imine and may undergo hydrolysis.

>  <s_epik_cmdline>  (1) 
J2VwaWtfcHl0aG9uJywgJy1waHQnLCAnMS4wJywgJy1waCcsICc3LjQnLCAnLXRuJywgJzgnLCAnLW1hJywgJzUwMCcsICctaW1hZScsICc8aW5maWxlLm1hZT4nLCAnLW9tYWUnLCAnPG91dGZpbGUubWFlPic=

>  <s_epik_input>  (1) 
bjFbY0hdYyhbQ0gzXSluKGMxMilbQ0gyXVtDSF09QyhbQ0hdPVtDSF0yKVtDSDJdW0NAQEhdKFtDQEBIXTNbQ0gzXSlbQ0BIXShjNFtjSF1bY0hdW2NIXVtjSF1bY0hdNClbQ0gyXVtDQEBIXShbQ0BIXTM1KVNbQ0gyXUMoW0NIM10pKFtDSDNdKVtDSDJdW0NIMl1bQ0BdKFtDSDNdKShbQ0gyXVxOPVtDSF1cNSlbQ0gyXS9bQ0hdPVtDSF1cW0NAQEhdKFtPSF0pQyg9W0NIMl0pW0NIMl1bQ0gyXVtDQEBIXShbQ0gzXSlbT0hd

>  <s_glide_docking_method>  (1) 
confgen

>  <s_i_glide_gridfile>  (1) 
gpcr_5ht2c_6bqh_protein_autoprepared_prepared

>  <s_lp_Force_Field>  (1) 
S-OPLS

>  <s_lp_Variant>  (1) 
DiffSBDD_66_num_sample_100-2

>  <s_m_source_file>  (1) 
generated__ligand_DiffSBDD_2026-05-06_prepared.sdf

>  <GenAI_Model>  (1) 
DiffSBDD

>  <Protein>  (1) 
GPCR_5HT2C

$$$$
DiffSBDD_0_num_sample_100
     RDKit          3D

  0  0  0  0  0  0  0  0  0  0999 V3000
M  V30 BEGIN CTAB
M  V30 COUNTS 59 61 0 0 1
M  V30 BEGIN ATOM
M  V30 1 C 39.128612 26.932409 58.959321 0
M  V30 2 C 38.814884 28.598731 55.393526 0 CFG=1
M  V30 3 C 39.930288 34.234974 61.293650 0
M  V30 4 C 37.893146 33.611564 58.337404 0
M  V30 5 C 40.050273 27.784216 59.663183 0
M  V30 6 C 41.128279 28.301664 57.388783 0
M  V30 7 C 37.821843 35.382683 60.841622 0
M  V30 8 C 40.331254 35.299569 62.124142 0
M  V30 9 C 38.676415 34.274973 60.647930 0
M  V30 10 C 38.425741 28.669509 52.882861 0 CFG=2
M  V30 11 N 37.867805 30.673852 56.387732 0
M  V30 12 C 38.758686 31.545193 57.139308 0
M  V30 13 C 38.120346 32.920223 57.203171 0
M  V30 14 C 39.479178 36.406219 62.312325 0
M  V30 15 F 37.403640 37.509651 61.851005 0
M  V30 16 C 38.223526 36.446276 61.671090 0
M  V30 17 C 38.248987 33.127979 59.741172 0 CFG=1
M  V30 18 C 41.005389 28.431423 58.945225 0
M  V30 19 N 36.296381 31.768108 60.873836 0
M  V30 20 C 38.044204 29.241487 56.569493 0
M  V30 21 C 39.312365 26.702938 57.676511 0
M  V30 22 C 39.468513 27.216466 55.709014 0 CFG=1
M  V30 23 N 37.888285 28.538776 54.250939 0
M  V30 24 O 39.867976 37.440112 63.113562 0
M  V30 25 C 39.143212 27.395755 52.403661 0
M  V30 26 C 39.286913 29.940095 52.713658 0
M  V30 27 C 39.506906 27.413046 50.918216 0
M  V30 28 N 40.327081 27.160867 56.912655 0
M  V30 29 S 38.361970 25.915807 56.485215 0
M  V30 30 C 37.150881 32.367336 60.368716 0
M  V30 31 Cl 39.918812 28.021627 61.366583 0
M  V30 32 H 38.267601 26.534175 59.454870 0
M  V30 33 H 39.622249 29.287161 55.161010 0
M  V30 34 H 40.586357 33.389170 61.149315 0
M  V30 35 H 37.424533 34.582164 58.270064 0
M  V30 36 H 40.724290 29.220979 56.970148 0
M  V30 37 H 42.169746 28.186620 57.089399 0
M  V30 38 H 36.859842 35.417778 60.351304 0
M  V30 39 H 41.293393 35.266866 62.614292 0
M  V30 40 H 37.561243 28.786872 52.226556 0
M  V30 41 H 37.833402 30.935593 55.408663 0
M  V30 42 H 39.728583 31.614038 56.646615 0
M  V30 43 H 38.923460 31.139209 58.134231 0
M  V30 44 H 37.830825 33.356155 56.256939 0
M  V30 45 H 39.087640 32.437395 59.686922 0
M  V30 46 H 41.700914 29.088540 59.440227 0
M  V30 47 H 38.541262 29.081528 57.520268 0
M  V30 48 H 37.067404 28.779736 56.690842 0
M  V30 49 H 40.029139 26.771584 54.894571 0
M  V30 50 H 37.163038 29.235807 54.396103 0
M  V30 51 H 40.694120 37.323307 63.565701 0
M  V30 52 H 40.069169 27.220168 52.939098 0
M  V30 53 H 38.504817 26.535337 52.605695 0
M  V30 54 H 39.465913 30.172933 51.662493 0
M  V30 55 H 38.800642 30.806828 53.161019 0
M  V30 56 H 40.266657 29.842737 53.173426 0
M  V30 57 H 39.867363 26.425675 50.641032 0
M  V30 58 H 38.666918 27.660737 50.275808 0
M  V30 59 H 40.299530 28.130473 50.704788 0
M  V30 END ATOM
M  V30 BEGIN BOND
M  V30 1 1 5 1
M  V30 2 2 8 3
M  V30 3 1 9 3
M  V30 4 2 9 7
M  V30 5 1 12 11
M  V30 6 2 13 4
M  V30 7 1 13 12
M  V30 8 1 14 8
M  V30 9 1 16 7
M  V30 10 2 16 14
M  V30 11 1 16 15
M  V30 12 1 17 4
M  V30 13 1 17 9
M  V30 14 2 18 5
M  V30 15 1 18 6
M  V30 16 1 20 2
M  V30 17 1 20 11
M  V30 18 2 21 1
M  V30 19 1 22 2
M  V30 20 1 23 2
M  V30 21 1 23 10
M  V30 22 1 24 14
M  V30 23 1 25 10
M  V30 24 1 26 10
M  V30 25 1 27 25
M  V30 26 1 28 6
M  V30 27 1 28 21
M  V30 28 1 28 22
M  V30 29 1 29 21
M  V30 30 1 29 22
M  V30 31 1 30 17
M  V30 32 3 30 19
M  V30 33 1 31 5
M  V30 34 1 32 1
M  V30 35 1 2 33 CFG=3
M  V30 36 1 34 3
M  V30 37 1 35 4
M  V30 38 1 36 6
M  V30 39 1 37 6
M  V30 40 1 38 7
M  V30 41 1 39 8
M  V30 42 1 10 40 CFG=3
M  V30 43 1 41 11
M  V30 44 1 42 12
M  V30 45 1 43 12
M  V30 46 1 44 13
M  V30 47 1 17 45 CFG=3
M  V30 48 1 46 18
M  V30 49 1 47 20
M  V30 50 1 48 20
M  V30 51 1 22 49 CFG=3
M  V30 52 1 50 23
M  V30 53 1 51 24
M  V30 54 1 52 25
M  V30 55 1 53 25
M  V30 56 1 54 26
M  V30 57 1 55 26
M  V30 58 1 56 26
M  V30 59 1 57 27
M  V30 60 1 58 27
M  V30 61 1 59 27
M  V30 END BOND
M  V30 END CTAB
M  END
>  <i_epik_Tot_Q>  (1) 
0

>  <i_epik_Tot_abs_Q>  (1) 
0

>  <i_i_glide_confnum>  (1) 
1396

>  <i_i_glide_lignum>  (1) 
2

>  <i_i_glide_posenum>  (1) 
196

>  <i_i_glide_rotatable_bonds>  (1) 
11

>  <i_lp_mmshare_version>  (1) 
72125

>  <i_m_source_file_index>  (1) 
1

>  <i_f3d_flags>  (1) 
0

>  <num_sample>  (1) 
100

>  <b_lp_Chiralities_Consistent>  (1) 
1

>  <r_epik_Charging_Adjusted_Penalty>  (1) 
0.47819495767320574

>  <r_epik_Ionization_Penalty>  (1) 
0.67182721305937398

>  <r_epik_Ionization_Penalty_Charging>  (1) 
0

>  <r_epik_Ionization_Penalty_Neutral>  (1) 
0.67182721305937398

>  <r_epik_State_Penalty>  (1) 
0.47819495767320574

>  <r_glide_ring_energy>  (1) 
0

>  <r_i_docking_score>  (1) 
-7.399515676276617

>  <r_i_glide_ecoul>  (1) 
-2.1362472846589124

>  <r_i_glide_eff_state_penalty>  (1) 
0.47819495767320574

>  <r_i_glide_einternal>  (1) 
17.611831577722029

>  <r_i_glide_emodel>  (1) 
-59.038305580610654

>  <r_i_glide_emodel_strain>  (1) 
0.45278739966367709

>  <r_i_glide_energy>  (1) 
-47.536289716106019

>  <r_i_glide_erotb>  (1) 
0.75184865993743433

>  <r_i_glide_esite>  (1) 
-0.024430705498755912

>  <r_i_glide_evdw>  (1) 
-45.400042431447105

>  <r_i_glide_gscore>  (1) 
-7.8777106339498228

>  <r_i_glide_gscore_strain>  (1) 
0

>  <r_i_glide_hbond>  (1) 
-0.28437251094985166

>  <r_i_glide_ligand_efficiency>  (1) 
-0.23869405407343927

>  <r_i_glide_ligand_efficiency_ln>  (1) 
-1.6688175529220577

>  <r_i_glide_ligand_efficiency_sa>  (1) 
-0.74982888330716724

>  <r_i_glide_lipo>  (1) 
-4.4905187925827317

>  <r_i_glide_metal>  (1) 
-0

>  <r_i_glide_rewards>  (1) 
-1.2397980705847267

>  <r_lp_Energy>  (1) 
38.439779000000001

>  <r_lp_tautomer_probability>  (1) 
0.99999999999736477

>  <s_epik_Chemistry_Notes>  (1) 
This compound contains an acetal/aminal-like group ( X-CH(R)-Y where X, Y are N, S, or O) that may be acid/base labile, releasing an aldehyde.

>  <s_epik_cmdline>  (1) 
J2VwaWtfcHl0aG9uJywgJy1waHQnLCAnMS4wJywgJy1waCcsICc3LjQnLCAnLXRuJywgJzgnLCAnLW1hJywgJzUwMCcsICctaW1hZScsICc8aW5maWxlLm1hZT4nLCAnLW9tYWUnLCAnPG91dGZpbGUubWFlPic=

>  <s_epik_input>  (1) 
W0NIXT0xQyhDbCk9W0NIXVtDSDJdTihDMTIpW0NAQEhdKFMyKVtDQEBIXShbTkhdW0NAQEhdKFtDSDNdKVtDSDJdW0NIM10pW0NIMl1bTkhdW0NIMl0vW0NIXT1bQ0hdXFtDQEhdKEMjTiljM1tjSF1bY0hdYyhbT0hdKWMoRilbY0hdMw==

>  <s_glide_docking_method>  (1) 
confgen

>  <s_i_glide_gridfile>  (1) 
gpcr_5ht2c_6bqh_protein_autoprepared_prepared

>  <s_lp_Force_Field>  (1) 
S-OPLS

>  <s_lp_Variant>  (1) 
DiffSBDD_0_num_sample_100-2

>  <s_m_source_file>  (1) 
generated__ligand_DiffSBDD_2026-05-06_prepared.sdf

>  <GenAI_Model>  (1) 
DiffSBDD

>  <Protein>  (1) 
GPCR_5HT2C

$$$$
DiffSBDD_79_num_sample_100
     RDKit          3D

  0  0  0  0  0  0  0  0  0  0999 V3000
M  V30 BEGIN CTAB
M  V30 COUNTS 85 87 0 0 1
M  V30 BEGIN ATOM
M  V30 1 C 41.669784 28.020794 56.840591 0
M  V30 2 C 37.361854 29.749088 59.247066 0
M  V30 3 C 39.348375 28.491873 51.116425 0
M  V30 4 C 40.036794 33.554387 62.826296 0
M  V30 5 C 41.298543 27.677801 59.198744 0
M  V30 6 C 40.302836 30.333739 49.812080 0
M  V30 7 C 40.572695 27.846357 57.877531 0
M  V30 8 C 37.299010 30.139326 54.793243 0
M  V30 9 F 41.623461 30.422890 49.737712 0
M  V30 10 C 40.675844 34.398892 61.708955 0
M  V30 11 C 38.716464 29.040310 59.219704 0
M  V30 12 C 39.454440 30.439091 53.489511 0
M  V30 13 F 39.867401 29.621428 48.795363 0
M  V30 14 C 39.911437 29.713700 51.112948 0
M  V30 15 C 38.056336 28.423682 53.229657 0
M  V30 16 C 36.263604 31.937836 59.459970 0
M  V30 17 C 40.978276 31.259255 62.664290 0
M  V30 18 N 39.944126 32.123052 62.467725 0
M  V30 19 C 39.322265 27.060319 57.498175 0
M  V30 20 C 38.280190 29.619637 53.794208 0
M  V30 21 C 38.693740 31.640804 61.843345 0
M  V30 22 C 38.146268 31.748519 57.675560 0 CFG=2
M  V30 23 C 39.210080 28.556037 57.853936 0
M  V30 24 C 38.695872 26.008303 58.398974 0
M  V30 25 O 39.173211 30.901157 57.288809 0
M  V30 26 O 40.925483 30.075211 62.328714 0
M  V30 27 C 38.825433 33.031189 58.169217 0
M  V30 28 C 39.228697 26.518320 56.071295 0
M  V30 29 C 42.245964 31.802975 63.327926 0
M  V30 30 N 37.483267 31.215654 59.042953 0 CFG=2 CHG=1
M  V30 31 F 39.778677 31.553375 49.714600 0
M  V30 32 C 40.155148 30.479691 52.331410 0
M  V30 33 C 37.488878 32.605214 61.666348 0
M  V30 34 C 38.975296 27.726354 52.314527 0
M  V30 35 C 36.211101 32.048446 60.994279 0
M  V30 36 C 37.509066 29.410961 56.111780 0
M  V30 37 C 38.885630 29.606451 56.786322 0 CFG=2
M  V30 38 H 42.107830 27.043094 56.653708 0
M  V30 39 H 41.329565 28.405619 55.885771 0
M  V30 40 H 42.467641 28.660704 57.216753 0
M  V30 41 H 36.991441 29.621383 60.253520 0
M  V30 42 H 36.590079 29.254554 58.667016 0
M  V30 43 H 39.191493 27.982597 50.178435 0
M  V30 44 H 39.067441 33.977738 63.053505 0
M  V30 45 H 40.585850 33.699764 63.756057 0
M  V30 46 H 42.192596 27.066520 59.053504 0
M  V30 47 H 41.629800 28.650289 59.562282 0
M  V30 48 H 40.667146 27.237739 59.967506 0
M  V30 49 H 37.432886 31.214156 54.890258 0
M  V30 50 H 36.280784 30.021319 54.431074 0
M  V30 51 H 41.675045 34.053796 61.453654 0
M  V30 52 H 40.074866 34.373151 60.800900 0
M  V30 53 H 40.763013 35.442905 62.012560 0
M  V30 54 H 39.488644 29.687805 59.627170 0
M  V30 55 H 38.659634 28.223407 59.929556 0
M  V30 56 H 39.752944 31.147806 54.248351 0
M  V30 57 H 37.166820 27.874495 53.506660 0
M  V30 58 H 36.235284 32.939295 59.034580 0
M  V30 59 H 35.377001 31.429411 59.076824 0
M  V30 60 H 38.355280 30.749559 62.378209 0
M  V30 61 H 39.046765 31.312149 60.880562 0
M  V30 62 H 37.467395 31.960992 56.866779 0
M  V30 63 H 39.161966 25.042634 58.214994 0
M  V30 64 H 38.806003 26.234615 59.450584 0
M  V30 65 H 37.629335 25.920868 58.190608 0
M  V30 66 H 38.105249 33.815887 58.393002 0
M  V30 67 H 39.450817 32.841477 59.041773 0
M  V30 68 H 39.467297 33.385722 57.367342 0
M  V30 69 H 39.890185 25.659049 55.952436 0
M  V30 70 H 38.211828 26.195454 55.841529 0
M  V30 71 H 39.515836 27.260128 55.330234 0
M  V30 72 H 42.049563 32.145242 64.343372 0
M  V30 73 H 42.994229 31.012799 63.394924 0
M  V30 74 H 42.681595 32.612749 62.747839 0
M  V30 75 H 40.939854 31.221341 52.279159 0
M  V30 76 H 37.780437 33.541404 61.188804 0
M  V30 77 H 37.157008 32.821564 62.663956 0
M  V30 78 H 39.867222 27.405616 52.850591 0
M  V30 79 H 38.473477 26.821464 51.977533 0
M  V30 80 H 35.380928 32.711005 61.243061 0
M  V30 81 H 35.941250 31.095164 61.445638 0
M  V30 82 H 36.660335 29.668243 56.726642 0
M  V30 83 H 37.467373 28.346660 55.915016 0
M  V30 84 H 39.619547 29.491157 56.005986 0
M  V30 85 H 38.141934 31.478668 59.758285 0
M  V30 END ATOM
M  V30 BEGIN BOND
M  V30 1 1 7 1
M  V30 2 1 7 5
M  V30 3 1 9 6
M  V30 4 1 10 4
M  V30 5 1 11 2
M  V30 6 1 13 6
M  V30 7 2 14 3
M  V30 8 1 14 6
M  V30 9 1 18 4
M  V30 10 1 18 17
M  V30 11 1 19 7
M  V30 12 1 20 8
M  V30 13 1 20 12
M  V30 14 2 20 15
M  V30 15 1 21 18
M  V30 16 1 23 7
M  V30 17 1 23 11
M  V30 18 1 23 19
M  V30 19 1 24 19
M  V30 20 1 25 22
M  V30 21 2 26 17
M  V30 22 1 27 22
M  V30 23 1 28 19
M  V30 24 1 29 17
M  V30 25 1 30 2
M  V30 26 1 30 16
M  V30 27 1 30 22
M  V30 28 1 31 6
M  V30 29 2 32 12
M  V30 30 1 32 14
M  V30 31 1 33 21
M  V30 32 1 34 3
M  V30 33 1 34 15
M  V30 34 1 35 16
M  V30 35 1 35 33
M  V30 36 1 36 8
M  V30 37 1 37 23
M  V30 38 1 37 25
M  V30 39 1 37 36
M  V30 40 1 38 1
M  V30 41 1 39 1
M  V30 42 1 40 1
M  V30 43 1 41 2
M  V30 44 1 42 2
M  V30 45 1 43 3
M  V30 46 1 44 4
M  V30 47 1 45 4
M  V30 48 1 46 5
M  V30 49 1 47 5
M  V30 50 1 48 5
M  V30 51 1 49 8
M  V30 52 1 50 8
M  V30 53 1 51 10
M  V30 54 1 52 10
M  V30 55 1 53 10
M  V30 56 1 54 11
M  V30 57 1 55 11
M  V30 58 1 56 12
M  V30 59 1 57 15
M  V30 60 1 58 16
M  V30 61 1 59 16
M  V30 62 1 60 21
M  V30 63 1 61 21
M  V30 64 1 22 62 CFG=3
M  V30 65 1 63 24
M  V30 66 1 64 24
M  V30 67 1 65 24
M  V30 68 1 66 27
M  V30 69 1 67 27
M  V30 70 1 68 27
M  V30 71 1 69 28
M  V30 72 1 70 28
M  V30 73 1 71 28
M  V30 74 1 72 29
M  V30 75 1 73 29
M  V30 76 1 74 29
M  V30 77 1 75 32
M  V30 78 1 76 33
M  V30 79 1 77 33
M  V30 80 1 78 34
M  V30 81 1 79 34
M  V30 82 1 80 35
M  V30 83 1 81 35
M  V30 84 1 82 36
M  V30 85 1 83 36
M  V30 86 1 37 84 CFG=3
M  V30 87 1 30 85 CFG=1
M  V30 END BOND
M  V30 END CTAB
M  END
>  <i_epik_Tot_Q>  (1) 
1

>  <i_epik_Tot_abs_Q>  (1) 
1

>  <i_i_glide_confnum>  (1) 
606

>  <i_i_glide_lignum>  (1) 
204

>  <i_i_glide_posenum>  (1) 
63

>  <i_i_glide_rotatable_bonds>  (1) 
11

>  <i_lp_mmshare_version>  (1) 
72125

>  <i_m_source_file_index>  (1) 
80

>  <i_f3d_flags>  (1) 
0

>  <num_sample>  (1) 
100

>  <b_lp_Chiralities_Consistent>  (1) 
1

>  <r_epik_Charging_Adjusted_Penalty>  (1) 
1.4563538393833728

>  <r_epik_Ionization_Penalty>  (1) 
0.72817750760685918

>  <r_epik_Ionization_Penalty_Charging>  (1) 
0.72817691969168641

>  <r_epik_Ionization_Penalty_Neutral>  (1) 
5.8791517278497126e-07

>  <r_epik_State_Penalty>  (1) 
0.72817691969168641

>  <r_glide_ring_energy>  (1) 
0

>  <r_i_docking_score>  (1) 
-7.397800940400832

>  <r_i_glide_ecoul>  (1) 
-2.4070800143393472

>  <r_i_glide_eff_state_penalty>  (1) 
0.72817691969168641

>  <r_i_glide_einternal>  (1) 
7.9802428486615682

>  <r_i_glide_emodel>  (1) 
-41.796514546567238

>  <r_i_glide_emodel_strain>  (1) 
0.59986589585042793

>  <r_i_glide_energy>  (1) 
-39.084923541041569

>  <r_i_glide_erotb>  (1) 
0.59581955881290138

>  <r_i_glide_esite>  (1) 
-0.19437076897581546

>  <r_i_glide_evdw>  (1) 
-36.677843526702219

>  <r_i_glide_gscore>  (1) 
-8.1259778600925188

>  <r_i_glide_gscore_strain>  (1) 
0

>  <r_i_glide_hbond>  (1) 
-0.24472492412194746

>  <r_i_glide_ligand_efficiency>  (1) 
-0.19994056595677925

>  <r_i_glide_ligand_efficiency_ln>  (1) 
-1.6044095949126134

>  <r_i_glide_ligand_efficiency_sa>  (1) 
-0.66624632291163888

>  <r_i_glide_lipo>  (1) 
-4.7117127419475358

>  <r_i_glide_metal>  (1) 
-0

>  <r_i_glide_rewards>  (1) 
-1.3760348053741076

>  <r_lp_Energy>  (1) 
61.755589999999998

>  <s_epik_Chemistry_Notes>  (1) 
This compound contains an acetal/aminal-like group ( X-CH(R)-Y where X, Y are N, S, or O) that may be acid/base labile, releasing an aldehyde.

>  <s_epik_cmdline>  (1) 
J2VwaWtfcHl0aG9uJywgJy1waHQnLCAnMS4wJywgJy1waCcsICc3LjQnLCAnLXRuJywgJzgnLCAnLW1hJywgJzUwMCcsICctaW1hZScsICc8aW5maWxlLm1hZT4nLCAnLW9tYWUnLCAnPG91dGZpbGUubWFlPic=

>  <s_epik_input>  (1) 
W0NIM11bQ0gyXU4oQyg9TylbQ0gzXSlbQ0gyXVtDSDJdW0NIMl1bQ0gyXU4oW0NIMl1bQ0gyXUMxMkMoW0NIM10pKFtDSDNdKUMxKFtDSDNdKVtDSDNdKVtDQEBIXShbQ0gzXSlPW0NASF0yW0NIMl1bQ0gyXUMoW0NIXT1bQ0hdMyk9W0NIXVtDSDJdW0NIXT1DM0MoRikoRilG

>  <s_glide_docking_method>  (1) 
confgen

>  <s_i_glide_gridfile>  (1) 
gpcr_5ht2c_6bqh_protein_autoprepared_prepared

>  <s_lp_Force_Field>  (1) 
S-OPLS

>  <s_lp_Variant>  (1) 
DiffSBDD_79_num_sample_100-6

>  <s_m_source_file>  (1) 
generated__ligand_DiffSBDD_2026-05-06_prepared.sdf

>  <GenAI_Model>  (1) 
DiffSBDD

>  <Protein>  (1) 
GPCR_5HT2C

$$$$
DiffSBDD_0_num_sample_100
     RDKit          3D

  0  0  0  0  0  0  0  0  0  0999 V3000
M  V30 BEGIN CTAB
M  V30 COUNTS 60 62 0 0 1
M  V30 BEGIN ATOM
M  V30 1 C 38.840153 27.446571 58.510833 0
M  V30 2 C 39.287850 28.677409 54.764689 0 CFG=1
M  V30 3 C 36.877683 35.303024 59.462189 0
M  V30 4 C 38.278928 33.081673 58.106419 0
M  V30 5 C 39.964482 27.982134 59.225957 0
M  V30 6 C 41.303765 27.810361 57.030154 0
M  V30 7 C 38.612177 35.089082 61.167298 0
M  V30 8 C 36.631265 36.622613 59.876764 0
M  V30 9 C 37.872919 34.533720 60.100668 0
M  V30 10 C 39.432161 28.196370 52.277946 0 CFG=2
M  V30 11 N 38.924325 31.013612 55.274796 0
M  V30 12 C 38.054508 32.042137 55.819875 0
M  V30 13 C 37.936682 32.038546 57.335742 0
M  V30 14 C 37.365794 37.178129 60.939467 0
M  V30 15 F 39.067542 36.943991 62.611039 0
M  V30 16 C 38.357305 36.410769 61.587889 0
M  V30 17 C 38.158457 33.116657 59.625644 0 CFG=1
M  V30 18 C 41.134576 28.160821 58.552043 0
M  V30 19 N 36.456519 31.387235 60.653257 0
M  V30 20 C 38.549133 29.666718 55.685789 0
M  V30 21 C 39.001919 27.026570 57.272834 0
M  V30 22 C 39.443576 27.213954 55.287284 0 CFG=1
M  V30 23 N 38.644895 28.717502 53.426744 0 CHG=1
M  V30 24 O 37.116296 38.458787 61.341264 0
M  V30 25 C 40.410964 29.231450 51.675047 0
M  V30 26 C 38.506242 27.611251 51.218605 0
M  V30 27 C 39.848367 30.467875 50.972929 0
M  V30 28 N 40.153501 27.003774 56.573401 0
M  V30 29 S 37.908788 26.477895 56.070791 0
M  V30 30 C 37.201228 32.148098 60.195403 0
M  V30 31 Cl 39.826725 28.421420 60.888735 0
M  V30 32 H 37.867413 27.436247 58.962225 0
M  V30 33 H 40.267404 29.114635 54.653503 0
M  V30 34 H 36.307989 34.881143 58.648220 0
M  V30 35 H 38.667399 33.972746 57.638989 0
M  V30 36 H 41.424119 28.718728 56.446828 0
M  V30 37 H 42.213411 27.221439 56.922628 0
M  V30 38 H 39.375430 34.505351 61.659811 0
M  V30 39 H 35.871234 37.207870 59.380901 0
M  V30 40 H 40.027570 27.353198 52.624554 0
M  V30 41 H 39.878021 31.215744 55.543569 0
M  V30 42 H 37.067409 31.908897 55.388723 0
M  V30 43 H 38.406882 33.017006 55.481249 0
M  V30 44 H 37.546338 31.139706 57.791024 0
M  V30 45 H 39.135672 32.831639 60.016519 0
M  V30 46 H 41.994319 28.572233 59.058761 0
M  V30 47 H 38.853642 29.546835 56.723681 0
M  V30 48 H 37.468569 29.519335 55.636125 0
M  V30 49 H 39.853758 26.515354 54.558952 0
M  V30 50 H 37.783995 28.193893 53.491734 0
M  V30 51 H 36.487202 38.910744 60.794201 0
M  V30 52 H 41.052574 29.621431 52.444642 0
M  V30 53 H 41.067395 28.710196 50.984135 0
M  V30 54 H 39.068363 27.167961 50.395584 0
M  V30 55 H 37.869016 26.833808 51.638296 0
M  V30 56 H 37.867404 28.384837 50.808288 0
M  V30 57 H 40.639119 30.985034 50.427671 0
M  V30 58 H 39.067401 30.231105 50.253512 0
M  V30 59 H 39.467405 31.179450 51.703221 0
M  V30 60 H 38.416368 29.685833 53.245629 0
M  V30 END ATOM
M  V30 BEGIN BOND
M  V30 1 1 5 1
M  V30 2 2 8 3
M  V30 3 1 9 3
M  V30 4 2 9 7
M  V30 5 1 12 11
M  V30 6 2 13 4
M  V30 7 1 13 12
M  V30 8 1 14 8
M  V30 9 1 16 7
M  V30 10 2 16 14
M  V30 11 1 16 15
M  V30 12 1 17 4
M  V30 13 1 17 9
M  V30 14 2 18 5
M  V30 15 1 18 6
M  V30 16 1 20 2
M  V30 17 1 20 11
M  V30 18 2 21 1
M  V30 19 1 22 2
M  V30 20 1 23 2
M  V30 21 1 23 10
M  V30 22 1 24 14
M  V30 23 1 25 10
M  V30 24 1 26 10
M  V30 25 1 27 25
M  V30 26 1 28 6
M  V30 27 1 28 21
M  V30 28 1 28 22
M  V30 29 1 29 21
M  V30 30 1 29 22
M  V30 31 1 30 17
M  V30 32 3 30 19
M  V30 33 1 31 5
M  V30 34 1 32 1
M  V30 35 1 2 33 CFG=3
M  V30 36 1 34 3
M  V30 37 1 35 4
M  V30 38 1 36 6
M  V30 39 1 37 6
M  V30 40 1 38 7
M  V30 41 1 39 8
M  V30 42 1 10 40 CFG=1
M  V30 43 1 41 11
M  V30 44 1 42 12
M  V30 45 1 43 12
M  V30 46 1 44 13
M  V30 47 1 17 45 CFG=1
M  V30 48 1 46 18
M  V30 49 1 47 20
M  V30 50 1 48 20
M  V30 51 1 22 49 CFG=3
M  V30 52 1 50 23
M  V30 53 1 51 24
M  V30 54 1 52 25
M  V30 55 1 53 25
M  V30 56 1 54 26
M  V30 57 1 55 26
M  V30 58 1 56 26
M  V30 59 1 57 27
M  V30 60 1 58 27
M  V30 61 1 59 27
M  V30 62 1 60 23
M  V30 END BOND
M  V30 END CTAB
M  END
>  <i_epik_Tot_Q>  (1) 
1

>  <i_epik_Tot_abs_Q>  (1) 
1

>  <i_i_glide_confnum>  (1) 
25

>  <i_i_glide_lignum>  (1) 
3

>  <i_i_glide_posenum>  (1) 
160

>  <i_i_glide_rotatable_bonds>  (1) 
11

>  <i_lp_mmshare_version>  (1) 
72125

>  <i_m_source_file_index>  (1) 
1

>  <i_f3d_flags>  (1) 
0

>  <num_sample>  (1) 
100

>  <b_lp_Chiralities_Consistent>  (1) 
1

>  <r_epik_Charging_Adjusted_Penalty>  (1) 
1.026714880071514

>  <r_epik_Ionization_Penalty>  (1) 
0.57488375576365369

>  <r_epik_Ionization_Penalty_Charging>  (1) 
0.45778339447339428

>  <r_epik_Ionization_Penalty_Neutral>  (1) 
0.11710036129025943

>  <r_epik_State_Penalty>  (1) 
0.56893148559811979

>  <r_glide_ring_energy>  (1) 
0

>  <r_i_docking_score>  (1) 
-7.3949197665103519

>  <r_i_glide_ecoul>  (1) 
-4.202790211065162

>  <r_i_glide_eff_state_penalty>  (1) 
0.56893148559811979

>  <r_i_glide_einternal>  (1) 
9.2049119864880016

>  <r_i_glide_emodel>  (1) 
-65.872491995229922

>  <r_i_glide_emodel_strain>  (1) 
0.18709372866567264

>  <r_i_glide_energy>  (1) 
-43.145462387933868

>  <r_i_glide_erotb>  (1) 
0.74887478347211667

>  <r_i_glide_esite>  (1) 
-0.035331797443062217

>  <r_i_glide_evdw>  (1) 
-38.942672176868705

>  <r_i_glide_gscore>  (1) 
-7.9638512521084719

>  <r_i_glide_gscore_strain>  (1) 
0

>  <r_i_glide_hbond>  (1) 
-0.22263789110603596

>  <r_i_glide_ligand_efficiency>  (1) 
-0.23854579891968877

>  <r_i_glide_ligand_efficiency_ln>  (1) 
-1.6677810344220456

>  <r_i_glide_ligand_efficiency_sa>  (1) 
-0.74936315743555815

>  <r_i_glide_lipo>  (1) 
-4.2576455463614113

>  <r_i_glide_metal>  (1) 
-0

>  <r_i_glide_rewards>  (1) 
-1.6195586601668688

>  <r_lp_Energy>  (1) 
39.675871999999998

>  <r_lp_tautomer_probability>  (1) 
0.99999999999736477

>  <s_epik_Chemistry_Notes>  (1) 
This compound contains an acetal/aminal-like group ( X-CH(R)-Y where X, Y are N, S, or O) that may be acid/base labile, releasing an aldehyde.

>  <s_epik_cmdline>  (1) 
J2VwaWtfcHl0aG9uJywgJy1waHQnLCAnMS4wJywgJy1waCcsICc3LjQnLCAnLXRuJywgJzgnLCAnLW1hJywgJzUwMCcsICctaW1hZScsICc8aW5maWxlLm1hZT4nLCAnLW9tYWUnLCAnPG91dGZpbGUubWFlPic=

>  <s_epik_input>  (1) 
W0NIXT0xQyhDbCk9W0NIXVtDSDJdTihDMTIpW0NAQEhdKFMyKVtDQEBIXShbTkhdW0NAQEhdKFtDSDNdKVtDSDJdW0NIM10pW0NIMl1bTkhdW0NIMl1cW0NIXT1bQ0hdXFtDQEhdKEMjTiljM1tjSF1bY0hdYyhbT0hdKWMoRilbY0hdMw==

>  <s_glide_docking_method>  (1) 
confgen

>  <s_i_glide_gridfile>  (1) 
gpcr_5ht2c_6bqh_protein_autoprepared_prepared

>  <s_lp_Force_Field>  (1) 
S-OPLS

>  <s_lp_Variant>  (1) 
DiffSBDD_0_num_sample_100-3

>  <s_m_source_file>  (1) 
generated__ligand_DiffSBDD_2026-05-06_prepared.sdf

>  <GenAI_Model>  (1) 
DiffSBDD

>  <Protein>  (1) 
GPCR_5HT2C

$$$$
DiffSBDD_61_num_sample_100
     RDKit          3D

  0  0  0  0  0  0  0  0  0  0999 V3000
M  V30 BEGIN CTAB
M  V30 COUNTS 50 53 0 0 1
M  V30 BEGIN ATOM
M  V30 1 N 37.067340 30.936880 58.653501 0
M  V30 2 C 40.656921 30.167092 50.149692 0
M  V30 3 N 38.892898 30.522667 60.141688 0
M  V30 4 C 37.279025 34.378649 61.201988 0
M  V30 5 C 39.129978 29.087206 51.595701 0 CFG=1
M  V30 6 C 38.473377 27.563482 53.373257 0
M  V30 7 S 39.467304 30.007700 53.179051 0
M  V30 8 N 35.804264 33.545141 59.414944 0
M  V30 9 O 40.266866 28.940711 50.756469 0
M  V30 10 C 36.889725 33.451098 60.279783 0
M  V30 11 C 38.934676 28.636652 54.088098 0
M  V30 12 C 40.314544 31.323707 63.738392 0
M  V30 13 C 38.301187 30.699954 56.707852 0
M  V30 14 C 39.554944 30.602083 62.620028 0
M  V30 15 C 37.898958 31.265847 59.713698 0
M  V30 16 C 38.505722 27.461204 56.177307 0
M  V30 17 C 38.017982 26.361518 55.438418 0
M  V30 18 O 37.560443 30.004137 57.706524 0
M  V30 19 C 38.964044 28.613109 55.499768 0
M  V30 20 C 39.466348 29.806615 56.286014 0
M  V30 21 N 37.765453 32.432463 60.384064 0
M  V30 22 C 38.463982 33.790968 61.849022 0
M  V30 23 C 38.656775 32.557397 61.244669 0
M  V30 24 C 38.498769 27.673271 51.878258 0
M  V30 25 C 39.571866 31.373754 61.292285 0 CFG=2
M  V30 26 C 37.998688 26.417189 54.028608 0
M  V30 27 H 36.419488 31.570930 58.174648 0
M  V30 28 H 41.518700 30.020862 49.501574 0
M  V30 29 H 39.855511 30.578514 49.534662 0
M  V30 30 H 40.940565 30.910414 50.894523 0
M  V30 31 H 36.808209 35.330061 61.400333 0
M  V30 32 H 38.362453 29.621418 51.053193 0
M  V30 33 H 35.197457 34.352398 59.399185 0
M  V30 34 H 35.547335 32.829130 58.749734 0
M  V30 35 H 40.299251 30.736648 64.656138 0
M  V30 36 H 41.357481 31.486555 63.463019 0
M  V30 37 H 39.867144 32.292402 63.960130 0
M  V30 38 H 38.720367 31.639515 57.076619 0
M  V30 39 H 37.653466 30.952122 55.866373 0
M  V30 40 H 38.526479 30.417698 62.929769 0
M  V30 41 H 40.007322 29.620763 62.470562 0
M  V30 42 H 38.519696 27.424609 57.256445 0
M  V30 43 H 37.660034 25.481112 55.951133 0
M  V30 44 H 39.995794 29.457229 57.174136 0
M  V30 45 H 40.199547 30.377999 55.720164 0
M  V30 46 H 39.067546 34.215886 62.636217 0
M  V30 47 H 39.084336 26.862842 51.441195 0
M  V30 48 H 37.484259 27.621435 51.484982 0
M  V30 49 H 40.588002 31.649167 61.006731 0
M  V30 50 H 37.623879 25.584733 53.458930 0
M  V30 END ATOM
M  V30 BEGIN BOND
M  V30 1 1 7 5
M  V30 2 1 9 2
M  V30 3 1 9 5
M  V30 4 2 10 4
M  V30 5 1 10 8
M  V30 6 1 11 6
M  V30 7 1 11 7
M  V30 8 1 14 12
M  V30 9 1 15 1
M  V30 10 2 15 3
M  V30 11 2 17 16
M  V30 12 1 18 1
M  V30 13 1 18 13
M  V30 14 2 19 11
M  V30 15 1 19 16
M  V30 16 1 20 13
M  V30 17 1 20 19
M  V30 18 1 21 10
M  V30 19 1 21 15
M  V30 20 1 22 4
M  V30 21 1 23 21
M  V30 22 2 23 22
M  V30 23 1 24 5
M  V30 24 1 24 6
M  V30 25 1 25 3
M  V30 26 1 25 14
M  V30 27 1 25 23
M  V30 28 2 26 6
M  V30 29 1 26 17
M  V30 30 1 27 1
M  V30 31 1 28 2
M  V30 32 1 29 2
M  V30 33 1 30 2
M  V30 34 1 31 4
M  V30 35 1 5 32 CFG=3
M  V30 36 1 33 8
M  V30 37 1 34 8
M  V30 38 1 35 12
M  V30 39 1 36 12
M  V30 40 1 37 12
M  V30 41 1 38 13
M  V30 42 1 39 13
M  V30 43 1 40 14
M  V30 44 1 41 14
M  V30 45 1 42 16
M  V30 46 1 43 17
M  V30 47 1 44 20
M  V30 48 1 45 20
M  V30 49 1 46 22
M  V30 50 1 47 24
M  V30 51 1 48 24
M  V30 52 1 25 49 CFG=3
M  V30 53 1 50 26
M  V30 END BOND
M  V30 END CTAB
M  END
>  <i_epik_Tot_Q>  (1) 
0

>  <i_epik_Tot_abs_Q>  (1) 
0

>  <i_i_glide_confnum>  (1) 
33

>  <i_i_glide_lignum>  (1) 
156

>  <i_i_glide_posenum>  (1) 
201

>  <i_i_glide_rotatable_bonds>  (1) 
7

>  <i_lp_mmshare_version>  (1) 
72125

>  <i_m_source_file_index>  (1) 
62

>  <i_f3d_flags>  (1) 
0

>  <num_sample>  (1) 
100

>  <b_lp_Chiralities_Consistent>  (1) 
1

>  <r_epik_Charging_Adjusted_Penalty>  (1) 
7.696981497401035e-09

>  <r_epik_Ionization_Penalty>  (1) 
0.0074591056384177897

>  <r_epik_Ionization_Penalty_Charging>  (1) 
0

>  <r_epik_Ionization_Penalty_Neutral>  (1) 
0.0074591056384177897

>  <r_epik_State_Penalty>  (1) 
7.696981497401035e-09

>  <r_glide_ring_energy>  (1) 
0

>  <r_i_docking_score>  (1) 
-7.3939899479948687

>  <r_i_glide_ecoul>  (1) 
-7.7066665083533854

>  <r_i_glide_eff_state_penalty>  (1) 
7.696981497401035e-09

>  <r_i_glide_einternal>  (1) 
8.598359534509628

>  <r_i_glide_emodel>  (1) 
-63.544663012165898

>  <r_i_glide_emodel_strain>  (1) 
1.1283112683993295

>  <r_i_glide_energy>  (1) 
-46.44932931021075

>  <r_i_glide_erotb>  (1) 
0.69602230450698876

>  <r_i_glide_esite>  (1) 
-0.18424936729710711

>  <r_i_glide_evdw>  (1) 
-38.742662801857364

>  <r_i_glide_gscore>  (1) 
-7.3939899556918505

>  <r_i_glide_gscore_strain>  (1) 
0

>  <r_i_glide_hbond>  (1) 
-0.29211749695830991

>  <r_i_glide_ligand_efficiency>  (1) 
-0.28438422876903341

>  <r_i_glide_ligand_efficiency_ln>  (1) 
-1.7364542776267058

>  <r_i_glide_ligand_efficiency_sa>  (1) 
-0.84248715964532384

>  <r_i_glide_lipo>  (1) 
-3.3223113004311715

>  <r_i_glide_metal>  (1) 
-0

>  <r_i_glide_rewards>  (1) 
-1.1982009791663739

>  <r_lp_Energy>  (1) 
14.504761999999999

>  <s_epik_Chemistry_Notes>  (1) 
This compound has an imine and may undergo hydrolysis. This compound contains an acetal/aminal-like group ( X-CH(R)-Y where X, Y are N, S, or O) that may be acid/base labile, releasing an aldehyde. This compound has a N-S or N-O group and may undergo hydrolysis at high or low pH.

>  <s_epik_cmdline>  (1) 
J2VwaWtfcHl0aG9uJywgJy1waHQnLCAnMS4wJywgJy1waCcsICc3LjQnLCAnLXRuJywgJzgnLCAnLW1hJywgJzUwMCcsICctaW1hZScsICc8aW5maWxlLm1hZT4nLCAnLW9tYWUnLCAnPG91dGZpbGUubWFlPic=

>  <s_epik_input>  (1) 
W05IMl1jMVtjSF1bY0hdYyhuMTIpW0NAQEhdKFtDSDJdW0NIM10pTj1DMltOSF1PW0NIMl1bQ0gyXWMoW2NIXVtjSF1bY0hdMyljKGMzNClTW0NASF0oW0NIMl00KU9bQ0gzXQ==

>  <s_glide_docking_method>  (1) 
confgen

>  <s_i_glide_gridfile>  (1) 
gpcr_5ht2c_6bqh_protein_autoprepared_prepared

>  <s_lp_Force_Field>  (1) 
S-OPLS

>  <s_lp_Variant>  (1) 
DiffSBDD_61_num_sample_100-1

>  <s_m_source_file>  (1) 
generated__ligand_DiffSBDD_2026-05-06_prepared.sdf

>  <GenAI_Model>  (1) 
DiffSBDD

>  <Protein>  (1) 
GPCR_5HT2C

$$$$
DiffSBDD_24_num_sample_100
     RDKit          3D

  0  0  0  0  0  0  0  0  0  0999 V3000
M  V30 BEGIN CTAB
M  V30 COUNTS 61 63 0 0 1
M  V30 BEGIN ATOM
M  V30 1 C 38.430400 30.257332 58.323424 0
M  V30 2 O 39.601396 33.382992 60.297545 0
M  V30 3 C 37.071252 36.565556 60.431922 0
M  V30 4 C 40.216562 31.053337 51.120059 0
M  V30 5 C 39.968879 28.845321 49.930843 0
M  V30 6 N 37.555785 34.191018 59.795460 0
M  V30 7 C 37.255279 33.093935 58.873494 0
M  V30 8 C 38.266089 27.206825 56.002919 0
M  V30 9 C 38.842351 29.227262 54.676708 0
M  V30 10 N 39.626032 29.721421 51.039803 0
M  V30 11 O 41.118051 34.760839 62.466848 0
M  V30 12 N 37.938173 36.378858 61.586222 0
M  V30 13 C 38.262290 25.108100 57.512818 0
M  V30 14 C 39.758033 35.093264 62.644611 0
M  V30 15 C 39.170169 29.851768 53.455203 0
M  V30 16 C 39.078698 35.490791 61.318412 0 CFG=1
M  V30 17 C 38.774243 30.003555 55.842917 0
M  V30 18 N 37.067140 30.651527 58.653747 0
M  V30 19 C 38.599056 27.824963 54.728734 0
M  V30 20 C 39.281107 29.092316 52.267986 0
M  V30 21 C 37.914990 25.731377 56.169946 0
M  V30 22 C 38.748975 34.259676 60.435081 0
M  V30 23 C 38.250631 28.025565 57.161534 0
M  V30 24 C 37.316580 24.994064 55.209922 0
M  V30 25 C 39.054889 27.698571 52.319070 0
M  V30 26 C 38.730271 27.071314 53.531916 0
M  V30 27 C 36.512562 35.206281 59.987878 0
M  V30 28 C 37.056460 31.748068 59.607480 0
M  V30 29 C 38.490559 29.406752 57.076996 0
M  V30 30 H 39.063141 31.130033 58.161702 0
M  V30 31 H 38.863736 29.714934 59.164926 0
M  V30 32 H 37.630353 37.023461 59.614341 0
M  V30 33 H 36.265117 37.256371 60.675478 0
M  V30 34 H 41.020834 31.098279 51.853720 0
M  V30 35 H 40.636907 31.341469 50.156093 0
M  V30 36 H 39.467862 31.800235 51.378692 0
M  V30 37 H 40.667378 28.073928 50.253317 0
M  V30 38 H 39.067148 28.378466 49.538157 0
M  V30 39 H 40.427924 29.402530 49.113862 0
M  V30 40 H 36.365620 33.320495 58.286022 0
M  V30 41 H 38.064126 33.038713 58.144497 0
M  V30 42 H 41.579940 35.537755 62.191321 0
M  V30 43 H 37.394461 35.997705 62.354786 0
M  V30 44 H 39.304911 25.297916 57.768190 0
M  V30 45 H 37.623881 25.503552 58.298377 0
M  V30 46 H 38.115346 24.027320 57.498650 0
M  V30 47 H 39.253587 34.219888 63.054118 0
M  V30 48 H 39.693533 35.892667 63.384892 0
M  V30 49 H 39.346702 30.916650 53.437581 0
M  V30 50 H 39.801854 36.059339 60.734672 0
M  V30 51 H 38.956923 31.067884 55.791824 0
M  V30 52 H 36.516532 30.925634 57.831061 0
M  V30 53 H 38.016102 27.594448 58.121577 0
M  V30 54 H 37.098594 23.949812 55.378168 0
M  V30 55 H 37.023787 25.409270 54.266903 0
M  V30 56 H 39.142425 27.098012 51.427738 0
M  V30 57 H 38.616677 26.021383 53.531551 0
M  V30 58 H 35.937996 35.344543 59.070917 0
M  V30 59 H 35.815253 34.821437 60.732939 0
M  V30 60 H 37.809929 31.571790 60.376520 0
M  V30 61 H 36.089120 31.761457 60.111125 0
M  V30 END ATOM
M  V30 BEGIN BOND
M  V30 1 1 7 6
M  V30 2 1 10 4
M  V30 3 1 10 5
M  V30 4 1 12 3
M  V30 5 1 14 11
M  V30 6 1 15 9
M  V30 7 1 16 12
M  V30 8 1 16 14
M  V30 9 2 17 9
M  V30 10 1 18 1
M  V30 11 2 19 8
M  V30 12 1 19 9
M  V30 13 1 20 10
M  V30 14 2 20 15
M  V30 15 1 21 8
M  V30 16 1 21 13
M  V30 17 2 22 2
M  V30 18 1 22 6
M  V30 19 1 22 16
M  V30 20 1 23 8
M  V30 21 2 24 21
M  V30 22 1 25 20
M  V30 23 1 26 19
M  V30 24 2 26 25
M  V30 25 1 27 3
M  V30 26 1 27 6
M  V30 27 1 28 7
M  V30 28 1 28 18
M  V30 29 1 29 1
M  V30 30 1 29 17
M  V30 31 2 29 23
M  V30 32 1 30 1
M  V30 33 1 31 1
M  V30 34 1 32 3
M  V30 35 1 33 3
M  V30 36 1 34 4
M  V30 37 1 35 4
M  V30 38 1 36 4
M  V30 39 1 37 5
M  V30 40 1 38 5
M  V30 41 1 39 5
M  V30 42 1 40 7
M  V30 43 1 41 7
M  V30 44 1 42 11
M  V30 45 1 43 12
M  V30 46 1 44 13
M  V30 47 1 45 13
M  V30 48 1 46 13
M  V30 49 1 47 14
M  V30 50 1 48 14
M  V30 51 1 49 15
M  V30 52 1 16 50 CFG=3
M  V30 53 1 51 17
M  V30 54 1 52 18
M  V30 55 1 53 23
M  V30 56 1 54 24
M  V30 57 1 55 24
M  V30 58 1 56 25
M  V30 59 1 57 26
M  V30 60 1 58 27
M  V30 61 1 59 27
M  V30 62 1 60 28
M  V30 63 1 61 28
M  V30 END BOND
M  V30 END CTAB
M  END
>  <i_epik_Tot_Q>  (1) 
0

>  <i_epik_Tot_abs_Q>  (1) 
0

>  <i_i_glide_confnum>  (1) 
880

>  <i_i_glide_lignum>  (1) 
64

>  <i_i_glide_posenum>  (1) 
325

>  <i_i_glide_rotatable_bonds>  (1) 
9

>  <i_lp_mmshare_version>  (1) 
72125

>  <i_m_source_file_index>  (1) 
25

>  <i_f3d_flags>  (1) 
0

>  <num_sample>  (1) 
100

>  <b_lp_Chiralities_Consistent>  (1) 
1

>  <r_epik_Charging_Adjusted_Penalty>  (1) 
1.3040267678810453

>  <r_epik_Ionization_Penalty>  (1) 
1.4057066568095866

>  <r_epik_Ionization_Penalty_Charging>  (1) 
0

>  <r_epik_Ionization_Penalty_Neutral>  (1) 
1.4057066568095866

>  <r_epik_State_Penalty>  (1) 
1.3040267678810453

>  <r_glide_ring_energy>  (1) 
0

>  <r_i_docking_score>  (1) 
-7.3853887032613654

>  <r_i_glide_ecoul>  (1) 
-5.1064402684932393

>  <r_i_glide_eff_state_penalty>  (1) 
1.3040267678810453

>  <r_i_glide_einternal>  (1) 
3.0335811750157688

>  <r_i_glide_emodel>  (1) 
-73.996797431505826

>  <r_i_glide_emodel_strain>  (1) 
0.074509602497784044

>  <r_i_glide_energy>  (1) 
-49.501936691460088

>  <r_i_glide_erotb>  (1) 
0.87102097732651396

>  <r_i_glide_esite>  (1) 
0

>  <r_i_glide_evdw>  (1) 
-44.395496422966851

>  <r_i_glide_gscore>  (1) 
-8.6894154711424108

>  <r_i_glide_gscore_strain>  (1) 
0

>  <r_i_glide_hbond>  (1) 
-0.16

>  <r_i_glide_ligand_efficiency>  (1) 
-0.25466857597452985

>  <r_i_glide_ligand_efficiency_ln>  (1) 
-1.6910667357480653

>  <r_i_glide_ligand_efficiency_sa>  (1) 
-0.78242255094000268

>  <r_i_glide_lipo>  (1) 
-4.3749444892905949

>  <r_i_glide_metal>  (1) 
-0

>  <r_i_glide_rewards>  (1) 
-2.0397510977559983

>  <r_lp_Energy>  (1) 
67.58931299999999

>  <s_epik_cmdline>  (1) 
J2VwaWtfcHl0aG9uJywgJy1waHQnLCAnMS4wJywgJy1waCcsICc3LjQnLCAnLXRuJywgJzgnLCAnLW1hJywgJzUwMCcsICctaW1hZScsICc8aW5maWxlLm1hZT4nLCAnLW9tYWUnLCAnPG91dGZpbGUubWFlPic=

>  <s_epik_input>  (1) 
W0NIMl0xW0NIMl1bTkhdW0NAQEhdKFtDSDJdW09IXSlDKD1PKU4xW0NIMl1bQ0gyXVtOSF1bQ0gyXWMoW2NIXTIpW2NIXWMoQyhbQ0gzXSk9W0NIMl0pYyhjMjMpW2NIXVtjSF1jKFtjSF0zKU4oW0NIM10pW0NIM10=

>  <s_glide_docking_method>  (1) 
confgen

>  <s_i_glide_gridfile>  (1) 
gpcr_5ht2c_6bqh_protein_autoprepared_prepared

>  <s_lp_Force_Field>  (1) 
S-OPLS

>  <s_lp_Variant>  (1) 
DiffSBDD_24_num_sample_100-3

>  <s_m_source_file>  (1) 
generated__ligand_DiffSBDD_2026-05-06_prepared.sdf

>  <GenAI_Model>  (1) 
DiffSBDD

>  <Protein>  (1) 
GPCR_5HT2C

$$$$
DiffSBDD_19_num_sample_100
     RDKit          3D

  0  0  0  0  0  0  0  0  0  0999 V3000
M  V30 BEGIN CTAB
M  V30 COUNTS 71 72 0 0 1
M  V30 BEGIN ATOM
M  V30 1 C 37.953234 26.806377 55.472923 0
M  V30 2 C 37.238352 30.113264 58.025763 0
M  V30 3 C 38.208925 27.936289 53.271891 0
M  V30 4 C 38.675746 30.901080 53.900635 0
M  V30 5 O 39.559966 29.322312 57.937505 0
M  V30 6 C 36.826161 23.739324 55.806397 0
M  V30 7 C 39.560603 30.131067 52.896161 0 CFG=2
M  V30 8 C 38.867210 33.461980 60.778368 0
M  V30 9 C 38.468941 32.414309 59.797961 0
M  V30 10 C 39.261076 28.416442 51.058928 0
M  V30 11 C 39.767776 33.356237 61.757541 0
M  V30 12 C 40.158428 31.086634 51.827660 0
M  V30 13 C 40.454082 30.443506 50.488874 0
M  V30 14 O 40.267406 26.060037 53.141144 0
M  V30 15 O 40.667386 26.021433 55.320003 0 CHG=-1
M  V30 16 O 38.234872 34.613628 60.511326 0
M  V30 17 C 40.026350 29.225429 50.151776 0
M  V30 18 N 38.435103 26.614407 56.866096 0 CFG=2 CHG=1
M  V30 19 C 38.235962 29.051683 57.528817 0 CFG=1
M  V30 20 C 40.507139 32.151857 62.125889 0
M  V30 21 C 37.073985 30.283612 59.544861 0 CFG=1
M  V30 22 C 40.196583 30.854936 61.841970 0
M  V30 23 C 38.412843 25.195904 57.325991 0
M  V30 24 C 38.960779 27.455936 54.541327 0 CFG=2
M  V30 25 C 40.057364 26.421429 54.310000 0
M  V30 26 C 37.869294 27.583373 57.848456 0
M  V30 27 C 39.015151 28.801201 52.323797 0
M  V30 28 C 39.038886 30.329118 61.097868 0
M  V30 29 C 36.036828 22.425092 55.853499 0
M  V30 30 C 38.247736 30.991605 60.228944 0
M  V30 31 C 37.067419 24.439406 57.172098 0
M  V30 32 O 35.867424 30.985696 59.768425 0
M  V30 33 H 37.686095 25.880110 54.990427 0
M  V30 34 H 37.067408 27.402178 55.453499 0
M  V30 35 H 36.267384 29.844650 57.606860 0
M  V30 36 H 37.480311 31.075389 57.570922 0
M  V30 37 H 37.833820 27.067859 52.726820 0
M  V30 38 H 37.316730 28.502950 53.539272 0
M  V30 39 H 38.228993 30.260572 54.649313 0
M  V30 40 H 39.280711 31.632009 54.437515 0
M  V30 41 H 37.867401 31.461902 53.453503 0
M  V30 42 H 39.584596 29.412426 58.878622 0
M  V30 43 H 36.272398 24.394533 55.134352 0
M  V30 44 H 37.786090 23.550130 55.325075 0
M  V30 45 H 40.394235 29.817183 53.509274 0
M  V30 46 H 37.566647 32.763052 59.293806 0
M  V30 47 H 39.218557 32.409133 59.009108 0
M  V30 48 H 38.874492 27.467395 50.714073 0
M  V30 49 H 39.975813 34.248197 62.331189 0
M  V30 50 H 41.067353 31.536289 52.209962 0
M  V30 51 H 39.467409 31.904366 51.628914 0
M  V30 52 H 41.026285 31.027916 49.782271 0
M  V30 53 H 38.527367 35.255643 61.138810 0
M  V30 54 H 40.259519 28.839637 49.172262 0
M  V30 55 H 38.208983 29.193353 56.460126 0
M  V30 56 H 41.382542 32.303768 62.740201 0
M  V30 57 H 36.939749 29.293957 59.970826 0
M  V30 58 H 40.858138 30.112677 62.264642 0
M  V30 59 H 39.202305 24.633335 56.827622 0
M  V30 60 H 38.699527 25.205404 58.376611 0
M  V30 61 H 39.448582 28.302151 55.019464 0
M  V30 62 H 38.230416 27.345923 58.850387 0
M  V30 63 H 36.785841 27.461050 57.853507 0
M  V30 64 H 38.800298 29.289789 61.267051 0
M  V30 65 H 36.267411 21.803420 54.991822 0
M  V30 66 H 36.267406 21.820295 56.729137 0
M  V30 67 H 34.964316 22.615442 55.853499 0
M  V30 68 H 37.081168 23.657356 57.926813 0
M  V30 69 H 36.236820 25.094001 57.427686 0
M  V30 70 H 35.625171 31.413402 58.950027 0
M  V30 71 H 39.428128 26.820780 56.803785 0
M  V30 END ATOM
M  V30 BEGIN BOND
M  V30 1 1 7 4
M  V30 2 1 9 8
M  V30 3 2 11 8
M  V30 4 1 12 7
M  V30 5 1 13 12
M  V30 6 1 16 8
M  V30 7 1 17 10
M  V30 8 2 17 13
M  V30 9 1 18 1
M  V30 10 1 19 2
M  V30 11 1 19 5
M  V30 12 1 20 11
M  V30 13 1 21 2
M  V30 14 2 22 20
M  V30 15 1 23 18
M  V30 16 1 24 1
M  V30 17 1 24 3
M  V30 18 2 25 14
M  V30 19 1 25 15
M  V30 20 1 25 24
M  V30 21 1 26 18
M  V30 22 1 26 19
M  V30 23 1 27 3
M  V30 24 1 27 7
M  V30 25 2 27 10
M  V30 26 1 28 22
M  V30 27 1 29 6
M  V30 28 1 30 9
M  V30 29 1 30 21
M  V30 30 2 30 28
M  V30 31 1 31 6
M  V30 32 1 31 23
M  V30 33 1 32 21
M  V30 34 1 33 1
M  V30 35 1 34 1
M  V30 36 1 35 2
M  V30 37 1 36 2
M  V30 38 1 37 3
M  V30 39 1 38 3
M  V30 40 1 39 4
M  V30 41 1 40 4
M  V30 42 1 41 4
M  V30 43 1 42 5
M  V30 44 1 43 6
M  V30 45 1 44 6
M  V30 46 1 7 45 CFG=1
M  V30 47 1 46 9
M  V30 48 1 47 9
M  V30 49 1 48 10
M  V30 50 1 49 11
M  V30 51 1 50 12
M  V30 52 1 51 12
M  V30 53 1 52 13
M  V30 54 1 53 16
M  V30 55 1 54 17
M  V30 56 1 19 55 CFG=3
M  V30 57 1 56 20
M  V30 58 1 21 57 CFG=1
M  V30 59 1 58 22
M  V30 60 1 59 23
M  V30 61 1 60 23
M  V30 62 1 24 61 CFG=1
M  V30 63 1 62 26
M  V30 64 1 63 26
M  V30 65 1 64 28
M  V30 66 1 65 29
M  V30 67 1 66 29
M  V30 68 1 67 29
M  V30 69 1 68 31
M  V30 70 1 69 31
M  V30 71 1 70 32
M  V30 72 1 18 71 CFG=3
M  V30 END BOND
M  V30 END CTAB
M  END
>  <i_epik_Tot_Q>  (1) 
0

>  <i_epik_Tot_abs_Q>  (1) 
2

>  <i_i_glide_confnum>  (1) 
1011

>  <i_i_glide_lignum>  (1) 
51

>  <i_i_glide_posenum>  (1) 
22

>  <i_i_glide_rotatable_bonds>  (1) 
16

>  <i_lp_mmshare_version>  (1) 
72125

>  <i_m_source_file_index>  (1) 
20

>  <i_f3d_flags>  (1) 
0

>  <num_sample>  (1) 
100

>  <b_lp_Chiralities_Consistent>  (1) 
1

>  <r_epik_Charging_Adjusted_Penalty>  (1) 
0.015037487925518506

>  <r_epik_Ionization_Penalty>  (1) 
0.015045499532085388

>  <r_epik_Ionization_Penalty_Charging>  (1) 
0.0012943130925640431

>  <r_epik_Ionization_Penalty_Neutral>  (1) 
0.013751186439521345

>  <r_epik_State_Penalty>  (1) 
0.013743174832954463

>  <r_glide_ring_energy>  (1) 
0

>  <r_i_docking_score>  (1) 
-7.3811906472900537

>  <r_i_glide_ecoul>  (1) 
-3.4493906790472355

>  <r_i_glide_eff_state_penalty>  (1) 
0.013743174832954463

>  <r_i_glide_einternal>  (1) 
6.381228980434793

>  <r_i_glide_emodel>  (1) 
-62.304241426883067

>  <r_i_glide_emodel_strain>  (1) 
5.5239738365695104

>  <r_i_glide_energy>  (1) 
-41.054872937871295

>  <r_i_glide_erotb>  (1) 
1.1084889849388277

>  <r_i_glide_esite>  (1) 
0

>  <r_i_glide_evdw>  (1) 
-37.605482258824061

>  <r_i_glide_gscore>  (1) 
-7.3949338221230079

>  <r_i_glide_gscore_strain>  (1) 
0.38099345914237759

>  <r_i_glide_hbond>  (1) 
-0.1426580041596536

>  <r_i_glide_ligand_efficiency>  (1) 
-0.23066220772781418

>  <r_i_glide_ligand_efficiency_ln>  (1) 
-1.6528497895861969

>  <r_i_glide_ligand_efficiency_sa>  (1) 
-0.73230686239287923

>  <r_i_glide_lipo>  (1) 
-4.873332632760448

>  <r_i_glide_metal>  (1) 
-0

>  <r_i_glide_rewards>  (1) 
-1.4707429144858235

>  <r_lp_Energy>  (1) 
24.107240999999998

>  <s_epik_cmdline>  (1) 
J2VwaWtfcHl0aG9uJywgJy1waHQnLCAnMS4wJywgJy1waCcsICc3LjQnLCAnLXRuJywgJzgnLCAnLW1hJywgJzUwMCcsICctaW1hZScsICc8aW5maWxlLm1hZT4nLCAnLW9tYWUnLCAnPG91dGZpbGUubWFlPic=

>  <s_epik_input>  (1) 
W0NIM11bQ0BIXTFbQ0gyXVtDSF09W0NIXVtDSF09QzFbQ0gyXVtDQEhdKEMoPU8pW09IXSlbQ0gyXU4oW0NIMl1bQ0gyXVtDSDJdW0NIM10pW0NIMl1bQ0BIXShbT0hdKVtDSDJdW0NASF0oW09IXSlDKFtDSDJdMik9W0NIXVtDSF09W0NIXVtDSF09QzJbT0hd

>  <s_glide_docking_method>  (1) 
confgen

>  <s_i_glide_gridfile>  (1) 
gpcr_5ht2c_6bqh_protein_autoprepared_prepared

>  <s_lp_Force_Field>  (1) 
S-OPLS

>  <s_lp_Variant>  (1) 
DiffSBDD_19_num_sample_100-3

>  <s_m_source_file>  (1) 
generated__ligand_DiffSBDD_2026-05-06_prepared.sdf

>  <GenAI_Model>  (1) 
DiffSBDD

>  <Protein>  (1) 
GPCR_5HT2C

$$$$
DiffSBDD_63_num_sample_100
     RDKit          3D

  0  0  0  0  0  0  0  0  0  0999 V3000
M  V30 BEGIN CTAB
M  V30 COUNTS 67 70 0 0 1
M  V30 BEGIN ATOM
M  V30 1 C 38.605790 32.058683 60.381400 0
M  V30 2 O 37.688725 28.242670 57.065406 0
M  V30 3 C 37.777798 29.497808 56.457551 0 CFG=2
M  V30 4 O 41.067436 28.421308 60.415990 0
M  V30 5 C 38.092589 34.506655 60.929463 0 CFG=1
M  V30 6 C 40.914630 28.243734 59.022679 0
M  V30 7 C 38.714595 28.275546 52.980836 0
M  V30 8 C 38.936098 27.680703 57.469970 0 CFG=1
M  V30 9 F 41.998540 35.412896 66.252444 0
M  V30 10 C 41.096239 35.755532 65.319324 0
M  V30 11 C 40.742486 35.627942 62.826082 0
M  V30 12 S 38.818833 36.178258 61.047911 0
M  V30 13 C 37.044017 34.459577 59.801005 0
M  V30 14 C 37.871654 28.517180 54.242837 0
M  V30 15 N 38.544267 29.397738 55.197451 0
M  V30 16 O 39.066728 29.516007 52.374486 0
M  V30 17 C 41.452460 35.450456 63.955281 0
M  V30 18 C 39.684160 30.442883 53.262218 0
M  V30 19 F 37.465714 37.221603 63.246444 0
M  V30 20 C 38.642765 36.720004 63.658185 0
M  V30 21 C 39.985123 36.359327 65.762028 0
M  V30 22 C 38.350630 30.454297 57.540303 0 CFG=2
M  V30 23 C 39.477757 28.591286 58.591477 0 CFG=2
M  V30 24 C 39.183044 33.443478 60.694372 0
M  V30 25 C 38.826294 30.664470 54.520368 0
M  V30 26 C 38.620937 26.237254 57.904894 0
M  V30 27 C 36.535843 33.031878 59.512843 0
M  V30 28 O 39.551399 29.922027 58.079540 0
M  V30 29 O 38.761972 25.358153 56.809526 0
M  V30 30 F 41.371601 35.241146 61.701740 0
M  V30 31 N 37.684136 32.136295 59.225009 0 CFG=2 CHG=1
M  V30 32 N 39.450891 36.145089 62.672445 0
M  V30 33 C 38.864733 36.821421 64.983583 0
M  V30 34 F 39.899638 36.549802 67.090040 0
M  V30 35 C 37.343979 30.802646 58.663852 0
M  V30 36 H 38.076321 31.656304 61.246615 0
M  V30 37 H 39.428908 31.374965 60.171292 0
M  V30 38 H 36.764883 29.820017 56.204716 0
M  V30 39 H 41.919736 28.075405 60.660944 0
M  V30 40 H 37.568720 34.290982 61.854545 0
M  V30 41 H 41.160219 27.212290 58.784426 0
M  V30 42 H 41.646930 28.854261 58.492643 0
M  V30 43 H 39.610042 27.705275 53.226143 0
M  V30 44 H 38.148348 27.680627 52.262608 0
M  V30 45 H 39.662889 27.653200 56.655924 0
M  V30 46 H 37.466222 34.874604 58.885614 0
M  V30 47 H 36.201744 35.101434 60.059225 0
M  V30 48 H 37.649035 27.553645 54.702695 0
M  V30 49 H 36.916065 28.954322 53.952164 0
M  V30 50 H 42.432924 35.018573 63.823609 0
M  V30 51 H 40.666226 30.075864 53.550314 0
M  V30 52 H 39.842629 31.384615 52.737149 0
M  V30 53 H 38.594787 31.394747 57.053613 0
M  V30 54 H 38.809104 28.530040 59.451435 0
M  V30 55 H 39.830547 33.756789 59.873856 0
M  V30 56 H 39.811875 33.353021 61.578171 0
M  V30 57 H 37.894319 31.166843 54.254808 0
M  V30 58 H 39.387993 31.339322 55.164062 0
M  V30 59 H 37.601360 26.157901 58.278396 0
M  V30 60 H 39.295738 25.899087 58.690455 0
M  V30 61 H 35.867631 33.082229 58.653502 0
M  V30 62 H 35.953520 32.645510 60.350803 0
M  V30 63 H 38.158529 25.630990 56.134654 0
M  V30 64 H 38.079201 37.293007 65.550526 0
M  V30 65 H 36.342144 30.820072 58.255829 0
M  V30 66 H 37.284187 30.048201 59.445955 0
M  V30 67 H 38.179875 32.605123 58.479722 0
M  V30 END ATOM
M  V30 BEGIN BOND
M  V30 1 1 3 2
M  V30 2 1 6 4
M  V30 3 1 8 2
M  V30 4 1 10 9
M  V30 5 1 12 5
M  V30 6 1 13 5
M  V30 7 1 14 7
M  V30 8 1 15 3
M  V30 9 1 15 14
M  V30 10 1 16 7
M  V30 11 1 17 10
M  V30 12 2 17 11
M  V30 13 1 18 16
M  V30 14 1 20 19
M  V30 15 2 21 10
M  V30 16 1 22 3
M  V30 17 1 23 6
M  V30 18 1 23 8
M  V30 19 1 24 1
M  V30 20 1 24 5
M  V30 21 1 25 15
M  V30 22 1 25 18
M  V30 23 1 26 8
M  V30 24 1 27 13
M  V30 25 1 28 22
M  V30 26 1 28 23
M  V30 27 1 29 26
M  V30 28 1 30 11
M  V30 29 1 31 1
M  V30 30 1 31 27
M  V30 31 1 32 11
M  V30 32 1 32 12
M  V30 33 1 32 20
M  V30 34 2 33 20
M  V30 35 1 33 21
M  V30 36 1 34 21
M  V30 37 1 35 22
M  V30 38 1 35 31
M  V30 39 1 36 1
M  V30 40 1 37 1
M  V30 41 1 3 38 CFG=3
M  V30 42 1 39 4
M  V30 43 1 5 40 CFG=1
M  V30 44 1 41 6
M  V30 45 1 42 6
M  V30 46 1 43 7
M  V30 47 1 44 7
M  V30 48 1 8 45 CFG=3
M  V30 49 1 46 13
M  V30 50 1 47 13
M  V30 51 1 48 14
M  V30 52 1 49 14
M  V30 53 1 50 17
M  V30 54 1 51 18
M  V30 55 1 52 18
M  V30 56 1 22 53 CFG=3
M  V30 57 1 23 54 CFG=1
M  V30 58 1 55 24
M  V30 59 1 56 24
M  V30 60 1 57 25
M  V30 61 1 58 25
M  V30 62 1 59 26
M  V30 63 1 60 26
M  V30 64 1 61 27
M  V30 65 1 62 27
M  V30 66 1 63 29
M  V30 67 1 64 33
M  V30 68 1 65 35
M  V30 69 1 66 35
M  V30 70 1 31 67 CFG=3
M  V30 END BOND
M  V30 END CTAB
M  END
>  <i_epik_Tot_Q>  (1) 
1

>  <i_epik_Tot_abs_Q>  (1) 
1

>  <i_i_glide_confnum>  (1) 
341

>  <i_i_glide_lignum>  (1) 
158

>  <i_i_glide_posenum>  (1) 
254

>  <i_i_glide_rotatable_bonds>  (1) 
9

>  <i_lp_mmshare_version>  (1) 
72125

>  <i_m_source_file_index>  (1) 
64

>  <i_f3d_flags>  (1) 
0

>  <num_sample>  (1) 
100

>  <b_lp_Chiralities_Consistent>  (1) 
1

>  <r_epik_Charging_Adjusted_Penalty>  (1) 
0.6833741402111444

>  <r_epik_Ionization_Penalty>  (1) 
0.34168859396029116

>  <r_epik_Ionization_Penalty_Charging>  (1) 
0.34168707010557214

>  <r_epik_Ionization_Penalty_Neutral>  (1) 
1.5238547190056168e-06

>  <r_epik_State_Penalty>  (1) 
0.3416870701055722

>  <r_glide_ring_energy>  (1) 
0.0045149093831275133

>  <r_i_docking_score>  (1) 
-7.3733645992898715

>  <r_i_glide_ecoul>  (1) 
-6.4001081050145903

>  <r_i_glide_eff_state_penalty>  (1) 
0.3416870701055722

>  <r_i_glide_einternal>  (1) 
6.8586331511498635

>  <r_i_glide_emodel>  (1) 
-57.641837596328479

>  <r_i_glide_emodel_strain>  (1) 
0.13877775221438071

>  <r_i_glide_energy>  (1) 
-42.698765300723586

>  <r_i_glide_erotb>  (1) 
0.51979340436673749

>  <r_i_glide_esite>  (1) 
-0.10934552109690716

>  <r_i_glide_evdw>  (1) 
-36.298657195708998

>  <r_i_glide_gscore>  (1) 
-7.7150516693954438

>  <r_i_glide_gscore_strain>  (1) 
0

>  <r_i_glide_hbond>  (1) 
-0.32714137524773867

>  <r_i_glide_ligand_efficiency>  (1) 
-0.21066755997971062

>  <r_i_glide_ligand_efficiency_ln>  (1) 
-1.6186171725545559

>  <r_i_glide_ligand_efficiency_sa>  (1) 
-0.68910755809926549

>  <r_i_glide_lipo>  (1) 
-3.2874830449949557

>  <r_i_glide_metal>  (1) 
-0

>  <r_i_glide_rewards>  (1) 
-1.7359260568849408

>  <r_lp_Energy>  (1) 
44.144219

>  <s_epik_Chemistry_Notes>  (1) 
This compound contains an acetal/aminal-like group ( X-CH(R)-Y where X, Y are N, S, or O) that may be acid/base labile, releasing an aldehyde. This compound has a N-S or N-O group and may undergo hydrolysis at high or low pH.

>  <s_epik_cmdline>  (1) 
J2VwaWtfcHl0aG9uJywgJy1waHQnLCAnMS4wJywgJy1waCcsICc3LjQnLCAnLXRuJywgJzgnLCAnLW1hJywgJzUwMCcsICctaW1hZScsICc8aW5maWxlLm1hZT4nLCAnLW9tYWUnLCAnPG91dGZpbGUubWFlPic=

>  <s_epik_input>  (1) 
RkMxPUMoRilbQ0hdPUMoRilOKEMoRik9W0NIXTEpU1tDSF0yW0NIMl1bQ0gyXU4oW0NIMl1bQ0gyXTIpW0NIMl1bQ0BIXTNPW0NASF0oW0NIMl1bT0hdKVtDQEBIXShbQ0gyXVtPSF0pT1tDQEBIXTNONFtDSDJdW0NIMl1PW0NIMl1bQ0gyXTQ=

>  <s_glide_docking_method>  (1) 
confgen

>  <s_i_glide_gridfile>  (1) 
gpcr_5ht2c_6bqh_protein_autoprepared_prepared

>  <s_lp_Force_Field>  (1) 
S-OPLS

>  <s_lp_Variant>  (1) 
DiffSBDD_63_num_sample_100-1

>  <s_m_source_file>  (1) 
generated__ligand_DiffSBDD_2026-05-06_prepared.sdf

>  <GenAI_Model>  (1) 
DiffSBDD

>  <Protein>  (1) 
GPCR_5HT2C

$$$$
DiffSBDD_13_num_sample_100
     RDKit          3D

  0  0  0  0  0  0  0  0  0  0999 V3000
M  V30 BEGIN CTAB
M  V30 COUNTS 69 72 0 0 1
M  V30 BEGIN ATOM
M  V30 1 C 37.359470 32.319151 60.206493 0 CFG=1
M  V30 2 N 38.065996 24.821498 55.884734 0
M  V30 3 C 40.481773 30.633851 63.931993 0 CFG=2
M  V30 4 C 38.219076 30.509168 58.625997 0
M  V30 5 C 43.732266 30.661532 66.237607 0
M  V30 6 C 37.931491 31.872063 58.859797 0
M  V30 7 C 40.605030 26.758855 57.340833 0
M  V30 8 C 38.648376 35.208394 60.634556 0
M  V30 9 C 39.208962 31.473639 61.814655 0
M  V30 10 O 38.058803 35.621710 61.853492 0
M  V30 11 C 38.667397 32.415338 56.594498 0
M  V30 12 C 38.565528 25.464360 56.706528 0
M  V30 13 C 39.199813 26.282741 57.753869 0 CFG=2
M  V30 14 C 38.728446 30.094570 57.369933 0
M  V30 15 C 36.743538 37.185349 63.102742 0
M  V30 16 O 36.429861 31.391792 60.737557 0
M  V30 17 C 40.532432 28.282858 57.186730 0
M  V30 18 N 44.171291 28.975084 64.843532 0
M  V30 19 C 42.922541 29.489921 64.516203 0
M  V30 20 C 38.406976 27.564889 58.030678 0
M  V30 21 C 38.159979 32.821736 57.841542 0
M  V30 22 C 38.949312 31.058476 56.351994 0
M  V30 23 N 41.020974 29.464511 63.139134 0
M  V30 24 C 39.040653 28.614807 57.106942 0 CFG=1
M  V30 25 C 38.415910 32.698786 61.285259 0 CFG=1
M  V30 26 C 44.849131 27.866755 64.188613 0
M  V30 27 C 42.641085 30.500713 65.339050 0
M  V30 28 C 44.667363 29.709886 65.914104 0
M  V30 29 O 41.001646 32.115648 65.899550 0
M  V30 30 C 39.349196 33.854093 60.833203 0
M  V30 31 C 42.147424 28.959539 63.453500 0
M  V30 32 Cl 39.564675 30.577553 54.807659 0
M  V30 33 C 40.169058 31.807271 62.978120 0
M  V30 34 C 37.413654 36.879782 61.760875 0
M  V30 35 C 41.355354 31.193929 65.166367 0
M  V30 36 H 36.755596 33.203716 60.003258 0
M  V30 37 H 39.531076 30.310075 64.356871 0
M  V30 38 H 38.043225 29.788651 59.406626 0
M  V30 39 H 43.825316 31.389326 67.030279 0
M  V30 40 H 40.902833 26.302137 56.395934 0
M  V30 41 H 41.355404 26.481666 58.081965 0
M  V30 42 H 39.383412 35.948916 60.317807 0
M  V30 43 H 37.891220 35.156342 59.853621 0
M  V30 44 H 38.499649 30.721850 62.162457 0
M  V30 45 H 39.770482 31.003536 61.007020 0
M  V30 46 H 38.834720 33.146879 55.818078 0
M  V30 47 H 39.246583 25.663876 58.650547 0
M  V30 48 H 36.230318 38.146393 63.072817 0
M  V30 49 H 36.007963 36.421507 63.358334 0
M  V30 50 H 37.479468 37.221542 63.906541 0
M  V30 51 H 35.768544 31.251352 60.074054 0
M  V30 52 H 41.084291 28.634318 56.315422 0
M  V30 53 H 40.969400 28.753682 58.068866 0
M  V30 54 H 38.559962 27.805154 59.081724 0
M  V30 55 H 37.336282 27.452158 57.853499 0
M  V30 56 H 37.937207 33.862941 58.014117 0
M  V30 57 H 38.690820 28.377679 56.101201 0
M  V30 58 H 37.851690 33.070971 62.141561 0
M  V30 59 H 45.786222 27.642794 64.699174 0
M  V30 60 H 44.222361 26.975035 64.215715 0
M  V30 61 H 45.068081 28.123637 63.151948 0
M  V30 62 H 45.634622 29.485788 66.341149 0
M  V30 63 H 40.132530 34.020311 61.570832 0
M  V30 64 H 39.867334 33.573846 59.917293 0
M  V30 65 H 42.549311 28.104006 62.906352 0
M  V30 66 H 41.102174 32.202707 62.574518 0
M  V30 67 H 39.731330 32.616011 63.565538 0
M  V30 68 H 38.140277 37.656156 61.517274 0
M  V30 69 H 36.667462 36.866214 60.965592 0
M  V30 END ATOM
M  V30 BEGIN BOND
M  V30 1 1 6 1
M  V30 2 2 6 4
M  V30 3 1 10 8
M  V30 4 3 12 2
M  V30 5 1 13 7
M  V30 6 1 13 12
M  V30 7 1 14 4
M  V30 8 1 16 1
M  V30 9 1 17 7
M  V30 10 1 19 18
M  V30 11 1 20 13
M  V30 12 1 21 6
M  V30 13 2 21 11
M  V30 14 1 22 11
M  V30 15 2 22 14
M  V30 16 1 23 3
M  V30 17 1 24 14
M  V30 18 1 24 17
M  V30 19 1 24 20
M  V30 20 1 25 1
M  V30 21 1 25 9
M  V30 22 1 26 18
M  V30 23 1 27 5
M  V30 24 2 27 19
M  V30 25 2 28 5
M  V30 26 1 28 18
M  V30 27 1 30 8
M  V30 28 1 30 25
M  V30 29 1 31 19
M  V30 30 2 31 23
M  V30 31 1 32 22
M  V30 32 1 33 3
M  V30 33 1 33 9
M  V30 34 1 34 10
M  V30 35 1 34 15
M  V30 36 1 35 3
M  V30 37 1 35 27
M  V30 38 2 35 29
M  V30 39 1 1 36 CFG=3
M  V30 40 1 3 37 CFG=1
M  V30 41 1 38 4
M  V30 42 1 39 5
M  V30 43 1 40 7
M  V30 44 1 41 7
M  V30 45 1 42 8
M  V30 46 1 43 8
M  V30 47 1 44 9
M  V30 48 1 45 9
M  V30 49 1 46 11
M  V30 50 1 13 47 CFG=1
M  V30 51 1 48 15
M  V30 52 1 49 15
M  V30 53 1 50 15
M  V30 54 1 51 16
M  V30 55 1 52 17
M  V30 56 1 53 17
M  V30 57 1 54 20
M  V30 58 1 55 20
M  V30 59 1 56 21
M  V30 60 1 24 57 CFG=3
M  V30 61 1 25 58 CFG=1
M  V30 62 1 59 26
M  V30 63 1 60 26
M  V30 64 1 61 26
M  V30 65 1 62 28
M  V30 66 1 63 30
M  V30 67 1 64 30
M  V30 68 1 65 31
M  V30 69 1 66 33
M  V30 70 1 67 33
M  V30 71 1 68 34
M  V30 72 1 69 34
M  V30 END BOND
M  V30 END CTAB
M  END
>  <i_epik_Tot_Q>  (1) 
0

>  <i_epik_Tot_abs_Q>  (1) 
0

>  <i_i_glide_confnum>  (1) 
523

>  <i_i_glide_lignum>  (1) 
31

>  <i_i_glide_posenum>  (1) 
303

>  <i_i_glide_rotatable_bonds>  (1) 
11

>  <i_lp_mmshare_version>  (1) 
72125

>  <i_m_source_file_index>  (1) 
14

>  <i_f3d_flags>  (1) 
0

>  <num_sample>  (1) 
100

>  <b_lp_Chiralities_Consistent>  (1) 
1

>  <r_epik_Charging_Adjusted_Penalty>  (1) 
0

>  <r_epik_Ionization_Penalty>  (1) 
0.00035140533553461783

>  <r_epik_Ionization_Penalty_Charging>  (1) 
0

>  <r_epik_Ionization_Penalty_Neutral>  (1) 
0.00035140533553461783

>  <r_epik_State_Penalty>  (1) 
-0

>  <r_glide_ring_energy>  (1) 
0

>  <r_i_docking_score>  (1) 
-7.3713350502111945

>  <r_i_glide_ecoul>  (1) 
-4.3056747232256969

>  <r_i_glide_eff_state_penalty>  (1) 
-0

>  <r_i_glide_einternal>  (1) 
7.4551510783297275

>  <r_i_glide_emodel>  (1) 
-77.517897084620259

>  <r_i_glide_emodel_strain>  (1) 
0.41911799958288043

>  <r_i_glide_energy>  (1) 
-56.555937098498653

>  <r_i_glide_erotb>  (1) 
0.74574999833683076

>  <r_i_glide_esite>  (1) 
0

>  <r_i_glide_evdw>  (1) 
-52.250262375272953

>  <r_i_glide_gscore>  (1) 
-7.3713350502111945

>  <r_i_glide_gscore_strain>  (1) 
0

>  <r_i_glide_hbond>  (1) 
-0.073014879871002678

>  <r_i_glide_ligand_efficiency>  (1) 
-0.210609572863177

>  <r_i_glide_ligand_efficiency_ln>  (1) 
-1.6181716414883716

>  <r_i_glide_ligand_efficiency_sa>  (1) 
-0.68891787839594743

>  <r_i_glide_lipo>  (1) 
-3.1993099875723559

>  <r_i_glide_metal>  (1) 
-0

>  <r_i_glide_rewards>  (1) 
-1.586395853857165

>  <r_lp_Energy>  (1) 
44.436326000000001

>  <r_lp_tautomer_probability>  (1) 
1

>  <s_epik_Chemistry_Notes>  (1) 
This compound has an imine and may undergo hydrolysis.

>  <s_epik_cmdline>  (1) 
J2VwaWtfcHl0aG9uJywgJy1waHQnLCAnMS4wJywgJy1waCcsICc3LjQnLCAnLXRuJywgJzgnLCAnLW1hJywgJzUwMCcsICctaW1hZScsICc8aW5maWxlLm1hZT4nLCAnLW9tYWUnLCAnPG91dGZpbGUubWFlPic=

>  <s_epik_input>  (1) 
TiNDW0NASF0xW0NIMl1bQ0gyXVtDQEBIXShbQ0gyXTEpYyhjKENsKVtjSF1bY0hdMilbY0hdYzJbQ0BASF0oW09IXSlbQ0BIXShbQ0gyXVtDSDJdT1tDSDJdW0NIM10pW0NIMl1bQ0gyXVtDQEBIXShOPVtDSF0zKUMoPU8pYyhjMzQpW2NIXVtjSF1uNFtDSDNd

>  <s_glide_docking_method>  (1) 
confgen

>  <s_i_glide_gridfile>  (1) 
gpcr_5ht2c_6bqh_protein_autoprepared_prepared

>  <s_lp_Force_Field>  (1) 
S-OPLS

>  <s_lp_Variant>  (1) 
DiffSBDD_13_num_sample_100-1

>  <s_m_source_file>  (1) 
generated__ligand_DiffSBDD_2026-05-06_prepared.sdf

>  <GenAI_Model>  (1) 
DiffSBDD

>  <Protein>  (1) 
GPCR_5HT2C

$$$$
DiffSBDD_91_num_sample_100
     RDKit          3D

  0  0  0  0  0  0  0  0  0  0999 V3000
M  V30 BEGIN CTAB
M  V30 COUNTS 73 75 0 0 1
M  V30 BEGIN ATOM
M  V30 1 C 43.213695 29.533267 64.307568 0
M  V30 2 C 41.661000 33.742082 64.142740 0 CFG=1
M  V30 3 N 38.022823 30.633169 56.422252 0
M  V30 4 C 39.586623 33.327616 62.162561 0 CFG=2
M  V30 5 O 39.110555 32.992617 60.889605 0
M  V30 6 C 40.953592 34.946794 63.488937 0 CFG=2
M  V30 7 F 43.317575 27.727651 65.873362 0
M  V30 8 C 40.465469 34.597245 62.066579 0 CFG=2
M  V30 9 C 41.453826 31.212361 64.529768 0
M  V30 10 C 39.839220 26.433147 57.903294 0
M  V30 11 C 38.087053 32.094314 60.858515 0
M  V30 12 C 39.019696 29.762224 56.758735 0
M  V30 13 C 37.402581 24.951326 55.888972 0 CFG=1
M  V30 14 O 37.549960 31.590422 61.850017 0
M  V30 15 C 39.594972 26.221716 56.398097 0
M  V30 16 C 39.646210 35.750600 61.452448 0
M  V30 17 S 40.556674 28.062447 58.281219 0
M  V30 18 C 42.585212 30.709099 63.853507 0
M  V30 19 O 41.880627 34.047953 65.508945 0
M  V30 20 O 41.867357 36.021417 63.390487 0
M  V30 21 C 38.934315 24.876466 56.045794 0
M  V30 22 C 37.271213 30.274220 59.218688 0
M  V30 23 C 40.769759 32.478135 64.034555 0 CFG=2
M  V30 24 C 42.713457 28.858416 65.438158 0
M  V30 25 C 41.584451 29.359292 66.115963 0
M  V30 26 N 38.447064 29.412610 59.123197 0
M  V30 27 O 36.932409 23.693480 55.453466 0
M  V30 28 C 40.954339 30.535278 65.663233 0
M  V30 29 C 39.222706 29.195244 57.978754 0
M  V30 30 C 39.797952 29.535690 55.655390 0
M  V30 31 C 37.630766 31.760505 59.434652 0
M  V30 32 C 36.667398 25.306766 57.184645 0
M  V30 33 C 38.033102 31.070338 54.976240 0 CFG=2
M  V30 34 C 39.311586 30.221661 54.645831 0
M  V30 35 C 38.260795 32.569172 54.811415 0
M  V30 36 O 40.375401 32.299070 62.678332 0
M  V30 37 H 44.079150 29.147891 63.787823 0
M  V30 38 H 42.618164 33.568710 63.649281 0
M  V30 39 H 38.738785 33.502024 62.825060 0
M  V30 40 H 40.105315 35.269697 64.092316 0
M  V30 41 H 41.322782 34.371855 61.431759 0
M  V30 42 H 38.924644 26.320100 58.482718 0
M  V30 43 H 40.531895 25.668861 58.253495 0
M  V30 44 H 37.148885 25.680776 55.118014 0
M  V30 45 H 40.557067 26.286092 55.888066 0
M  V30 46 H 38.982809 27.024543 55.992268 0
M  V30 47 H 38.727649 35.928528 62.012472 0
M  V30 48 H 40.214933 36.680835 61.453503 0
M  V30 49 H 39.372589 35.542510 60.417993 0
M  V30 50 H 42.969089 31.224377 62.986353 0
M  V30 51 H 41.047745 34.206778 65.925277 0
M  V30 52 H 41.886147 36.513238 64.204591 0
M  V30 53 H 39.213425 24.112964 56.773356 0
M  V30 54 H 39.347213 24.543995 55.092523 0
M  V30 55 H 36.614023 30.140989 58.360875 0
M  V30 56 H 36.676084 29.922027 60.061065 0
M  V30 57 H 39.867402 32.624809 64.627734 0
M  V30 58 H 41.200763 28.840253 66.982358 0
M  V30 59 H 38.712153 28.931427 59.970818 0
M  V30 60 H 36.006888 23.760605 55.272014 0
M  V30 61 H 40.087157 30.915737 66.183214 0
M  V30 62 H 40.667390 28.897713 55.617086 0
M  V30 63 H 38.393523 32.074475 58.721384 0
M  V30 64 H 36.749403 32.368712 59.228675 0
M  V30 65 H 36.870688 26.334407 57.485979 0
M  V30 66 H 35.590288 25.221441 57.053506 0
M  V30 67 H 36.960963 24.647349 58.001914 0
M  V30 68 H 37.150570 30.710614 54.446843 0
M  V30 69 H 39.737298 30.220660 53.653370 0
M  V30 70 H 38.267381 32.821419 53.753186 0
M  V30 71 H 37.467403 33.142589 55.287242 0
M  V30 72 H 39.206151 32.882857 55.254390 0
M  V30 73 H 37.270008 30.901382 57.048064 0
M  V30 END ATOM
M  V30 BEGIN BOND
M  V30 1 1 5 4
M  V30 2 1 6 2
M  V30 3 1 8 4
M  V30 4 1 8 6
M  V30 5 1 11 5
M  V30 6 1 12 3
M  V30 7 2 14 11
M  V30 8 1 15 10
M  V30 9 1 16 8
M  V30 10 1 17 10
M  V30 11 2 18 1
M  V30 12 1 18 9
M  V30 13 1 19 2
M  V30 14 1 20 6
M  V30 15 1 21 13
M  V30 16 1 21 15
M  V30 17 1 23 2
M  V30 18 1 23 9
M  V30 19 1 24 1
M  V30 20 1 24 7
M  V30 21 2 25 24
M  V30 22 1 26 22
M  V30 23 1 27 13
M  V30 24 2 28 9
M  V30 25 1 28 25
M  V30 26 2 29 12
M  V30 27 1 29 17
M  V30 28 1 29 26
M  V30 29 1 30 12
M  V30 30 1 31 11
M  V30 31 1 31 22
M  V30 32 1 32 13
M  V30 33 1 33 3
M  V30 34 2 34 30
M  V30 35 1 34 33
M  V30 36 1 35 33
M  V30 37 1 36 4
M  V30 38 1 36 23
M  V30 39 1 37 1
M  V30 40 1 2 38 CFG=3
M  V30 41 1 4 39 CFG=1
M  V30 42 1 6 40 CFG=1
M  V30 43 1 8 41 CFG=3
M  V30 44 1 42 10
M  V30 45 1 43 10
M  V30 46 1 13 44 CFG=3
M  V30 47 1 45 15
M  V30 48 1 46 15
M  V30 49 1 47 16
M  V30 50 1 48 16
M  V30 51 1 49 16
M  V30 52 1 50 18
M  V30 53 1 51 19
M  V30 54 1 52 20
M  V30 55 1 53 21
M  V30 56 1 54 21
M  V30 57 1 55 22
M  V30 58 1 56 22
M  V30 59 1 23 57 CFG=1
M  V30 60 1 58 25
M  V30 61 1 59 26
M  V30 62 1 60 27
M  V30 63 1 61 28
M  V30 64 1 62 30
M  V30 65 1 63 31
M  V30 66 1 64 31
M  V30 67 1 65 32
M  V30 68 1 66 32
M  V30 69 1 67 32
M  V30 70 1 33 68 CFG=3
M  V30 71 1 69 34
M  V30 72 1 70 35
M  V30 73 1 71 35
M  V30 74 1 72 35
M  V30 75 1 73 3
M  V30 END BOND
M  V30 END CTAB
M  END
>  <i_epik_Tot_Q>  (1) 
0

>  <i_epik_Tot_abs_Q>  (1) 
0

>  <i_i_glide_confnum>  (1) 
4

>  <i_i_glide_lignum>  (1) 
245

>  <i_i_glide_posenum>  (1) 
234

>  <i_i_glide_rotatable_bonds>  (1) 
15

>  <i_lp_mmshare_version>  (1) 
72125

>  <i_m_source_file_index>  (1) 
92

>  <i_f3d_flags>  (1) 
0

>  <num_sample>  (1) 
100

>  <b_lp_Chiralities_Consistent>  (1) 
1

>  <r_epik_Charging_Adjusted_Penalty>  (1) 
0.41626047813520761

>  <r_epik_Ionization_Penalty>  (1) 
0.0056919315549441929

>  <r_epik_Ionization_Penalty_Charging>  (1) 
0.0055806391826036302

>  <r_epik_Ionization_Penalty_Neutral>  (1) 
0.00011129237234056257

>  <r_epik_State_Penalty>  (1) 
0.41067983895260396

>  <r_glide_ring_energy>  (1) 
0

>  <r_i_docking_score>  (1) 
-7.3709959193313193

>  <r_i_glide_ecoul>  (1) 
-6.9356973012168384

>  <r_i_glide_eff_state_penalty>  (1) 
0.41067983895260396

>  <r_i_glide_einternal>  (1) 
8.3771715548777248

>  <r_i_glide_emodel>  (1) 
-80.853032932863343

>  <r_i_glide_emodel_strain>  (1) 
0.36458119703580394

>  <r_i_glide_energy>  (1) 
-58.253469164558894

>  <r_i_glide_erotb>  (1) 
0.89707811728232589

>  <r_i_glide_esite>  (1) 
-0.086545436881326127

>  <r_i_glide_evdw>  (1) 
-51.317771863342053

>  <r_i_glide_gscore>  (1) 
-7.7816757582839235

>  <r_i_glide_gscore_strain>  (1) 
0

>  <r_i_glide_hbond>  (1) 
-0.51660958311078131

>  <r_i_glide_ligand_efficiency>  (1) 
-0.20474988664809221

>  <r_i_glide_ligand_efficiency_ln>  (1) 
-1.6081521683019662

>  <r_i_glide_ligand_efficiency_sa>  (1) 
-0.67606922993142182

>  <r_i_glide_lipo>  (1) 
-3.9691031084383916

>  <r_i_glide_metal>  (1) 
-0

>  <r_i_glide_rewards>  (1) 
-0.50025255878612074

>  <r_lp_Energy>  (1) 
38.539941999999996

>  <r_lp_tautomer_probability>  (1) 
0.49957765584955821

>  <s_epik_Chemistry_Notes>  (1) 
This compound has an ester and may undergo hydrolysis at high or low pH. This compound has an imine and may undergo hydrolysis. This compound contains an acetal/aminal-like group ( X-CH(R)-Y where X, Y are N, S, or O) that may be acid/base labile, releasing an aldehyde.

>  <s_epik_cmdline>  (1) 
J2VwaWtfcHl0aG9uJywgJy1waHQnLCAnMS4wJywgJy1waCcsICc3LjQnLCAnLXRuJywgJzgnLCAnLW1hJywgJzUwMCcsICctaW1hZScsICc8aW5maWxlLm1hZT4nLCAnLW9tYWUnLCAnPG91dGZpbGUubWFlPic=

>  <s_epik_input>  (1) 
W2NIXTFbY0hdYyhGKVtjSF1bY0hdYzFbQ0BASF0yT1tDQEBIXShbQ0BASF0oW0NIM10pW0NASF0oW09IXSlbQ0BIXTJbT0hdKU9DKD1PKVtDSDJdW0NIMl1bTkhdW0NAQEhdKEMzPU5bQ0BASF0oW0NIM10pW0NIXT1bQ0hdMylTW0NIMl1bQ0gyXVtDSDJdW0NAQEhdKFtPSF0pW0NIM10=

>  <s_glide_docking_method>  (1) 
confgen

>  <s_i_glide_gridfile>  (1) 
gpcr_5ht2c_6bqh_protein_autoprepared_prepared

>  <s_lp_Force_Field>  (1) 
S-OPLS

>  <s_lp_Variant>  (1) 
DiffSBDD_91_num_sample_100-1

>  <s_m_source_file>  (1) 
generated__ligand_DiffSBDD_2026-05-06_prepared.sdf

>  <GenAI_Model>  (1) 
DiffSBDD

>  <Protein>  (1) 
GPCR_5HT2C

$$$$
DiffSBDD_85_num_sample_100
     RDKit          3D

  0  0  0  0  0  0  0  0  0  0999 V3000
M  V30 BEGIN CTAB
M  V30 COUNTS 83 87 0 0 1
M  V30 BEGIN ATOM
M  V30 1 C 37.614338 37.621415 62.410492 0
M  V30 2 N 38.637348 29.770204 54.769137 0 CHG=1
M  V30 3 C 38.650682 27.649026 51.596669 0
M  V30 4 Cl 37.002564 35.021590 59.453593 0
M  V30 5 C 39.459901 35.907049 62.764661 0 CFG=1
M  V30 6 C 38.803102 26.883806 58.250471 0
M  V30 7 C 39.125734 29.131109 53.534787 0
M  V30 8 C 39.389574 28.631645 50.676196 0
M  V30 9 O 40.022801 32.823337 63.186600 0
M  V30 10 S 38.667464 30.421456 61.326394 0
M  V30 11 C 40.455084 29.460074 51.406338 0
M  V30 12 O 41.800362 32.965875 61.853303 0 CHG=-1
M  V30 13 C 38.023838 28.390929 52.779092 0
M  V30 14 C 37.981185 32.008842 60.757901 0 CFG=1
M  V30 15 C 36.635186 30.203155 59.749541 0 CFG=2
M  V30 16 C 38.943386 29.415643 58.707557 0 CFG=1
M  V30 17 C 38.463515 36.873157 63.433368 0
M  V30 18 N 39.570590 29.555556 55.868020 0
M  V30 19 C 38.769470 34.976807 61.705392 0 CFG=2
M  V30 20 C 40.326224 26.858232 58.161478 0 CFG=1
M  V30 21 C 39.877339 30.140337 52.658945 0
M  V30 22 C 40.691570 36.667847 62.237528 0
M  V30 23 C 39.333735 28.230895 56.421835 0 CFG=2
M  V30 24 C 40.452805 29.229141 59.068669 0
M  V30 25 C 38.500050 28.286822 57.706168 0 CFG=1
M  V30 26 C 36.949987 36.704740 61.418179 0
M  V30 27 C 40.599866 33.176236 62.135073 0
M  V30 28 C 39.754249 33.930629 61.083640 0 CFG=1
M  V30 29 C 40.608808 27.432501 56.761018 0
M  V30 30 O 35.867809 29.784847 58.653477 0
M  V30 31 C 39.106558 32.876217 60.155660 0
M  V30 32 C 36.851567 31.709503 59.744395 0 CFG=1
M  V30 33 C 37.979045 35.861060 60.683464 0 CFG=2
M  V30 34 C 40.872213 27.768213 59.278144 0
M  V30 35 C 37.994180 29.493666 59.934241 0 CFG=1
M  V30 36 O 35.641909 32.331766 60.149705 0
M  V30 37 H 36.835134 38.188202 62.920847 0
M  V30 38 H 38.228698 38.329502 61.853409 0
M  V30 39 H 37.762665 29.358336 55.062525 0
M  V30 40 H 39.340531 26.880686 51.949915 0
M  V30 41 H 37.867911 27.126187 51.053378 0
M  V30 42 H 39.830821 35.297758 63.586673 0
M  V30 43 H 38.376825 26.118456 57.600643 0
M  V30 44 H 38.428194 26.687332 59.251066 0
M  V30 45 H 39.829784 28.344791 53.804686 0
M  V30 46 H 39.846833 28.091294 49.853525 0
M  V30 47 H 38.667415 29.318754 50.253532 0
M  V30 48 H 41.282344 28.807182 51.675250 0
M  V30 49 H 40.871452 30.210595 50.732824 0
M  V30 50 H 37.522328 27.676036 53.433247 0
M  V30 51 H 37.267787 29.082631 52.423281 0
M  V30 52 H 37.556458 32.471030 61.645436 0
M  V30 53 H 36.043254 30.021424 60.638277 0
M  V30 54 H 38.860826 30.384513 58.215663 0
M  V30 55 H 37.790385 36.348703 64.104363 0
M  V30 56 H 38.998228 37.578860 64.072644 0
M  V30 57 H 40.437124 29.553535 55.348444 0
M  V30 58 H 38.023929 34.416944 62.253355 0
M  V30 59 H 40.716022 25.843615 58.253411 0
M  V30 60 H 39.232032 30.965419 52.382305 0
M  V30 61 H 40.667421 30.606604 53.239170 0
M  V30 62 H 40.435894 37.377591 61.453600 0
M  V30 63 H 41.154210 37.221323 63.053205 0
M  V30 64 H 41.461665 36.000572 61.848886 0
M  V30 65 H 38.783445 27.611923 55.711252 0
M  V30 66 H 41.050742 29.621361 58.253568 0
M  V30 67 H 40.781077 29.826317 59.916238 0
M  V30 68 H 37.448017 28.370799 57.447548 0
M  V30 69 H 36.267440 36.045436 61.951130 0
M  V30 70 H 36.364026 37.296369 60.712240 0
M  V30 71 H 40.451348 34.501724 60.475741 0
M  V30 72 H 41.524747 28.025965 56.733535 0
M  V30 73 H 40.740156 26.624264 56.040397 0
M  V30 74 H 35.607544 30.559941 58.147718 0
M  V30 75 H 39.867400 32.177990 59.853493 0
M  V30 76 H 38.838728 33.328916 59.206019 0
M  V30 77 H 37.105633 32.046513 58.738450 0
M  V30 78 H 38.667334 36.491763 60.131466 0
M  V30 79 H 41.960066 27.697296 59.324135 0
M  V30 80 H 40.496057 27.441394 60.247614 0
M  V30 81 H 37.867453 28.470039 60.253513 0
M  V30 82 H 35.403098 32.021510 61.007757 0
M  V30 83 H 38.526577 30.769879 54.657263 0
M  V30 END ATOM
M  V30 BEGIN BOND
M  V30 1 1 7 2
M  V30 2 1 8 3
M  V30 3 1 11 8
M  V30 4 1 13 3
M  V30 5 1 13 7
M  V30 6 1 14 10
M  V30 7 1 17 1
M  V30 8 1 17 5
M  V30 9 1 18 2
M  V30 10 1 19 5
M  V30 11 1 20 6
M  V30 12 1 21 7
M  V30 13 1 21 11
M  V30 14 1 22 5
M  V30 15 1 23 18
M  V30 16 1 24 16
M  V30 17 1 25 6
M  V30 18 1 25 16
M  V30 19 1 25 23
M  V30 20 1 26 1
M  V30 21 2 27 9
M  V30 22 1 27 12
M  V30 23 1 28 19
M  V30 24 1 28 27
M  V30 25 1 29 20
M  V30 26 1 29 23
M  V30 27 1 30 15
M  V30 28 1 31 14
M  V30 29 1 31 28
M  V30 30 1 32 14
M  V30 31 1 32 15
M  V30 32 1 33 4
M  V30 33 1 33 19
M  V30 34 1 33 26
M  V30 35 1 34 20
M  V30 36 1 34 24
M  V30 37 1 35 10
M  V30 38 1 35 15
M  V30 39 1 35 16
M  V30 40 1 36 32
M  V30 41 1 37 1
M  V30 42 1 38 1
M  V30 43 1 39 2
M  V30 44 1 40 3
M  V30 45 1 41 3
M  V30 46 1 5 42 CFG=1
M  V30 47 1 43 6
M  V30 48 1 44 6
M  V30 49 1 45 7
M  V30 50 1 46 8
M  V30 51 1 47 8
M  V30 52 1 48 11
M  V30 53 1 49 11
M  V30 54 1 50 13
M  V30 55 1 51 13
M  V30 56 1 14 52 CFG=1
M  V30 57 1 15 53 CFG=1
M  V30 58 1 16 54 CFG=3
M  V30 59 1 55 17
M  V30 60 1 56 17
M  V30 61 1 57 18
M  V30 62 1 19 58 CFG=1
M  V30 63 1 20 59 CFG=3
M  V30 64 1 60 21
M  V30 65 1 61 21
M  V30 66 1 62 22
M  V30 67 1 63 22
M  V30 68 1 64 22
M  V30 69 1 23 65 CFG=3
M  V30 70 1 66 24
M  V30 71 1 67 24
M  V30 72 1 25 68 CFG=3
M  V30 73 1 69 26
M  V30 74 1 70 26
M  V30 75 1 28 71 CFG=3
M  V30 76 1 72 29
M  V30 77 1 73 29
M  V30 78 1 74 30
M  V30 79 1 75 31
M  V30 80 1 76 31
M  V30 81 1 32 77 CFG=3
M  V30 82 1 33 78 CFG=3
M  V30 83 1 79 34
M  V30 84 1 80 34
M  V30 85 1 35 81 CFG=1
M  V30 86 1 82 36
M  V30 87 1 83 2
M  V30 END BOND
M  V30 END CTAB
M  END
>  <i_epik_Tot_Q>  (1) 
0

>  <i_epik_Tot_abs_Q>  (1) 
2

>  <i_i_glide_confnum>  (1) 
311

>  <i_i_glide_lignum>  (1) 
223

>  <i_i_glide_posenum>  (1) 
70

>  <i_i_glide_rotatable_bonds>  (1) 
10

>  <i_lp_mmshare_version>  (1) 
72125

>  <i_m_source_file_index>  (1) 
86

>  <i_f3d_flags>  (1) 
0

>  <num_sample>  (1) 
100

>  <b_lp_Chiralities_Consistent>  (1) 
1

>  <r_epik_Charging_Adjusted_Penalty>  (1) 
0.73371446279801333

>  <r_epik_Ionization_Penalty>  (1) 
0.028997413797582132

>  <r_epik_Ionization_Penalty_Charging>  (1) 
0.028997299906531444

>  <r_epik_Ionization_Penalty_Neutral>  (1) 
1.138910506862436e-07

>  <r_epik_State_Penalty>  (1) 
0.7047171628914819

>  <r_glide_ring_energy>  (1) 
0.097685505105199105

>  <r_i_docking_score>  (1) 
-7.3704973872611639

>  <r_i_glide_ecoul>  (1) 
-2.4882186956892434

>  <r_i_glide_eff_state_penalty>  (1) 
0.7047171628914819

>  <r_i_glide_einternal>  (1) 
20.722389022504004

>  <r_i_glide_emodel>  (1) 
-46.468387263270579

>  <r_i_glide_emodel_strain>  (1) 
1.8635477076763891

>  <r_i_glide_energy>  (1) 
-39.337712552716958

>  <r_i_glide_erotb>  (1) 
0.49083612240102314

>  <r_i_glide_esite>  (1) 
0

>  <r_i_glide_evdw>  (1) 
-36.849493857027717

>  <r_i_glide_gscore>  (1) 
-8.075214550152646

>  <r_i_glide_gscore_strain>  (1) 
0

>  <r_i_glide_hbond>  (1) 
-0.16

>  <r_i_glide_ligand_efficiency>  (1) 
-0.20473603853503233

>  <r_i_glide_ligand_efficiency_ln>  (1) 
-1.6080434020730383

>  <r_i_glide_ligand_efficiency_sa>  (1) 
-0.67602350446956372

>  <r_i_glide_lipo>  (1) 
-5.2692987309213875

>  <r_i_glide_metal>  (1) 
-0

>  <r_i_glide_rewards>  (1) 
-0.92104444442750899

>  <r_lp_Energy>  (1) 
63.234845

>  <s_epik_cmdline>  (1) 
J2VwaWtfcHl0aG9uJywgJy1waHQnLCAnMS4wJywgJy1waCcsICc3LjQnLCAnLXRuJywgJzgnLCAnLW1hJywgJzUwMCcsICctaW1hZScsICc8aW5maWxlLm1hZT4nLCAnLW9tYWUnLCAnPG91dGZpbGUubWFlPic=

>  <s_epik_input>  (1) 
W0NIM11bQ0BIXTFbQ0gyXVtDSDJdW0NIMl1bQ0BIXShDbClbQ0BIXTFbQ0BASF0oQyg9TylbT0hdKVtDSDJdW0NAQEhdMlNbQ0BASF0oW0NAQEhdKFtPSF0pW0NASF0yW09IXSlbQ0BASF0oW0NIMl1bQ0gyXTMpW0NASF0oW0NIMl1bQ0BIXTM0KVtDQEhdKFtDSDJdNClbTkhdW05IXVtDSF01W0NIMl1bQ0gyXVtDSDJdW0NIMl1bQ0gyXTU=

>  <s_glide_docking_method>  (1) 
confgen

>  <s_i_glide_gridfile>  (1) 
gpcr_5ht2c_6bqh_protein_autoprepared_prepared

>  <s_lp_Force_Field>  (1) 
S-OPLS

>  <s_lp_Variant>  (1) 
DiffSBDD_85_num_sample_100-4

>  <s_m_source_file>  (1) 
generated__ligand_DiffSBDD_2026-05-06_prepared.sdf

>  <GenAI_Model>  (1) 
DiffSBDD

>  <Protein>  (1) 
GPCR_5HT2C

$$$$
DiffSBDD_0_num_sample_100
     RDKit          3D

  0  0  0  0  0  0  0  0  0  0999 V3000
M  V30 BEGIN CTAB
M  V30 COUNTS 60 62 0 0 1
M  V30 BEGIN ATOM
M  V30 1 C 39.083854 29.551381 60.468408 0
M  V30 2 C 38.950535 29.392414 56.394112 0 CFG=1
M  V30 3 C 40.360894 33.049930 61.744581 0
M  V30 4 C 37.960235 33.949340 58.965433 0
M  V30 5 C 40.340922 28.963446 60.829743 0
M  V30 6 C 40.236351 27.637946 58.615988 0
M  V30 7 C 39.121970 35.140332 61.493595 0
M  V30 8 C 41.219177 33.670730 62.671998 0
M  V30 9 C 39.309264 33.779889 61.152423 0
M  V30 10 C 38.647131 27.691692 54.572582 0 CFG=2
M  V30 11 N 37.867403 31.741788 56.210989 0 CHG=1
M  V30 12 C 38.813229 32.358912 57.156742 0
M  V30 13 C 38.154296 33.629504 57.665505 0
M  V30 14 C 41.032801 35.024642 63.010961 0
M  V30 15 F 39.806175 37.063417 62.746620 0
M  V30 16 C 39.985285 35.760588 62.421154 0
M  V30 17 C 38.378538 33.092998 60.154706 0 CFG=1
M  V30 18 C 40.905309 28.064433 59.975643 0
M  V30 19 N 36.275470 32.115757 61.396446 0
M  V30 20 C 38.229698 30.474675 55.543633 0
M  V30 21 C 38.447463 29.105405 59.405424 0
M  V30 22 C 38.097328 28.605138 57.427723 0 CFG=1
M  V30 23 N 39.555761 28.437877 55.453495 0
M  V30 24 O 41.867125 35.621497 63.912084 0
M  V30 25 C 39.097548 26.220231 54.515111 0
M  V30 26 C 38.647542 28.279193 53.146649 0
M  V30 27 C 39.087679 25.485889 55.858920 0
M  V30 28 N 38.825913 28.079104 58.613977 0
M  V30 29 S 37.041097 29.621437 58.591844 0
M  V30 30 C 37.197859 32.550516 60.848607 0
M  V30 31 Cl 41.135380 29.409536 62.293051 0
M  V30 32 H 38.688770 30.378198 61.035210 0
M  V30 33 H 39.787875 29.870216 56.900993 0
M  V30 34 H 40.508515 32.012861 61.488321 0
M  V30 35 H 37.470383 34.882516 59.202184 0
M  V30 36 H 40.812423 28.045990 57.787420 0
M  V30 37 H 40.266831 26.550919 58.552191 0
M  V30 38 H 38.319162 35.706865 61.048871 0
M  V30 39 H 42.022022 33.106948 63.124552 0
M  V30 40 H 37.625241 27.714526 54.948708 0
M  V30 41 H 36.951345 31.621402 56.662664 0
M  V30 42 H 39.735173 32.616557 56.634202 0
M  V30 43 H 39.067350 31.653481 57.937221 0
M  V30 44 H 37.819255 34.321289 56.906424 0
M  V30 45 H 38.924316 32.223668 59.815747 0
M  V30 46 H 41.859472 27.621452 60.213678 0
M  V30 47 H 37.320069 30.077522 55.091789 0
M  V30 48 H 38.890386 30.770144 54.727868 0
M  V30 49 H 37.467727 27.825185 57.005152 0
M  V30 50 H 40.080803 27.761726 55.990817 0
M  V30 51 H 41.680856 36.541386 64.071130 0
M  V30 52 H 38.412762 25.691157 53.853728 0
M  V30 53 H 40.087886 26.137255 54.064002 0
M  V30 54 H 38.010380 27.684957 52.489697 0
M  V30 55 H 38.268213 29.297376 53.103666 0
M  V30 56 H 39.644713 28.279783 52.706715 0
M  V30 57 H 39.258970 24.421281 55.712255 0
M  V30 58 H 39.880738 25.845775 56.508285 0
M  V30 59 H 38.133990 25.599767 56.374335 0
M  V30 60 H 37.681235 32.416391 55.481746 0
M  V30 END ATOM
M  V30 BEGIN BOND
M  V30 1 1 5 1
M  V30 2 2 8 3
M  V30 3 1 9 3
M  V30 4 2 9 7
M  V30 5 1 12 11
M  V30 6 2 13 4
M  V30 7 1 13 12
M  V30 8 1 14 8
M  V30 9 1 16 7
M  V30 10 2 16 14
M  V30 11 1 16 15
M  V30 12 1 17 4
M  V30 13 1 17 9
M  V30 14 2 18 5
M  V30 15 1 18 6
M  V30 16 1 20 2
M  V30 17 1 20 11
M  V30 18 2 21 1
M  V30 19 1 22 2
M  V30 20 1 23 2
M  V30 21 1 23 10
M  V30 22 1 24 14
M  V30 23 1 25 10
M  V30 24 1 26 10
M  V30 25 1 27 25
M  V30 26 1 28 6
M  V30 27 1 28 21
M  V30 28 1 28 22
M  V30 29 1 29 21
M  V30 30 1 29 22
M  V30 31 1 30 17
M  V30 32 3 30 19
M  V30 33 1 31 5
M  V30 34 1 32 1
M  V30 35 1 2 33 CFG=1
M  V30 36 1 34 3
M  V30 37 1 35 4
M  V30 38 1 36 6
M  V30 39 1 37 6
M  V30 40 1 38 7
M  V30 41 1 39 8
M  V30 42 1 10 40 CFG=1
M  V30 43 1 41 11
M  V30 44 1 42 12
M  V30 45 1 43 12
M  V30 46 1 44 13
M  V30 47 1 17 45 CFG=3
M  V30 48 1 46 18
M  V30 49 1 47 20
M  V30 50 1 48 20
M  V30 51 1 22 49 CFG=3
M  V30 52 1 50 23
M  V30 53 1 51 24
M  V30 54 1 52 25
M  V30 55 1 53 25
M  V30 56 1 54 26
M  V30 57 1 55 26
M  V30 58 1 56 26
M  V30 59 1 57 27
M  V30 60 1 58 27
M  V30 61 1 59 27
M  V30 62 1 60 11
M  V30 END BOND
M  V30 END CTAB
M  END
>  <i_epik_Tot_Q>  (1) 
1

>  <i_epik_Tot_abs_Q>  (1) 
1

>  <i_i_glide_confnum>  (1) 
390

>  <i_i_glide_lignum>  (1) 
6

>  <i_i_glide_posenum>  (1) 
378

>  <i_i_glide_rotatable_bonds>  (1) 
11

>  <i_lp_mmshare_version>  (1) 
72125

>  <i_m_source_file_index>  (1) 
1

>  <i_f3d_flags>  (1) 
0

>  <num_sample>  (1) 
100

>  <b_lp_Chiralities_Consistent>  (1) 
1

>  <r_epik_Charging_Adjusted_Penalty>  (1) 
1.8065071523224812

>  <r_epik_Ionization_Penalty>  (1) 
0.92614417087394063

>  <r_epik_Ionization_Penalty_Charging>  (1) 
0.760298405215594

>  <r_epik_Ionization_Penalty_Neutral>  (1) 
0.16584576565834661

>  <r_epik_State_Penalty>  (1) 
1.0462087471068873

>  <r_glide_ring_energy>  (1) 
0

>  <r_i_docking_score>  (1) 
-7.369765605591204

>  <r_i_glide_ecoul>  (1) 
-11.399300452740693

>  <r_i_glide_eff_state_penalty>  (1) 
1.0462087471068873

>  <r_i_glide_einternal>  (1) 
8.4464874471258806

>  <r_i_glide_emodel>  (1) 
-82.330729187311462

>  <r_i_glide_emodel_strain>  (1) 
1.5365105984225096

>  <r_i_glide_energy>  (1) 
-54.402717059971039

>  <r_i_glide_erotb>  (1) 
0.74887478347211667

>  <r_i_glide_esite>  (1) 
-0.10000000000000001

>  <r_i_glide_evdw>  (1) 
-43.003416607230342

>  <r_i_glide_gscore>  (1) 
-8.4159743526980915

>  <r_i_glide_gscore_strain>  (1) 
0

>  <r_i_glide_hbond>  (1) 
-0.71434732992262129

>  <r_i_glide_ligand_efficiency>  (1) 
-0.23773437437390982

>  <r_i_glide_ligand_efficiency_ln>  (1) 
-1.6621080002523252

>  <r_i_glide_ligand_efficiency_sa>  (1) 
-0.74681416406657253

>  <r_i_glide_lipo>  (1) 
-3.3552296936728698

>  <r_i_glide_metal>  (1) 
-0

>  <r_i_glide_rewards>  (1) 
-1.1352062143020967

>  <r_lp_Energy>  (1) 
39.043923999999997

>  <s_epik_Chemistry_Notes>  (1) 
This compound contains an acetal/aminal-like group ( X-CH(R)-Y where X, Y are N, S, or O) that may be acid/base labile, releasing an aldehyde.

>  <s_epik_cmdline>  (1) 
J2VwaWtfcHl0aG9uJywgJy1waHQnLCAnMS4wJywgJy1waCcsICc3LjQnLCAnLXRuJywgJzgnLCAnLW1hJywgJzUwMCcsICctaW1hZScsICc8aW5maWxlLm1hZT4nLCAnLW9tYWUnLCAnPG91dGZpbGUubWFlPic=

>  <s_epik_input>  (1) 
W0NIXT0xQyhDbCk9W0NIXVtDSDJdTihDMTIpW0NAQEhdKFMyKVtDQEBIXShbTkhdW0NAQEhdKFtDSDNdKVtDSDJdW0NIM10pW0NIMl1bTkhdW0NIMl0vW0NIXT1bQ0hdXFtDQEhdKEMjTiljM1tjSF1bY0hdYyhbT0hdKWMoRilbY0hdMw==

>  <s_glide_docking_method>  (1) 
confgen

>  <s_i_glide_gridfile>  (1) 
gpcr_5ht2c_6bqh_protein_autoprepared_prepared

>  <s_lp_Force_Field>  (1) 
S-OPLS

>  <s_lp_Variant>  (1) 
DiffSBDD_0_num_sample_100-6

>  <s_m_source_file>  (1) 
generated__ligand_DiffSBDD_2026-05-06_prepared.sdf

>  <GenAI_Model>  (1) 
DiffSBDD

>  <Protein>  (1) 
GPCR_5HT2C

$$$$
DiffSBDD_53_num_sample_100
     RDKit          3D

  0  0  0  0  0  0  0  0  0  0999 V3000
M  V30 BEGIN CTAB
M  V30 COUNTS 69 72 0 0 1
M  V30 BEGIN ATOM
M  V30 1 C 40.187278 29.371580 59.500862 0
M  V30 2 C 39.197117 33.683379 61.466148 0
M  V30 3 C 39.972854 30.828453 61.622514 0
M  V30 4 O 37.435538 32.835778 58.253533 0
M  V30 5 N 37.135492 34.898850 60.640483 0 CFG=2 CHG=1
M  V30 6 C 38.717417 28.694463 52.526455 0
M  V30 7 C 40.061298 30.846360 52.005272 0
M  V30 8 N 38.393360 27.776401 53.608426 0
M  V30 9 C 39.163977 26.729273 53.932754 0
M  V30 10 C 41.060023 28.645381 61.792207 0
M  V30 11 C 39.682629 26.044400 56.329888 0 CFG=1
M  V30 12 C 36.463425 35.426380 59.459152 0
M  V30 13 C 38.605130 34.719278 60.498659 0
M  V30 14 C 36.136465 34.049023 59.986111 0 CFG=1
M  V30 15 O 39.805312 27.410444 56.774518 0
M  V30 16 C 38.960724 27.679760 57.902071 0 CFG=1
M  V30 17 C 39.134399 25.356470 57.576265 0 CFG=1
M  V30 18 C 38.160687 26.397161 58.044623 0
M  V30 19 C 36.598020 32.718303 59.391196 0 CFG=2
M  V30 20 C 40.410386 29.623233 61.008133 0
M  V30 21 O 40.183948 26.421430 53.318715 0
M  V30 22 C 41.267724 28.860126 63.167528 0
M  V30 23 C 38.655748 30.727560 54.168866 0
M  V30 24 O 39.279806 31.621212 54.782184 0
M  V30 25 S 37.205153 31.579049 60.651033 0
M  V30 26 C 40.831089 30.053743 63.771112 0
M  V30 27 C 39.426277 29.962731 53.070421 0 CFG=1
M  V30 28 C 39.867359 30.714703 50.680199 0
M  V30 29 O 37.467288 30.395039 54.372289 0 CHG=-1
M  V30 30 C 38.719216 25.911047 55.123339 0
M  V30 31 S 39.163535 32.067322 60.664995 0 CHG=1
M  V30 32 C 40.185568 31.038150 63.001374 0
M  V30 33 C 38.508498 23.969748 57.453508 0
M  V30 34 C 39.763461 27.925225 59.206268 0
M  V30 35 H 39.422977 30.016373 59.075726 0
M  V30 36 H 41.107541 29.595181 58.961993 0
M  V30 37 H 38.669855 33.667305 62.419264 0
M  V30 38 H 40.240137 33.929122 61.668161 0
M  V30 39 H 36.915228 32.533899 57.503130 0
M  V30 40 H 39.335365 28.197055 51.776818 0
M  V30 41 H 37.791066 28.966811 52.020958 0
M  V30 42 H 40.707301 31.621435 52.364385 0
M  V30 43 H 37.573997 27.979378 54.164702 0
M  V30 44 H 41.399675 27.728753 61.336516 0
M  V30 45 H 40.666450 25.656347 56.060737 0
M  V30 46 H 35.867381 36.288868 59.745947 0
M  V30 47 H 37.130649 35.543330 58.610638 0
M  V30 48 H 39.060175 35.691941 60.691355 0
M  V30 49 H 38.893559 34.447331 59.483565 0
M  V30 50 H 35.270961 33.969415 60.641042 0
M  V30 51 H 38.292094 28.515568 57.693123 0
M  V30 52 H 39.948691 25.280525 58.296892 0
M  V30 53 H 37.867408 26.192483 59.053499 0
M  V30 54 H 37.251644 26.422373 57.445997 0
M  V30 55 H 35.681189 32.240066 59.053507 0
M  V30 56 H 41.763470 28.105115 63.760773 0
M  V30 57 H 40.990975 30.213000 64.827755 0
M  V30 58 H 40.267573 29.621438 53.647862 0
M  V30 59 H 40.354069 31.379104 49.980895 0
M  V30 60 H 39.223726 29.946708 50.279105 0
M  V30 61 H 38.689921 24.874741 54.788126 0
M  V30 62 H 37.693214 26.179570 55.369939 0
M  V30 63 H 39.853881 31.951002 63.471198 0
M  V30 64 H 37.883286 23.846948 56.571407 0
M  V30 65 H 39.300254 23.221511 57.453555 0
M  V30 66 H 37.867434 23.746949 58.308102 0
M  V30 67 H 40.628253 27.263731 59.248308 0
M  V30 68 H 39.122010 27.634581 60.039239 0
M  V30 69 H 36.806797 35.338139 61.488624 0
M  V30 END ATOM
M  V30 BEGIN BOND
M  V30 1 1 8 6
M  V30 2 1 9 8
M  V30 3 1 12 5
M  V30 4 1 13 2
M  V30 5 1 13 5
M  V30 6 1 14 5
M  V30 7 1 14 12
M  V30 8 1 15 11
M  V30 9 1 16 15
M  V30 10 1 17 11
M  V30 11 1 18 16
M  V30 12 1 18 17
M  V30 13 1 19 4
M  V30 14 1 19 14
M  V30 15 1 20 1
M  V30 16 1 20 3
M  V30 17 2 20 10
M  V30 18 2 21 9
M  V30 19 1 22 10
M  V30 20 2 24 23
M  V30 21 1 25 19
M  V30 22 2 26 22
M  V30 23 1 27 6
M  V30 24 1 27 7
M  V30 25 1 27 23
M  V30 26 2 28 7
M  V30 27 1 29 23
M  V30 28 1 30 9
M  V30 29 1 30 11
M  V30 30 1 31 2
M  V30 31 1 31 3 CFG=1
M  V30 32 1 31 25
M  V30 33 2 32 3
M  V30 34 1 32 26
M  V30 35 1 33 17
M  V30 36 1 34 1
M  V30 37 1 34 16
M  V30 38 1 35 1
M  V30 39 1 36 1
M  V30 40 1 37 2
M  V30 41 1 38 2
M  V30 42 1 39 4
M  V30 43 1 40 6
M  V30 44 1 41 6
M  V30 45 1 42 7
M  V30 46 1 43 8
M  V30 47 1 44 10
M  V30 48 1 11 45 CFG=3
M  V30 49 1 46 12
M  V30 50 1 47 12
M  V30 51 1 48 13
M  V30 52 1 49 13
M  V30 53 1 14 50 CFG=1
M  V30 54 1 16 51 CFG=3
M  V30 55 1 17 52 CFG=1
M  V30 56 1 53 18
M  V30 57 1 54 18
M  V30 58 1 19 55 CFG=3
M  V30 59 1 56 22
M  V30 60 1 57 26
M  V30 61 1 27 58 CFG=1
M  V30 62 1 59 28
M  V30 63 1 60 28
M  V30 64 1 61 30
M  V30 65 1 62 30
M  V30 66 1 63 32
M  V30 67 1 64 33
M  V30 68 1 65 33
M  V30 69 1 66 33
M  V30 70 1 67 34
M  V30 71 1 68 34
M  V30 72 1 5 69 CFG=1
M  V30 END BOND
M  V30 END CTAB
M  END
>  <i_epik_Tot_Q>  (1) 
1

>  <i_epik_Tot_abs_Q>  (1) 
3

>  <i_i_glide_confnum>  (1) 
1874

>  <i_i_glide_lignum>  (1) 
140

>  <i_i_glide_posenum>  (1) 
254

>  <i_i_glide_rotatable_bonds>  (1) 
12

>  <i_lp_mmshare_version>  (1) 
72125

>  <i_m_source_file_index>  (1) 
54

>  <i_f3d_flags>  (1) 
0

>  <num_sample>  (1) 
100

>  <b_lp_Chiralities_Consistent>  (1) 
1

>  <r_epik_Charging_Adjusted_Penalty>  (1) 
0.046453037766825911

>  <r_epik_Ionization_Penalty>  (1) 
0.023481310305084564

>  <r_epik_Ionization_Penalty_Charging>  (1) 
0.023340632071334463

>  <r_epik_Ionization_Penalty_Neutral>  (1) 
0.0001406782337501018

>  <r_epik_State_Penalty>  (1) 
0.023112405695491445

>  <r_glide_ring_energy>  (1) 
0.17236391819081889

>  <r_i_docking_score>  (1) 
-7.361893351310635

>  <r_i_glide_ecoul>  (1) 
-5.864824391153701

>  <r_i_glide_eff_state_penalty>  (1) 
0.023112405695491445

>  <r_i_glide_einternal>  (1) 
11.434172233573575

>  <r_i_glide_emodel>  (1) 
-66.642696515622319

>  <r_i_glide_emodel_strain>  (1) 
3.8508603052034545

>  <r_i_glide_energy>  (1) 
-49.036406672443732

>  <r_i_glide_erotb>  (1) 
0.79410111881252765

>  <r_i_glide_esite>  (1) 
0

>  <r_i_glide_evdw>  (1) 
-43.171582281290029

>  <r_i_glide_gscore>  (1) 
-7.3850057570061267

>  <r_i_glide_gscore_strain>  (1) 
0

>  <r_i_glide_hbond>  (1) 
-0.15200273193116645

>  <r_i_glide_ligand_efficiency>  (1) 
-0.2165262750385481

>  <r_i_glide_ligand_efficiency_ln>  (1) 
-1.6264487354186019

>  <r_i_glide_ligand_efficiency_sa>  (1) 
-0.70146107590153461

>  <r_i_glide_lipo>  (1) 
-3.7770518838470539

>  <r_i_glide_metal>  (1) 
-0

>  <r_i_glide_rewards>  (1) 
-1.2117494873028762

>  <r_lp_Energy>  (1) 
3.4646329999999996

>  <s_epik_Chemistry_Notes>  (1) 
This compound contains an acetal/aminal-like group ( X-CH(R)-Y where X, Y are N, S, or O) that may be acid/base labile, releasing an aldehyde.

>  <s_epik_cmdline>  (1) 
J2VwaWtfcHl0aG9uJywgJy1waHQnLCAnMS4wJywgJy1waCcsICc3LjQnLCAnLXRuJywgJzgnLCAnLW1hJywgJzUwMCcsICctaW1hZScsICc8aW5maWxlLm1hZT4nLCAnLW9tYWUnLCAnPG91dGZpbGUubWFlPic=

>  <s_epik_input>  (1) 
TjEyW0NAQEhdKFtDSDJdMSlbQ0BASF0oW09IXSlTW1MrXShbQ0gyXVtDSDJdMiljM2MoW2NIXVtjSF1bY0hdW2NIXTMpW0NIMl1bQ0gyXVtDQEhdKFtDSDJdW0NASF00W0NIM10pT1tDQEBIXTRbQ0gyXUMoPU8pW05IXVtDSDJdW0NAQEhdKFtDSF09W0NIMl0pQyg9TylbT0hd

>  <s_glide_docking_method>  (1) 
confgen

>  <s_i_glide_gridfile>  (1) 
gpcr_5ht2c_6bqh_protein_autoprepared_prepared

>  <s_lp_Force_Field>  (1) 
S-OPLS

>  <s_lp_Variant>  (1) 
DiffSBDD_53_num_sample_100-1

>  <s_m_source_file>  (1) 
generated__ligand_DiffSBDD_2026-05-06_prepared.sdf

>  <GenAI_Model>  (1) 
DiffSBDD

>  <Protein>  (1) 
GPCR_5HT2C

$$$$
DiffSBDD_39_num_sample_100
     RDKit          3D

  0  0  0  0  0  0  0  0  0  0999 V3000
M  V30 BEGIN CTAB
M  V30 COUNTS 60 63 0 0 1
M  V30 BEGIN ATOM
M  V30 1 C 39.736626 34.879993 62.081734 0
M  V30 2 C 38.088421 30.683884 56.547178 0
M  V30 3 C 36.124027 32.983260 61.051410 0
M  V30 4 C 38.002807 31.417069 57.912471 0
M  V30 5 C 38.850224 33.817904 59.973566 0
M  V30 6 C 40.266911 29.529723 55.844004 0
M  V30 7 N 40.204540 26.111220 57.494625 0
M  V30 8 O 36.612332 31.854801 61.291329 0 CHG=-1
M  V30 9 C 39.835470 28.160447 56.193718 0
M  V30 10 C 37.819858 35.964459 60.990063 0
M  V30 11 O 35.413424 33.620617 61.853370 0
M  V30 12 C 37.801862 36.922749 62.027401 0
M  V30 13 C 38.748769 36.867944 63.069687 0
M  V30 14 N 37.758794 33.600525 59.189257 0
M  V30 15 C 40.834277 35.888073 64.164903 0
M  V30 16 C 35.866138 35.040553 59.510522 0
M  V30 17 C 38.666052 24.234281 57.257837 0
M  V30 18 C 37.943468 32.967717 57.857090 0
M  V30 19 C 41.792376 33.464962 64.614132 0
M  V30 20 C 38.698212 27.575655 55.594276 0
M  V30 21 C 36.367912 33.608160 59.653986 0 CFG=2
M  V30 22 C 37.524613 23.930850 56.218428 0
M  V30 23 O 42.267245 33.518386 63.461073 0 CHG=-1
M  V30 24 C 38.776721 34.901971 61.037233 0
M  V30 25 S 37.067474 25.427575 55.269546 0
M  V30 26 C 38.372264 26.271564 55.961104 0
M  V30 27 O 37.965037 28.245084 54.646234 0 CHG=-1
M  V30 28 C 39.734946 35.865331 63.083762 0
M  V30 29 Cl 42.003631 28.022696 57.851846 0
M  V30 30 C 41.112803 34.725940 65.157772 0
M  V30 31 C 40.582438 27.368064 57.125456 0
M  V30 32 C 39.501549 30.645846 55.969982 0
M  V30 33 C 36.868077 36.134396 59.808253 0
M  V30 34 O 39.867393 33.181719 59.855056 0
M  V30 35 C 39.111439 25.610955 56.889538 0
M  V30 36 O 41.834560 32.474680 65.377069 0
M  V30 37 H 40.485820 34.109290 62.093319 0
M  V30 38 H 37.425372 31.143609 55.817274 0
M  V30 39 H 37.698633 29.684778 56.722195 0
M  V30 40 H 37.093888 31.074505 58.406241 0
M  V30 41 H 38.824495 31.093338 58.551914 0
M  V30 42 H 41.267186 29.620844 55.453460 0
M  V30 43 H 37.078426 37.722226 62.005817 0
M  V30 44 H 38.737891 37.619108 63.842417 0
M  V30 45 H 41.767893 36.131689 63.655935 0
M  V30 46 H 40.635605 36.758235 64.789020 0
M  V30 47 H 35.064915 35.209178 60.181092 0
M  V30 48 H 35.435341 35.189021 58.520687 0
M  V30 49 H 39.477565 23.513103 57.251110 0
M  V30 50 H 38.240044 24.267462 58.254426 0
M  V30 51 H 38.848616 33.351660 57.383203 0
M  V30 52 H 37.127063 33.278958 57.199841 0
M  V30 53 H 35.757068 32.987574 59.000461 0
M  V30 54 H 36.660475 23.471227 56.693054 0
M  V30 55 H 37.865421 23.240030 55.452180 0
M  V30 56 H 41.821731 35.120817 65.887004 0
M  V30 57 H 40.267384 34.454431 65.767871 0
M  V30 58 H 39.910024 31.596626 55.662308 0
M  V30 59 H 36.324414 37.072754 59.925767 0
M  V30 60 H 37.466969 36.287790 58.914356 0
M  V30 END ATOM
M  V30 BEGIN BOND
M  V30 1 1 4 2
M  V30 2 1 8 3
M  V30 3 1 9 6
M  V30 4 2 11 3
M  V30 5 1 12 10
M  V30 6 2 13 12
M  V30 7 1 14 5
M  V30 8 1 18 4
M  V30 9 1 18 14
M  V30 10 2 20 9
M  V30 11 1 21 3
M  V30 12 1 21 14
M  V30 13 1 21 16
M  V30 14 1 22 17
M  V30 15 1 23 19
M  V30 16 1 24 1
M  V30 17 1 24 5
M  V30 18 2 24 10
M  V30 19 1 25 22
M  V30 20 1 26 20
M  V30 21 1 26 25
M  V30 22 1 27 20
M  V30 23 2 28 1
M  V30 24 1 28 13
M  V30 25 1 28 15
M  V30 26 1 30 15
M  V30 27 1 30 19
M  V30 28 2 31 7
M  V30 29 1 31 9
M  V30 30 1 31 29
M  V30 31 1 32 2
M  V30 32 2 32 6
M  V30 33 1 33 10
M  V30 34 1 33 16
M  V30 35 2 34 5
M  V30 36 1 35 7
M  V30 37 1 35 17
M  V30 38 2 35 26
M  V30 39 2 36 19
M  V30 40 1 37 1
M  V30 41 1 38 2
M  V30 42 1 39 2
M  V30 43 1 40 4
M  V30 44 1 41 4
M  V30 45 1 42 6
M  V30 46 1 43 12
M  V30 47 1 44 13
M  V30 48 1 45 15
M  V30 49 1 46 15
M  V30 50 1 47 16
M  V30 51 1 48 16
M  V30 52 1 49 17
M  V30 53 1 50 17
M  V30 54 1 51 18
M  V30 55 1 52 18
M  V30 56 1 21 53 CFG=3
M  V30 57 1 54 22
M  V30 58 1 55 22
M  V30 59 1 56 30
M  V30 60 1 57 30
M  V30 61 1 58 32
M  V30 62 1 59 33
M  V30 63 1 60 33
M  V30 END BOND
M  V30 END CTAB
M  END
>  <i_epik_Tot_Q>  (1) 
-3

>  <i_epik_Tot_abs_Q>  (1) 
3

>  <i_i_glide_confnum>  (1) 
286

>  <i_i_glide_lignum>  (1) 
95

>  <i_i_glide_posenum>  (1) 
342

>  <i_i_glide_rotatable_bonds>  (1) 
9

>  <i_lp_mmshare_version>  (1) 
72125

>  <i_m_source_file_index>  (1) 
40

>  <i_f3d_flags>  (1) 
0

>  <num_sample>  (1) 
100

>  <b_lp_Chiralities_Consistent>  (1) 
1

>  <r_epik_Charging_Adjusted_Penalty>  (1) 
0.2804944600534911

>  <r_epik_Ionization_Penalty>  (1) 
0.1893944324441556

>  <r_epik_Ionization_Penalty_Charging>  (1) 
0.1048911762492778

>  <r_epik_Ionization_Penalty_Neutral>  (1) 
0.084503256194877821

>  <r_epik_State_Penalty>  (1) 
0.17560328380421328

>  <r_glide_ring_energy>  (1) 
0

>  <r_i_docking_score>  (1) 
-7.3577574602342377

>  <r_i_glide_ecoul>  (1) 
-2.8226462775013683

>  <r_i_glide_eff_state_penalty>  (1) 
0.17560328380421328

>  <r_i_glide_einternal>  (1) 
7.2451658770834797

>  <r_i_glide_emodel>  (1) 
-51.616439452815342

>  <r_i_glide_emodel_strain>  (1) 
3.3837861154702438

>  <r_i_glide_energy>  (1) 
-38.581782672942182

>  <r_i_glide_erotb>  (1) 
0.44331424450836554

>  <r_i_glide_esite>  (1) 
-0.027416000281032412

>  <r_i_glide_evdw>  (1) 
-35.759136395440812

>  <r_i_glide_gscore>  (1) 
-7.5333607440384514

>  <r_i_glide_gscore_strain>  (1) 
0

>  <r_i_glide_hbond>  (1) 
-0.12337584174813777

>  <r_i_glide_ligand_efficiency>  (1) 
-0.20438215167317328

>  <r_i_glide_ligand_efficiency_ln>  (1) 
-1.6052638941888149

>  <r_i_glide_ligand_efficiency_sa>  (1) 
-0.67485499579736552

>  <r_i_glide_lipo>  (1) 
-4.2113581279449424

>  <r_i_glide_metal>  (1) 
-0

>  <r_i_glide_rewards>  (1) 
-1.4031712571754587

>  <r_lp_Energy>  (1) 
59.773787999999996

>  <s_epik_cmdline>  (1) 
J2VwaWtfcHl0aG9uJywgJy1waHQnLCAnMS4wJywgJy1waCcsICc3LjQnLCAnLXRuJywgJzgnLCAnLW1hJywgJzUwMCcsICctaW1hZScsICc8aW5maWxlLm1hZT4nLCAnLW9tYWUnLCAnPG91dGZpbGUubWFlPic=

>  <s_epik_input>  (1) 
W09IXUMoPU8pW0NIMl1bQ0gyXWMoW2NIXVtjSF0xKVtjSF1jKGMxMilDKD1PKU4oW0NAQEhdKEMoPU8pW09IXSlbQ0gyXVtDSDJdMilbQ0gyXVtDSDJdW0NIMl0vW0NIXT1bQ0hdXGMoYzNbT0hdKWMoQ2wpbmMoYzM0KVtDSDJdW0NIMl1TNA==

>  <s_glide_docking_method>  (1) 
confgen

>  <s_i_glide_gridfile>  (1) 
gpcr_5ht2c_6bqh_protein_autoprepared_prepared

>  <s_lp_Force_Field>  (1) 
S-OPLS

>  <s_lp_Variant>  (1) 
DiffSBDD_39_num_sample_100-2

>  <s_m_source_file>  (1) 
generated__ligand_DiffSBDD_2026-05-06_prepared.sdf

>  <GenAI_Model>  (1) 
DiffSBDD

>  <Protein>  (1) 
GPCR_5HT2C

$$$$
DiffSBDD_80_num_sample_100
     RDKit          3D

  0  0  0  0  0  0  0  0  0  0999 V3000
M  V30 BEGIN CTAB
M  V30 COUNTS 73 76 0 0 1
M  V30 BEGIN ATOM
M  V30 1 C 39.039582 30.395082 56.743289 0
M  V30 2 C 39.081853 28.552950 60.037938 0
M  V30 3 N 38.678668 29.973785 60.192251 0 CFG=2 CHG=1
M  V30 4 O 37.921153 28.593065 54.737010 0
M  V30 5 O 39.467665 26.228417 58.325523 0
M  V30 6 O 37.909522 30.957142 56.096842 0
M  V30 7 C 37.130419 32.193269 61.240573 0 CFG=2
M  V30 8 C 38.586500 31.980678 61.725161 0 CFG=2
M  V30 9 C 40.253326 30.672504 51.975942 0
M  V30 10 C 38.503466 26.557689 53.864763 0
M  V30 11 O 38.667390 26.983092 50.864088 0
M  V30 12 C 39.175717 28.185347 51.236467 0
M  V30 13 O 41.171645 33.155494 64.160478 0
M  V30 14 C 39.427812 29.977177 52.871173 0
M  V30 15 C 41.062841 32.762096 61.798436 0
M  V30 16 C 39.998642 28.891139 50.350761 0
M  V30 17 O 40.200307 26.021587 55.464070 0
M  V30 18 C 36.908431 31.699380 59.801158 0
M  V30 19 O 41.337359 30.805689 49.853488 0
M  V30 20 C 39.680123 32.925996 61.181690 0
M  V30 21 C 40.536834 30.130599 50.717662 0
M  V30 22 C 39.070467 28.203986 55.473868 0 CFG=1
M  V30 23 C 40.326514 28.401638 59.176943 0 CFG=2
M  V30 24 C 39.048269 28.840565 56.870849 0 CFG=1
M  V30 25 C 38.901376 30.473614 61.575359 0
M  V30 26 C 38.964602 26.688275 55.309591 0 CFG=1
M  V30 27 C 41.183967 33.647414 63.034692 0
M  V30 28 C 40.296534 28.438786 57.658810 0 CFG=2
M  V30 29 C 39.441348 33.851873 60.232454 0
M  V30 30 C 35.301352 33.683825 61.454683 0
M  V30 31 C 40.550545 27.132927 58.365636 0 CFG=2
M  V30 32 C 37.982897 27.956288 53.479431 0 CFG=2
M  V30 33 C 38.882849 28.722641 52.504773 0
M  V30 34 C 37.289781 30.223225 59.703431 0
M  V30 35 O 36.709935 33.525480 61.453916 0
M  V30 36 H 39.145863 30.878303 57.710729 0
M  V30 37 H 39.907891 30.711173 56.165603 0
M  V30 38 H 38.267405 27.980000 59.604747 0
M  V30 39 H 39.272501 28.085654 61.005876 0
M  V30 40 H 39.621388 25.545551 58.961515 0
M  V30 41 H 37.139601 30.992623 56.653751 0
M  V30 42 H 36.517822 31.561074 61.881599 0
M  V30 43 H 38.583065 32.190694 62.793980 0
M  V30 44 H 40.667481 31.621440 52.256681 0
M  V30 45 H 41.448757 30.370520 49.024226 0
M  V30 46 H 37.716463 25.805946 53.794047 0
M  V30 47 H 39.324260 26.246764 53.219947 0
M  V30 48 H 37.911372 26.700393 51.359537 0
M  V30 49 H 39.208817 30.405487 53.835876 0
M  V30 50 H 41.295766 31.732721 62.057309 0
M  V30 51 H 41.819433 33.080101 61.083603 0
M  V30 52 H 40.223527 28.477335 49.391750 0
M  V30 53 H 40.390020 25.976225 56.391274 0
M  V30 54 H 37.478523 32.270843 59.071800 0
M  V30 55 H 35.863040 31.813663 59.511228 0
M  V30 56 H 39.977782 28.549747 54.985018 0
M  V30 57 H 41.217795 28.830812 59.631491 0
M  V30 58 H 38.158221 28.485612 57.384020 0
M  V30 59 H 38.267418 29.919652 62.265604 0
M  V30 60 H 39.916530 30.238722 61.886942 0
M  V30 61 H 38.207966 26.275286 55.977705 0
M  V30 62 H 41.279472 34.716398 62.842660 0
M  V30 63 H 41.199722 28.795266 57.175479 0
M  V30 64 H 40.229821 34.499855 59.880632 0
M  V30 65 H 38.464018 33.978109 59.799669 0
M  V30 66 H 35.067532 34.522166 62.103567 0
M  V30 67 H 34.929134 33.892053 60.451262 0
M  V30 68 H 34.760857 32.824911 61.853384 0
M  V30 69 H 41.536118 26.681090 58.259892 0
M  V30 70 H 36.977636 27.901211 53.058492 0
M  V30 71 H 37.171109 29.911835 58.669928 0
M  V30 72 H 36.572651 29.621593 60.253076 0
M  V30 73 H 39.287874 30.512659 59.594377 0
M  V30 END ATOM
M  V30 BEGIN BOND
M  V30 1 1 3 2
M  V30 2 1 6 1
M  V30 3 1 8 7
M  V30 4 1 12 11
M  V30 5 2 14 9
M  V30 6 1 16 12
M  V30 7 1 18 7
M  V30 8 1 20 8
M  V30 9 1 20 15
M  V30 10 1 21 9
M  V30 11 2 21 16
M  V30 12 1 21 19
M  V30 13 1 22 4
M  V30 14 1 23 2
M  V30 15 1 24 1
M  V30 16 1 24 22
M  V30 17 1 25 3
M  V30 18 1 25 8
M  V30 19 1 26 10
M  V30 20 1 26 17
M  V30 21 1 26 22
M  V30 22 2 27 13
M  V30 23 1 27 15
M  V30 24 1 28 23
M  V30 25 1 28 24
M  V30 26 2 29 20
M  V30 27 1 31 5
M  V30 28 1 31 23
M  V30 29 1 31 28
M  V30 30 1 32 4
M  V30 31 1 32 10
M  V30 32 2 33 12
M  V30 33 1 33 14
M  V30 34 1 33 32
M  V30 35 1 34 3
M  V30 36 1 34 18
M  V30 37 1 35 7
M  V30 38 1 35 30
M  V30 39 1 36 1
M  V30 40 1 37 1
M  V30 41 1 38 2
M  V30 42 1 39 2
M  V30 43 1 40 5
M  V30 44 1 41 6
M  V30 45 1 7 42 CFG=1
M  V30 46 1 8 43 CFG=1
M  V30 47 1 44 9
M  V30 48 1 45 19
M  V30 49 1 46 10
M  V30 50 1 47 10
M  V30 51 1 48 11
M  V30 52 1 49 14
M  V30 53 1 50 15
M  V30 54 1 51 15
M  V30 55 1 52 16
M  V30 56 1 53 17
M  V30 57 1 54 18
M  V30 58 1 55 18
M  V30 59 1 22 56 CFG=3
M  V30 60 1 23 57 CFG=1
M  V30 61 1 24 58 CFG=1
M  V30 62 1 59 25
M  V30 63 1 60 25
M  V30 64 1 26 61 CFG=1
M  V30 65 1 62 27
M  V30 66 1 28 63 CFG=3
M  V30 67 1 64 29
M  V30 68 1 65 29
M  V30 69 1 66 30
M  V30 70 1 67 30
M  V30 71 1 68 30
M  V30 72 1 31 69 CFG=3
M  V30 73 1 32 70 CFG=3
M  V30 74 1 71 34
M  V30 75 1 72 34
M  V30 76 1 3 73 CFG=3
M  V30 END BOND
M  V30 END CTAB
M  END
>  <i_epik_Tot_Q>  (1) 
1

>  <i_epik_Tot_abs_Q>  (1) 
1

>  <i_i_glide_confnum>  (1) 
1386

>  <i_i_glide_lignum>  (1) 
205

>  <i_i_glide_posenum>  (1) 
45

>  <i_i_glide_rotatable_bonds>  (1) 
15

>  <i_lp_mmshare_version>  (1) 
72125

>  <i_m_source_file_index>  (1) 
81

>  <i_f3d_flags>  (1) 
0

>  <num_sample>  (1) 
100

>  <b_lp_Chiralities_Consistent>  (1) 
1

>  <r_epik_Charging_Adjusted_Penalty>  (1) 
0.034071705691259377

>  <r_epik_Ionization_Penalty>  (1) 
0.043305258844254187

>  <r_epik_Ionization_Penalty_Charging>  (1) 
0.034071705691259377

>  <r_epik_Ionization_Penalty_Neutral>  (1) 
0.009233553152994808

>  <r_epik_State_Penalty>  (1) 
-0

>  <r_glide_ring_energy>  (1) 
1.2915064794310691

>  <r_i_docking_score>  (1) 
-7.3504307071777406

>  <r_i_glide_ecoul>  (1) 
-1.5165606369083524

>  <r_i_glide_eff_state_penalty>  (1) 
-0

>  <r_i_glide_einternal>  (1) 
10.571097477943809

>  <r_i_glide_emodel>  (1) 
-60.513047035353779

>  <r_i_glide_emodel_strain>  (1) 
4.1982542126669813

>  <r_i_glide_energy>  (1) 
-46.137519210344536

>  <r_i_glide_erotb>  (1) 
0.67144220787932085

>  <r_i_glide_esite>  (1) 
0

>  <r_i_glide_evdw>  (1) 
-44.620958573436184

>  <r_i_glide_gscore>  (1) 
-7.3504307071777406

>  <r_i_glide_gscore_strain>  (1) 
0.049563553166745322

>  <r_i_glide_hbond>  (1) 
-0.30448209218536321

>  <r_i_glide_ligand_efficiency>  (1) 
-0.21001230591936401

>  <r_i_glide_ligand_efficiency_ln>  (1) 
-1.6135826742456316

>  <r_i_glide_ligand_efficiency_sa>  (1) 
-0.68696417861785153

>  <r_i_glide_lipo>  (1) 
-4.615589991945769

>  <r_i_glide_metal>  (1) 
-0

>  <r_i_glide_rewards>  (1) 
-0.69283235988461156

>  <r_lp_Energy>  (1) 
35.505794999999999

>  <r_lp_tautomer_probability>  (1) 
1

>  <s_epik_cmdline>  (1) 
J2VwaWtfcHl0aG9uJywgJy1waHQnLCAnMS4wJywgJy1waCcsICc3LjQnLCAnLXRuJywgJzgnLCAnLW1hJywgJzUwMCcsICctaW1hZScsICc8aW5maWxlLm1hZT4nLCAnLW9tYWUnLCAnPG91dGZpbGUubWFlPic=

>  <s_epik_input>  (1) 
Tz1bQ0hdW0NIMl1DKD1bQ0gyXSlbQ0BASF0oW0NASF0oW0NIMl1bQ0gyXTEpT1tDSDNdKVtDSDJdTjFbQ0gyXVtDQEBIXTJbQ0BASF0oW0NAQEhdMltPSF0pW0NAQEhdKFtDSDJdW09IXSlbQ0BASF0zT1tDQEhdKFtDSDJdW0NASF0zW09IXSlDND1bQ0hdW0NIMl1DKD1PKVtDSF09QzRbT0hd

>  <s_glide_docking_method>  (1) 
confgen

>  <s_i_glide_gridfile>  (1) 
gpcr_5ht2c_6bqh_protein_autoprepared_prepared

>  <s_lp_Force_Field>  (1) 
S-OPLS

>  <s_lp_Variant>  (1) 
DiffSBDD_80_num_sample_100-1

>  <s_m_source_file>  (1) 
generated__ligand_DiffSBDD_2026-05-06_prepared.sdf

>  <GenAI_Model>  (1) 
DiffSBDD

>  <Protein>  (1) 
GPCR_5HT2C

$$$$
DiffSBDD_25_num_sample_100
     RDKit          3D

  0  0  0  0  0  0  0  0  0  0999 V3000
M  V30 BEGIN CTAB
M  V30 COUNTS 57 59 0 0 1
M  V30 BEGIN ATOM
M  V30 1 C 38.331830 33.416288 60.539233 0
M  V30 2 C 39.891993 29.911059 60.658567 0
M  V30 3 C 40.143753 31.859197 62.215326 0
M  V30 4 C 38.077474 25.740457 55.036954 0
M  V30 5 C 37.492717 25.088099 57.403957 0
M  V30 6 C 38.267395 24.017336 57.598449 0
M  V30 7 C 37.987071 29.502402 57.309671 0 CFG=2
M  V30 8 N 41.907721 34.340749 66.278742 0
M  V30 9 O 39.774567 28.056481 59.139347 0
M  V30 10 C 39.393574 29.337882 59.469622 0
M  V30 11 C 38.667385 27.401306 53.114393 0
M  V30 12 C 41.379729 35.414483 65.449566 0 CFG=2
M  V30 13 C 38.966156 27.137948 57.138379 0 CFG=2
M  V30 14 O 39.767496 26.821431 52.984631 0
M  V30 15 O 38.668996 27.267434 58.522753 0
M  V30 16 C 39.163664 34.086080 61.655468 0
M  V30 17 O 38.375868 28.528810 52.659191 0 CHG=-1
M  V30 18 C 40.667406 33.647986 63.759444 0
M  V30 19 C 38.535348 30.098107 58.621026 0
M  V30 20 N 39.840938 36.990289 66.888933 0
M  V30 21 O 40.221205 26.526749 56.905862 0
M  V30 22 C 38.189711 31.418875 58.988625 0
M  V30 23 C 40.517105 36.298762 66.253466 0
M  V30 24 C 37.572736 26.664202 53.894370 0
M  V30 25 C 39.993433 33.156432 62.544683 0
M  V30 26 O 40.717565 29.176477 61.464184 0
M  V30 27 C 38.994038 28.578028 56.589691 0
M  V30 28 O 37.610771 30.481863 56.360644 0
M  V30 29 C 40.668190 34.942403 64.179622 0
M  V30 30 C 39.563265 31.244769 61.007476 0
M  V30 31 C 38.705534 31.991422 60.170933 0
M  V30 32 C 37.860502 26.245222 56.497720 0 CFG=1
M  V30 33 F 40.018050 35.865384 63.453631 0
M  V30 34 H 38.353935 34.037716 59.643103 0
M  V30 35 H 37.287316 33.387359 60.852534 0
M  V30 36 H 40.745004 31.222845 62.846157 0
M  V30 37 H 37.508742 24.817022 54.919104 0
M  V30 38 H 39.108649 25.419872 54.888580 0
M  V30 39 H 36.542403 25.156710 57.911421 0
M  V30 40 H 39.224137 23.923754 57.104931 0
M  V30 41 H 37.955288 23.221429 58.253494 0
M  V30 42 H 37.071619 28.958430 57.544680 0
M  V30 43 H 41.156921 33.755166 66.617446 0
M  V30 44 H 42.540515 33.757948 65.750073 0
M  V30 45 H 42.227495 36.021433 65.131383 0
M  V30 46 H 39.863552 34.779393 61.187371 0
M  V30 47 H 38.474630 34.680578 62.253451 0
M  V30 48 H 41.201104 32.924473 64.355422 0
M  V30 49 H 40.896308 27.075015 57.273988 0
M  V30 50 H 37.535471 32.001515 58.354972 0
M  V30 51 H 37.063533 26.049192 53.154151 0
M  V30 52 H 36.831732 27.378374 54.253617 0
M  V30 53 H 40.624518 29.383155 62.381544 0
M  V30 54 H 38.781308 28.548571 55.525877 0
M  V30 55 H 39.990614 29.016690 56.659590 0
M  V30 56 H 36.821730 30.942525 56.653500 0
M  V30 57 H 36.951616 26.821429 56.505618 0
M  V30 END ATOM
M  V30 BEGIN BOND
M  V30 1 2 6 5
M  V30 2 1 10 2
M  V30 3 1 10 9
M  V30 4 1 12 8
M  V30 5 2 14 11
M  V30 6 1 15 9
M  V30 7 1 15 13
M  V30 8 1 16 1
M  V30 9 1 17 11
M  V30 10 1 19 7
M  V30 11 2 19 10
M  V30 12 1 13 21 CFG=1
M  V30 13 1 22 19
M  V30 14 1 23 12
M  V30 15 3 23 20
M  V30 16 1 24 4
M  V30 17 1 24 11
M  V30 18 2 25 3
M  V30 19 1 25 16
M  V30 20 1 25 18
M  V30 21 1 26 2
M  V30 22 1 27 7
M  V30 23 1 27 13
M  V30 24 1 28 7
M  V30 25 1 29 12
M  V30 26 2 29 18
M  V30 27 2 30 2
M  V30 28 1 30 3
M  V30 29 1 31 1
M  V30 30 2 31 22
M  V30 31 1 31 30
M  V30 32 1 32 4
M  V30 33 1 32 5
M  V30 34 1 32 13
M  V30 35 1 33 29
M  V30 36 1 34 1
M  V30 37 1 35 1
M  V30 38 1 36 3
M  V30 39 1 37 4
M  V30 40 1 38 4
M  V30 41 1 39 5
M  V30 42 1 40 6
M  V30 43 1 41 6
M  V30 44 1 7 42 CFG=1
M  V30 45 1 43 8
M  V30 46 1 44 8
M  V30 47 1 12 45 CFG=3
M  V30 48 1 46 16
M  V30 49 1 47 16
M  V30 50 1 48 18
M  V30 51 1 49 21
M  V30 52 1 50 22
M  V30 53 1 51 24
M  V30 54 1 52 24
M  V30 55 1 53 26
M  V30 56 1 54 27
M  V30 57 1 55 27
M  V30 58 1 56 28
M  V30 59 1 32 57 CFG=3
M  V30 END BOND
M  V30 END CTAB
M  END
>  <i_epik_Tot_Q>  (1) 
-1

>  <i_epik_Tot_abs_Q>  (1) 
1

>  <i_i_glide_confnum>  (1) 
7

>  <i_i_glide_lignum>  (1) 
65

>  <i_i_glide_posenum>  (1) 
228

>  <i_i_glide_rotatable_bonds>  (1) 
10

>  <i_lp_mmshare_version>  (1) 
72125

>  <i_m_source_file_index>  (1) 
26

>  <i_f3d_flags>  (1) 
0

>  <num_sample>  (1) 
100

>  <b_lp_Chiralities_Consistent>  (1) 
1

>  <r_epik_Charging_Adjusted_Penalty>  (1) 
0.0056011124489286045

>  <r_epik_Ionization_Penalty>  (1) 
0.0056278004124673013

>  <r_epik_Ionization_Penalty_Charging>  (1) 
0.0010502183284910153

>  <r_epik_Ionization_Penalty_Neutral>  (1) 
0.0045775820839762862

>  <r_epik_State_Penalty>  (1) 
0.0045508941204375894

>  <r_glide_ring_energy>  (1) 
0

>  <r_i_docking_score>  (1) 
-7.3502881509142544

>  <r_i_glide_ecoul>  (1) 
-7.4913634528764774

>  <r_i_glide_eff_state_penalty>  (1) 
0.0045508941204375894

>  <r_i_glide_einternal>  (1) 
6.1994985631932833

>  <r_i_glide_emodel>  (1) 
-62.574670790763776

>  <r_i_glide_emodel_strain>  (1) 
2.6368052124477686

>  <r_i_glide_energy>  (1) 
-48.337309914809452

>  <r_i_glide_erotb>  (1) 
0.57188489385704211

>  <r_i_glide_esite>  (1) 
0

>  <r_i_glide_evdw>  (1) 
-40.845946461932975

>  <r_i_glide_gscore>  (1) 
-7.3548390450346917

>  <r_i_glide_gscore_strain>  (1) 
0

>  <r_i_glide_hbond>  (1) 
-0.37334830929393625

>  <r_i_glide_ligand_efficiency>  (1) 
-0.22273600457315923

>  <r_i_glide_ligand_efficiency_ln>  (1) 
-1.6346660270080919

>  <r_i_glide_ligand_efficiency_sa>  (1) 
-0.71443338119451572

>  <r_i_glide_lipo>  (1) 
-2.9527880267408939

>  <r_i_glide_metal>  (1) 
-0

>  <r_i_glide_rewards>  (1) 
-1.4345857618287821

>  <r_lp_Energy>  (1) 
34.737321999999999

>  <s_epik_cmdline>  (1) 
J2VwaWtfcHl0aG9uJywgJy1waHQnLCAnMS4wJywgJy1waCcsICc3LjQnLCAnLXRuJywgJzgnLCAnLW1hJywgJzUwMCcsICctaW1hZScsICc8aW5maWxlLm1hZT4nLCAnLW9tYWUnLCAnPG91dGZpbGUubWFlPic=

>  <s_epik_input>  (1) 
TiNDW0NAQEhdKFtOSDJdKVxDKEYpPVtDSF1cQyhbQ0gyXVtDSDJdMSk9W0NIXWMoYzJbT0hdKWMxW2NIXWMoYzIzKVtDQEBIXShbT0hdKVtDSDJdW0NAXShPTzMpKFtPSF0pW0NASF0oW0NIXT1bQ0gyXSlbQ0gyXVtDSDJdQyg9TylbT0hd

>  <s_glide_docking_method>  (1) 
confgen

>  <s_i_glide_gridfile>  (1) 
gpcr_5ht2c_6bqh_protein_autoprepared_prepared

>  <s_lp_Force_Field>  (1) 
S-OPLS

>  <s_lp_Variant>  (1) 
DiffSBDD_25_num_sample_100-1

>  <s_m_source_file>  (1) 
generated__ligand_DiffSBDD_2026-05-06_prepared.sdf

>  <GenAI_Model>  (1) 
DiffSBDD

>  <Protein>  (1) 
GPCR_5HT2C

$$$$
DiffSBDD_80_num_sample_100
     RDKit          3D

  0  0  0  0  0  0  0  0  0  0999 V3000
M  V30 BEGIN CTAB
M  V30 COUNTS 73 76 0 0 1
M  V30 BEGIN ATOM
M  V30 1 C 40.016673 27.425193 59.107113 0
M  V30 2 C 38.609065 30.956350 59.250284 0
M  V30 3 N 38.003020 32.039172 60.048591 0 CFG=1 CHG=1
M  V30 4 O 39.501648 28.374182 55.554816 0
M  V30 5 O 37.867415 30.511990 56.493735 0
M  V30 6 O 39.896468 28.113246 60.335480 0
M  V30 7 C 37.103344 34.672178 60.898918 0 CFG=2
M  V30 8 C 38.442848 34.082855 61.435651 0 CFG=2
M  V30 9 C 39.465186 27.941214 50.822510 0
M  V30 10 C 38.799826 26.309436 54.791747 0
M  V30 11 O 39.466178 30.548250 54.087480 0
M  V30 12 C 39.465428 29.688572 53.026533 0
M  V30 13 O 37.034296 37.449627 62.727957 0
M  V30 14 C 39.064338 27.469120 52.080617 0
M  V30 15 C 38.994086 36.111639 62.974282 0
M  V30 16 C 39.867457 30.149302 51.765432 0
M  V30 17 O 39.467276 25.042376 56.744287 0
M  V30 18 C 36.131439 33.571916 60.440103 0
M  V30 19 O 40.267436 29.727404 49.453488 0
M  V30 20 C 39.466903 35.151512 61.904418 0
M  V30 21 C 39.870239 29.277818 50.666992 0
M  V30 22 C 39.729576 27.475046 56.616803 0 CFG=1
M  V30 23 C 37.613808 29.863028 58.875937 0 CFG=2
M  V30 24 C 39.462349 28.236321 57.923644 0 CFG=1
M  V30 25 C 39.006119 33.071782 60.410664 0
M  V30 26 C 38.867921 26.241465 56.302526 0 CFG=1
M  V30 27 C 38.181731 37.221439 62.349188 0
M  V30 28 C 37.990897 28.606592 58.109640 0 CFG=2
M  V30 29 C 40.710951 35.235387 61.403218 0
M  V30 30 C 36.399100 36.443809 59.429721 0
M  V30 31 C 37.193220 29.698919 57.428577 0 CFG=2
M  V30 32 C 38.657163 27.819514 54.561311 0 CFG=2
M  V30 33 C 39.067337 28.335345 53.191653 0
M  V30 34 C 36.797719 32.643167 59.428434 0
M  V30 35 O 37.427466 35.547402 59.825648 0
M  V30 36 H 39.518082 26.458662 59.178985 0
M  V30 37 H 41.075938 27.221987 58.944921 0
M  V30 38 H 39.415974 30.519502 59.834437 0
M  V30 39 H 39.067405 31.393414 58.366161 0
M  V30 40 H 37.268361 31.220426 56.274128 0
M  V30 41 H 39.045753 27.928141 60.703419 0
M  V30 42 H 36.592557 35.209495 61.694357 0
M  V30 43 H 38.216160 33.490385 62.317596 0
M  V30 44 H 39.463786 27.275373 49.976266 0
M  V30 45 H 40.485438 30.647251 49.454991 0
M  V30 46 H 37.983551 25.725848 54.364415 0
M  V30 47 H 39.740590 25.949737 54.370065 0
M  V30 48 H 39.196520 30.133133 54.902134 0
M  V30 49 H 38.761036 26.440339 52.194056 0
M  V30 50 H 38.436090 35.621458 63.755465 0
M  V30 51 H 39.859605 36.570344 63.453846 0
M  V30 52 H 40.176615 31.177355 51.641516 0
M  V30 53 H 38.934444 24.316767 56.457950 0
M  V30 54 H 35.219100 33.992847 60.019093 0
M  V30 55 H 35.809113 32.991996 61.305460 0
M  V30 56 H 40.785972 27.205026 56.554297 0
M  V30 57 H 36.865412 29.673333 59.643715 0
M  V30 58 H 40.039687 29.159434 57.863833 0
M  V30 59 H 39.880056 32.575646 60.836426 0
M  V30 60 H 39.332780 33.583036 59.502427 0
M  V30 61 H 37.857167 26.313253 56.701114 0
M  V30 62 H 38.682586 37.788761 61.564034 0
M  V30 63 H 37.374691 27.727142 58.253513 0
M  V30 64 H 41.399892 35.992709 61.751019 0
M  V30 65 H 41.054387 34.561908 60.653492 0
M  V30 66 H 36.787773 37.101050 58.653864 0
M  V30 67 H 35.532942 35.928190 59.016769 0
M  V30 68 H 36.069062 37.075287 60.253494 0
M  V30 69 H 36.129215 29.621434 57.242288 0
M  V30 70 H 37.631021 28.129198 54.767360 0
M  V30 71 H 37.065978 33.178125 58.514875 0
M  V30 72 H 36.071004 31.884827 59.139439 0
M  V30 73 H 37.698223 31.613217 60.910897 0
M  V30 END ATOM
M  V30 BEGIN BOND
M  V30 1 1 3 2
M  V30 2 1 6 1
M  V30 3 1 8 7
M  V30 4 1 12 11
M  V30 5 2 14 9
M  V30 6 1 16 12
M  V30 7 1 18 7
M  V30 8 1 20 8
M  V30 9 1 20 15
M  V30 10 1 21 9
M  V30 11 2 21 16
M  V30 12 1 21 19
M  V30 13 1 22 4
M  V30 14 1 23 2
M  V30 15 1 24 1
M  V30 16 1 24 22
M  V30 17 1 25 3
M  V30 18 1 25 8
M  V30 19 1 26 10
M  V30 20 1 26 17
M  V30 21 1 26 22
M  V30 22 2 27 13
M  V30 23 1 27 15
M  V30 24 1 28 23
M  V30 25 1 28 24
M  V30 26 2 29 20
M  V30 27 1 31 5
M  V30 28 1 31 23
M  V30 29 1 31 28
M  V30 30 1 32 4
M  V30 31 1 32 10
M  V30 32 2 33 12
M  V30 33 1 33 14
M  V30 34 1 33 32
M  V30 35 1 34 3
M  V30 36 1 34 18
M  V30 37 1 35 7
M  V30 38 1 35 30
M  V30 39 1 36 1
M  V30 40 1 37 1
M  V30 41 1 38 2
M  V30 42 1 39 2
M  V30 43 1 40 5
M  V30 44 1 41 6
M  V30 45 1 7 42 CFG=1
M  V30 46 1 8 43 CFG=1
M  V30 47 1 44 9
M  V30 48 1 45 19
M  V30 49 1 46 10
M  V30 50 1 47 10
M  V30 51 1 48 11
M  V30 52 1 49 14
M  V30 53 1 50 15
M  V30 54 1 51 15
M  V30 55 1 52 16
M  V30 56 1 53 17
M  V30 57 1 54 18
M  V30 58 1 55 18
M  V30 59 1 22 56 CFG=1
M  V30 60 1 23 57 CFG=1
M  V30 61 1 24 58 CFG=3
M  V30 62 1 59 25
M  V30 63 1 60 25
M  V30 64 1 26 61 CFG=1
M  V30 65 1 62 27
M  V30 66 1 28 63 CFG=1
M  V30 67 1 64 29
M  V30 68 1 65 29
M  V30 69 1 66 30
M  V30 70 1 67 30
M  V30 71 1 68 30
M  V30 72 1 31 69 CFG=1
M  V30 73 1 32 70 CFG=1
M  V30 74 1 71 34
M  V30 75 1 72 34
M  V30 76 1 3 73 CFG=1
M  V30 END BOND
M  V30 END CTAB
M  END
>  <i_epik_Tot_Q>  (1) 
1

>  <i_epik_Tot_abs_Q>  (1) 
1

>  <i_i_glide_confnum>  (1) 
842

>  <i_i_glide_lignum>  (1) 
206

>  <i_i_glide_posenum>  (1) 
139

>  <i_i_glide_rotatable_bonds>  (1) 
15

>  <i_lp_mmshare_version>  (1) 
72125

>  <i_m_source_file_index>  (1) 
81

>  <i_f3d_flags>  (1) 
0

>  <num_sample>  (1) 
100

>  <b_lp_Chiralities_Consistent>  (1) 
1

>  <r_epik_Charging_Adjusted_Penalty>  (1) 
0.034071705691259377

>  <r_epik_Ionization_Penalty>  (1) 
0.043305258844254187

>  <r_epik_Ionization_Penalty_Charging>  (1) 
0.034071705691259377

>  <r_epik_Ionization_Penalty_Neutral>  (1) 
0.009233553152994808

>  <r_epik_State_Penalty>  (1) 
-0

>  <r_glide_ring_energy>  (1) 
0

>  <r_i_docking_score>  (1) 
-7.3491308235784221

>  <r_i_glide_ecoul>  (1) 
-2.248659183694782

>  <r_i_glide_eff_state_penalty>  (1) 
-0

>  <r_i_glide_einternal>  (1) 
7.3456781951381451

>  <r_i_glide_emodel>  (1) 
-66.657096969490468

>  <r_i_glide_emodel_strain>  (1) 
1.1733497685883663

>  <r_i_glide_energy>  (1) 
-47.879085548844223

>  <r_i_glide_erotb>  (1) 
0.67144220787932085

>  <r_i_glide_esite>  (1) 
-0.01614669872167818

>  <r_i_glide_evdw>  (1) 
-45.63042636514944

>  <r_i_glide_gscore>  (1) 
-7.3491308235784221

>  <r_i_glide_gscore_strain>  (1) 
0

>  <r_i_glide_hbond>  (1) 
-0.095156707418329142

>  <r_i_glide_ligand_efficiency>  (1) 
-0.20997516638795491

>  <r_i_glide_ligand_efficiency_ln>  (1) 
-1.6132973209462189

>  <r_i_glide_ligand_efficiency_sa>  (1) 
-0.68684269274788301

>  <r_i_glide_lipo>  (1) 
-4.3839602629644352

>  <r_i_glide_metal>  (1) 
-0

>  <r_i_glide_rewards>  (1) 
-0.90648916654161016

>  <r_lp_Energy>  (1) 
33.571677999999999

>  <r_lp_tautomer_probability>  (1) 
1

>  <s_epik_cmdline>  (1) 
J2VwaWtfcHl0aG9uJywgJy1waHQnLCAnMS4wJywgJy1waCcsICc3LjQnLCAnLXRuJywgJzgnLCAnLW1hJywgJzUwMCcsICctaW1hZScsICc8aW5maWxlLm1hZT4nLCAnLW9tYWUnLCAnPG91dGZpbGUubWFlPic=

>  <s_epik_input>  (1) 
Tz1bQ0hdW0NIMl1DKD1bQ0gyXSlbQ0BASF0oW0NASF0oW0NIMl1bQ0gyXTEpT1tDSDNdKVtDSDJdTjFbQ0gyXVtDQEBIXTJbQ0BASF0oW0NAQEhdMltPSF0pW0NAQEhdKFtDSDJdW09IXSlbQ0BASF0zT1tDQEhdKFtDSDJdW0NASF0zW09IXSlDND1bQ0hdW0NIMl1DKD1PKVtDSF09QzRbT0hd

>  <s_glide_docking_method>  (1) 
confgen

>  <s_i_glide_gridfile>  (1) 
gpcr_5ht2c_6bqh_protein_autoprepared_prepared

>  <s_lp_Force_Field>  (1) 
S-OPLS

>  <s_lp_Variant>  (1) 
DiffSBDD_80_num_sample_100-2

>  <s_m_source_file>  (1) 
generated__ligand_DiffSBDD_2026-05-06_prepared.sdf

>  <GenAI_Model>  (1) 
DiffSBDD

>  <Protein>  (1) 
GPCR_5HT2C

$$$$
DiffSBDD_87_num_sample_100
     RDKit          3D

  0  0  0  0  0  0  0  0  0  0999 V3000
M  V30 BEGIN CTAB
M  V30 COUNTS 53 56 0 0 1
M  V30 BEGIN ATOM
M  V30 1 C 37.058565 30.438825 59.672125 0 CFG=1
M  V30 2 C 38.182973 30.538504 60.732271 0
M  V30 3 C 41.063188 27.856714 57.497504 0
M  V30 4 C 36.280732 32.963839 59.902250 0 CFG=1
M  V30 5 C 39.142904 31.583981 56.506346 0
M  V30 6 C 40.031730 27.982046 56.358074 0
M  V30 7 C 35.694688 32.283577 61.115084 0
M  V30 8 C 35.962430 31.487890 59.849462 0 CFG=2
M  V30 9 C 38.082540 29.122457 55.125375 0 CFG=1
M  V30 10 N 35.344054 33.716540 59.053525 0 CHG=1
M  V30 11 O 36.950206 29.955901 55.217662 0
M  V30 12 C 37.707681 27.510113 54.190468 0
M  V30 13 C 38.278219 29.130133 57.785167 0
M  V30 14 C 39.929137 30.212903 51.966240 0
M  V30 15 C 37.555314 30.425213 58.192383 0 CFG=2
M  V30 16 C 38.474676 28.261953 53.233127 0
M  V30 17 F 40.032620 28.820625 49.986983 0
M  V30 18 C 39.619053 28.995355 51.261437 0
M  V30 19 C 38.864710 27.981261 51.924917 0
M  V30 20 C 39.467375 30.371840 53.306036 0
M  V30 21 C 38.734859 29.308997 53.838585 0
M  V30 22 C 39.009511 29.159567 56.404350 0 CFG=1
M  V30 23 C 38.374355 31.679935 57.825169 0
M  V30 24 O 39.820591 30.334352 56.361287 0
M  V30 25 F 40.548651 27.223572 58.550892 0
M  V30 26 H 36.566813 29.481258 59.843619 0
M  V30 27 H 38.698073 31.497238 60.714910 0
M  V30 28 H 37.788751 30.421418 61.740308 0
M  V30 29 H 38.933143 29.759176 60.605636 0
M  V30 30 H 41.917175 27.258111 57.177459 0
M  V30 31 H 41.437948 28.821527 57.836227 0
M  V30 32 H 37.311573 33.311728 59.904256 0
M  V30 33 H 39.879874 32.384237 56.467679 0
M  V30 34 H 38.482424 31.794291 55.670064 0
M  V30 35 H 39.508295 27.030439 56.282318 0
M  V30 36 H 40.617407 28.078521 55.453356 0
M  V30 37 H 34.667332 32.520025 61.374347 0
M  V30 38 H 36.362894 32.163300 61.962302 0
M  V30 39 H 35.067104 31.220019 59.290251 0
M  V30 40 H 34.402175 33.628947 59.404120 0
M  V30 41 H 35.607914 34.689518 58.998508 0
M  V30 42 H 37.250219 30.850953 55.254771 0
M  V30 43 H 38.208754 26.604864 54.531082 0
M  V30 44 H 36.667614 27.375957 53.889643 0
M  V30 45 H 37.585231 28.288558 57.817377 0
M  V30 46 H 39.002261 28.948496 58.569654 0
M  V30 47 H 40.497884 30.995759 51.485335 0
M  V30 48 H 36.667458 30.421362 57.581226 0
M  V30 49 H 38.604237 27.052813 51.437448 0
M  V30 50 H 39.667343 31.268403 53.869721 0
M  V30 51 H 39.067461 31.911081 58.621697 0
M  V30 52 H 37.718059 32.544150 57.747087 0
M  V30 53 H 35.390332 33.297443 58.126554 0
M  V30 END ATOM
M  V30 BEGIN BOND
M  V30 1 1 2 1
M  V30 2 1 6 3
M  V30 3 1 7 4
M  V30 4 1 8 1
M  V30 5 1 8 4
M  V30 6 1 8 7
M  V30 7 1 10 4
M  V30 8 1 9 11 CFG=1
M  V30 9 1 12 9
M  V30 10 1 15 1
M  V30 11 1 15 13
M  V30 12 1 16 12
M  V30 13 1 18 14
M  V30 14 1 18 17
M  V30 15 1 19 16
M  V30 16 2 19 18
M  V30 17 2 20 14
M  V30 18 1 21 9
M  V30 19 2 21 16
M  V30 20 1 21 20
M  V30 21 1 22 6 CFG=3
M  V30 22 1 22 9
M  V30 23 1 22 13
M  V30 24 1 23 5
M  V30 25 1 23 15
M  V30 26 1 24 5
M  V30 27 1 24 22
M  V30 28 1 25 3
M  V30 29 1 1 26 CFG=1
M  V30 30 1 27 2
M  V30 31 1 28 2
M  V30 32 1 29 2
M  V30 33 1 30 3
M  V30 34 1 31 3
M  V30 35 1 4 32 CFG=1
M  V30 36 1 33 5
M  V30 37 1 34 5
M  V30 38 1 35 6
M  V30 39 1 36 6
M  V30 40 1 37 7
M  V30 41 1 38 7
M  V30 42 1 8 39 CFG=3
M  V30 43 1 40 10
M  V30 44 1 41 10
M  V30 45 1 42 11
M  V30 46 1 43 12
M  V30 47 1 44 12
M  V30 48 1 45 13
M  V30 49 1 46 13
M  V30 50 1 47 14
M  V30 51 1 15 48 CFG=3
M  V30 52 1 49 19
M  V30 53 1 50 20
M  V30 54 1 51 23
M  V30 55 1 52 23
M  V30 56 1 53 10
M  V30 END BOND
M  V30 END CTAB
M  END
>  <i_epik_Tot_Q>  (1) 
1

>  <i_epik_Tot_abs_Q>  (1) 
1

>  <i_i_glide_confnum>  (1) 
108

>  <i_i_glide_lignum>  (1) 
225

>  <i_i_glide_posenum>  (1) 
21

>  <i_i_glide_rotatable_bonds>  (1) 
6

>  <i_lp_mmshare_version>  (1) 
72125

>  <i_m_source_file_index>  (1) 
88

>  <i_f3d_flags>  (1) 
0

>  <num_sample>  (1) 
100

>  <b_lp_Chiralities_Consistent>  (1) 
1

>  <r_epik_Charging_Adjusted_Penalty>  (1) 
0.053606202930604946

>  <r_epik_Ionization_Penalty>  (1) 
0.026803441766302651

>  <r_epik_Ionization_Penalty_Charging>  (1) 
0.026803101465302424

>  <r_epik_Ionization_Penalty_Neutral>  (1) 
3.4030100022513842e-07

>  <r_epik_State_Penalty>  (1) 
0.026803101465302525

>  <r_glide_ring_energy>  (1) 
0

>  <r_i_docking_score>  (1) 
-7.3412331520713803

>  <r_i_glide_ecoul>  (1) 
-4.789454884219599

>  <r_i_glide_eff_state_penalty>  (1) 
0.026803101465302525

>  <r_i_glide_einternal>  (1) 
34.356118586047288

>  <r_i_glide_emodel>  (1) 
-38.243163669395578

>  <r_i_glide_emodel_strain>  (1) 
0.87651882207802601

>  <r_i_glide_energy>  (1) 
-36.759036863556808

>  <r_i_glide_erotb>  (1) 
0.61455583154011373

>  <r_i_glide_esite>  (1) 
-0.068109853526769362

>  <r_i_glide_evdw>  (1) 
-31.96958197933721

>  <r_i_glide_gscore>  (1) 
-7.3680362535366832

>  <r_i_glide_gscore_strain>  (1) 
0

>  <r_i_glide_hbond>  (1) 
-0.20000000000000001

>  <r_i_glide_ligand_efficiency>  (1) 
-0.29364932608285521

>  <r_i_glide_ligand_efficiency_ln>  (1) 
-1.7400922560456547

>  <r_i_glide_ligand_efficiency_sa>  (1) 
-0.8586358382805227

>  <r_i_glide_lipo>  (1) 
-2.8580265625292092

>  <r_i_glide_metal>  (1) 
-0

>  <r_i_glide_rewards>  (1) 
-2.539558337421016

>  <r_lp_Energy>  (1) 
36.003222999999998

>  <s_epik_cmdline>  (1) 
J2VwaWtfcHl0aG9uJywgJy1waHQnLCAnMS4wJywgJy1waCcsICc3LjQnLCAnLXRuJywgJzgnLCAnLW1hJywgJzUwMCcsICctaW1hZScsICc8aW5maWxlLm1hZT4nLCAnLW9tYWUnLCAnPG91dGZpbGUubWFlPic=

>  <s_epik_input>  (1) 
W05IMl1bQ0BIXTFbQ0gyXVtDQEBIXTFbQ0BIXShbQ0gzXSlbQ0BASF0oW0NIMl1bQ0gyXU8yKVtDSDJdW0NAQF0yKFtDSDJdW0NIMl1GKVtDQF0oW09IXSkoW0NIMl0zKWMoYzM0KVtjSF1bY0hdYyhGKVtjSF00

>  <s_glide_docking_method>  (1) 
confgen

>  <s_i_glide_gridfile>  (1) 
gpcr_5ht2c_6bqh_protein_autoprepared_prepared

>  <s_lp_Force_Field>  (1) 
S-OPLS

>  <s_lp_Variant>  (1) 
DiffSBDD_87_num_sample_100-1

>  <s_m_source_file>  (1) 
generated__ligand_DiffSBDD_2026-05-06_prepared.sdf

>  <GenAI_Model>  (1) 
DiffSBDD

>  <Protein>  (1) 
GPCR_5HT2C

$$$$
DiffSBDD_62_num_sample_100
     RDKit          3D

  0  0  0  0  0  0  0  0  0  0999 V3000
M  V30 BEGIN CTAB
M  V30 COUNTS 81 82 0 0 1
M  V30 BEGIN ATOM
M  V30 1 O 37.060942 39.132769 61.052828 0
M  V30 2 O 39.465959 29.962951 52.638014 0
M  V30 3 C 41.785168 35.135432 61.064584 0
M  V30 4 C 38.163888 26.952108 54.548016 0
M  V30 5 C 37.657091 35.039427 61.484903 0
M  V30 6 C 36.844802 36.881806 60.161775 0
M  V30 7 C 39.317341 29.587812 54.975603 0
M  V30 8 C 37.272619 37.795114 61.168522 0
M  V30 9 C 38.390462 31.108596 58.469826 0
M  V30 10 C 41.683279 33.712880 61.679715 0
M  V30 11 F 36.245527 37.311892 59.051287 0
M  V30 12 C 37.035526 35.517240 60.333276 0
M  V30 13 C 40.464762 32.626901 63.609694 0 CFG=2
M  V30 14 C 38.972644 27.206160 55.841686 0 CFG=1
M  V30 15 C 39.164218 32.937028 61.290896 0 CFG=1
M  V30 16 C 37.814929 33.528317 61.677373 0
M  V30 17 C 41.194851 31.283285 63.431185 0
M  V30 18 O 38.667476 27.070231 51.053937 0
M  V30 19 N 37.867422 30.694216 57.305505 0
M  V30 20 C 37.910554 37.319278 62.303571 0
M  V30 21 O 38.645083 24.920137 56.624871 0
M  V30 22 C 39.324743 33.210830 59.775762 0
M  V30 23 C 39.026071 28.732607 56.205191 0 CFG=2
M  V30 24 C 39.148383 29.154940 53.702949 0
M  V30 25 C 37.781568 29.287898 56.920277 0
M  V30 26 C 40.308069 33.431996 62.281653 0 CFG=2
M  V30 27 C 41.117189 33.488302 64.739552 0
M  V30 28 C 41.103847 32.849445 66.139122 0
M  V30 29 C 38.618367 27.378035 52.188287 0
M  V30 30 C 41.004601 33.897445 67.256121 0
M  V30 31 C 40.033316 31.221902 52.850717 0
M  V30 32 C 38.660563 27.836776 53.416958 0
M  V30 33 C 38.514121 26.279552 56.998250 0 CFG=1
M  V30 34 C 39.324193 26.447847 58.290264 0
M  V30 35 O 38.901693 30.343299 59.288022 0
M  V30 36 C 38.114519 35.962596 62.470846 0
M  V30 37 C 38.311991 32.616279 58.750957 0
M  V30 38 H 36.502222 39.356170 60.310221 0
M  V30 39 H 42.667316 35.221648 60.431261 0
M  V30 40 H 40.920931 35.410365 60.467587 0
M  V30 41 H 41.851581 35.892795 61.843419 0
M  V30 42 H 37.108278 27.167894 54.720070 0
M  V30 43 H 38.221393 25.901713 54.254984 0
M  V30 44 H 39.686123 30.582901 55.168031 0
M  V30 45 H 42.443922 33.621209 62.449374 0
M  V30 46 H 41.959610 32.877527 61.052611 0
M  V30 47 H 36.688023 34.830085 59.577942 0
M  V30 48 H 39.467310 32.376262 63.940267 0
M  V30 49 H 39.998993 26.916610 55.609407 0
M  V30 50 H 39.098389 31.853785 61.406828 0
M  V30 51 H 37.584860 33.192000 62.653484 0
M  V30 52 H 37.021285 33.041594 61.108647 0
M  V30 53 H 42.259460 31.423567 63.243783 0
M  V30 54 H 41.100658 30.666557 64.327218 0
M  V30 55 H 40.779694 30.713153 62.600480 0
M  V30 56 H 37.431060 31.373862 56.693209 0
M  V30 57 H 38.234832 38.009479 63.065077 0
M  V30 58 H 38.004232 24.721016 55.960085 0
M  V30 59 H 39.390777 34.275563 59.578698 0
M  V30 60 H 40.267278 32.821802 59.518669 0
M  V30 61 H 39.873571 28.872241 56.875439 0
M  V30 62 H 37.452912 28.682135 57.763514 0
M  V30 63 H 36.983306 29.260579 56.191568 0
M  V30 64 H 40.023223 34.409764 62.621890 0
M  V30 65 H 42.154251 33.732469 64.510758 0
M  V30 66 H 40.617593 34.453037 64.794806 0
M  V30 67 H 40.267496 32.163480 66.232106 0
M  V30 68 H 41.997901 32.241319 66.279509 0
M  V30 69 H 41.069798 33.422606 68.235569 0
M  V30 70 H 41.804197 34.637206 67.187830 0
M  V30 71 H 40.048650 34.421436 67.202626 0
M  V30 72 H 40.303988 31.620062 51.874482 0
M  V30 73 H 39.305694 31.901553 53.294427 0
M  V30 74 H 40.937571 31.204860 53.460237 0
M  V30 75 H 37.461116 26.456306 57.221835 0
M  V30 76 H 39.195650 27.444811 58.707915 0
M  V30 77 H 38.997982 25.732400 59.049052 0
M  V30 78 H 40.390544 26.297342 58.118886 0
M  V30 79 H 38.596752 35.621334 63.371927 0
M  V30 80 H 37.275677 32.838663 58.993740 0
M  V30 81 H 38.483376 33.120386 57.796449 0
M  V30 END ATOM
M  V30 BEGIN BOND
M  V30 1 1 8 1
M  V30 2 2 8 6
M  V30 3 1 10 3
M  V30 4 1 11 6
M  V30 5 2 12 5
M  V30 6 1 12 6
M  V30 7 1 14 4
M  V30 8 1 16 5
M  V30 9 1 16 15
M  V30 10 1 17 13
M  V30 11 1 19 9
M  V30 12 1 20 8
M  V30 13 1 22 15
M  V30 14 1 23 7
M  V30 15 1 23 14
M  V30 16 1 24 2
M  V30 17 2 24 7
M  V30 18 1 25 19
M  V30 19 1 25 23
M  V30 20 1 26 10
M  V30 21 1 26 13
M  V30 22 1 26 15
M  V30 23 1 27 13
M  V30 24 1 28 27
M  V30 25 2 29 18
M  V30 26 1 30 28
M  V30 27 1 31 2
M  V30 28 1 32 4
M  V30 29 1 32 24
M  V30 30 2 32 29
M  V30 31 1 33 14
M  V30 32 1 33 21
M  V30 33 1 34 33
M  V30 34 2 35 9
M  V30 35 1 36 5
M  V30 36 2 36 20
M  V30 37 1 37 9
M  V30 38 1 37 22
M  V30 39 1 38 1
M  V30 40 1 39 3
M  V30 41 1 40 3
M  V30 42 1 41 3
M  V30 43 1 42 4
M  V30 44 1 43 4
M  V30 45 1 44 7
M  V30 46 1 45 10
M  V30 47 1 46 10
M  V30 48 1 47 12
M  V30 49 1 13 48 CFG=1
M  V30 50 1 14 49 CFG=3
M  V30 51 1 15 50 CFG=3
M  V30 52 1 51 16
M  V30 53 1 52 16
M  V30 54 1 53 17
M  V30 55 1 54 17
M  V30 56 1 55 17
M  V30 57 1 56 19
M  V30 58 1 57 20
M  V30 59 1 58 21
M  V30 60 1 59 22
M  V30 61 1 60 22
M  V30 62 1 23 61 CFG=1
M  V30 63 1 62 25
M  V30 64 1 63 25
M  V30 65 1 26 64 CFG=1
M  V30 66 1 65 27
M  V30 67 1 66 27
M  V30 68 1 67 28
M  V30 69 1 68 28
M  V30 70 1 69 30
M  V30 71 1 70 30
M  V30 72 1 71 30
M  V30 73 1 72 31
M  V30 74 1 73 31
M  V30 75 1 74 31
M  V30 76 1 33 75 CFG=1
M  V30 77 1 76 34
M  V30 78 1 77 34
M  V30 79 1 78 34
M  V30 80 1 79 36
M  V30 81 1 80 37
M  V30 82 1 81 37
M  V30 END BOND
M  V30 END CTAB
M  END
>  <i_epik_Tot_Q>  (1) 
0

>  <i_epik_Tot_abs_Q>  (1) 
0

>  <i_i_glide_confnum>  (1) 
2276

>  <i_i_glide_lignum>  (1) 
157

>  <i_i_glide_posenum>  (1) 
273

>  <i_i_glide_rotatable_bonds>  (1) 
17

>  <i_lp_mmshare_version>  (1) 
72125

>  <i_m_source_file_index>  (1) 
63

>  <i_f3d_flags>  (1) 
0

>  <num_sample>  (1) 
100

>  <b_lp_Chiralities_Consistent>  (1) 
1

>  <r_epik_Charging_Adjusted_Penalty>  (1) 
0.018006221857045448

>  <r_epik_Ionization_Penalty>  (1) 
0.018006279539151737

>  <r_epik_Ionization_Penalty_Charging>  (1) 
0

>  <r_epik_Ionization_Penalty_Neutral>  (1) 
0.018006279539151737

>  <r_epik_State_Penalty>  (1) 
0.018006221857045448

>  <r_glide_ring_energy>  (1) 
0

>  <r_i_docking_score>  (1) 
-7.3407471292900723

>  <r_i_glide_ecoul>  (1) 
-7.924986016800295

>  <r_i_glide_eff_state_penalty>  (1) 
0.018006221857045448

>  <r_i_glide_einternal>  (1) 
4.2418990206404139

>  <r_i_glide_emodel>  (1) 
-44.985675495612661

>  <r_i_glide_emodel_strain>  (1) 
1.8062300086481784

>  <r_i_glide_energy>  (1) 
-28.008822562907412

>  <r_i_glide_erotb>  (1) 
0.91941413916602621

>  <r_i_glide_esite>  (1) 
-0.18407538445559982

>  <r_i_glide_evdw>  (1) 
-20.083836546107115

>  <r_i_glide_gscore>  (1) 
-7.3587533511471177

>  <r_i_glide_gscore_strain>  (1) 
0

>  <r_i_glide_hbond>  (1) 
-0.36759803907436051

>  <r_i_glide_ligand_efficiency>  (1) 
-0.19839857106189385

>  <r_i_glide_ligand_efficiency_ln>  (1) 
-1.5920359608137922

>  <r_i_glide_ligand_efficiency_sa>  (1) 
-0.66110805382777527

>  <r_i_glide_lipo>  (1) 
-4.9149807467591531

>  <r_i_glide_metal>  (1) 
-0

>  <r_i_glide_rewards>  (1) 
-0.61857359019862979

>  <r_lp_Energy>  (1) 
35.726849999999999

>  <r_lp_tautomer_probability>  (1) 
0.99999999999736477

>  <s_epik_cmdline>  (1) 
J2VwaWtfcHl0aG9uJywgJy1waHQnLCAnMS4wJywgJy1waCcsICc3LjQnLCAnLXRuJywgJzgnLCAnLW1hJywgJzUwMCcsICctaW1hZScsICc8aW5maWxlLm1hZT4nLCAnLW9tYWUnLCAnPG91dGZpbGUubWFlPic=

>  <s_epik_input>  (1) 
W2NIXTFbY0hdYyhbT0hdKWMoRilbY0hdYzFbQ0gyXVtDQEhdKFtDQEhdKFtDSDJdW0NIM10pW0NAQEhdKFtDSDNdKVtDSDJdW0NIMl1bQ0gzXSlbQ0gyXVtDSDJdQyg9TylbTkhdW0NIMl1bQ0BASF0yW0NIXT1DKE9bQ0gzXSlDKD1DPU8pW0NIMl1bQ0BASF0yW0NAQEhdKFtPSF0pW0NIM10=

>  <s_glide_docking_method>  (1) 
confgen

>  <s_i_glide_gridfile>  (1) 
gpcr_5ht2c_6bqh_protein_autoprepared_prepared

>  <s_lp_Force_Field>  (1) 
S-OPLS

>  <s_lp_Variant>  (1) 
DiffSBDD_62_num_sample_100-1

>  <s_m_source_file>  (1) 
generated__ligand_DiffSBDD_2026-05-06_prepared.sdf

>  <GenAI_Model>  (1) 
DiffSBDD

>  <Protein>  (1) 
GPCR_5HT2C

$$$$
DiffSBDD_6_num_sample_100
     RDKit          3D

  0  0  0  0  0  0  0  0  0  0999 V3000
M  V30 BEGIN CTAB
M  V30 COUNTS 67 70 0 0 1
M  V30 BEGIN ATOM
M  V30 1 C 38.700593 33.643976 60.002461 0 CFG=1
M  V30 2 C 39.456109 28.320255 50.561349 0
M  V30 3 O 39.467416 30.796810 57.514761 0
M  V30 4 C 38.632360 27.265239 57.103558 0 CFG=2
M  V30 5 N 38.271594 32.608823 60.957327 0
M  V30 6 N 38.536059 29.238162 54.725438 0
M  V30 7 O 39.807952 25.301815 57.854016 0
M  V30 8 C 38.009306 28.643409 57.464902 0 CFG=1
M  V30 9 O 37.575989 26.431824 56.633713 0
M  V30 10 O 38.744940 31.418083 54.117825 0
M  V30 11 S 39.455428 36.677668 62.785401 0
M  V30 12 S 39.164353 29.655740 58.484396 0
M  V30 13 O 40.741131 28.318634 56.254110 0
M  V30 14 C 39.124367 26.446221 58.322824 0
M  V30 15 C 37.919775 33.523214 58.674605 0
M  V30 16 C 40.267244 29.229242 49.867266 0
M  V30 17 C 37.354956 35.651546 61.121740 0
M  V30 18 S 37.395723 36.544672 62.653386 0
M  V30 19 C 41.770056 27.866841 57.128928 0
M  V30 20 O 39.866843 37.887250 62.060957 0
M  V30 21 C 38.829516 31.284149 60.673206 0
M  V30 22 C 39.031548 28.610372 51.864065 0
M  V30 23 C 36.436101 33.799183 58.808314 0
M  V30 24 S 37.467361 29.621417 56.032929 0
M  V30 25 C 39.760705 35.192419 61.752880 0
M  V30 26 C 39.444414 29.816121 52.494022 0
M  V30 27 C 38.699241 35.086113 60.625144 0 CFG=1
M  V30 28 C 36.200105 35.262475 59.093849 0
M  V30 29 O 39.875216 36.420191 64.169242 0
M  V30 30 C 39.042467 27.853528 54.651815 0
M  V30 31 C 38.901147 30.223992 53.859566 0
M  V30 32 C 40.678386 30.419625 50.481044 0
M  V30 33 C 40.267488 30.711397 51.787655 0
M  V30 34 C 39.685137 27.400673 55.969808 0 CFG=2
M  V30 35 N 36.268364 35.532191 60.487706 0
M  V30 36 C 37.990717 30.405759 59.712701 0
M  V30 37 H 39.746493 33.448170 59.756736 0
M  V30 38 H 39.135561 27.407457 50.080545 0
M  V30 39 H 38.585006 32.879005 61.878693 0
M  V30 40 H 39.248416 24.869887 57.225104 0
M  V30 41 H 37.128450 28.468468 58.081991 0
M  V30 42 H 37.133738 26.873610 55.923086 0
M  V30 43 H 38.289889 26.129922 58.949981 0
M  V30 44 H 39.790840 27.000505 58.978106 0
M  V30 45 H 38.279593 34.200127 57.910433 0
M  V30 46 H 38.069358 32.560611 58.208481 0
M  V30 47 H 40.578075 29.013366 48.858733 0
M  V30 48 H 42.684515 28.422740 56.945197 0
M  V30 49 H 41.517279 28.015353 58.175119 0
M  V30 50 H 42.012607 26.821441 56.989453 0
M  V30 51 H 38.893179 30.756378 61.624963 0
M  V30 52 H 39.861551 31.375375 60.330742 0
M  V30 53 H 38.360477 27.930949 52.358187 0
M  V30 54 H 35.974403 33.621654 57.854208 0
M  V30 55 H 35.942876 33.141233 59.523839 0
M  V30 56 H 40.779197 35.240277 61.367909 0
M  V30 57 H 39.707546 34.342128 62.431381 0
M  V30 58 H 36.906439 35.903042 58.564091 0
M  V30 59 H 35.206576 35.542231 58.742542 0
M  V30 60 H 38.245726 27.174167 54.352153 0
M  V30 61 H 39.859176 27.709228 53.951808 0
M  V30 62 H 41.305212 31.116983 49.943435 0
M  V30 63 H 40.569396 31.628727 52.245751 0
M  V30 64 H 40.138984 26.437761 55.736985 0
M  V30 65 H 39.012029 35.783523 59.854192 0
M  V30 66 H 37.195488 30.943095 59.200970 0
M  V30 67 H 37.491001 29.614220 60.253771 0
M  V30 END ATOM
M  V30 BEGIN BOND
M  V30 1 1 5 1
M  V30 2 1 8 4
M  V30 3 1 4 9 CFG=3
M  V30 4 2 12 3
M  V30 5 1 12 8
M  V30 6 1 14 4
M  V30 7 1 14 7
M  V30 8 1 15 1
M  V30 9 2 16 2
M  V30 10 1 18 11
M  V30 11 1 18 17
M  V30 12 1 19 13
M  V30 13 2 20 11
M  V30 14 1 21 5
M  V30 15 1 22 2
M  V30 16 1 23 15
M  V30 17 1 24 6
M  V30 18 1 24 8
M  V30 19 1 25 11
M  V30 20 2 26 22
M  V30 21 1 27 1
M  V30 22 1 27 17
M  V30 23 1 27 25
M  V30 24 1 28 23
M  V30 25 2 29 11
M  V30 26 1 30 6
M  V30 27 1 31 6
M  V30 28 2 31 10
M  V30 29 1 31 26
M  V30 30 1 32 16
M  V30 31 1 33 26
M  V30 32 2 33 32
M  V30 33 1 34 4
M  V30 34 1 34 13
M  V30 35 1 34 30
M  V30 36 2 35 17
M  V30 37 1 35 28
M  V30 38 1 12 36 CFG=1
M  V30 39 1 36 21
M  V30 40 1 1 37 CFG=3
M  V30 41 1 38 2
M  V30 42 1 39 5
M  V30 43 1 40 7
M  V30 44 1 8 41 CFG=1
M  V30 45 1 42 9
M  V30 46 1 43 14
M  V30 47 1 44 14
M  V30 48 1 45 15
M  V30 49 1 46 15
M  V30 50 1 47 16
M  V30 51 1 48 19
M  V30 52 1 49 19
M  V30 53 1 50 19
M  V30 54 1 51 21
M  V30 55 1 52 21
M  V30 56 1 53 22
M  V30 57 1 54 23
M  V30 58 1 55 23
M  V30 59 1 56 25
M  V30 60 1 57 25
M  V30 61 1 58 28
M  V30 62 1 59 28
M  V30 63 1 60 30
M  V30 64 1 61 30
M  V30 65 1 62 32
M  V30 66 1 63 33
M  V30 67 1 34 64 CFG=3
M  V30 68 1 27 65 CFG=3
M  V30 69 1 66 36
M  V30 70 1 67 36
M  V30 END BOND
M  V30 END CTAB
M  END
>  <i_epik_Tot_Q>  (1) 
0

>  <i_epik_Tot_abs_Q>  (1) 
0

>  <i_i_glide_confnum>  (1) 
1025

>  <i_i_glide_lignum>  (1) 
25

>  <i_i_glide_posenum>  (1) 
40

>  <i_i_glide_rotatable_bonds>  (1) 
11

>  <i_lp_mmshare_version>  (1) 
72125

>  <i_m_source_file_index>  (1) 
7

>  <i_f3d_flags>  (1) 
0

>  <num_sample>  (1) 
100

>  <b_lp_Chiralities_Consistent>  (1) 
1

>  <r_epik_Charging_Adjusted_Penalty>  (1) 
0.04024977574551479

>  <r_epik_Ionization_Penalty>  (1) 
0.04050266925573108

>  <r_epik_Ionization_Penalty_Charging>  (1) 
0

>  <r_epik_Ionization_Penalty_Neutral>  (1) 
0.04050266925573108

>  <r_epik_State_Penalty>  (1) 
0.04024977574551479

>  <r_glide_ring_energy>  (1) 
1.134744657807722

>  <r_i_docking_score>  (1) 
-7.3376938426332359

>  <r_i_glide_ecoul>  (1) 
-0.49995183726798204

>  <r_i_glide_eff_state_penalty>  (1) 
0.04024977574551479

>  <r_i_glide_einternal>  (1) 
17.721888137330417

>  <r_i_glide_emodel>  (1) 
-49.532195444748851

>  <r_i_glide_emodel_strain>  (1) 
3.1436593816838325

>  <r_i_glide_energy>  (1) 
-40.449929155503618

>  <r_i_glide_erotb>  (1) 
0.34065271397431773

>  <r_i_glide_esite>  (1) 
-0.008230101459684714

>  <r_i_glide_evdw>  (1) 
-39.949977318235639

>  <r_i_glide_gscore>  (1) 
-7.377943618378751

>  <r_i_glide_gscore_strain>  (1) 
0

>  <r_i_glide_hbond>  (1) 
0

>  <r_i_glide_ligand_efficiency>  (1) 
-0.20382482896203433

>  <r_i_glide_ligand_efficiency_ln>  (1) 
-1.6008865548845814

>  <r_i_glide_ligand_efficiency_sa>  (1) 
-0.67301475675102795

>  <r_i_glide_lipo>  (1) 
-3.5514462687919601

>  <r_i_glide_metal>  (1) 
-0

>  <r_i_glide_rewards>  (1) 
-2.0864283205994436

>  <r_lp_Energy>  (1) 
38.802732999999996

>  <r_lp_tautomer_probability>  (1) 
0.99960115913750414

>  <s_epik_Chemistry_Notes>  (1) 
This compound has an imine and may undergo hydrolysis. This compound contains an acetal/aminal-like group ( X-CH(R)-Y where X, Y are N, S, or O) that may be acid/base labile, releasing an aldehyde. This compound has a N-S or N-O group and may undergo hydrolysis at high or low pH.

>  <s_epik_cmdline>  (1) 
J2VwaWtfcHl0aG9uJywgJy1waHQnLCAnMS4wJywgJy1waCcsICc3LjQnLCAnLXRuJywgJzgnLCAnLW1hJywgJzUwMCcsICctaW1hZScsICc8aW5maWxlLm1hZT4nLCAnLW9tYWUnLCAnPG91dGZpbGUubWFlPic=

>  <s_epik_input>  (1) 
UzFTKD1PKSg9TylbQ0gyXUMoPUMxMilbQ0BIXShbQ0gyXVtDSDJdW0NIMl1bTkhdMilbTkhdW0NIMl1bQ0gyXVtTQF0oPU8pW0NASF0oW0NAXTMoW09IXSlbQ0gyXVtPSF0pU04oW0NIMl1bQ0BIXTNPW0NIM10pQyg9TyljNFtjSF1bY0hdW2NIXVtjSF1bY0hdNA==

>  <s_glide_docking_method>  (1) 
confgen

>  <s_i_glide_gridfile>  (1) 
gpcr_5ht2c_6bqh_protein_autoprepared_prepared

>  <s_lp_Force_Field>  (1) 
S-OPLS

>  <s_lp_Variant>  (1) 
DiffSBDD_6_num_sample_100-1

>  <s_m_source_file>  (1) 
generated__ligand_DiffSBDD_2026-05-06_prepared.sdf

>  <GenAI_Model>  (1) 
DiffSBDD

>  <Protein>  (1) 
GPCR_5HT2C

$$$$
DiffSBDD_61_num_sample_100
     RDKit          3D

  0  0  0  0  0  0  0  0  0  0999 V3000
M  V30 BEGIN CTAB
M  V30 COUNTS 50 53 0 0 1
M  V30 BEGIN ATOM
M  V30 1 N 37.370658 30.987401 59.036560 0
M  V30 2 C 39.356791 27.619111 50.650981 0
M  V30 3 N 39.200591 31.067241 60.575339 0
M  V30 4 C 37.302698 34.937608 60.681369 0
M  V30 5 C 38.369454 28.478276 52.649364 0 CFG=1
M  V30 6 C 37.805965 27.012288 54.462134 0
M  V30 7 S 38.878686 29.408290 54.167821 0
M  V30 8 N 36.000420 33.623289 59.054652 0
M  V30 9 O 39.514399 27.917986 52.023609 0
M  V30 10 C 37.024793 33.800764 59.976924 0
M  V30 11 C 38.514623 27.987634 55.096934 0
M  V30 12 C 40.811811 30.650510 63.281102 0
M  V30 13 C 38.818810 30.145596 57.434083 0
M  V30 14 C 39.729473 31.693176 62.974069 0
M  V30 15 C 38.170483 31.618671 59.978005 0
M  V30 16 C 38.599666 26.645692 57.124955 0
M  V30 17 C 37.867973 25.629799 56.463472 0
M  V30 18 O 37.861597 29.800693 58.425371 0
M  V30 19 C 38.926298 27.836569 56.434585 0
M  V30 20 C 39.703472 28.933191 57.126328 0
M  V30 21 N 37.946830 32.896234 60.348672 0
M  V30 22 C 38.483494 34.596396 61.489890 0
M  V30 23 C 38.785314 33.273749 61.186119 0
M  V30 24 C 37.414988 27.290367 53.053160 0
M  V30 25 C 39.773681 32.195583 61.527178 0 CFG=2
M  V30 26 C 37.467379 25.815282 55.121376 0
M  V30 27 H 36.658456 31.405240 58.445385 0
M  V30 28 H 40.302258 27.266450 50.252492 0
M  V30 29 H 38.640296 26.819163 50.490309 0
M  V30 30 H 39.061291 28.497540 50.076263 0
M  V30 31 H 36.765964 35.873914 60.635152 0
M  V30 32 H 37.874765 29.167641 51.964494 0
M  V30 33 H 35.361021 34.367672 58.815475 0
M  V30 34 H 35.874333 32.784842 58.500035 0
M  V30 35 H 40.743124 30.321836 64.318444 0
M  V30 36 H 40.700110 29.767492 62.650686 0
M  V30 37 H 41.812000 31.054157 63.122888 0
M  V30 38 H 39.466908 30.958019 57.752521 0
M  V30 39 H 38.291155 30.524602 56.560650 0
M  V30 40 H 39.830757 32.533479 63.661755 0
M  V30 41 H 38.757125 31.232614 63.149199 0
M  V30 42 H 38.905292 26.511688 58.152109 0
M  V30 43 H 37.615174 24.717315 56.983724 0
M  V30 44 H 40.145448 28.557277 58.050128 0
M  V30 45 H 40.538341 29.220756 56.488194 0
M  V30 46 H 39.019343 35.228950 62.182321 0
M  V30 47 H 37.530452 26.421454 52.427369 0
M  V30 48 H 36.372857 27.612113 53.046951 0
M  V30 49 H 40.781933 32.488215 61.229693 0
M  V30 50 H 36.906605 25.047773 54.607904 0
M  V30 END ATOM
M  V30 BEGIN BOND
M  V30 1 1 7 5
M  V30 2 1 9 2
M  V30 3 1 9 5
M  V30 4 2 10 4
M  V30 5 1 10 8
M  V30 6 1 11 6
M  V30 7 1 11 7
M  V30 8 1 14 12
M  V30 9 1 15 1
M  V30 10 2 15 3
M  V30 11 2 17 16
M  V30 12 1 18 1
M  V30 13 1 18 13
M  V30 14 2 19 11
M  V30 15 1 19 16
M  V30 16 1 20 13
M  V30 17 1 20 19
M  V30 18 1 21 10
M  V30 19 1 21 15
M  V30 20 1 22 4
M  V30 21 1 23 21
M  V30 22 2 23 22
M  V30 23 1 24 5
M  V30 24 1 24 6
M  V30 25 1 25 3
M  V30 26 1 25 14
M  V30 27 1 25 23
M  V30 28 2 26 6
M  V30 29 1 26 17
M  V30 30 1 27 1
M  V30 31 1 28 2
M  V30 32 1 29 2
M  V30 33 1 30 2
M  V30 34 1 31 4
M  V30 35 1 5 32 CFG=3
M  V30 36 1 33 8
M  V30 37 1 34 8
M  V30 38 1 35 12
M  V30 39 1 36 12
M  V30 40 1 37 12
M  V30 41 1 38 13
M  V30 42 1 39 13
M  V30 43 1 40 14
M  V30 44 1 41 14
M  V30 45 1 42 16
M  V30 46 1 43 17
M  V30 47 1 44 20
M  V30 48 1 45 20
M  V30 49 1 46 22
M  V30 50 1 47 24
M  V30 51 1 48 24
M  V30 52 1 25 49 CFG=3
M  V30 53 1 50 26
M  V30 END BOND
M  V30 END CTAB
M  END
>  <i_epik_Tot_Q>  (1) 
0

>  <i_epik_Tot_abs_Q>  (1) 
0

>  <i_i_glide_confnum>  (1) 
33

>  <i_i_glide_lignum>  (1) 
156

>  <i_i_glide_posenum>  (1) 
215

>  <i_i_glide_rotatable_bonds>  (1) 
7

>  <i_lp_mmshare_version>  (1) 
72125

>  <i_m_source_file_index>  (1) 
62

>  <i_f3d_flags>  (1) 
0

>  <num_sample>  (1) 
100

>  <b_lp_Chiralities_Consistent>  (1) 
1

>  <r_epik_Charging_Adjusted_Penalty>  (1) 
7.696981497401035e-09

>  <r_epik_Ionization_Penalty>  (1) 
0.0074591056384177897

>  <r_epik_Ionization_Penalty_Charging>  (1) 
0

>  <r_epik_Ionization_Penalty_Neutral>  (1) 
0.0074591056384177897

>  <r_epik_State_Penalty>  (1) 
7.696981497401035e-09

>  <r_glide_ring_energy>  (1) 
0

>  <r_i_docking_score>  (1) 
-7.3371847677334721

>  <r_i_glide_ecoul>  (1) 
-5.9760122088848062

>  <r_i_glide_eff_state_penalty>  (1) 
7.696981497401035e-09

>  <r_i_glide_einternal>  (1) 
7.0295439646114719

>  <r_i_glide_emodel>  (1) 
-63.734018915722785

>  <r_i_glide_emodel_strain>  (1) 
1.2809525205629484

>  <r_i_glide_energy>  (1) 
-46.179952878605178

>  <r_i_glide_erotb>  (1) 
0.69602230450698876

>  <r_i_glide_esite>  (1) 
-0.17553305686624796

>  <r_i_glide_evdw>  (1) 
-40.203940669720375

>  <r_i_glide_gscore>  (1) 
-7.3371847754304538

>  <r_i_glide_gscore_strain>  (1) 
0

>  <r_i_glide_hbond>  (1) 
-0.29236213121033999

>  <r_i_glide_ligand_efficiency>  (1) 
-0.28219941414359506

>  <r_i_glide_ligand_efficiency_ln>  (1) 
-1.7231137674353161

>  <r_i_glide_ligand_efficiency_sa>  (1) 
-0.8360146549072639

>  <r_i_glide_lipo>  (1) 
-3.473621510677384

>  <r_i_glide_metal>  (1) 
-0

>  <r_i_glide_rewards>  (1) 
-1.1850915163647306

>  <r_lp_Energy>  (1) 
14.504761999999999

>  <s_epik_Chemistry_Notes>  (1) 
This compound has an imine and may undergo hydrolysis. This compound contains an acetal/aminal-like group ( X-CH(R)-Y where X, Y are N, S, or O) that may be acid/base labile, releasing an aldehyde. This compound has a N-S or N-O group and may undergo hydrolysis at high or low pH.

>  <s_epik_cmdline>  (1) 
J2VwaWtfcHl0aG9uJywgJy1waHQnLCAnMS4wJywgJy1waCcsICc3LjQnLCAnLXRuJywgJzgnLCAnLW1hJywgJzUwMCcsICctaW1hZScsICc8aW5maWxlLm1hZT4nLCAnLW9tYWUnLCAnPG91dGZpbGUubWFlPic=

>  <s_epik_input>  (1) 
W05IMl1jMVtjSF1bY0hdYyhuMTIpW0NAQEhdKFtDSDJdW0NIM10pTj1DMltOSF1PW0NIMl1bQ0gyXWMoW2NIXVtjSF1bY0hdMyljKGMzNClTW0NASF0oW0NIMl00KU9bQ0gzXQ==

>  <s_glide_docking_method>  (1) 
confgen

>  <s_i_glide_gridfile>  (1) 
gpcr_5ht2c_6bqh_protein_autoprepared_prepared

>  <s_lp_Force_Field>  (1) 
S-OPLS

>  <s_lp_Variant>  (1) 
DiffSBDD_61_num_sample_100-1

>  <s_m_source_file>  (1) 
generated__ligand_DiffSBDD_2026-05-06_prepared.sdf

>  <GenAI_Model>  (1) 
DiffSBDD

>  <Protein>  (1) 
GPCR_5HT2C

$$$$
DiffSBDD_2_num_sample_100
     RDKit          3D

  0  0  0  0  0  0  0  0  0  0999 V3000
M  V30 BEGIN CTAB
M  V30 COUNTS 52 52 0 0 1
M  V30 BEGIN ATOM
M  V30 1 C 37.831260 30.329740 55.279229 0
M  V30 2 C 38.888074 30.209571 59.852029 0
M  V30 3 O 37.067397 32.815758 61.836953 0
M  V30 4 O 37.467455 32.618680 58.253505 0
M  V30 5 C 37.834784 30.865229 60.763163 0
M  V30 6 F 41.127241 30.383520 50.495420 0
M  V30 7 C 40.211155 29.803327 51.305101 0
M  V30 8 C 38.949127 25.730710 57.139000 0
M  V30 9 O 39.467419 24.626085 57.028910 0
M  V30 10 C 39.619496 27.640116 55.528118 0
M  V30 11 C 38.667344 29.158679 53.116757 0
M  V30 12 S 39.867404 30.421436 52.870050 0
M  V30 13 C 39.871926 27.925584 59.141795 0
M  V30 14 O 36.714278 34.326572 59.634547 0
M  V30 15 O 37.067403 30.021428 56.431820 0
M  V30 16 N 38.197921 27.887534 55.197326 0 CHG=1
M  V30 17 C 37.721080 32.400372 60.657355 0 CFG=1
M  V30 18 C 37.467414 25.875221 57.486846 0
M  V30 19 C 39.767675 27.025903 56.935685 0 CFG=1
M  V30 20 O 39.329491 28.034693 57.834390 0
M  V30 21 C 36.862844 32.929396 59.481640 0
M  V30 22 C 39.490973 28.702457 50.966674 0
M  V30 23 C 38.978486 28.699617 60.114453 0
M  V30 24 C 38.592485 28.321429 52.013895 0
M  V30 25 C 37.865187 29.072639 54.383059 0 CFG=1
M  V30 26 H 38.828965 30.635445 55.597060 0
M  V30 27 H 37.377824 31.172687 54.754728 0
M  V30 28 H 38.637216 30.381481 58.806121 0
M  V30 29 H 39.861968 30.666972 60.023882 0
M  V30 30 H 36.815163 33.718412 61.688352 0
M  V30 31 H 36.765201 32.421406 57.634200 0
M  V30 32 H 38.100127 30.607279 61.790074 0
M  V30 33 H 36.854969 30.420467 60.585946 0
M  V30 34 H 40.181572 28.574571 55.497370 0
M  V30 35 H 40.054051 26.985955 54.771132 0
M  V30 36 H 40.898411 28.294067 59.159400 0
M  V30 37 H 39.892275 26.881925 59.455505 0
M  V30 38 H 36.215301 34.652425 58.899366 0
M  V30 39 H 36.429924 30.724830 56.605944 0
M  V30 40 H 37.797764 27.061579 54.777348 0
M  V30 41 H 38.712063 32.856414 60.639927 0
M  V30 42 H 36.856006 25.671851 56.607983 0
M  V30 43 H 37.198071 25.149330 58.253434 0
M  V30 44 H 37.221362 26.871382 57.853165 0
M  V30 45 H 40.823029 26.814298 57.116187 0
M  V30 46 H 35.873228 32.469048 59.502658 0
M  V30 47 H 39.563616 28.168829 50.030855 0
M  V30 48 H 39.323246 28.525004 61.134256 0
M  V30 49 H 37.977702 28.283452 60.055920 0
M  V30 50 H 37.930492 27.471218 51.926188 0
M  V30 51 H 36.831430 28.909154 54.078524 0
M  V30 52 H 37.722733 28.083874 56.072479 0
M  V30 END ATOM
M  V30 BEGIN BOND
M  V30 1 1 5 2
M  V30 2 1 7 6
M  V30 3 2 9 8
M  V30 4 1 12 7
M  V30 5 1 12 11
M  V30 6 1 15 1
M  V30 7 1 16 10
M  V30 8 1 17 3
M  V30 9 1 17 5
M  V30 10 1 18 8
M  V30 11 1 19 8
M  V30 12 1 19 10
M  V30 13 1 20 13
M  V30 14 1 20 19
M  V30 15 1 21 4
M  V30 16 1 21 14
M  V30 17 1 21 17
M  V30 18 2 22 7
M  V30 19 1 23 2
M  V30 20 1 23 13
M  V30 21 2 24 11
M  V30 22 1 24 22
M  V30 23 1 25 1
M  V30 24 1 25 11
M  V30 25 1 25 16
M  V30 26 1 26 1
M  V30 27 1 27 1
M  V30 28 1 28 2
M  V30 29 1 29 2
M  V30 30 1 30 3
M  V30 31 1 31 4
M  V30 32 1 32 5
M  V30 33 1 33 5
M  V30 34 1 34 10
M  V30 35 1 35 10
M  V30 36 1 36 13
M  V30 37 1 37 13
M  V30 38 1 38 14
M  V30 39 1 39 15
M  V30 40 1 40 16
M  V30 41 1 17 41 CFG=3
M  V30 42 1 42 18
M  V30 43 1 43 18
M  V30 44 1 44 18
M  V30 45 1 19 45 CFG=1
M  V30 46 1 46 21
M  V30 47 1 47 22
M  V30 48 1 48 23
M  V30 49 1 49 23
M  V30 50 1 50 24
M  V30 51 1 25 51 CFG=3
M  V30 52 1 52 16
M  V30 END BOND
M  V30 END CTAB
M  END
>  <i_epik_Tot_Q>  (1) 
1

>  <i_epik_Tot_abs_Q>  (1) 
1

>  <i_i_glide_confnum>  (1) 
309

>  <i_i_glide_lignum>  (1) 
20

>  <i_i_glide_posenum>  (1) 
254

>  <i_i_glide_rotatable_bonds>  (1) 
17

>  <i_lp_mmshare_version>  (1) 
72125

>  <i_m_source_file_index>  (1) 
3

>  <i_f3d_flags>  (1) 
0

>  <num_sample>  (1) 
100

>  <b_lp_Chiralities_Consistent>  (1) 
1

>  <r_epik_Charging_Adjusted_Penalty>  (1) 
1.2755826654989224

>  <r_epik_Ionization_Penalty>  (1) 
0.63780895661999681

>  <r_epik_Ionization_Penalty_Charging>  (1) 
0.6377913327494612

>  <r_epik_Ionization_Penalty_Neutral>  (1) 
1.7623870535632096e-05

>  <r_epik_State_Penalty>  (1) 
0.6377913327494612

>  <r_glide_ring_energy>  (1) 
0

>  <r_i_docking_score>  (1) 
-7.3367419397356644

>  <r_i_glide_ecoul>  (1) 
-12.422669786306352

>  <r_i_glide_eff_state_penalty>  (1) 
0.6377913327494612

>  <r_i_glide_einternal>  (1) 
15.438321575552578

>  <r_i_glide_emodel>  (1) 
-67.614135228042926

>  <r_i_glide_emodel_strain>  (1) 
3.1562566811786112

>  <r_i_glide_energy>  (1) 
-48.747985827045568

>  <r_i_glide_erotb>  (1) 
1.4743289393995902

>  <r_i_glide_esite>  (1) 
-0.066989201363011189

>  <r_i_glide_evdw>  (1) 
-36.325316040739217

>  <r_i_glide_gscore>  (1) 
-7.9745332724851252

>  <r_i_glide_gscore_strain>  (1) 
0

>  <r_i_glide_hbond>  (1) 
-0.30399999999999999

>  <r_i_glide_ligand_efficiency>  (1) 
-0.29346967758942655

>  <r_i_glide_ligand_efficiency_ln>  (1) 
-1.7390277041313171

>  <r_i_glide_ligand_efficiency_sa>  (1) 
-0.85811054289909416

>  <r_i_glide_lipo>  (1) 
-3.235411836500623

>  <r_i_glide_metal>  (1) 
-0

>  <r_i_glide_rewards>  (1) 
-2.1627949040381673

>  <r_lp_Energy>  (1) 
15.151610999999999

>  <r_lp_tautomer_probability>  (1) 
0.9999999700000004

>  <s_epik_Chemistry_Notes>  (1) 
This compound contains an acetal/aminal-like group ( X-CH(R)-Y where X, Y are N, S, or O) that may be acid/base labile, releasing an aldehyde.

>  <s_epik_cmdline>  (1) 
J2VwaWtfcHl0aG9uJywgJy1waHQnLCAnMS4wJywgJy1waCcsICc3LjQnLCAnLXRuJywgJzgnLCAnLW1hJywgJzUwMCcsICctaW1hZScsICc8aW5maWxlLm1hZT4nLCAnLW9tYWUnLCAnPG91dGZpbGUubWFlPic=

>  <s_epik_input>  (1) 
RmMxc2MoW2NIXVtjSF0xKVtDQEhdKFtDSDJdW09IXSlbTkhdW0NIMl1bQ0BIXShDKD1PKVtDSDNdKU9bQ0gyXVtDSDJdW0NIMl1bQ0gyXVtDQEhdKFtPSF0pW0NIXShbT0hdKVtPSF0=

>  <s_glide_docking_method>  (1) 
confgen

>  <s_i_glide_gridfile>  (1) 
gpcr_5ht2c_6bqh_protein_autoprepared_prepared

>  <s_lp_Force_Field>  (1) 
S-OPLS

>  <s_lp_Variant>  (1) 
DiffSBDD_2_num_sample_100-2

>  <s_m_source_file>  (1) 
generated__ligand_DiffSBDD_2026-05-06_prepared.sdf

>  <GenAI_Model>  (1) 
DiffSBDD

>  <Protein>  (1) 
GPCR_5HT2C

$$$$
DiffSBDD_77_num_sample_100
     RDKit          3D

  0  0  0  0  0  0  0  0  0  0999 V3000
M  V30 BEGIN CTAB
M  V30 COUNTS 77 79 0 0 1
M  V30 BEGIN ATOM
M  V30 1 C 41.086519 31.052129 66.167563 0
M  V30 2 F 43.661089 29.430663 64.106753 0
M  V30 3 C 39.326618 27.217469 59.096953 0
M  V30 4 C 40.667302 32.078666 65.298213 0
M  V30 5 C 39.402629 30.743293 53.454872 0
M  V30 6 C 39.258206 31.516596 61.999201 0
M  V30 7 C 37.471429 29.437898 58.356600 0
M  V30 8 C 38.525002 31.388851 59.494317 0 CFG=2
M  V30 9 O 38.556962 30.909041 55.981731 0
M  V30 10 C 39.946535 31.077420 52.046434 0
M  V30 11 N 38.149795 36.021517 62.253473 0
M  V30 12 C 40.800114 33.312351 63.081025 0
M  V30 13 C 42.688351 30.289229 64.494513 0
M  V30 14 O 41.806599 27.221437 57.780533 0
M  V30 15 C 40.710911 27.549571 56.949266 0
M  V30 16 C 41.256562 32.210008 64.025277 0
M  V30 17 F 42.500174 29.171730 66.602299 0
M  V30 18 C 39.830666 33.537201 60.000090 0
M  V30 19 O 39.467353 37.100756 63.744111 0
M  V30 20 O 36.957996 31.878670 61.277276 0
M  V30 21 C 42.097092 30.157672 65.765908 0
M  V30 22 C 39.643054 28.666885 51.427089 0
M  V30 23 N 39.104824 28.860362 55.125227 0
M  V30 24 C 39.240484 35.408276 61.504730 0
M  V30 25 C 42.267918 31.313850 63.625458 0
M  V30 26 C 39.494894 27.986750 57.792825 0
M  V30 27 C 38.355432 36.821446 63.307843 0
M  V30 28 C 39.428570 28.276569 52.807496 0
M  V30 29 C 38.813222 32.844881 59.088914 0
M  V30 30 F 39.616912 27.721625 50.476858 0
M  V30 31 C 39.326801 26.806428 53.173388 0
M  V30 32 C 39.447922 33.018665 62.373860 0 CFG=1
M  V30 33 C 38.771348 29.709339 56.140458 0
M  V30 34 N 37.451895 30.868336 58.653878 0
M  V30 35 C 38.623313 28.999222 57.439070 0
M  V30 36 C 39.314004 29.233760 53.759415 0
M  V30 37 C 39.866423 29.934516 51.065056 0
M  V30 38 C 38.147433 31.174566 60.983573 0 CFG=2
M  V30 39 N 39.154795 33.944539 61.242166 0 CFG=2 CHG=1
M  V30 40 H 40.632692 30.950291 67.142349 0
M  V30 41 H 39.747521 27.775869 59.933708 0
M  V30 42 H 38.283828 26.988418 59.303782 0
M  V30 43 H 39.828916 26.251037 59.049870 0
M  V30 44 H 39.892149 32.762150 65.606904 0
M  V30 45 H 38.403978 31.173705 53.536872 0
M  V30 46 H 40.057788 31.250032 54.163905 0
M  V30 47 H 40.193075 31.092755 61.632175 0
M  V30 48 H 39.046699 30.966749 62.918051 0
M  V30 49 H 36.539358 29.173918 57.856258 0
M  V30 50 H 37.466284 28.891433 59.294273 0
M  V30 51 H 39.435303 30.820980 59.301288 0
M  V30 52 H 41.005866 31.312477 52.116805 0
M  V30 53 H 39.467444 31.962641 51.633971 0
M  V30 54 H 37.203354 35.840549 61.951135 0
M  V30 55 H 41.587495 33.475963 62.344197 0
M  V30 56 H 40.730406 34.238297 63.653102 0
M  V30 57 H 42.268090 26.481245 57.402425 0
M  V30 58 H 41.119694 28.318947 56.296750 0
M  V30 59 H 40.453609 26.669655 56.359537 0
M  V30 60 H 40.666757 32.876857 60.253460 0
M  V30 61 H 40.246737 34.403197 59.481409 0
M  V30 62 H 36.363110 31.693708 60.558738 0
M  V30 63 H 39.163889 27.875251 55.331798 0
M  V30 64 H 40.227673 35.658054 61.897465 0
M  V30 65 H 39.191082 35.931913 60.549314 0
M  V30 66 H 42.722879 31.412289 62.652875 0
M  V30 67 H 37.403578 37.186853 63.723016 0
M  V30 68 H 39.197210 32.845749 58.066793 0
M  V30 69 H 37.889207 33.426318 59.050872 0
M  V30 70 H 39.775807 26.195491 52.390746 0
M  V30 71 H 39.860891 26.571059 54.092554 0
M  V30 72 H 38.282954 26.513554 53.283842 0
M  V30 73 H 38.667397 33.221358 63.088498 0
M  V30 74 H 37.326790 31.401406 57.789873 0
M  V30 75 H 40.022592 30.174889 50.024321 0
M  V30 76 H 37.929719 30.115676 61.113916 0
M  V30 77 H 38.177655 33.768216 61.044177 0
M  V30 END ATOM
M  V30 BEGIN BOND
M  V30 1 2 4 1
M  V30 2 1 10 5
M  V30 3 1 13 2
M  V30 4 1 15 14
M  V30 5 1 16 4
M  V30 6 1 16 12
M  V30 7 1 21 1
M  V30 8 2 21 13
M  V30 9 1 21 17
M  V30 10 1 24 11
M  V30 11 1 25 13
M  V30 12 2 25 16
M  V30 13 1 26 3
M  V30 14 1 26 15
M  V30 15 1 27 11
M  V30 16 2 27 19
M  V30 17 1 28 22
M  V30 18 1 29 8
M  V30 19 1 29 18
M  V30 20 1 30 22
M  V30 21 1 31 28
M  V30 22 1 32 6
M  V30 23 1 32 12
M  V30 24 2 33 9
M  V30 25 1 33 23
M  V30 26 1 34 7
M  V30 27 1 34 8
M  V30 28 1 35 7
M  V30 29 2 35 26
M  V30 30 1 35 33
M  V30 31 1 36 5
M  V30 32 1 36 23
M  V30 33 2 36 28
M  V30 34 1 37 10
M  V30 35 2 37 22
M  V30 36 1 38 6
M  V30 37 1 38 8
M  V30 38 1 38 20
M  V30 39 1 39 18
M  V30 40 1 39 24
M  V30 41 1 39 32
M  V30 42 1 40 1
M  V30 43 1 41 3
M  V30 44 1 42 3
M  V30 45 1 43 3
M  V30 46 1 44 4
M  V30 47 1 45 5
M  V30 48 1 46 5
M  V30 49 1 47 6
M  V30 50 1 48 6
M  V30 51 1 49 7
M  V30 52 1 50 7
M  V30 53 1 8 51 CFG=3
M  V30 54 1 52 10
M  V30 55 1 53 10
M  V30 56 1 54 11
M  V30 57 1 55 12
M  V30 58 1 56 12
M  V30 59 1 57 14
M  V30 60 1 58 15
M  V30 61 1 59 15
M  V30 62 1 60 18
M  V30 63 1 61 18
M  V30 64 1 62 20
M  V30 65 1 63 23
M  V30 66 1 64 24
M  V30 67 1 65 24
M  V30 68 1 66 25
M  V30 69 1 67 27
M  V30 70 1 68 29
M  V30 71 1 69 29
M  V30 72 1 70 31
M  V30 73 1 71 31
M  V30 74 1 72 31
M  V30 75 1 32 73 CFG=1
M  V30 76 1 74 34
M  V30 77 1 75 37
M  V30 78 1 38 76 CFG=3
M  V30 79 1 39 77 CFG=3
M  V30 END BOND
M  V30 END CTAB
M  END
>  <i_epik_Tot_Q>  (1) 
1

>  <i_epik_Tot_abs_Q>  (1) 
1

>  <i_i_glide_confnum>  (1) 
4030

>  <i_i_glide_lignum>  (1) 
195

>  <i_i_glide_posenum>  (1) 
169

>  <i_i_glide_rotatable_bonds>  (1) 
14

>  <i_lp_mmshare_version>  (1) 
72125

>  <i_m_source_file_index>  (1) 
78

>  <i_f3d_flags>  (1) 
0

>  <num_sample>  (1) 
100

>  <b_lp_Chiralities_Consistent>  (1) 
1

>  <r_epik_Charging_Adjusted_Penalty>  (1) 
1.2599673287133732

>  <r_epik_Ionization_Penalty>  (1) 
0.56885031527891383

>  <r_epik_Ionization_Penalty_Charging>  (1) 
0.52000942162343

>  <r_epik_Ionization_Penalty_Neutral>  (1) 
0.048840893655483872

>  <r_epik_State_Penalty>  (1) 
0.73995790708994325

>  <r_glide_ring_energy>  (1) 
0

>  <r_i_docking_score>  (1) 
-7.3332331249906293

>  <r_i_glide_ecoul>  (1) 
-1.8909091573738765

>  <r_i_glide_eff_state_penalty>  (1) 
0.73995790708994325

>  <r_i_glide_einternal>  (1) 
27.66143517173985

>  <r_i_glide_emodel>  (1) 
-54.560484907688227

>  <r_i_glide_emodel_strain>  (1) 
2.9671589722254623

>  <r_i_glide_energy>  (1) 
-45.433209993638258

>  <r_i_glide_erotb>  (1) 
0.67934156738045093

>  <r_i_glide_esite>  (1) 
0

>  <r_i_glide_evdw>  (1) 
-43.542300836264381

>  <r_i_glide_gscore>  (1) 
-8.0731910320805724

>  <r_i_glide_gscore_strain>  (1) 
0

>  <r_i_glide_hbond>  (1) 
-0.48625528499114817

>  <r_i_glide_ligand_efficiency>  (1) 
-0.18803161858950332

>  <r_i_glide_ligand_efficiency_ln>  (1) 
-1.5724533481993488

>  <r_i_glide_ligand_efficiency_sa>  (1) 
-0.63765497660919901

>  <r_i_glide_lipo>  (1) 
-3.8938514787688137

>  <r_i_glide_metal>  (1) 
-0

>  <r_i_glide_rewards>  (1) 
-1.9116744202817617

>  <r_lp_Energy>  (1) 
52.196855999999997

>  <s_epik_Chemistry_Notes>  (1) 
This compound contains an acetal/aminal-like group ( X-CH(R)-Y where X, Y are N, S, or O) that may be acid/base labile, releasing an aldehyde.

>  <s_epik_cmdline>  (1) 
J2VwaWtfcHl0aG9uJywgJy1waHQnLCAnMS4wJywgJy1waCcsICc3LjQnLCAnLXRuJywgJzgnLCAnLW1hJywgJzUwMCcsICctaW1hZScsICc8aW5maWxlLm1hZT4nLCAnLW9tYWUnLCAnPG91dGZpbGUubWFlPic=

>  <s_epik_input>  (1) 
RmMxYyhGKVtjSF1bY0hdYyhbY0hdMSlbQ0gyXVtDQEhdKFtDSDJdW0NASF0yW09IXSlOKFtDSDJdW05IXVtDSF09TylbQ0gyXVtDSDJdW0NAQEhdMltOSF1bQ0gyXS9DKD1DKFxbQ0gzXSlbQ0gyXVtPSF0pQyg9TylbTkhdQyg9QzNbQ0gzXSlbQ0gyXVtDSDJdW0NIXT1DM0Y=

>  <s_glide_docking_method>  (1) 
confgen

>  <s_i_glide_gridfile>  (1) 
gpcr_5ht2c_6bqh_protein_autoprepared_prepared

>  <s_lp_Force_Field>  (1) 
S-OPLS

>  <s_lp_Variant>  (1) 
DiffSBDD_77_num_sample_100-6

>  <s_m_source_file>  (1) 
generated__ligand_DiffSBDD_2026-05-06_prepared.sdf

>  <GenAI_Model>  (1) 
DiffSBDD

>  <Protein>  (1) 
GPCR_5HT2C

$$$$
DiffSBDD_63_num_sample_100
     RDKit          3D

  0  0  0  0  0  0  0  0  0  0999 V3000
M  V30 BEGIN CTAB
M  V30 COUNTS 67 70 0 0 1
M  V30 BEGIN ATOM
M  V30 1 C 38.466753 31.893693 60.314258 0
M  V30 2 O 37.676673 28.057390 57.069248 0
M  V30 3 C 37.720557 29.321310 56.469672 0 CFG=2
M  V30 4 O 41.067402 28.421371 60.389132 0
M  V30 5 C 37.804860 34.311666 60.833279 0 CFG=1
M  V30 6 C 40.918858 28.185089 59.003310 0
M  V30 7 C 38.765849 28.228868 52.975287 0
M  V30 8 C 38.940341 27.544623 57.488721 0 CFG=1
M  V30 9 F 41.954705 35.589447 65.736496 0
M  V30 10 C 40.981660 35.876873 64.853625 0
M  V30 11 C 40.485192 35.699868 62.388963 0
M  V30 12 S 38.399235 36.038084 60.743354 0
M  V30 13 C 36.596422 34.095892 59.892234 0
M  V30 14 C 37.896976 28.394699 54.233708 0
M  V30 15 N 38.516340 29.276456 55.224084 0
M  V30 16 O 39.067344 29.502573 52.414048 0
M  V30 17 C 41.273686 35.583718 63.472581 0
M  V30 18 C 39.650214 30.419379 53.335736 0
M  V30 19 F 37.169398 37.151806 62.986226 0
M  V30 20 C 38.385377 36.691456 63.334445 0
M  V30 21 C 39.867404 36.421430 65.356391 0
M  V30 22 C 38.219824 30.282009 57.576061 0 CFG=2
M  V30 23 C 39.473023 28.490266 58.584938 0 CFG=2
M  V30 24 C 38.949196 33.334848 60.489582 0
M  V30 25 C 38.767796 30.570211 54.588473 0
M  V30 26 C 38.691290 26.096210 57.960234 0
M  V30 27 C 36.212179 32.605340 59.753040 0
M  V30 28 O 39.468391 29.825955 58.079746 0
M  V30 29 O 39.683012 25.226528 57.453495 0
M  V30 30 F 41.067266 35.338611 61.231839 0
M  V30 31 N 37.402208 31.855141 59.286528 0 CFG=2 CHG=1
M  V30 32 N 39.154927 36.129824 62.312495 0
M  V30 33 C 38.682189 36.821430 64.640753 0
M  V30 34 F 39.847139 36.615149 66.686581 0
M  V30 35 C 37.175476 30.506915 58.703091 0
M  V30 36 H 38.090087 31.494511 61.257778 0
M  V30 37 H 39.315211 31.271255 60.035800 0
M  V30 38 H 36.705399 29.621421 56.199521 0
M  V30 39 H 41.911614 28.069205 60.653073 0
M  V30 40 H 37.472136 34.119008 61.853392 0
M  V30 41 H 41.166387 27.146009 58.803884 0
M  V30 42 H 41.635896 28.779606 58.436727 0
M  V30 43 H 39.684342 27.691726 53.210708 0
M  V30 44 H 38.237847 27.633825 52.228926 0
M  V30 45 H 39.634462 27.524626 56.646946 0
M  V30 46 H 36.830218 34.491858 58.902572 0
M  V30 47 H 35.739140 34.669208 60.247847 0
M  V30 48 H 37.709509 27.410039 54.664046 0
M  V30 49 H 36.924751 28.792149 53.942307 0
M  V30 50 H 42.267397 35.214126 63.282954 0
M  V30 51 H 40.644393 30.076439 53.619080 0
M  V30 52 H 39.778593 31.383254 52.842894 0
M  V30 53 H 38.379584 31.253963 57.114133 0
M  V30 54 H 38.826418 28.402375 59.457540 0
M  V30 55 H 39.447410 33.659219 59.574635 0
M  V30 56 H 39.703852 33.338773 61.273399 0
M  V30 57 H 37.824648 31.052189 54.325622 0
M  V30 58 H 39.293159 31.241028 55.265890 0
M  V30 59 H 37.733325 25.738376 57.581849 0
M  V30 60 H 38.647548 26.021485 59.046606 0
M  V30 61 H 35.384230 32.507600 59.053502 0
M  V30 62 H 35.858518 32.202614 60.703410 0
M  V30 63 H 39.441131 24.336055 57.658960 0
M  V30 64 H 37.912743 37.269929 65.245752 0
M  V30 65 H 36.178547 30.421438 58.273878 0
M  V30 66 H 37.188383 29.747057 59.481999 0
M  V30 67 H 37.732915 32.397916 58.500712 0
M  V30 END ATOM
M  V30 BEGIN BOND
M  V30 1 1 3 2
M  V30 2 1 6 4
M  V30 3 1 8 2
M  V30 4 1 10 9
M  V30 5 1 12 5
M  V30 6 1 13 5
M  V30 7 1 14 7
M  V30 8 1 15 3
M  V30 9 1 15 14
M  V30 10 1 16 7
M  V30 11 1 17 10
M  V30 12 2 17 11
M  V30 13 1 18 16
M  V30 14 1 20 19
M  V30 15 2 21 10
M  V30 16 1 22 3
M  V30 17 1 23 6
M  V30 18 1 23 8
M  V30 19 1 24 1
M  V30 20 1 24 5
M  V30 21 1 25 15
M  V30 22 1 25 18
M  V30 23 1 26 8
M  V30 24 1 27 13
M  V30 25 1 28 22
M  V30 26 1 28 23
M  V30 27 1 29 26
M  V30 28 1 30 11
M  V30 29 1 31 1
M  V30 30 1 31 27
M  V30 31 1 32 11
M  V30 32 1 32 12
M  V30 33 1 32 20
M  V30 34 2 33 20
M  V30 35 1 33 21
M  V30 36 1 34 21
M  V30 37 1 35 22
M  V30 38 1 35 31
M  V30 39 1 36 1
M  V30 40 1 37 1
M  V30 41 1 3 38 CFG=3
M  V30 42 1 39 4
M  V30 43 1 5 40 CFG=1
M  V30 44 1 41 6
M  V30 45 1 42 6
M  V30 46 1 43 7
M  V30 47 1 44 7
M  V30 48 1 8 45 CFG=3
M  V30 49 1 46 13
M  V30 50 1 47 13
M  V30 51 1 48 14
M  V30 52 1 49 14
M  V30 53 1 50 17
M  V30 54 1 51 18
M  V30 55 1 52 18
M  V30 56 1 22 53 CFG=3
M  V30 57 1 23 54 CFG=1
M  V30 58 1 55 24
M  V30 59 1 56 24
M  V30 60 1 57 25
M  V30 61 1 58 25
M  V30 62 1 59 26
M  V30 63 1 60 26
M  V30 64 1 61 27
M  V30 65 1 62 27
M  V30 66 1 63 29
M  V30 67 1 64 33
M  V30 68 1 65 35
M  V30 69 1 66 35
M  V30 70 1 31 67 CFG=3
M  V30 END BOND
M  V30 END CTAB
M  END
>  <i_epik_Tot_Q>  (1) 
1

>  <i_epik_Tot_abs_Q>  (1) 
1

>  <i_i_glide_confnum>  (1) 
230

>  <i_i_glide_lignum>  (1) 
158

>  <i_i_glide_posenum>  (1) 
318

>  <i_i_glide_rotatable_bonds>  (1) 
9

>  <i_lp_mmshare_version>  (1) 
72125

>  <i_m_source_file_index>  (1) 
64

>  <i_f3d_flags>  (1) 
0

>  <num_sample>  (1) 
100

>  <b_lp_Chiralities_Consistent>  (1) 
1

>  <r_epik_Charging_Adjusted_Penalty>  (1) 
0.6833741402111444

>  <r_epik_Ionization_Penalty>  (1) 
0.34168859396029116

>  <r_epik_Ionization_Penalty_Charging>  (1) 
0.34168707010557214

>  <r_epik_Ionization_Penalty_Neutral>  (1) 
1.5238547190056168e-06

>  <r_epik_State_Penalty>  (1) 
0.3416870701055722

>  <r_glide_ring_energy>  (1) 
0.0045149093831275133

>  <r_i_docking_score>  (1) 
-7.3317976327925889

>  <r_i_glide_ecoul>  (1) 
-5.1273357610326791

>  <r_i_glide_eff_state_penalty>  (1) 
0.3416870701055722

>  <r_i_glide_einternal>  (1) 
7.4536171958418223

>  <r_i_glide_emodel>  (1) 
-56.151539700689071

>  <r_i_glide_emodel_strain>  (1) 
1.0244806744897517

>  <r_i_glide_energy>  (1) 
-42.491396360031416

>  <r_i_glide_erotb>  (1) 
0.51979340436673749

>  <r_i_glide_esite>  (1) 
-0.13210031865658664

>  <r_i_glide_evdw>  (1) 
-37.364060598998734

>  <r_i_glide_gscore>  (1) 
-7.6734847028981612

>  <r_i_glide_gscore_strain>  (1) 
0

>  <r_i_glide_hbond>  (1) 
-0.31670062673298005

>  <r_i_glide_ligand_efficiency>  (1) 
-0.20947993236550255

>  <r_i_glide_ligand_efficiency_ln>  (1) 
-1.6094923008792856

>  <r_i_glide_ligand_efficiency_sa>  (1) 
-0.68522274942137984

>  <r_i_glide_lipo>  (1) 
-3.2505509608743468

>  <r_i_glide_metal>  (1) 
-0

>  <r_i_glide_rewards>  (1) 
-1.8566228068961457

>  <r_lp_Energy>  (1) 
44.144219

>  <s_epik_Chemistry_Notes>  (1) 
This compound contains an acetal/aminal-like group ( X-CH(R)-Y where X, Y are N, S, or O) that may be acid/base labile, releasing an aldehyde. This compound has a N-S or N-O group and may undergo hydrolysis at high or low pH.

>  <s_epik_cmdline>  (1) 
J2VwaWtfcHl0aG9uJywgJy1waHQnLCAnMS4wJywgJy1waCcsICc3LjQnLCAnLXRuJywgJzgnLCAnLW1hJywgJzUwMCcsICctaW1hZScsICc8aW5maWxlLm1hZT4nLCAnLW9tYWUnLCAnPG91dGZpbGUubWFlPic=

>  <s_epik_input>  (1) 
RkMxPUMoRilbQ0hdPUMoRilOKEMoRik9W0NIXTEpU1tDSF0yW0NIMl1bQ0gyXU4oW0NIMl1bQ0gyXTIpW0NIMl1bQ0BIXTNPW0NASF0oW0NIMl1bT0hdKVtDQEBIXShbQ0gyXVtPSF0pT1tDQEBIXTNONFtDSDJdW0NIMl1PW0NIMl1bQ0gyXTQ=

>  <s_glide_docking_method>  (1) 
confgen

>  <s_i_glide_gridfile>  (1) 
gpcr_5ht2c_6bqh_protein_autoprepared_prepared

>  <s_lp_Force_Field>  (1) 
S-OPLS

>  <s_lp_Variant>  (1) 
DiffSBDD_63_num_sample_100-1

>  <s_m_source_file>  (1) 
generated__ligand_DiffSBDD_2026-05-06_prepared.sdf

>  <GenAI_Model>  (1) 
DiffSBDD

>  <Protein>  (1) 
GPCR_5HT2C

$$$$
DiffSBDD_40_num_sample_100
     RDKit          3D

  0  0  0  0  0  0  0  0  0  0999 V3000
M  V30 BEGIN CTAB
M  V30 COUNTS 73 75 0 0 1
M  V30 BEGIN ATOM
M  V30 1 C 37.860976 24.949145 56.979421 0
M  V30 2 C 37.820785 37.146285 61.867299 0 CFG=1
M  V30 3 N 42.555302 28.518054 63.854454 0
M  V30 4 C 39.190686 35.011710 61.404156 0
M  V30 5 C 42.169239 28.253169 57.853734 0
M  V30 6 C 38.629401 31.758036 58.487230 0
M  V30 7 N 41.056258 28.421271 62.028074 0 CHG=1
M  V30 8 C 36.999259 33.072658 61.137241 0
M  V30 9 O 35.627847 32.025213 59.453501 0
M  V30 10 C 37.674524 32.975640 58.541755 0
M  V30 11 C 36.777476 38.072375 61.285975 0
M  V30 12 C 37.409714 36.715429 63.281972 0
M  V30 13 N 40.668905 29.897366 63.534919 0
M  V30 14 C 38.524386 28.021390 57.075975 0 CFG=2
M  V30 15 C 38.098797 35.960791 60.910535 0
M  V30 16 C 39.976428 29.005638 59.036376 0 CFG=1
M  V30 17 C 40.984298 27.870472 58.755078 0 CFG=1
M  V30 18 S 40.695081 35.562354 61.835030 0
M  V30 19 C 39.915818 29.085498 61.616294 0
M  V30 20 N 39.527785 26.905707 56.980336 0 CFG=2 CHG=1
M  V30 21 S 38.777694 33.296530 61.493105 0
M  V30 22 C 39.070058 25.643917 56.319227 0
M  V30 23 C 39.675481 30.034763 62.597524 0
M  V30 24 C 36.579000 33.048847 59.640945 0 CFG=2
M  V30 25 C 40.245030 26.627041 58.246505 0
M  V30 26 O 37.293559 39.328411 61.054524 0
M  V30 27 C 38.015733 28.370823 55.653180 0
M  V30 28 N 36.096472 38.973173 61.841501 0
M  V30 29 C 41.484280 28.925368 63.176384 0
M  V30 30 C 39.120613 29.308238 57.755124 0 CFG=2
M  V30 31 C 39.171226 28.750508 60.345397 0
M  V30 32 C 38.049074 30.431291 57.965812 0
M  V30 33 H 37.634365 24.021683 56.448590 0
M  V30 34 H 38.043959 24.679218 58.019450 0
M  V30 35 H 36.957468 25.557576 56.940475 0
M  V30 36 H 38.728675 37.747895 61.954589 0
M  V30 37 H 43.144215 27.764895 63.532727 0
M  V30 38 H 42.834600 28.935595 64.729627 0
M  V30 39 H 41.868355 28.419720 56.818025 0
M  V30 40 H 42.665585 29.148715 58.231460 0
M  V30 41 H 42.925105 27.464832 57.834869 0
M  V30 42 H 39.436042 32.048636 57.811434 0
M  V30 43 H 39.083774 31.591533 59.456746 0
M  V30 44 H 36.386913 33.770555 61.710255 0
M  V30 45 H 36.760695 32.103154 61.578481 0
M  V30 46 H 35.428431 32.017858 58.497366 0
M  V30 47 H 37.200660 33.093661 57.567042 0
M  V30 48 H 38.286650 33.873197 58.629900 0
M  V30 49 H 37.134476 37.584505 63.876665 0
M  V30 50 H 36.551721 36.037900 63.263291 0
M  V30 51 H 38.240851 36.229986 63.795614 0
M  V30 52 H 40.761161 30.448473 64.377832 0
M  V30 53 H 37.686377 27.670295 57.683457 0
M  V30 54 H 38.442706 36.361122 59.956340 0
M  V30 55 H 37.168213 35.472253 60.662491 0
M  V30 56 H 40.558311 29.899447 59.242084 0
M  V30 57 H 41.464110 27.624402 59.694117 0
M  V30 58 H 38.854118 25.820108 55.266224 0
M  V30 59 H 39.901528 24.938586 56.299738 0
M  V30 60 H 38.890039 30.768115 62.693008 0
M  V30 61 H 36.025509 33.969867 59.441813 0
M  V30 62 H 40.964354 25.825211 58.087949 0
M  V30 63 H 39.536901 26.254248 58.985151 0
M  V30 64 H 37.278803 29.170179 55.642972 0
M  V30 65 H 38.836537 28.692144 55.011300 0
M  V30 66 H 37.525486 27.530342 55.164319 0
M  V30 67 H 39.827959 29.724685 57.033825 0
M  V30 68 H 38.300851 29.399489 60.358075 0
M  V30 69 H 38.765510 27.742329 60.396505 0
M  V30 70 H 37.249432 30.078205 58.614449 0
M  V30 71 H 37.552722 30.685920 57.033650 0
M  V30 72 H 40.241000 27.260192 56.360559 0
M  V30 73 H 41.501393 27.654942 61.536124 0
M  V30 END ATOM
M  V30 BEGIN BOND
M  V30 1 1 10 6
M  V30 2 1 11 2
M  V30 3 1 12 2
M  V30 4 1 15 2
M  V30 5 1 15 4
M  V30 6 1 17 5
M  V30 7 1 17 16
M  V30 8 2 18 4
M  V30 9 1 19 7
M  V30 10 1 20 14
M  V30 11 1 21 4
M  V30 12 1 21 8
M  V30 13 1 22 1
M  V30 14 1 22 20
M  V30 15 1 23 13
M  V30 16 2 23 19
M  V30 17 1 24 8
M  V30 18 1 24 9
M  V30 19 1 24 10
M  V30 20 1 25 17
M  V30 21 1 25 20
M  V30 22 1 26 11
M  V30 23 1 27 14
M  V30 24 2 28 11
M  V30 25 1 28 26
M  V30 26 1 29 3
M  V30 27 2 29 7
M  V30 28 1 29 13
M  V30 29 1 30 14
M  V30 30 1 30 16
M  V30 31 1 31 16
M  V30 32 1 31 19
M  V30 33 1 32 6
M  V30 34 1 32 30
M  V30 35 1 33 1
M  V30 36 1 34 1
M  V30 37 1 35 1
M  V30 38 1 2 36 CFG=1
M  V30 39 1 37 3
M  V30 40 1 38 3
M  V30 41 1 39 5
M  V30 42 1 40 5
M  V30 43 1 41 5
M  V30 44 1 42 6
M  V30 45 1 43 6
M  V30 46 1 44 8
M  V30 47 1 45 8
M  V30 48 1 46 9
M  V30 49 1 47 10
M  V30 50 1 48 10
M  V30 51 1 49 12
M  V30 52 1 50 12
M  V30 53 1 51 12
M  V30 54 1 52 13
M  V30 55 1 14 53 CFG=1
M  V30 56 1 54 15
M  V30 57 1 55 15
M  V30 58 1 16 56 CFG=1
M  V30 59 1 17 57 CFG=1
M  V30 60 1 58 22
M  V30 61 1 59 22
M  V30 62 1 60 23
M  V30 63 1 24 61 CFG=3
M  V30 64 1 62 25
M  V30 65 1 63 25
M  V30 66 1 64 27
M  V30 67 1 65 27
M  V30 68 1 66 27
M  V30 69 1 30 67 CFG=3
M  V30 70 1 68 31
M  V30 71 1 69 31
M  V30 72 1 70 32
M  V30 73 1 71 32
M  V30 74 1 20 72 CFG=3
M  V30 75 1 73 7
M  V30 END BOND
M  V30 END CTAB
M  END
>  <i_epik_Tot_Q>  (1) 
2

>  <i_epik_Tot_abs_Q>  (1) 
2

>  <i_i_glide_confnum>  (1) 
1068

>  <i_i_glide_lignum>  (1) 
101

>  <i_i_glide_posenum>  (1) 
114

>  <i_i_glide_rotatable_bonds>  (1) 
14

>  <i_lp_mmshare_version>  (1) 
72125

>  <i_m_source_file_index>  (1) 
41

>  <i_f3d_flags>  (1) 
0

>  <num_sample>  (1) 
100

>  <b_lp_Chiralities_Consistent>  (1) 
1

>  <r_epik_Charging_Adjusted_Penalty>  (1) 
0.0037096170623772918

>  <r_epik_Ionization_Penalty>  (1) 
0.054330814931534903

>  <r_epik_Ionization_Penalty_Charging>  (1) 
0.0037096170623772918

>  <r_epik_Ionization_Penalty_Neutral>  (1) 
0.050621197869157614

>  <r_epik_State_Penalty>  (1) 
-0

>  <r_glide_ring_energy>  (1) 
0

>  <r_i_docking_score>  (1) 
-7.3313525108892357

>  <r_i_glide_ecoul>  (1) 
-6.6368346506090425

>  <r_i_glide_eff_state_penalty>  (1) 
-0

>  <r_i_glide_einternal>  (1) 
10.618684849755414

>  <r_i_glide_emodel>  (1) 
-60.392071809710245

>  <r_i_glide_emodel_strain>  (1) 
3.6445043383132258

>  <r_i_glide_energy>  (1) 
-48.799040764828788

>  <r_i_glide_erotb>  (1) 
0.95438045441749597

>  <r_i_glide_esite>  (1) 
-0.049179413800985415

>  <r_i_glide_evdw>  (1) 
-42.16220611421975

>  <r_i_glide_gscore>  (1) 
-7.3313525108892357

>  <r_i_glide_gscore_strain>  (1) 
0

>  <r_i_glide_hbond>  (1) 
-0.16

>  <r_i_glide_ligand_efficiency>  (1) 
-0.22910476596528861

>  <r_i_glide_ligand_efficiency_ln>  (1) 
-1.6416896723097649

>  <r_i_glide_ligand_efficiency_sa>  (1) 
-0.72736229300845467

>  <r_i_glide_lipo>  (1) 
-3.0616326998937722

>  <r_i_glide_metal>  (1) 
-0

>  <r_i_glide_rewards>  (1) 
-1.9112853483096295

>  <r_lp_Energy>  (1) 
35.776657

>  <r_lp_tautomer_probability>  (1) 
1

>  <s_epik_Chemistry_Notes>  (1) 
This compound has an imine and may undergo hydrolysis.

>  <s_epik_cmdline>  (1) 
J2VwaWtfcHl0aG9uJywgJy1waHQnLCAnMS4wJywgJy1waCcsICc3LjQnLCAnLXRuJywgJzgnLCAnLW1hJywgJzUwMCcsICctaW1hZScsICc8aW5maWxlLm1hZT4nLCAnLW9tYWUnLCAnPG91dGZpbGUubWFlPic=

>  <s_epik_input>  (1) 
W2NIXTFbbkhdYyhbTkgyXSluYzFbQ0gyXVtDQEBIXShbQ0BIXShbQ0gzXSlbQ0gyXU4oW0NAQEhdMltDSDNdKVtDSDJdW0NIM10pW0NAQEhdMltDSDJdW0NIMl1bQ0gyXVtDQEBIXShbT0hdKVtDSDJdU0MoPVMpW0NIMl1bQ0BIXShbQ0gzXSlDMz1OTzM=

>  <s_glide_docking_method>  (1) 
confgen

>  <s_i_glide_gridfile>  (1) 
gpcr_5ht2c_6bqh_protein_autoprepared_prepared

>  <s_lp_Force_Field>  (1) 
S-OPLS

>  <s_lp_Variant>  (1) 
DiffSBDD_40_num_sample_100-2

>  <s_m_source_file>  (1) 
generated__ligand_DiffSBDD_2026-05-06_prepared.sdf

>  <GenAI_Model>  (1) 
DiffSBDD

>  <Protein>  (1) 
GPCR_5HT2C

$$$$
DiffSBDD_15_num_sample_100
     RDKit          3D

  0  0  0  0  0  0  0  0  0  0999 V3000
M  V30 BEGIN CTAB
M  V30 COUNTS 74 79 0 0 1
M  V30 BEGIN ATOM
M  V30 1 C 40.076344 28.218637 59.870170 0
M  V30 2 S 40.125358 30.775053 63.141303 0
M  V30 3 N 39.344771 30.120249 53.632696 0
M  V30 4 C 39.025977 36.917568 61.731894 0
M  V30 5 C 39.328976 32.666266 55.834813 0
M  V30 6 C 38.769285 26.821953 51.690488 0
M  V30 7 S 38.300785 27.022330 55.462258 0
M  V30 8 S 37.867168 31.999364 55.026613 0
M  V30 9 O 39.373793 26.161746 54.939841 0
M  V30 10 C 40.473075 34.556117 62.692339 0
M  V30 11 C 39.242101 34.310248 62.197058 0
M  V30 12 C 39.955979 30.233391 61.406999 0 CFG=1
M  V30 13 C 38.993148 28.300320 51.904505 0 CFG=2
M  V30 14 N 41.041095 33.389050 63.162885 0
M  V30 15 C 39.102397 32.772774 57.343443 0
M  V30 16 C 37.915834 33.645434 57.743785 0
M  V30 17 C 39.069291 28.675356 53.388585 0 CFG=2
M  V30 18 C 36.958581 30.062469 58.986932 0
M  V30 19 S 38.087933 35.379697 61.452650 0
M  V30 20 C 41.176787 35.862359 62.724138 0
M  V30 21 N 37.482015 29.431182 54.658972 0
M  V30 22 C 38.626522 28.492252 59.465426 0 CFG=2
M  V30 23 N 40.304192 28.613877 51.365423 0
M  V30 24 O 41.467449 28.421827 61.871249 0
M  V30 25 C 40.556631 36.686452 61.576300 0
M  V30 26 C 38.994524 28.003823 56.897569 0
M  V30 27 C 40.211325 28.716213 61.322273 0 CFG=2
M  V30 28 N 37.899240 28.227648 54.224344 0
M  V30 29 C 38.047610 27.997126 58.130350 0 CFG=2
M  V30 30 C 39.186268 29.256426 50.736713 0
M  V30 31 C 38.338574 30.407535 54.344282 0
M  V30 32 C 36.802740 28.906953 57.999556 0
M  V30 33 O 37.067392 26.371050 55.909420 0
M  V30 34 C 40.078780 32.498936 62.885063 0
M  V30 35 N 38.327605 29.928238 59.506221 0 CFG=2 CHG=1
M  V30 36 O 38.939252 33.007497 62.330986 0
M  V30 37 C 38.563329 30.575879 60.813226 0
M  V30 38 H 40.784480 28.719539 59.207670 0
M  V30 39 H 40.267421 27.152715 59.809662 0
M  V30 40 H 38.665548 37.675530 61.039632 0
M  V30 41 H 38.806534 37.281057 62.737517 0
M  V30 42 H 40.214753 32.073380 55.595808 0
M  V30 43 H 39.467299 33.674795 55.444945 0
M  V30 44 H 37.887616 26.512399 52.253295 0
M  V30 45 H 38.609864 26.604877 50.634137 0
M  V30 46 H 39.627125 26.247960 52.045548 0
M  V30 47 H 40.718007 30.751486 60.823824 0
M  V30 48 H 39.022108 31.782412 57.776175 0
M  V30 49 H 39.966581 33.222213 57.791632 0
M  V30 50 H 37.945759 33.900006 58.800822 0
M  V30 51 H 37.867605 34.576738 57.179085 0
M  V30 52 H 36.995318 33.124687 57.562146 0
M  V30 53 H 39.867401 28.108044 53.788259 0
M  V30 54 H 36.807640 31.038025 58.533900 0
M  V30 55 H 36.224844 29.969510 59.788027 0
M  V30 56 H 41.022317 36.361912 63.680987 0
M  V30 57 H 42.251091 35.758136 62.601513 0
M  V30 58 H 36.640751 29.548501 55.206238 0
M  V30 59 H 38.021661 28.030928 60.244795 0
M  V30 60 H 40.774468 27.895505 50.837723 0
M  V30 61 H 42.049144 28.021416 61.235449 0
M  V30 62 H 40.736308 36.152679 60.645683 0
M  V30 63 H 41.066187 37.621473 61.453502 0
M  V30 64 H 39.280971 29.000778 56.567282 0
M  V30 65 H 39.925904 27.497209 57.159444 0
M  V30 66 H 39.487999 28.198864 61.958228 0
M  V30 67 H 37.735186 26.961445 58.262374 0
M  V30 68 H 39.066268 28.930883 49.707283 0
M  V30 69 H 39.069854 30.325223 50.893048 0
M  V30 70 H 36.680887 29.317279 57.009064 0
M  V30 71 H 35.896970 28.361038 58.253518 0
M  V30 72 H 38.453907 31.636757 60.599807 0
M  V30 73 H 37.784911 30.310607 61.526101 0
M  V30 74 H 38.930554 30.366648 58.827531 0
M  V30 END ATOM
M  V30 BEGIN BOND
M  V30 1 1 8 5
M  V30 2 2 9 7
M  V30 3 2 11 10
M  V30 4 1 12 2
M  V30 5 1 13 6 CFG=1
M  V30 6 1 14 10
M  V30 7 1 15 5
M  V30 8 1 16 15
M  V30 9 1 17 3
M  V30 10 1 17 13
M  V30 11 1 19 4
M  V30 12 1 19 11
M  V30 13 1 20 10
M  V30 14 1 22 1
M  V30 15 1 23 13
M  V30 16 1 25 4
M  V30 17 1 25 20
M  V30 18 1 26 7
M  V30 19 1 27 1
M  V30 20 1 27 12
M  V30 21 1 27 24
M  V30 22 1 28 7
M  V30 23 1 28 17
M  V30 24 1 28 21
M  V30 25 1 29 22
M  V30 26 1 29 26
M  V30 27 1 30 13
M  V30 28 1 30 23
M  V30 29 2 31 3
M  V30 30 1 31 8
M  V30 31 1 31 21
M  V30 32 1 32 18
M  V30 33 1 32 29
M  V30 34 2 33 7
M  V30 35 1 34 2
M  V30 36 2 34 14
M  V30 37 1 35 18
M  V30 38 1 35 22
M  V30 39 1 36 11
M  V30 40 1 36 34
M  V30 41 1 37 12
M  V30 42 1 37 35
M  V30 43 1 38 1
M  V30 44 1 39 1
M  V30 45 1 40 4
M  V30 46 1 41 4
M  V30 47 1 42 5
M  V30 48 1 43 5
M  V30 49 1 44 6
M  V30 50 1 45 6
M  V30 51 1 46 6
M  V30 52 1 12 47 CFG=3
M  V30 53 1 48 15
M  V30 54 1 49 15
M  V30 55 1 50 16
M  V30 56 1 51 16
M  V30 57 1 52 16
M  V30 58 1 17 53 CFG=1
M  V30 59 1 54 18
M  V30 60 1 55 18
M  V30 61 1 56 20
M  V30 62 1 57 20
M  V30 63 1 58 21
M  V30 64 1 22 59 CFG=1
M  V30 65 1 60 23
M  V30 66 1 61 24
M  V30 67 1 62 25
M  V30 68 1 63 25
M  V30 69 1 64 26
M  V30 70 1 65 26
M  V30 71 1 27 66 CFG=1
M  V30 72 1 29 67 CFG=1
M  V30 73 1 68 30
M  V30 74 1 69 30
M  V30 75 1 70 32
M  V30 76 1 71 32
M  V30 77 1 72 37
M  V30 78 1 73 37
M  V30 79 1 35 74 CFG=3
M  V30 END BOND
M  V30 END CTAB
M  END
>  <i_epik_Tot_Q>  (1) 
1

>  <i_epik_Tot_abs_Q>  (1) 
1

>  <i_i_glide_confnum>  (1) 
379

>  <i_i_glide_lignum>  (1) 
35

>  <i_i_glide_posenum>  (1) 
257

>  <i_i_glide_rotatable_bonds>  (1) 
10

>  <i_lp_mmshare_version>  (1) 
72125

>  <i_m_source_file_index>  (1) 
16

>  <i_f3d_flags>  (1) 
0

>  <num_sample>  (1) 
100

>  <b_lp_Chiralities_Consistent>  (1) 
1

>  <r_epik_Charging_Adjusted_Penalty>  (1) 
0.0082019649409003706

>  <r_epik_Ionization_Penalty>  (1) 
0.015626865898487191

>  <r_epik_Ionization_Penalty_Charging>  (1) 
0.0082019649409003706

>  <r_epik_Ionization_Penalty_Neutral>  (1) 
0.0074249009575868222

>  <r_epik_State_Penalty>  (1) 
-0

>  <r_glide_ring_energy>  (1) 
0

>  <r_i_docking_score>  (1) 
-7.3227539737666341

>  <r_i_glide_ecoul>  (1) 
-3.1344318398738795

>  <r_i_glide_eff_state_penalty>  (1) 
-0

>  <r_i_glide_einternal>  (1) 
12.295361517732729

>  <r_i_glide_emodel>  (1) 
-39.971316473218231

>  <r_i_glide_emodel_strain>  (1) 
6.2298759220086026

>  <r_i_glide_energy>  (1) 
-45.033725724222712

>  <r_i_glide_erotb>  (1) 
0.37349522713264072

>  <r_i_glide_esite>  (1) 
0

>  <r_i_glide_evdw>  (1) 
-41.899293884348836

>  <r_i_glide_gscore>  (1) 
-7.3227539737666341

>  <r_i_glide_gscore_strain>  (1) 
0.55746898050215066

>  <r_i_glide_hbond>  (1) 
-0.42780375020894057

>  <r_i_glide_ligand_efficiency>  (1) 
-0.19791226956126037

>  <r_i_glide_ligand_efficiency_ln>  (1) 
-1.588133667200172

>  <r_i_glide_ligand_efficiency_sa>  (1) 
-0.65948758934087615

>  <r_i_glide_lipo>  (1) 
-3.5855076177045646

>  <r_i_glide_metal>  (1) 
-0

>  <r_i_glide_rewards>  (1) 
-1.6752773432893973

>  <r_lp_Energy>  (1) 
14.877502999999999

>  <r_lp_tautomer_probability>  (1) 
1

>  <s_epik_Chemistry_Notes>  (1) 
This compound has an imine and may undergo hydrolysis. This compound contains an acetal/aminal-like group ( X-CH(R)-Y where X, Y are N, S, or O) that may be acid/base labile, releasing an aldehyde.

>  <s_epik_cmdline>  (1) 
J2VwaWtfcHl0aG9uJywgJy1waHQnLCAnMS4wJywgJy1waCcsICc3LjQnLCAnLXRuJywgJzgnLCAnLW1hJywgJzUwMCcsICctaW1hZScsICc8aW5maWxlLm1hZT4nLCAnLW9tYWUnLCAnPG91dGZpbGUubWFlPic=

>  <s_epik_input>  (1) 
W0NIMl0xW0NIMl1bQ0gyXVNjKGMxMilvYyhuMilTW0NAQEhdKFtDQEBIXShbQ0gyXTMpW09IXSlbQ0gyXU4oW0NASF0zNClbQ0gyXVtDSDJdW0NASF00W0NIMl1TKD1PKSg9TylONVtOSF1DKFNbQ0gyXVtDSDJdW0NIM10pPU5bQ0BASF01W0NAXTYoW0NIM10pW05IXVtDSDJdNg==

>  <s_glide_docking_method>  (1) 
confgen

>  <s_i_glide_gridfile>  (1) 
gpcr_5ht2c_6bqh_protein_autoprepared_prepared

>  <s_lp_Force_Field>  (1) 
S-OPLS

>  <s_lp_Variant>  (1) 
DiffSBDD_15_num_sample_100-2

>  <s_m_source_file>  (1) 
generated__ligand_DiffSBDD_2026-05-06_prepared.sdf

>  <GenAI_Model>  (1) 
DiffSBDD

>  <Protein>  (1) 
GPCR_5HT2C

$$$$
DiffSBDD_80_num_sample_100
     RDKit          3D

  0  0  0  0  0  0  0  0  0  0999 V3000
M  V30 BEGIN CTAB
M  V30 COUNTS 73 76 0 0 1
M  V30 BEGIN ATOM
M  V30 1 C 39.067355 32.585917 57.337395 0
M  V30 2 C 36.372939 32.846920 59.730774 0
M  V30 3 N 36.986330 34.112904 60.218114 0 CFG=2 CHG=1
M  V30 4 O 39.340191 30.332776 55.645958 0
M  V30 5 O 35.953773 30.021393 58.703337 0
M  V30 6 O 38.147262 33.437862 56.700175 0
M  V30 7 C 37.304186 36.911681 61.111100 0 CFG=2
M  V30 8 C 37.406211 35.736141 62.132132 0 CFG=2
M  V30 9 C 40.267404 30.451266 51.626760 0
M  V30 10 C 38.910404 28.105792 55.722608 0
M  V30 11 O 37.851934 27.323019 53.001642 0
M  V30 12 C 38.651170 28.340640 52.560958 0
M  V30 13 O 41.178426 32.893944 61.568608 0
M  V30 14 C 39.867398 30.422552 52.969692 0
M  V30 15 C 39.288849 33.952122 62.576282 0
M  V30 16 C 39.067355 28.372779 51.214268 0
M  V30 17 O 39.425709 27.839833 58.061314 0
M  V30 18 C 37.727890 36.406921 59.742358 0
M  V30 19 O 40.267384 29.473138 49.453511 0
M  V30 20 C 38.840085 35.411141 62.653498 0
M  V30 21 C 39.872644 29.431863 50.751314 0
M  V30 22 C 39.258917 30.072659 57.037128 0 CFG=1
M  V30 23 C 37.236022 31.649945 60.103794 0 CFG=2
M  V30 24 C 38.421333 31.216667 57.646568 0 CFG=1
M  V30 25 C 36.559415 34.531859 61.581674 0
M  V30 26 C 38.712441 28.633940 57.132403 0 CFG=1
M  V30 27 C 40.267395 33.709218 61.444812 0
M  V30 28 C 38.222172 30.988349 59.141672 0 CFG=2
M  V30 29 C 39.648148 36.357961 63.169267 0
M  V30 30 C 37.736367 39.265057 60.828725 0
M  V30 31 C 37.013555 30.225671 59.625057 0 CFG=2
M  V30 32 C 38.618968 29.361739 54.904732 0 CFG=2
M  V30 33 C 39.058723 29.369171 53.447169 0
M  V30 34 C 36.849977 35.242876 59.274181 0
M  V30 35 O 38.092990 38.040618 61.453499 0
M  V30 36 H 39.455505 33.069600 58.233844 0
M  V30 37 H 39.907494 32.490699 56.652256 0
M  V30 38 H 36.267310 32.870820 58.653469 0
M  V30 39 H 35.366521 32.722929 60.134542 0
M  V30 40 H 35.867395 30.747772 58.078974 0
M  V30 41 H 37.632489 32.939628 56.077038 0
M  V30 42 H 36.267406 37.233085 61.063972 0
M  V30 43 H 36.884904 36.079977 63.026759 0
M  V30 44 H 40.883574 31.261108 51.268094 0
M  V30 45 H 40.802169 30.230086 49.268208 0
M  V30 46 H 38.256614 27.261908 55.501470 0
M  V30 47 H 39.945368 27.794650 55.567281 0
M  V30 48 H 37.486635 26.793479 52.304569 0
M  V30 49 H 40.176971 31.215772 53.635454 0
M  V30 50 H 39.842665 33.744144 63.492354 0
M  V30 51 H 38.490086 33.219115 62.561250 0
M  V30 52 H 38.761336 27.590046 50.534554 0
M  V30 53 H 39.329508 28.215727 58.921972 0
M  V30 54 H 38.759482 36.081611 59.853505 0
M  V30 55 H 37.704757 37.196806 58.992557 0
M  V30 56 H 40.267406 30.095038 57.440546 0
M  V30 57 H 37.551433 31.687526 61.144171 0
M  V30 58 H 37.467421 31.184844 57.134462 0
M  V30 59 H 35.511015 34.821249 61.535143 0
M  V30 60 H 36.552224 33.676559 62.253469 0
M  V30 61 H 37.648712 28.626030 57.367008 0
M  V30 62 H 40.094367 34.287906 60.537853 0
M  V30 63 H 39.165882 30.750156 59.628809 0
M  V30 64 H 40.636058 36.107997 63.529073 0
M  V30 65 H 39.336163 37.386484 63.242362 0
M  V30 66 H 38.378237 40.063558 61.198288 0
M  V30 67 H 37.867847 39.231172 59.748998 0
M  V30 68 H 36.705393 39.539077 61.055456 0
M  V30 69 H 37.215994 29.369366 60.253484 0
M  V30 70 H 37.554007 29.599579 54.949323 0
M  V30 71 H 37.166469 34.951573 58.280500 0
M  V30 72 H 35.805689 35.546444 59.187362 0
M  V30 73 H 37.974150 33.919188 60.259536 0
M  V30 END ATOM
M  V30 BEGIN BOND
M  V30 1 1 3 2
M  V30 2 1 6 1
M  V30 3 1 8 7
M  V30 4 1 12 11
M  V30 5 2 14 9
M  V30 6 1 16 12
M  V30 7 1 18 7
M  V30 8 1 20 8
M  V30 9 1 20 15
M  V30 10 1 21 9
M  V30 11 2 21 16
M  V30 12 1 21 19
M  V30 13 1 22 4
M  V30 14 1 23 2
M  V30 15 1 24 1
M  V30 16 1 24 22
M  V30 17 1 25 3
M  V30 18 1 25 8
M  V30 19 1 26 10
M  V30 20 1 26 17
M  V30 21 1 26 22
M  V30 22 2 27 13
M  V30 23 1 27 15
M  V30 24 1 28 23
M  V30 25 1 28 24
M  V30 26 2 29 20
M  V30 27 1 31 5
M  V30 28 1 31 23
M  V30 29 1 31 28
M  V30 30 1 32 4
M  V30 31 1 32 10
M  V30 32 2 33 12
M  V30 33 1 33 14
M  V30 34 1 33 32
M  V30 35 1 34 3
M  V30 36 1 34 18
M  V30 37 1 35 7
M  V30 38 1 35 30
M  V30 39 1 36 1
M  V30 40 1 37 1
M  V30 41 1 38 2
M  V30 42 1 39 2
M  V30 43 1 40 5
M  V30 44 1 41 6
M  V30 45 1 7 42 CFG=3
M  V30 46 1 8 43 CFG=1
M  V30 47 1 44 9
M  V30 48 1 45 19
M  V30 49 1 46 10
M  V30 50 1 47 10
M  V30 51 1 48 11
M  V30 52 1 49 14
M  V30 53 1 50 15
M  V30 54 1 51 15
M  V30 55 1 52 16
M  V30 56 1 53 17
M  V30 57 1 54 18
M  V30 58 1 55 18
M  V30 59 1 22 56 CFG=1
M  V30 60 1 23 57 CFG=1
M  V30 61 1 24 58 CFG=3
M  V30 62 1 59 25
M  V30 63 1 60 25
M  V30 64 1 26 61 CFG=1
M  V30 65 1 62 27
M  V30 66 1 28 63 CFG=1
M  V30 67 1 64 29
M  V30 68 1 65 29
M  V30 69 1 66 30
M  V30 70 1 67 30
M  V30 71 1 68 30
M  V30 72 1 31 69 CFG=1
M  V30 73 1 32 70 CFG=3
M  V30 74 1 71 34
M  V30 75 1 72 34
M  V30 76 1 3 73 CFG=1
M  V30 END BOND
M  V30 END CTAB
M  END
>  <i_epik_Tot_Q>  (1) 
1

>  <i_epik_Tot_abs_Q>  (1) 
1

>  <i_i_glide_confnum>  (1) 
468

>  <i_i_glide_lignum>  (1) 
205

>  <i_i_glide_posenum>  (1) 
320

>  <i_i_glide_rotatable_bonds>  (1) 
15

>  <i_lp_mmshare_version>  (1) 
72125

>  <i_m_source_file_index>  (1) 
81

>  <i_f3d_flags>  (1) 
0

>  <num_sample>  (1) 
100

>  <b_lp_Chiralities_Consistent>  (1) 
1

>  <r_epik_Charging_Adjusted_Penalty>  (1) 
0.034071705691259377

>  <r_epik_Ionization_Penalty>  (1) 
0.043305258844254187

>  <r_epik_Ionization_Penalty_Charging>  (1) 
0.034071705691259377

>  <r_epik_Ionization_Penalty_Neutral>  (1) 
0.009233553152994808

>  <r_epik_State_Penalty>  (1) 
-0

>  <r_glide_ring_energy>  (1) 
0

>  <r_i_docking_score>  (1) 
-7.3208281725147879

>  <r_i_glide_ecoul>  (1) 
-9.5730404164877214

>  <r_i_glide_eff_state_penalty>  (1) 
-0

>  <r_i_glide_einternal>  (1) 
29.679790691096073

>  <r_i_glide_emodel>  (1) 
-54.387225802474426

>  <r_i_glide_emodel_strain>  (1) 
6.0142083769302985

>  <r_i_glide_energy>  (1) 
-51.478087902054604

>  <r_i_glide_erotb>  (1) 
0.67144220787932085

>  <r_i_glide_esite>  (1) 
0

>  <r_i_glide_evdw>  (1) 
-41.905047485566882

>  <r_i_glide_gscore>  (1) 
-7.3208281725147879

>  <r_i_glide_gscore_strain>  (1) 
0.50355209423257463

>  <r_i_glide_hbond>  (1) 
-0.37223216500116207

>  <r_i_glide_ligand_efficiency>  (1) 
-0.20916651921470822

>  <r_i_glide_ligand_efficiency_ln>  (1) 
-1.6070842608942544

>  <r_i_glide_ligand_efficiency_sa>  (1) 
-0.6841975542226465

>  <r_i_glide_lipo>  (1) 
-3.4247648988361794

>  <r_i_glide_metal>  (1) 
-0

>  <r_i_glide_rewards>  (1) 
-1.1676169740378388

>  <r_lp_Energy>  (1) 
35.505794999999999

>  <r_lp_tautomer_probability>  (1) 
1

>  <s_epik_cmdline>  (1) 
J2VwaWtfcHl0aG9uJywgJy1waHQnLCAnMS4wJywgJy1waCcsICc3LjQnLCAnLXRuJywgJzgnLCAnLW1hJywgJzUwMCcsICctaW1hZScsICc8aW5maWxlLm1hZT4nLCAnLW9tYWUnLCAnPG91dGZpbGUubWFlPic=

>  <s_epik_input>  (1) 
Tz1bQ0hdW0NIMl1DKD1bQ0gyXSlbQ0BASF0oW0NASF0oW0NIMl1bQ0gyXTEpT1tDSDNdKVtDSDJdTjFbQ0gyXVtDQEBIXTJbQ0BASF0oW0NAQEhdMltPSF0pW0NAQEhdKFtDSDJdW09IXSlbQ0BASF0zT1tDQEhdKFtDSDJdW0NASF0zW09IXSlDND1bQ0hdW0NIMl1DKD1PKVtDSF09QzRbT0hd

>  <s_glide_docking_method>  (1) 
confgen

>  <s_i_glide_gridfile>  (1) 
gpcr_5ht2c_6bqh_protein_autoprepared_prepared

>  <s_lp_Force_Field>  (1) 
S-OPLS

>  <s_lp_Variant>  (1) 
DiffSBDD_80_num_sample_100-1

>  <s_m_source_file>  (1) 
generated__ligand_DiffSBDD_2026-05-06_prepared.sdf

>  <GenAI_Model>  (1) 
DiffSBDD

>  <Protein>  (1) 
GPCR_5HT2C

$$$$
DiffSBDD_97_num_sample_100
     RDKit          3D

  0  0  0  0  0  0  0  0  0  0999 V3000
M  V30 BEGIN CTAB
M  V30 COUNTS 74 78 0 0 1
M  V30 BEGIN ATOM
M  V30 1 C 40.267467 29.967784 51.435578 0
M  V30 2 C 38.875400 29.611306 59.414062 0
M  V30 3 C 39.867443 30.688687 64.038067 0
M  V30 4 S 39.102476 29.724253 61.208934 0 CHG=1
M  V30 5 C 39.630592 35.017813 60.944158 0
M  V30 6 C 42.551476 31.361117 64.543975 0
M  V30 7 C 40.116670 28.953614 58.777022 0 CFG=2
M  V30 8 C 38.073380 27.509876 54.186577 0
M  V30 9 C 40.369784 28.443756 61.224635 0
M  V30 10 C 39.434048 32.525038 61.191945 0 CFG=1
M  V30 11 N 37.489184 36.336821 60.945233 0 CHG=1
M  V30 12 N 38.909760 28.313675 53.260164 0 CFG=2 CHG=1
M  V30 13 C 40.380124 30.605065 65.345744 0
M  V30 14 C 39.816377 27.869195 57.718903 0
M  V30 15 C 38.779167 29.787377 53.440189 0 CFG=1
M  V30 16 C 41.070243 28.481369 59.869574 0
M  V30 17 N 38.130989 32.672475 61.846652 0
M  V30 18 C 40.282501 33.766922 61.536337 0
M  V30 19 O 37.069472 36.258002 59.796249 0
M  V30 20 C 37.414800 33.829404 61.299355 0
M  V30 21 O 37.369711 37.316418 61.672587 0 CHG=-1
M  V30 22 C 41.721101 30.940830 65.598594 0
M  V30 23 C 39.664540 29.607283 55.842215 0
M  V30 24 C 38.844885 27.187685 55.483486 0
M  V30 25 C 38.730353 30.311771 54.873671 0
M  V30 26 C 39.796880 30.494638 52.567255 0
M  V30 27 C 38.763208 27.942737 51.819451 0
M  V30 28 C 42.040977 31.449147 63.232855 0
M  V30 29 F 42.214044 30.858375 66.856479 0
M  V30 30 C 39.020689 28.355245 56.485715 0 CFG=1
M  V30 31 C 40.142350 31.191650 61.543562 0 CFG=1
M  V30 32 C 39.852239 28.606563 50.932877 0
M  V30 33 C 40.695672 31.111154 62.974534 0
M  V30 34 C 38.206371 35.143736 61.505093 0 CFG=1
M  V30 35 H 40.987318 30.514582 50.841064 0
M  V30 36 H 38.634411 30.578832 58.973629 0
M  V30 37 H 38.008354 28.968673 59.257536 0
M  V30 38 H 38.837264 30.422813 63.852522 0
M  V30 39 H 39.602293 34.919579 59.858742 0
M  V30 40 H 40.217244 35.907334 61.176060 0
M  V30 41 H 43.580633 31.614759 64.740744 0
M  V30 42 H 40.697474 29.717869 58.283968 0
M  V30 43 H 37.824945 26.560219 53.710861 0
M  V30 44 H 37.117986 27.996454 54.387797 0
M  V30 45 H 41.058223 28.539014 62.064700 0
M  V30 46 H 39.867459 27.499063 61.340302 0
M  V30 47 H 39.259668 32.512773 60.114677 0
M  V30 48 H 39.742474 30.280055 66.155335 0
M  V30 49 H 39.286797 27.040809 58.191050 0
M  V30 50 H 40.764165 27.453579 57.372833 0
M  V30 51 H 37.804034 30.026024 53.053501 0
M  V30 52 H 41.577881 27.559994 59.615182 0
M  V30 53 H 41.865850 29.209084 59.893334 0
M  V30 54 H 37.570160 31.850274 61.682528 0
M  V30 55 H 40.380262 33.877478 62.618189 0
M  V30 56 H 41.294104 33.660071 61.153187 0
M  V30 57 H 37.222267 33.663812 60.237981 0
M  V30 58 H 36.441846 33.903547 61.786783 0
M  V30 59 H 40.632523 29.384036 55.394132 0
M  V30 60 H 39.849146 30.375574 56.585133 0
M  V30 61 H 39.819506 26.769519 55.224524 0
M  V30 62 H 38.312794 26.383830 55.994454 0
M  V30 63 H 38.950673 31.381302 54.865802 0
M  V30 64 H 37.707181 30.257946 55.251338 0
M  V30 65 H 40.127690 31.472269 52.886270 0
M  V30 66 H 38.822276 26.860593 51.693252 0
M  V30 67 H 37.770927 28.238179 51.474852 0
M  V30 68 H 42.682015 31.773216 62.427115 0
M  V30 69 H 38.026156 28.634547 56.836499 0
M  V30 70 H 41.000854 31.120418 60.876992 0
M  V30 71 H 39.530018 28.665228 49.892664 0
M  V30 72 H 40.759906 28.021436 50.963561 0
M  V30 73 H 38.277557 35.352416 62.572307 0
M  V30 74 H 39.862035 28.084108 53.500501 0
M  V30 END ATOM
M  V30 BEGIN BOND
M  V30 1 1 4 2 CFG=3
M  V30 2 1 7 2
M  V30 3 1 9 4
M  V30 4 1 12 8
M  V30 5 1 13 3
M  V30 6 1 14 7
M  V30 7 1 15 12
M  V30 8 1 16 7
M  V30 9 1 16 9
M  V30 10 1 17 10
M  V30 11 1 18 5
M  V30 12 1 18 10
M  V30 13 2 19 11
M  V30 14 1 20 17
M  V30 15 1 21 11
M  V30 16 1 22 6
M  V30 17 2 22 13
M  V30 18 1 24 8
M  V30 19 1 25 15
M  V30 20 1 25 23
M  V30 21 2 26 1
M  V30 22 1 26 15
M  V30 23 1 27 12
M  V30 24 2 28 6
M  V30 25 1 29 22
M  V30 26 1 30 14
M  V30 27 1 30 23
M  V30 28 1 30 24
M  V30 29 1 31 4
M  V30 30 1 31 10
M  V30 31 1 32 1
M  V30 32 1 32 27
M  V30 33 2 33 3
M  V30 34 1 33 28
M  V30 35 1 33 31
M  V30 36 1 34 5
M  V30 37 1 34 11
M  V30 38 1 34 20
M  V30 39 1 35 1
M  V30 40 1 36 2
M  V30 41 1 37 2
M  V30 42 1 38 3
M  V30 43 1 39 5
M  V30 44 1 40 5
M  V30 45 1 41 6
M  V30 46 1 7 42 CFG=3
M  V30 47 1 43 8
M  V30 48 1 44 8
M  V30 49 1 45 9
M  V30 50 1 46 9
M  V30 51 1 10 47 CFG=3
M  V30 52 1 48 13
M  V30 53 1 49 14
M  V30 54 1 50 14
M  V30 55 1 15 51 CFG=3
M  V30 56 1 52 16
M  V30 57 1 53 16
M  V30 58 1 54 17
M  V30 59 1 55 18
M  V30 60 1 56 18
M  V30 61 1 57 20
M  V30 62 1 58 20
M  V30 63 1 59 23
M  V30 64 1 60 23
M  V30 65 1 61 24
M  V30 66 1 62 24
M  V30 67 1 63 25
M  V30 68 1 64 25
M  V30 69 1 65 26
M  V30 70 1 66 27
M  V30 71 1 67 27
M  V30 72 1 68 28
M  V30 73 1 30 69 CFG=1
M  V30 74 1 31 70 CFG=3
M  V30 75 1 71 32
M  V30 76 1 72 32
M  V30 77 1 34 73 CFG=1
M  V30 78 1 12 74 CFG=1
M  V30 END BOND
M  V30 END CTAB
M  END
>  <i_epik_Tot_Q>  (1) 
2

>  <i_epik_Tot_abs_Q>  (1) 
4

>  <i_i_glide_confnum>  (1) 
194

>  <i_i_glide_lignum>  (1) 
269

>  <i_i_glide_posenum>  (1) 
210

>  <i_i_glide_rotatable_bonds>  (1) 
6

>  <i_lp_mmshare_version>  (1) 
72125

>  <i_m_source_file_index>  (1) 
98

>  <i_f3d_flags>  (1) 
0

>  <num_sample>  (1) 
100

>  <b_lp_Chiralities_Consistent>  (1) 
1

>  <r_epik_Charging_Adjusted_Penalty>  (1) 
0.028424460748094963

>  <r_epik_Ionization_Penalty>  (1) 
0.031653010901111077

>  <r_epik_Ionization_Penalty_Charging>  (1) 
0.0018620536084809386

>  <r_epik_Ionization_Penalty_Neutral>  (1) 
0.029790957292630139

>  <r_epik_State_Penalty>  (1) 
0.026562407139614025

>  <r_glide_ring_energy>  (1) 
0

>  <r_i_docking_score>  (1) 
-7.3137217806978123

>  <r_i_glide_ecoul>  (1) 
1.0021504884625934

>  <r_i_glide_eff_state_penalty>  (1) 
0.026562407139614025

>  <r_i_glide_einternal>  (1) 
6.0777395345852199

>  <r_i_glide_emodel>  (1) 
-50.903275162332875

>  <r_i_glide_emodel_strain>  (1) 
0.061038660431513847

>  <r_i_glide_energy>  (1) 
-36.239976812126955

>  <r_i_glide_erotb>  (1) 
0.42420227184638803

>  <r_i_glide_esite>  (1) 
0

>  <r_i_glide_evdw>  (1) 
-37.242127300589551

>  <r_i_glide_gscore>  (1) 
-7.3402841878374261

>  <r_i_glide_gscore_strain>  (1) 
0

>  <r_i_glide_hbond>  (1) 
0

>  <r_i_glide_ligand_efficiency>  (1) 
-0.21510946413817095

>  <r_i_glide_ligand_efficiency_ln>  (1) 
-1.6158062843034406

>  <r_i_glide_ligand_efficiency_sa>  (1) 
-0.69687115858849424

>  <r_i_glide_lipo>  (1) 
-4.5825799393748401

>  <r_i_glide_metal>  (1) 
-0

>  <r_i_glide_rewards>  (1) 
-1.4701227285488863

>  <r_lp_Energy>  (1) 
45.469682999999996

>  <s_epik_cmdline>  (1) 
J2VwaWtfcHl0aG9uJywgJy1waHQnLCAnMS4wJywgJy1waCcsICc3LjQnLCAnLXRuJywgJzgnLCAnLW1hJywgJzUwMCcsICctaW1hZScsICc8aW5maWxlLm1hZT4nLCAnLW9tYWUnLCAnPG91dGZpbGUubWFlPic=

>  <s_epik_input>  (1) 
W0NIMl0xW0NIMl1bQ0hdPVtDSF1bQ0BASF0oTjEyKVtDSDJdW0NIMl1bQ0BASF0oW0NIMl1bQ0gyXTIpW0NIMl1bQ0BIXShbQ0gyXVtDSDJdMylbQ0gyXVtTK10zW0NASF0oYyhbY0hdW2NIXTQpW2NIXVtjSF1jNEYpW0NASF01W05IXVtDSDJdW0NASF0oW04rXSg9TylbTy1dKVtDSDJdW0NIMl01

>  <s_glide_docking_method>  (1) 
confgen

>  <s_i_glide_gridfile>  (1) 
gpcr_5ht2c_6bqh_protein_autoprepared_prepared

>  <s_lp_Force_Field>  (1) 
S-OPLS

>  <s_lp_Variant>  (1) 
DiffSBDD_97_num_sample_100-2

>  <s_m_source_file>  (1) 
generated__ligand_DiffSBDD_2026-05-06_prepared.sdf

>  <GenAI_Model>  (1) 
DiffSBDD

>  <Protein>  (1) 
GPCR_5HT2C

$$$$
DiffSBDD_15_num_sample_100
     RDKit          3D

  0  0  0  0  0  0  0  0  0  0999 V3000
M  V30 BEGIN CTAB
M  V30 COUNTS 74 79 0 0 1
M  V30 BEGIN ATOM
M  V30 1 C 38.271068 26.451695 58.253644 0
M  V30 2 S 37.791624 25.962533 54.253527 0
M  V30 3 N 40.472081 33.756175 61.839948 0
M  V30 4 C 39.954071 30.504925 50.261851 0
M  V30 5 C 38.674873 36.171788 60.805378 0
M  V30 6 C 42.570821 31.015708 63.607304 0
M  V30 7 S 39.884240 29.837549 61.455329 0
M  V30 8 S 38.040545 34.482343 60.648789 0
M  V30 9 O 38.667416 30.021383 62.253478 0
M  V30 10 C 39.012716 29.261574 52.838958 0
M  V30 11 C 39.146547 28.437099 51.785862 0
M  V30 12 C 38.408364 26.527844 55.846654 0 CFG=1
M  V30 13 C 41.453503 32.020008 63.388557 0 CFG=1
M  V30 14 N 38.367057 28.624970 53.858144 0
M  V30 15 C 38.241399 36.880910 62.094884 0
M  V30 16 C 39.187880 36.634112 63.273489 0
M  V30 17 C 41.175662 32.431455 61.921298 0 CFG=1
M  V30 18 C 41.667370 27.744145 57.444556 0
M  V30 19 S 39.867369 28.699210 50.253572 0
M  V30 20 C 39.478369 30.650478 52.963917 0
M  V30 21 N 39.368518 32.216283 60.653455 0
M  V30 22 C 39.746540 26.858814 58.364540 0 CFG=2
M  V30 23 N 40.267437 31.720022 64.166754 0
M  V30 24 O 36.663986 25.247249 56.969466 0
M  V30 25 C 40.053997 31.205921 51.643081 0
M  V30 26 C 39.392170 29.057048 59.824020 0
M  V30 27 C 38.019105 25.619552 57.001557 0 CFG=2
M  V30 28 N 40.383215 31.443718 61.053446 0
M  V30 29 C 40.248206 27.801797 59.481525 0 CFG=2
M  V30 30 C 41.045396 32.873032 64.570186 0
M  V30 31 C 39.456601 33.451830 61.129601 0
M  V30 32 C 41.644198 28.175950 58.923879 0
M  V30 33 O 41.049101 29.111302 61.979020 0
M  V30 34 C 38.247468 27.387997 53.371424 0
M  V30 35 N 40.256234 27.483295 57.136700 0 CFG=2 CHG=1
M  V30 36 O 38.623168 27.221419 52.069975 0
M  V30 37 C 39.943481 26.734609 55.900580 0
M  V30 38 H 37.610159 27.319910 58.253682 0
M  V30 39 H 38.024092 25.789857 59.053512 0
M  V30 40 H 40.790316 30.814694 49.634574 0
M  V30 41 H 39.067407 30.873729 49.757570 0
M  V30 42 H 39.757847 36.177103 60.691859 0
M  V30 43 H 38.267291 36.723311 59.957940 0
M  V30 44 H 43.077467 30.803557 62.671660 0
M  V30 45 H 43.306944 31.414012 64.304923 0
M  V30 46 H 42.194074 30.079638 64.022394 0
M  V30 47 H 37.902471 27.480411 56.014231 0
M  V30 48 H 38.211879 37.952399 61.898528 0
M  V30 49 H 37.224770 36.589902 62.359816 0
M  V30 50 H 38.836562 37.138980 64.173820 0
M  V30 51 H 39.257145 35.572499 63.494296 0
M  V30 52 H 40.193181 36.998519 63.054922 0
M  V30 53 H 42.151410 32.558386 61.449423 0
M  V30 54 H 42.122486 28.456908 56.764568 0
M  V30 55 H 42.238789 26.821429 57.349156 0
M  V30 56 H 38.673439 31.287890 53.335745 0
M  V30 57 H 40.252976 30.700574 53.730283 0
M  V30 58 H 38.587545 31.850698 60.128771 0
M  V30 59 H 40.280284 25.911597 58.480366 0
M  V30 60 H 40.293317 30.900698 64.757280 0
M  V30 61 H 36.505611 24.606176 57.646121 0
M  V30 62 H 41.067412 31.530667 51.821789 0
M  V30 63 H 39.467281 32.083403 51.483465 0
M  V30 64 H 39.431995 29.810355 59.038027 0
M  V30 65 H 38.346625 28.772106 59.943007 0
M  V30 66 H 38.615396 24.704620 56.998503 0
M  V30 67 H 40.326867 27.221452 60.398541 0
M  V30 68 H 41.610191 32.780491 65.495368 0
M  V30 69 H 40.620721 33.857937 64.394106 0
M  V30 70 H 41.864560 29.237411 59.036832 0
M  V30 71 H 42.409905 27.621028 59.453499 0
M  V30 72 H 40.312609 27.307914 55.053713 0
M  V30 73 H 40.468093 25.777340 55.883745 0
M  V30 74 H 39.797116 28.379704 57.056721 0
M  V30 END ATOM
M  V30 BEGIN BOND
M  V30 1 1 8 5
M  V30 2 2 9 7
M  V30 3 2 11 10
M  V30 4 1 12 2
M  V30 5 1 13 6 CFG=3
M  V30 6 1 14 10
M  V30 7 1 15 5
M  V30 8 1 16 15
M  V30 9 1 17 3
M  V30 10 1 17 13
M  V30 11 1 19 4
M  V30 12 1 19 11
M  V30 13 1 20 10
M  V30 14 1 22 1
M  V30 15 1 23 13
M  V30 16 1 25 4
M  V30 17 1 25 20
M  V30 18 1 26 7
M  V30 19 1 27 1
M  V30 20 1 27 12
M  V30 21 1 27 24
M  V30 22 1 28 7
M  V30 23 1 28 17
M  V30 24 1 28 21
M  V30 25 1 29 22
M  V30 26 1 29 26
M  V30 27 1 30 13
M  V30 28 1 30 23
M  V30 29 2 31 3
M  V30 30 1 31 8
M  V30 31 1 31 21
M  V30 32 1 32 18
M  V30 33 1 32 29
M  V30 34 2 33 7
M  V30 35 1 34 2
M  V30 36 2 34 14
M  V30 37 1 35 18
M  V30 38 1 35 22
M  V30 39 1 36 11
M  V30 40 1 36 34
M  V30 41 1 37 12
M  V30 42 1 37 35
M  V30 43 1 38 1
M  V30 44 1 39 1
M  V30 45 1 40 4
M  V30 46 1 41 4
M  V30 47 1 42 5
M  V30 48 1 43 5
M  V30 49 1 44 6
M  V30 50 1 45 6
M  V30 51 1 46 6
M  V30 52 1 12 47 CFG=1
M  V30 53 1 48 15
M  V30 54 1 49 15
M  V30 55 1 50 16
M  V30 56 1 51 16
M  V30 57 1 52 16
M  V30 58 1 17 53 CFG=3
M  V30 59 1 54 18
M  V30 60 1 55 18
M  V30 61 1 56 20
M  V30 62 1 57 20
M  V30 63 1 58 21
M  V30 64 1 22 59 CFG=1
M  V30 65 1 60 23
M  V30 66 1 61 24
M  V30 67 1 62 25
M  V30 68 1 63 25
M  V30 69 1 64 26
M  V30 70 1 65 26
M  V30 71 1 27 66 CFG=1
M  V30 72 1 29 67 CFG=1
M  V30 73 1 68 30
M  V30 74 1 69 30
M  V30 75 1 70 32
M  V30 76 1 71 32
M  V30 77 1 72 37
M  V30 78 1 73 37
M  V30 79 1 35 74 CFG=3
M  V30 END BOND
M  V30 END CTAB
M  END
>  <i_epik_Tot_Q>  (1) 
1

>  <i_epik_Tot_abs_Q>  (1) 
1

>  <i_i_glide_confnum>  (1) 
548

>  <i_i_glide_lignum>  (1) 
37

>  <i_i_glide_posenum>  (1) 
384

>  <i_i_glide_rotatable_bonds>  (1) 
10

>  <i_lp_mmshare_version>  (1) 
72125

>  <i_m_source_file_index>  (1) 
16

>  <i_f3d_flags>  (1) 
0

>  <num_sample>  (1) 
100

>  <b_lp_Chiralities_Consistent>  (1) 
1

>  <r_epik_Charging_Adjusted_Penalty>  (1) 
0.0082019649409003706

>  <r_epik_Ionization_Penalty>  (1) 
0.015626865898487191

>  <r_epik_Ionization_Penalty_Charging>  (1) 
0.0082019649409003706

>  <r_epik_Ionization_Penalty_Neutral>  (1) 
0.0074249009575868222

>  <r_epik_State_Penalty>  (1) 
-0

>  <r_glide_ring_energy>  (1) 
0

>  <r_i_docking_score>  (1) 
-7.3113928539837492

>  <r_i_glide_ecoul>  (1) 
-1.5751741628182836

>  <r_i_glide_eff_state_penalty>  (1) 
-0

>  <r_i_glide_einternal>  (1) 
11.143147562552947

>  <r_i_glide_emodel>  (1) 
-46.95297710345443

>  <r_i_glide_emodel_strain>  (1) 
12.346803683519724

>  <r_i_glide_energy>  (1) 
-52.476666816935342

>  <r_i_glide_erotb>  (1) 
0.37349522713264072

>  <r_i_glide_esite>  (1) 
-0.047978552543164688

>  <r_i_glide_evdw>  (1) 
-50.901492654117057

>  <r_i_glide_gscore>  (1) 
-7.3113928539837492

>  <r_i_glide_gscore_strain>  (1) 
2.086700920879931

>  <r_i_glide_hbond>  (1) 
0

>  <r_i_glide_ligand_efficiency>  (1) 
-0.19760521226983105

>  <r_i_glide_ligand_efficiency_ln>  (1) 
-1.5856697066617009

>  <r_i_glide_ligand_efficiency_sa>  (1) 
-0.65846440632466818

>  <r_i_glide_lipo>  (1) 
-5.6160980796874904

>  <r_i_glide_metal>  (1) 
-0

>  <r_i_glide_rewards>  (1) 
-1.3261616126370686

>  <r_lp_Energy>  (1) 
9.5312570000000001

>  <r_lp_tautomer_probability>  (1) 
1

>  <s_epik_Chemistry_Notes>  (1) 
This compound has an imine and may undergo hydrolysis. This compound contains an acetal/aminal-like group ( X-CH(R)-Y where X, Y are N, S, or O) that may be acid/base labile, releasing an aldehyde.

>  <s_epik_cmdline>  (1) 
J2VwaWtfcHl0aG9uJywgJy1waHQnLCAnMS4wJywgJy1waCcsICc3LjQnLCAnLXRuJywgJzgnLCAnLW1hJywgJzUwMCcsICctaW1hZScsICc8aW5maWxlLm1hZT4nLCAnLW9tYWUnLCAnPG91dGZpbGUubWFlPic=

>  <s_epik_input>  (1) 
W0NIMl0xW0NIMl1bQ0gyXVNjKGMxMilvYyhuMilTW0NAQEhdKFtDQEBIXShbQ0gyXTMpW09IXSlbQ0gyXU4oW0NASF0zNClbQ0gyXVtDSDJdW0NASF00W0NIMl1TKD1PKSg9TylONVtOSF1DKFNbQ0gyXVtDSDJdW0NIM10pPU5bQ0BASF01W0NAXTYoW0NIM10pW05IXVtDSDJdNg==

>  <s_glide_docking_method>  (1) 
confgen

>  <s_i_glide_gridfile>  (1) 
gpcr_5ht2c_6bqh_protein_autoprepared_prepared

>  <s_lp_Force_Field>  (1) 
S-OPLS

>  <s_lp_Variant>  (1) 
DiffSBDD_15_num_sample_100-4

>  <s_m_source_file>  (1) 
generated__ligand_DiffSBDD_2026-05-06_prepared.sdf

>  <GenAI_Model>  (1) 
DiffSBDD

>  <Protein>  (1) 
GPCR_5HT2C

$$$$
DiffSBDD_0_num_sample_100
     RDKit          3D

  0  0  0  0  0  0  0  0  0  0999 V3000
M  V30 BEGIN CTAB
M  V30 COUNTS 60 62 0 0 1
M  V30 BEGIN ATOM
M  V30 1 C 38.150725 27.394256 57.336272 0
M  V30 2 C 39.276204 29.123290 53.912543 0 CFG=1
M  V30 3 C 40.580667 34.268369 61.496530 0
M  V30 4 C 38.670448 32.479864 58.862507 0
M  V30 5 C 39.121446 27.791989 58.320586 0
M  V30 6 C 40.863296 27.868030 56.421355 0
M  V30 7 C 38.261739 34.783919 60.929931 0
M  V30 8 C 40.714149 35.526967 62.102101 0
M  V30 9 C 39.354534 33.893996 60.909551 0
M  V30 10 C 39.893854 29.060541 51.457197 0 CFG=2
M  V30 11 N 38.950431 30.447556 55.969033 0
M  V30 12 C 38.026921 31.243442 56.759184 0
M  V30 13 C 38.560095 31.340612 58.165721 0
M  V30 14 C 39.623978 36.411585 62.125206 0
M  V30 15 F 37.350379 36.901031 61.563827 0
M  V30 16 C 38.398106 36.043082 61.538449 0
M  V30 17 C 39.212682 32.532327 60.278271 0 CFG=1
M  V30 18 C 40.401380 28.019650 57.914187 0
M  V30 19 N 37.867473 30.934346 61.853445 0
M  V30 20 C 38.308882 30.004223 54.745423 0
M  V30 21 C 38.549381 27.148804 56.102103 0
M  V30 22 C 39.367863 27.603297 54.284129 0 CFG=1
M  V30 23 N 38.855350 29.220955 52.499106 0 CHG=1
M  V30 24 O 39.751682 37.621486 62.717225 0
M  V30 25 C 40.076462 30.399284 50.719550 0
M  V30 26 C 39.500911 27.909299 50.529097 0
M  V30 27 C 41.303565 30.421538 49.808676 0
M  V30 28 N 39.813440 27.188494 55.640300 0
M  V30 29 S 37.715238 26.799462 54.647596 0
M  V30 30 C 38.458331 31.639305 61.160205 0
M  V30 31 Cl 38.669513 28.021481 59.967853 0
M  V30 32 H 37.102154 27.345116 57.592565 0
M  V30 33 H 40.248524 29.621257 53.973616 0
M  V30 34 H 41.417497 33.585524 61.484326 0
M  V30 35 H 38.366101 33.416276 58.416455 0
M  V30 36 H 41.138764 28.823162 55.987836 0
M  V30 37 H 41.751318 27.240654 56.437351 0
M  V30 38 H 37.319570 34.497784 60.484057 0
M  V30 39 H 41.653374 35.814141 62.554772 0
M  V30 40 H 40.859142 28.788149 51.869240 0
M  V30 41 H 39.175556 29.621941 56.506714 0
M  V30 42 H 37.067659 30.728561 56.816763 0
M  V30 43 H 37.862788 32.228014 56.317556 0
M  V30 44 H 38.865327 30.416271 58.624147 0
M  V30 45 H 40.209084 32.093703 60.253630 0
M  V30 46 H 41.148183 28.331969 58.628739 0
M  V30 47 H 37.364774 29.499824 54.955669 0
M  V30 48 H 38.054372 30.906545 54.186672 0
M  V30 49 H 39.889125 27.005868 53.536118 0
M  V30 50 H 38.120988 28.545574 52.335872 0
M  V30 51 H 38.910028 38.041724 62.794136 0
M  V30 52 H 39.183348 30.638861 50.140077 0
M  V30 53 H 40.192121 31.208485 51.444345 0
M  V30 54 H 40.317099 27.649531 49.862720 0
M  V30 55 H 39.236687 27.004772 51.079725 0
M  V30 56 H 38.667237 28.188245 49.895141 0
M  V30 57 H 41.372024 31.372619 49.290008 0
M  V30 58 H 42.222746 30.300983 50.381935 0
M  V30 59 H 41.247667 29.639999 49.051389 0
M  V30 60 H 38.471569 30.143938 52.373848 0
M  V30 END ATOM
M  V30 BEGIN BOND
M  V30 1 1 5 1
M  V30 2 2 8 3
M  V30 3 1 9 3
M  V30 4 2 9 7
M  V30 5 1 12 11
M  V30 6 2 13 4
M  V30 7 1 13 12
M  V30 8 1 14 8
M  V30 9 1 16 7
M  V30 10 2 16 14
M  V30 11 1 16 15
M  V30 12 1 17 4
M  V30 13 1 17 9
M  V30 14 2 18 5
M  V30 15 1 18 6
M  V30 16 1 20 2
M  V30 17 1 20 11
M  V30 18 2 21 1
M  V30 19 1 22 2
M  V30 20 1 23 2
M  V30 21 1 23 10
M  V30 22 1 24 14
M  V30 23 1 25 10
M  V30 24 1 26 10
M  V30 25 1 27 25
M  V30 26 1 28 6
M  V30 27 1 28 21
M  V30 28 1 28 22
M  V30 29 1 29 21
M  V30 30 1 29 22
M  V30 31 1 30 17
M  V30 32 3 30 19
M  V30 33 1 31 5
M  V30 34 1 32 1
M  V30 35 1 2 33 CFG=3
M  V30 36 1 34 3
M  V30 37 1 35 4
M  V30 38 1 36 6
M  V30 39 1 37 6
M  V30 40 1 38 7
M  V30 41 1 39 8
M  V30 42 1 10 40 CFG=1
M  V30 43 1 41 11
M  V30 44 1 42 12
M  V30 45 1 43 12
M  V30 46 1 44 13
M  V30 47 1 17 45 CFG=3
M  V30 48 1 46 18
M  V30 49 1 47 20
M  V30 50 1 48 20
M  V30 51 1 22 49 CFG=3
M  V30 52 1 50 23
M  V30 53 1 51 24
M  V30 54 1 52 25
M  V30 55 1 53 25
M  V30 56 1 54 26
M  V30 57 1 55 26
M  V30 58 1 56 26
M  V30 59 1 57 27
M  V30 60 1 58 27
M  V30 61 1 59 27
M  V30 62 1 60 23
M  V30 END BOND
M  V30 END CTAB
M  END
>  <i_epik_Tot_Q>  (1) 
1

>  <i_epik_Tot_abs_Q>  (1) 
1

>  <i_i_glide_confnum>  (1) 
268

>  <i_i_glide_lignum>  (1) 
3

>  <i_i_glide_posenum>  (1) 
89

>  <i_i_glide_rotatable_bonds>  (1) 
11

>  <i_lp_mmshare_version>  (1) 
72125

>  <i_m_source_file_index>  (1) 
1

>  <i_f3d_flags>  (1) 
0

>  <num_sample>  (1) 
100

>  <b_lp_Chiralities_Consistent>  (1) 
1

>  <r_epik_Charging_Adjusted_Penalty>  (1) 
1.026714880071514

>  <r_epik_Ionization_Penalty>  (1) 
0.57488375576365369

>  <r_epik_Ionization_Penalty_Charging>  (1) 
0.45778339447339428

>  <r_epik_Ionization_Penalty_Neutral>  (1) 
0.11710036129025943

>  <r_epik_State_Penalty>  (1) 
0.56893148559811979

>  <r_glide_ring_energy>  (1) 
0

>  <r_i_docking_score>  (1) 
-7.3105224674854883

>  <r_i_glide_ecoul>  (1) 
-0.074373252695785208

>  <r_i_glide_eff_state_penalty>  (1) 
0.56893148559811979

>  <r_i_glide_einternal>  (1) 
6.0763636830778065

>  <r_i_glide_emodel>  (1) 
-64.037173595121715

>  <r_i_glide_emodel_strain>  (1) 
0

>  <r_i_glide_energy>  (1) 
-39.850384388457556

>  <r_i_glide_erotb>  (1) 
0.74887478347211667

>  <r_i_glide_esite>  (1) 
0

>  <r_i_glide_evdw>  (1) 
-39.77601113576177

>  <r_i_glide_gscore>  (1) 
-7.8794539530836083

>  <r_i_glide_gscore_strain>  (1) 
0

>  <r_i_glide_hbond>  (1) 
-0.23610049431983487

>  <r_i_glide_ligand_efficiency>  (1) 
-0.2358233054027577

>  <r_i_glide_ligand_efficiency_ln>  (1) 
-1.6487468570253467

>  <r_i_glide_ligand_efficiency_sa>  (1) 
-0.74081076897520981

>  <r_i_glide_lipo>  (1) 
-4.5646386712922213

>  <r_i_glide_metal>  (1) 
-0

>  <r_i_glide_rewards>  (1) 
-1.8276330262512119

>  <r_lp_Energy>  (1) 
39.675871999999998

>  <r_lp_tautomer_probability>  (1) 
0.99999999999736477

>  <s_epik_Chemistry_Notes>  (1) 
This compound contains an acetal/aminal-like group ( X-CH(R)-Y where X, Y are N, S, or O) that may be acid/base labile, releasing an aldehyde.

>  <s_epik_cmdline>  (1) 
J2VwaWtfcHl0aG9uJywgJy1waHQnLCAnMS4wJywgJy1waCcsICc3LjQnLCAnLXRuJywgJzgnLCAnLW1hJywgJzUwMCcsICctaW1hZScsICc8aW5maWxlLm1hZT4nLCAnLW9tYWUnLCAnPG91dGZpbGUubWFlPic=

>  <s_epik_input>  (1) 
W0NIXT0xQyhDbCk9W0NIXVtDSDJdTihDMTIpW0NAQEhdKFMyKVtDQEBIXShbTkhdW0NAQEhdKFtDSDNdKVtDSDJdW0NIM10pW0NIMl1bTkhdW0NIMl1cW0NIXT1bQ0hdXFtDQEhdKEMjTiljM1tjSF1bY0hdYyhbT0hdKWMoRilbY0hdMw==

>  <s_glide_docking_method>  (1) 
confgen

>  <s_i_glide_gridfile>  (1) 
gpcr_5ht2c_6bqh_protein_autoprepared_prepared

>  <s_lp_Force_Field>  (1) 
S-OPLS

>  <s_lp_Variant>  (1) 
DiffSBDD_0_num_sample_100-3

>  <s_m_source_file>  (1) 
generated__ligand_DiffSBDD_2026-05-06_prepared.sdf

>  <GenAI_Model>  (1) 
DiffSBDD

>  <Protein>  (1) 
GPCR_5HT2C

$$$$
DiffSBDD_53_num_sample_100
     RDKit          3D

  0  0  0  0  0  0  0  0  0  0999 V3000
M  V30 BEGIN CTAB
M  V30 COUNTS 69 72 0 0 1
M  V30 BEGIN ATOM
M  V30 1 C 41.062867 32.872331 62.443120 0
M  V30 2 C 40.798217 29.867767 65.877933 0
M  V30 3 C 41.794429 32.328331 64.841320 0
M  V30 4 O 42.672496 27.736037 63.453501 0
M  V30 5 N 41.880563 27.658959 66.463804 0 CFG=2 CHG=1
M  V30 6 C 39.261178 30.190102 54.986938 0
M  V30 7 C 39.227699 29.100582 52.697053 0
M  V30 8 N 38.416937 30.637865 56.100888 0
M  V30 9 C 38.667323 30.332547 57.387070 0
M  V30 10 C 41.580146 34.668317 64.161160 0
M  V30 11 C 38.108188 30.761881 59.912204 0 CFG=1
M  V30 12 C 42.175502 26.310007 65.993529 0
M  V30 13 C 40.739682 28.336220 65.793304 0
M  V30 14 C 43.181556 27.427628 65.830669 0 CFG=1
M  V30 15 O 39.282051 31.510534 60.253482 0
M  V30 16 C 38.960988 32.725548 60.937413 0 CFG=1
M  V30 17 C 37.065527 31.322559 60.886672 0 CFG=1
M  V30 18 C 37.436161 32.785393 60.959442 0
M  V30 19 C 43.493974 28.146850 64.517419 0 CFG=2
M  V30 20 C 41.491806 33.295204 63.845373 0
M  V30 21 O 39.608390 29.621431 57.742235 0
M  V30 22 C 41.966205 35.073428 65.453422 0
M  V30 23 C 38.551261 27.732891 54.703691 0
M  V30 24 O 37.467398 27.111811 54.653477 0
M  V30 25 S 43.604472 29.940019 64.723405 0
M  V30 26 C 42.267401 34.110444 66.435340 0
M  V30 27 C 38.581201 29.136178 54.073783 0 CFG=1
M  V30 28 C 38.588729 28.724584 51.577854 0
M  V30 29 O 39.614027 27.310172 55.210576 0 CHG=-1
M  V30 30 C 37.709722 30.928673 58.421331 0
M  V30 31 S 41.692370 30.597969 64.476322 0 CHG=1
M  V30 32 C 42.183382 32.742989 66.131095 0
M  V30 33 C 35.600968 31.082394 60.525728 0
M  V30 34 C 39.538768 32.705580 62.364415 0
M  V30 35 H 41.370988 33.660750 61.755036 0
M  V30 36 H 41.578938 31.978323 62.094714 0
M  V30 37 H 41.225504 30.176364 66.830708 0
M  V30 38 H 39.783283 30.267260 65.845763 0
M  V30 39 H 43.212160 27.621406 62.676681 0
M  V30 40 H 39.471075 31.082711 54.396702 0
M  V30 41 H 40.238713 29.839450 55.324749 0
M  V30 42 H 40.263940 29.399985 52.641633 0
M  V30 43 H 37.617925 31.220850 55.883786 0
M  V30 44 H 41.349752 35.411953 63.411204 0
M  V30 45 H 38.281159 29.705197 60.121531 0
M  V30 46 H 42.249376 25.631037 66.840490 0
M  V30 47 H 41.548531 26.004265 65.157110 0
M  V30 48 H 39.867419 28.021658 66.357809 0
M  V30 49 H 40.564216 28.001950 64.771165 0
M  V30 50 H 43.951812 27.519151 66.594441 0
M  V30 51 H 39.357049 33.579020 60.385518 0
M  V30 52 H 37.260261 30.863200 61.853478 0
M  V30 53 H 37.025918 33.286521 61.837132 0
M  V30 54 H 37.071709 33.315406 60.078152 0
M  V30 55 H 44.498617 27.826396 64.238566 0
M  V30 56 H 42.032860 36.125819 65.691582 0
M  V30 57 H 42.564899 34.421410 67.424380 0
M  V30 58 H 37.544829 29.441140 53.918323 0
M  V30 59 H 39.093840 28.717789 50.623233 0
M  V30 60 H 37.552690 28.418178 51.604768 0
M  V30 61 H 36.755079 30.432547 58.244638 0
M  V30 62 H 37.556732 31.982280 58.185468 0
M  V30 63 H 42.420271 32.012112 66.888390 0
M  V30 64 H 35.281391 31.686703 59.674889 0
M  V30 65 H 35.467411 30.037995 60.253498 0
M  V30 66 H 34.945026 31.311026 61.364767 0
M  V30 67 H 39.230465 31.804286 62.894654 0
M  V30 68 H 39.089190 33.540756 62.902259 0
M  V30 69 H 41.907860 27.713917 67.473464 0
M  V30 END ATOM
M  V30 BEGIN BOND
M  V30 1 1 8 6
M  V30 2 1 9 8
M  V30 3 1 12 5
M  V30 4 1 13 2
M  V30 5 1 13 5
M  V30 6 1 14 5
M  V30 7 1 14 12
M  V30 8 1 15 11
M  V30 9 1 16 15
M  V30 10 1 17 11
M  V30 11 1 18 16
M  V30 12 1 18 17
M  V30 13 1 19 4
M  V30 14 1 19 14
M  V30 15 1 20 1
M  V30 16 1 20 3
M  V30 17 2 20 10
M  V30 18 2 21 9
M  V30 19 1 22 10
M  V30 20 2 24 23
M  V30 21 1 25 19
M  V30 22 2 26 22
M  V30 23 1 27 6
M  V30 24 1 27 7
M  V30 25 1 27 23
M  V30 26 2 28 7
M  V30 27 1 29 23
M  V30 28 1 30 9
M  V30 29 1 30 11
M  V30 30 1 31 2
M  V30 31 1 31 3 CFG=1
M  V30 32 1 31 25
M  V30 33 2 32 3
M  V30 34 1 32 26
M  V30 35 1 33 17
M  V30 36 1 34 1
M  V30 37 1 34 16
M  V30 38 1 35 1
M  V30 39 1 36 1
M  V30 40 1 37 2
M  V30 41 1 38 2
M  V30 42 1 39 4
M  V30 43 1 40 6
M  V30 44 1 41 6
M  V30 45 1 42 7
M  V30 46 1 43 8
M  V30 47 1 44 10
M  V30 48 1 11 45 CFG=1
M  V30 49 1 46 12
M  V30 50 1 47 12
M  V30 51 1 48 13
M  V30 52 1 49 13
M  V30 53 1 14 50 CFG=1
M  V30 54 1 16 51 CFG=3
M  V30 55 1 17 52 CFG=1
M  V30 56 1 53 18
M  V30 57 1 54 18
M  V30 58 1 19 55 CFG=3
M  V30 59 1 56 22
M  V30 60 1 57 26
M  V30 61 1 27 58 CFG=3
M  V30 62 1 59 28
M  V30 63 1 60 28
M  V30 64 1 61 30
M  V30 65 1 62 30
M  V30 66 1 63 32
M  V30 67 1 64 33
M  V30 68 1 65 33
M  V30 69 1 66 33
M  V30 70 1 67 34
M  V30 71 1 68 34
M  V30 72 1 5 69 CFG=1
M  V30 END BOND
M  V30 END CTAB
M  END
>  <i_epik_Tot_Q>  (1) 
1

>  <i_epik_Tot_abs_Q>  (1) 
3

>  <i_i_glide_confnum>  (1) 
522

>  <i_i_glide_lignum>  (1) 
140

>  <i_i_glide_posenum>  (1) 
71

>  <i_i_glide_rotatable_bonds>  (1) 
12

>  <i_lp_mmshare_version>  (1) 
72125

>  <i_m_source_file_index>  (1) 
54

>  <i_f3d_flags>  (1) 
0

>  <num_sample>  (1) 
100

>  <b_lp_Chiralities_Consistent>  (1) 
1

>  <r_epik_Charging_Adjusted_Penalty>  (1) 
0.046453037766825911

>  <r_epik_Ionization_Penalty>  (1) 
0.023481310305084564

>  <r_epik_Ionization_Penalty_Charging>  (1) 
0.023340632071334463

>  <r_epik_Ionization_Penalty_Neutral>  (1) 
0.0001406782337501018

>  <r_epik_State_Penalty>  (1) 
0.023112405695491445

>  <r_glide_ring_energy>  (1) 
0.17236391819081889

>  <r_i_docking_score>  (1) 
-7.3081620333880553

>  <r_i_glide_ecoul>  (1) 
-9.9079783551988694

>  <r_i_glide_eff_state_penalty>  (1) 
0.023112405695491445

>  <r_i_glide_einternal>  (1) 
9.9342985217669195

>  <r_i_glide_emodel>  (1) 
-72.229715994924817

>  <r_i_glide_emodel_strain>  (1) 
1.5825523082857416

>  <r_i_glide_energy>  (1) 
-51.802893741692344

>  <r_i_glide_erotb>  (1) 
0.79410111881252765

>  <r_i_glide_esite>  (1) 
-0.088778035911212416

>  <r_i_glide_evdw>  (1) 
-41.894915386493473

>  <r_i_glide_gscore>  (1) 
-7.3312744390835469

>  <r_i_glide_gscore_strain>  (1) 
0

>  <r_i_glide_hbond>  (1) 
-0.32000000000000001

>  <r_i_glide_ligand_efficiency>  (1) 
-0.21494594215847221

>  <r_i_glide_ligand_efficiency_ln>  (1) 
-1.6145779801770854

>  <r_i_glide_ligand_efficiency_sa>  (1) 
-0.69634141085329404

>  <r_i_glide_lipo>  (1) 
-3.4196537072710935

>  <r_i_glide_metal>  (1) 
-0

>  <r_i_glide_rewards>  (1) 
-0.71600129210926455

>  <r_lp_Energy>  (1) 
3.4646329999999996

>  <s_epik_Chemistry_Notes>  (1) 
This compound contains an acetal/aminal-like group ( X-CH(R)-Y where X, Y are N, S, or O) that may be acid/base labile, releasing an aldehyde.

>  <s_epik_cmdline>  (1) 
J2VwaWtfcHl0aG9uJywgJy1waHQnLCAnMS4wJywgJy1waCcsICc3LjQnLCAnLXRuJywgJzgnLCAnLW1hJywgJzUwMCcsICctaW1hZScsICc8aW5maWxlLm1hZT4nLCAnLW9tYWUnLCAnPG91dGZpbGUubWFlPic=

>  <s_epik_input>  (1) 
TjEyW0NAQEhdKFtDSDJdMSlbQ0BASF0oW09IXSlTW1MrXShbQ0gyXVtDSDJdMiljM2MoW2NIXVtjSF1bY0hdW2NIXTMpW0NIMl1bQ0gyXVtDQEhdKFtDSDJdW0NASF00W0NIM10pT1tDQEBIXTRbQ0gyXUMoPU8pW05IXVtDSDJdW0NAQEhdKFtDSF09W0NIMl0pQyg9TylbT0hd

>  <s_glide_docking_method>  (1) 
confgen

>  <s_i_glide_gridfile>  (1) 
gpcr_5ht2c_6bqh_protein_autoprepared_prepared

>  <s_lp_Force_Field>  (1) 
S-OPLS

>  <s_lp_Variant>  (1) 
DiffSBDD_53_num_sample_100-1

>  <s_m_source_file>  (1) 
generated__ligand_DiffSBDD_2026-05-06_prepared.sdf

>  <GenAI_Model>  (1) 
DiffSBDD

>  <Protein>  (1) 
GPCR_5HT2C

$$$$
DiffSBDD_18_num_sample_100
     RDKit          3D

  0  0  0  0  0  0  0  0  0  0999 V3000
M  V30 BEGIN CTAB
M  V30 COUNTS 70 72 0 0 1
M  V30 BEGIN ATOM
M  V30 1 O 41.067393 30.935913 61.448050 0
M  V30 2 C 43.250038 27.263396 65.299129 0
M  V30 3 C 41.959509 32.863983 65.661058 0
M  V30 4 C 42.716380 26.207502 64.781092 0
M  V30 5 O 40.671263 34.568211 63.853037 0
M  V30 6 C 42.743616 29.151611 66.884486 0 CFG=2
M  V30 7 C 39.033360 28.569852 56.038277 0
M  V30 8 N 42.424190 27.927999 66.152946 0
M  V30 9 N 42.326662 28.999284 68.274815 0
M  V30 10 C 39.310808 29.692174 60.228556 0
M  V30 11 C 40.785571 27.621127 57.480807 0
M  V30 12 O 39.369339 29.122406 54.991666 0
M  V30 13 O 40.581384 25.221264 65.053497 0
M  V30 14 C 39.629762 24.843961 57.256376 0
M  V30 15 C 44.188889 31.669719 65.879888 0
M  V30 16 C 41.391914 26.104587 65.307642 0
M  V30 17 C 37.734763 25.701525 55.901199 0
M  V30 18 C 40.636783 28.392354 58.578956 0
M  V30 19 C 41.229821 33.562611 63.419397 0
M  V30 20 N 38.044362 28.984971 56.877998 0
M  V30 21 C 42.734097 31.731686 66.384203 0 CFG=2
M  V30 22 C 40.409065 29.684144 61.295015 0 CFG=2
M  V30 23 C 41.980969 30.370684 66.325513 0 CFG=2
M  V30 24 C 40.736755 30.375236 67.228215 0
M  V30 25 O 38.007983 25.872971 54.692470 0 CHG=-1
M  V30 26 C 41.066978 27.290536 66.290169 0
M  V30 27 C 38.149103 29.242108 58.127748 0
M  V30 28 C 41.229837 33.271534 61.916881 0
M  V30 29 C 40.289520 32.124217 61.508314 0
M  V30 30 C 39.867403 29.259566 62.653520 0
M  V30 31 C 39.392293 29.107265 59.004332 0
M  V30 32 C 39.718031 27.301725 56.485438 0 CFG=1
M  V30 33 C 38.808174 26.103253 56.931862 0 CFG=2
M  V30 34 N 41.867486 32.683923 64.210099 0
M  V30 35 N 41.067398 29.627029 68.443358 0
M  V30 36 O 36.669989 25.221670 56.350740 0
M  V30 37 H 44.241756 27.660644 65.135092 0
M  V30 38 H 42.456038 33.816650 65.856035 0
M  V30 39 H 40.953930 32.965490 66.071013 0
M  V30 40 H 43.156787 25.512757 64.081409 0
M  V30 41 H 43.825016 29.259005 66.866369 0
M  V30 42 H 42.256330 28.014147 68.522285 0
M  V30 43 H 38.399455 30.204833 60.503932 0
M  V30 44 H 41.747326 27.163933 57.296053 0
M  V30 45 H 40.849735 26.937203 67.298125 0
M  V30 46 H 38.991418 23.985802 57.470775 0
M  V30 47 H 40.266950 24.577135 56.415309 0
M  V30 48 H 40.267806 25.005872 58.123618 0
M  V30 49 H 44.256284 31.221454 64.887763 0
M  V30 50 H 44.622895 32.669268 65.853494 0
M  V30 51 H 44.832841 31.099686 66.547490 0
M  V30 52 H 41.507122 28.496445 59.200299 0
M  V30 53 H 42.798629 32.019068 67.435067 0
M  V30 54 H 41.185028 28.954476 61.093145 0
M  V30 55 H 41.699023 30.184317 65.289713 0
M  V30 56 H 40.392751 31.373626 67.494534 0
M  V30 57 H 39.903477 29.877840 66.731053 0
M  V30 58 H 40.266470 27.916859 65.900647 0
M  V30 59 H 37.286571 29.643416 58.667337 0
M  V30 60 H 42.247142 33.086465 61.569791 0
M  V30 61 H 40.906088 34.185363 61.417423 0
M  V30 62 H 39.863455 32.332599 60.526354 0
M  V30 63 H 39.457762 32.030150 62.208059 0
M  V30 64 H 39.467535 28.247136 62.597056 0
M  V30 65 H 40.655567 29.252249 63.405890 0
M  V30 66 H 39.077049 29.925254 63.003403 0
M  V30 67 H 40.264693 26.956487 55.605223 0
M  V30 68 H 38.277357 26.380551 57.843039 0
M  V30 69 H 42.308522 31.873847 63.799758 0
M  V30 70 H 40.355611 28.922982 68.646169 0
M  V30 END ATOM
M  V30 BEGIN BOND
M  V30 1 2 4 2
M  V30 2 1 8 2
M  V30 3 1 8 6
M  V30 4 1 9 6
M  V30 5 2 12 7
M  V30 6 1 16 4
M  V30 7 2 16 13
M  V30 8 2 18 11
M  V30 9 2 19 5
M  V30 10 1 20 7
M  V30 11 1 21 3
M  V30 12 1 21 15
M  V30 13 1 22 1
M  V30 14 1 22 10
M  V30 15 1 23 6
M  V30 16 1 23 21
M  V30 17 1 24 23
M  V30 18 1 25 17
M  V30 19 1 26 8
M  V30 20 1 26 16
M  V30 21 2 27 20
M  V30 22 1 28 19
M  V30 23 1 29 1
M  V30 24 1 29 28
M  V30 25 1 30 22
M  V30 26 2 31 10
M  V30 27 1 31 18
M  V30 28 1 31 27
M  V30 29 1 32 7
M  V30 30 1 32 11
M  V30 31 1 33 14
M  V30 32 1 33 17
M  V30 33 1 33 32
M  V30 34 1 34 3
M  V30 35 1 34 19
M  V30 36 1 35 9
M  V30 37 1 35 24
M  V30 38 2 36 17
M  V30 39 1 37 2
M  V30 40 1 38 3
M  V30 41 1 39 3
M  V30 42 1 40 4
M  V30 43 1 6 41 CFG=1
M  V30 44 1 42 9
M  V30 45 1 43 10
M  V30 46 1 44 11
M  V30 47 1 45 26
M  V30 48 1 46 14
M  V30 49 1 47 14
M  V30 50 1 48 14
M  V30 51 1 49 15
M  V30 52 1 50 15
M  V30 53 1 51 15
M  V30 54 1 52 18
M  V30 55 1 21 53 CFG=1
M  V30 56 1 22 54 CFG=3
M  V30 57 1 23 55 CFG=3
M  V30 58 1 56 24
M  V30 59 1 57 24
M  V30 60 1 58 26
M  V30 61 1 59 27
M  V30 62 1 60 28
M  V30 63 1 61 28
M  V30 64 1 62 29
M  V30 65 1 63 29
M  V30 66 1 64 30
M  V30 67 1 65 30
M  V30 68 1 66 30
M  V30 69 1 32 67 CFG=3
M  V30 70 1 33 68 CFG=1
M  V30 71 1 69 34
M  V30 72 1 70 35
M  V30 END BOND
M  V30 END CTAB
M  END
>  <i_epik_Tot_Q>  (1) 
-1

>  <i_epik_Tot_abs_Q>  (1) 
1

>  <i_i_glide_confnum>  (1) 
541

>  <i_i_glide_lignum>  (1) 
43

>  <i_i_glide_posenum>  (1) 
173

>  <i_i_glide_rotatable_bonds>  (1) 
12

>  <i_lp_mmshare_version>  (1) 
72125

>  <i_m_source_file_index>  (1) 
19

>  <i_f3d_flags>  (1) 
0

>  <num_sample>  (1) 
100

>  <b_lp_Chiralities_Consistent>  (1) 
1

>  <r_epik_Charging_Adjusted_Penalty>  (1) 
0.37971815023500188

>  <r_epik_Ionization_Penalty>  (1) 
0.19445293645399606

>  <r_epik_Ionization_Penalty_Charging>  (1) 
0.18991606969001057

>  <r_epik_Ionization_Penalty_Neutral>  (1) 
0.004536866763985496

>  <r_epik_State_Penalty>  (1) 
0.18980208054499129

>  <r_glide_ring_energy>  (1) 
1.845819541117304

>  <r_i_docking_score>  (1) 
-7.3047213740138082

>  <r_i_glide_ecoul>  (1) 
-5.0845219305733673

>  <r_i_glide_eff_state_penalty>  (1) 
0.18980208054499129

>  <r_i_glide_einternal>  (1) 
12.448171280992145

>  <r_i_glide_emodel>  (1) 
-71.646158993220695

>  <r_i_glide_emodel_strain>  (1) 
1.3622195190674518

>  <r_i_glide_energy>  (1) 
-54.178270837586005

>  <r_i_glide_erotb>  (1) 
0.89642714384868305

>  <r_i_glide_esite>  (1) 
-0.034155222912905146

>  <r_i_glide_evdw>  (1) 
-49.093748907012639

>  <r_i_glide_gscore>  (1) 
-7.4945234545587995

>  <r_i_glide_gscore_strain>  (1) 
0

>  <r_i_glide_hbond>  (1) 
-0.56850664335225243

>  <r_i_glide_ligand_efficiency>  (1) 
-0.2029089270559391

>  <r_i_glide_ligand_efficiency_ln>  (1) 
-1.5936928530449783

>  <r_i_glide_ligand_efficiency_sa>  (1) 
-0.66999051528997766

>  <r_i_glide_lipo>  (1) 
-2.9444790195997723

>  <r_i_glide_metal>  (1) 
-0

>  <r_i_glide_rewards>  (1) 
-1.6264439776059156

>  <r_lp_Energy>  (1) 
26.239971999999998

>  <r_lp_tautomer_probability>  (1) 
0.98846045845713826

>  <s_epik_Chemistry_Notes>  (1) 
This compound has an imine and may undergo hydrolysis. This compound contains an acetal/aminal-like group ( X-CH(R)-Y where X, Y are N, S, or O) that may be acid/base labile, releasing an aldehyde.

>  <s_epik_cmdline>  (1) 
J2VwaWtfcHl0aG9uJywgJy1waHQnLCAnMS4wJywgJy1waCcsICc3LjQnLCAnLXRuJywgJzgnLCAnLW1hJywgJzUwMCcsICctaW1hZScsICc8aW5maWxlLm1hZT4nLCAnLW9tYWUnLCAnPG91dGZpbGUubWFlPic=

>  <s_epik_input>  (1) 
W09IXUMoPU8pW0NASF0oW0NIM10pW0NAQEhdMVtDSF09W0NIXS9DKFtDSF09TkMxPU8pPVtDSF1cW0NASF0oW0NIM10pT1tDSDJdW0NIMl1DKD1PKVtOSF1bQ0gyXVtDQEhdKFtDSDNdKVtDQEBIXTJbQ0gyXVtOSF1bTkhdW0NASF0ybjNbY0hdW2NIXWMoW09IXSlbY0hdMw==

>  <s_glide_docking_method>  (1) 
confgen

>  <s_i_glide_gridfile>  (1) 
gpcr_5ht2c_6bqh_protein_autoprepared_prepared

>  <s_lp_Force_Field>  (1) 
S-OPLS

>  <s_lp_Variant>  (1) 
DiffSBDD_18_num_sample_100-3

>  <s_m_source_file>  (1) 
generated__ligand_DiffSBDD_2026-05-06_prepared.sdf

>  <GenAI_Model>  (1) 
DiffSBDD

>  <Protein>  (1) 
GPCR_5HT2C

$$$$
DiffSBDD_46_num_sample_100
     RDKit          3D

  0  0  0  0  0  0  0  0  0  0999 V3000
M  V30 BEGIN CTAB
M  V30 COUNTS 67 70 0 0 1
M  V30 BEGIN ATOM
M  V30 1 N 37.198770 35.039969 60.262369 0 CHG=-1
M  V30 2 N 38.744751 29.920426 54.562615 0
M  V30 3 C 38.860130 32.882719 58.700642 0
M  V30 4 C 43.568532 32.242136 66.253487 0
M  V30 5 C 38.797700 30.752727 57.286018 0
M  V30 6 O 39.234187 37.221608 62.302471 0
M  V30 7 O 37.467401 37.448179 59.355266 0
M  V30 8 C 42.097464 33.726530 65.002429 0
M  V30 9 N 42.962866 33.269288 65.996575 0
M  V30 10 F 41.881303 35.826429 66.146838 0
M  V30 11 C 38.509260 31.425688 58.617913 0 CFG=2
M  V30 12 N 39.393758 34.955354 62.027037 0
M  V30 13 C 37.897152 29.561523 56.866485 0 CFG=2
M  V30 14 C 40.667516 35.477963 64.113574 0
M  V30 15 C 36.948130 37.445327 60.656647 0
M  V30 16 C 39.336356 26.937124 56.941248 0
M  V30 17 C 39.837307 28.716734 50.652282 0
M  V30 18 C 39.096670 29.499142 53.262127 0
M  V30 19 C 41.556914 35.027095 65.102060 0
M  V30 20 C 36.606378 33.855182 60.526133 0
M  V30 21 C 40.929980 33.321783 63.031558 0
M  V30 22 C 40.337229 34.597980 63.053632 0
M  V30 23 N 41.802356 32.887707 63.972389 0
M  V30 24 C 39.617100 27.958594 55.832655 0
M  V30 25 C 40.235918 29.969116 51.149246 0
M  V30 26 C 37.360092 36.091500 61.285549 0 CFG=2
M  V30 27 C 37.689028 28.518732 57.994088 0
M  V30 28 C 39.867382 30.360746 52.448851 0
M  V30 29 C 36.652213 32.631764 59.886365 0
M  V30 30 C 39.067365 27.850231 51.452176 0
M  V30 31 C 38.924531 27.641894 58.236666 0
M  V30 32 C 38.759470 36.143271 61.947396 0
M  V30 33 C 38.694901 28.235090 52.755008 0
M  V30 34 O 44.275939 31.323253 66.454199 0
M  V30 35 C 38.400919 28.883886 55.546674 0 CFG=2
M  V30 36 N 37.467396 32.446649 58.653582 0 CFG=1 CHG=1
M  V30 37 H 39.146318 30.779707 54.908187 0
M  V30 38 H 39.078860 33.466619 57.809939 0
M  V30 39 H 39.170117 33.286427 59.661163 0
M  V30 40 H 38.760001 31.526327 56.518674 0
M  V30 41 H 39.834969 30.421389 57.318774 0
M  V30 42 H 37.444491 36.509276 59.158406 0
M  V30 43 H 38.560150 30.834625 59.530145 0
M  V30 44 H 39.115801 34.232092 61.379448 0
M  V30 45 H 36.916027 29.991090 56.655630 0
M  V30 46 H 40.238689 36.460276 64.188648 0
M  V30 47 H 37.285497 38.320768 61.212747 0
M  V30 48 H 35.867442 37.520964 60.584219 0
M  V30 49 H 40.220914 26.321386 57.112538 0
M  V30 50 H 38.544091 26.258607 56.622133 0
M  V30 51 H 40.120093 28.421463 49.655004 0
M  V30 52 H 35.963377 33.875830 61.432598 0
M  V30 53 H 40.691924 32.623478 62.242389 0
M  V30 54 H 40.486980 28.556178 56.107775 0
M  V30 55 H 39.909711 27.407127 54.941321 0
M  V30 56 H 40.825367 30.632931 50.532385 0
M  V30 57 H 36.684062 35.932996 62.127252 0
M  V30 58 H 37.388370 29.002211 58.921738 0
M  V30 59 H 36.857172 27.864735 57.740363 0
M  V30 60 H 40.176381 31.324140 52.825356 0
M  V30 61 H 36.120402 31.750193 60.212245 0
M  V30 62 H 38.760929 26.888665 51.065104 0
M  V30 63 H 39.750953 28.246602 58.612525 0
M  V30 64 H 38.708546 26.900635 59.006698 0
M  V30 65 H 38.104792 27.563532 53.356135 0
M  V30 66 H 37.567603 28.286310 55.180495 0
M  V30 67 H 36.956944 32.509982 57.774844 0
M  V30 END ATOM
M  V30 BEGIN BOND
M  V30 1 2 9 4
M  V30 2 1 9 8
M  V30 3 1 11 3
M  V30 4 1 11 5
M  V30 5 1 13 5
M  V30 6 1 15 7
M  V30 7 1 18 2
M  V30 8 2 19 8
M  V30 9 1 19 10
M  V30 10 1 19 14
M  V30 11 1 20 1
M  V30 12 1 22 12
M  V30 13 2 22 14
M  V30 14 1 22 21
M  V30 15 1 23 8
M  V30 16 2 23 21
M  V30 17 1 24 16
M  V30 18 2 25 17
M  V30 19 1 26 1
M  V30 20 1 26 15
M  V30 21 1 27 13
M  V30 22 2 28 18
M  V30 23 1 28 25
M  V30 24 2 29 20
M  V30 25 1 30 17
M  V30 26 1 31 16
M  V30 27 1 31 27
M  V30 28 2 32 6
M  V30 29 1 32 12
M  V30 30 1 32 26
M  V30 31 1 33 18
M  V30 32 2 33 30
M  V30 33 2 34 4
M  V30 34 1 35 2
M  V30 35 1 35 13
M  V30 36 1 35 24
M  V30 37 1 36 3
M  V30 38 1 36 11
M  V30 39 1 36 29
M  V30 40 1 37 2
M  V30 41 1 38 3
M  V30 42 1 39 3
M  V30 43 1 40 5
M  V30 44 1 41 5
M  V30 45 1 42 7
M  V30 46 1 11 43 CFG=1
M  V30 47 1 44 12
M  V30 48 1 13 45 CFG=3
M  V30 49 1 46 14
M  V30 50 1 47 15
M  V30 51 1 48 15
M  V30 52 1 49 16
M  V30 53 1 50 16
M  V30 54 1 51 17
M  V30 55 1 52 20
M  V30 56 1 53 21
M  V30 57 1 54 24
M  V30 58 1 55 24
M  V30 59 1 56 25
M  V30 60 1 26 57 CFG=1
M  V30 61 1 58 27
M  V30 62 1 59 27
M  V30 63 1 60 28
M  V30 64 1 61 29
M  V30 65 1 62 30
M  V30 66 1 63 31
M  V30 67 1 64 31
M  V30 68 1 65 33
M  V30 69 1 35 66 CFG=3
M  V30 70 1 36 67 CFG=3
M  V30 END BOND
M  V30 END CTAB
M  END
>  <i_epik_Tot_Q>  (1) 
0

>  <i_epik_Tot_abs_Q>  (1) 
2

>  <i_i_glide_confnum>  (1) 
587

>  <i_i_glide_lignum>  (1) 
126

>  <i_i_glide_posenum>  (1) 
380

>  <i_i_glide_rotatable_bonds>  (1) 
13

>  <i_lp_mmshare_version>  (1) 
72125

>  <i_m_source_file_index>  (1) 
47

>  <i_f3d_flags>  (1) 
0

>  <num_sample>  (1) 
100

>  <b_lp_Chiralities_Consistent>  (1) 
1

>  <r_epik_Charging_Adjusted_Penalty>  (1) 
0.33342598172051213

>  <r_epik_Ionization_Penalty>  (1) 
0.027696632267336825

>  <r_epik_Ionization_Penalty_Charging>  (1) 
0.022930597766060493

>  <r_epik_Ionization_Penalty_Neutral>  (1) 
0.0047660345012763301

>  <r_epik_State_Penalty>  (1) 
0.31049538395445164

>  <r_glide_ring_energy>  (1) 
0.011984252057721455

>  <r_i_docking_score>  (1) 
-7.2948203922212143

>  <r_i_glide_ecoul>  (1) 
-4.0305214647451901

>  <r_i_glide_eff_state_penalty>  (1) 
0.31049538395445164

>  <r_i_glide_einternal>  (1) 
10.429917203458658

>  <r_i_glide_emodel>  (1) 
-77.56745531050035

>  <r_i_glide_emodel_strain>  (1) 
3.9478436837775917

>  <r_i_glide_energy>  (1) 
-57.727875591851124

>  <r_i_glide_erotb>  (1) 
0.99979395072351473

>  <r_i_glide_esite>  (1) 
-0.12147885675484171

>  <r_i_glide_evdw>  (1) 
-53.697354127105932

>  <r_i_glide_gscore>  (1) 
-7.605315776175666

>  <r_i_glide_gscore_strain>  (1) 
0

>  <r_i_glide_hbond>  (1) 
-0.18573417084947369

>  <r_i_glide_ligand_efficiency>  (1) 
-0.20263389978392263

>  <r_i_glide_ligand_efficiency_ln>  (1) 
-1.5915327263114496

>  <r_i_glide_ligand_efficiency_sa>  (1) 
-0.66908239524631719

>  <r_i_glide_lipo>  (1) 
-3.9588332572462552

>  <r_i_glide_metal>  (1) 
-0

>  <r_i_glide_rewards>  (1) 
-1.0496175159815349

>  <r_lp_Energy>  (1) 
55.985365999999999

>  <s_epik_Chemistry_Notes>  (1) 
This compound has an imine and may undergo hydrolysis.

>  <s_epik_cmdline>  (1) 
J2VwaWtfcHl0aG9uJywgJy1waHQnLCAnMS4wJywgJy1waCcsICc3LjQnLCAnLXRuJywgJzgnLCAnLW1hJywgJzUwMCcsICctaW1hZScsICc8aW5maWxlLm1hZT4nLCAnLW9tYWUnLCAnPG91dGZpbGUubWFlPic=

>  <s_epik_input>  (1) 
Tz1DPU5jMWMoRilbY0hdYyhbY0hdbjEpW05IXUMoPU8pW0NAQEhdKFtDSDJdW09IXSkvTj1bQ0hdL1tDSDJdTjJbQ0gyXVtDQEBIXTJbQ0gyXVtDQEBIXTNbQ0gyXVtDSDJdW0NIMl1bQ0gyXVtDQEBIXTNbTkhdYzRbY0hdW2NIXVtjSF1bY0hdW2NIXTQ=

>  <s_glide_docking_method>  (1) 
confgen

>  <s_i_glide_gridfile>  (1) 
gpcr_5ht2c_6bqh_protein_autoprepared_prepared

>  <s_lp_Force_Field>  (1) 
S-OPLS

>  <s_lp_Variant>  (1) 
DiffSBDD_46_num_sample_100-2

>  <s_m_source_file>  (1) 
generated__ligand_DiffSBDD_2026-05-06_prepared.sdf

>  <GenAI_Model>  (1) 
DiffSBDD

>  <Protein>  (1) 
GPCR_5HT2C

$$$$
DiffSBDD_5_num_sample_100
     RDKit          3D

  0  0  0  0  0  0  0  0  0  0999 V3000
M  V30 BEGIN CTAB
M  V30 COUNTS 50 52 0 0 1
M  V30 BEGIN ATOM
M  V30 1 C 38.584644 32.077517 60.825545 0
M  V30 2 O 35.976690 31.027769 59.453495 0
M  V30 3 C 37.476650 30.535506 55.249706 0
M  V30 4 C 39.067419 28.377635 51.092849 0
M  V30 5 C 37.792661 29.153564 54.627929 0 CFG=1
M  V30 6 C 40.606002 29.722948 49.599592 0
M  V30 7 C 39.467396 30.284756 53.031465 0
M  V30 8 C 37.791861 33.360090 60.532313 0
M  V30 9 C 37.834645 28.967286 57.987887 0
M  V30 10 C 38.118485 26.759627 55.367425 0
M  V30 11 N 40.137588 30.415746 51.867818 0
M  V30 12 N 38.014485 29.881552 58.857828 0
M  V30 13 S 38.875839 31.299691 56.135288 0
M  V30 14 C 37.720865 30.821426 61.090109 0
M  V30 15 C 38.570991 29.221441 53.302102 0
M  V30 16 C 38.381943 28.240360 52.310268 0
M  V30 17 C 38.909397 28.582986 56.944301 0 CFG=1
M  V30 18 C 39.351173 26.061595 57.330156 0
M  V30 19 C 37.024872 30.178854 59.865177 0 CFG=1
M  V30 20 C 38.590936 25.747324 56.277361 0
M  V30 21 C 38.267378 28.077387 55.624001 0
M  V30 22 C 39.795209 29.800586 56.637088 0
M  V30 23 C 39.913771 29.489033 50.915584 0
M  V30 24 C 39.792776 27.481091 57.632431 0
M  V30 25 H 39.194013 32.260644 61.711321 0
M  V30 26 H 39.292239 31.892612 60.017286 0
M  V30 27 H 36.033705 31.221155 58.517387 0
M  V30 28 H 37.093238 31.233859 54.505662 0
M  V30 29 H 36.667480 30.408078 55.963683 0
M  V30 30 H 38.926739 27.659248 50.298043 0
M  V30 31 H 36.816612 28.787057 54.308696 0
M  V30 32 H 40.667398 28.821426 49.000334 0
M  V30 33 H 41.606206 30.133149 49.742279 0
M  V30 34 H 40.004674 30.446122 49.053536 0
M  V30 35 H 39.638734 31.060426 53.748973 0
M  V30 36 H 38.460894 34.217910 60.458859 0
M  V30 37 H 37.067876 33.568970 61.320542 0
M  V30 38 H 37.252920 33.294970 59.586436 0
M  V30 39 H 36.904511 28.395273 57.930620 0
M  V30 40 H 37.639806 26.452544 54.450167 0
M  V30 41 H 38.368656 30.065331 61.536711 0
M  V30 42 H 36.982017 31.058153 61.853235 0
M  V30 43 H 37.706514 27.413742 52.469716 0
M  V30 44 H 39.703923 25.285617 57.994023 0
M  V30 45 H 36.538204 29.257718 60.168531 0
M  V30 46 H 38.335426 24.713103 56.097488 0
M  V30 47 H 40.347037 30.021589 57.544231 0
M  V30 48 H 40.512374 29.550649 55.853377 0
M  V30 49 H 40.821596 27.548887 57.274797 0
M  V30 50 H 39.854823 27.617841 58.714160 0
M  V30 END ATOM
M  V30 BEGIN BOND
M  V30 1 1 5 3
M  V30 2 1 8 1
M  V30 3 1 11 7
M  V30 4 2 12 9
M  V30 5 1 13 3
M  V30 6 1 14 1
M  V30 7 1 15 5
M  V30 8 2 15 7
M  V30 9 2 16 4
M  V30 10 1 16 15
M  V30 11 1 17 9 CFG=1
M  V30 12 1 19 2
M  V30 13 1 19 12
M  V30 14 1 19 14
M  V30 15 1 20 10
M  V30 16 2 20 18
M  V30 17 1 21 5
M  V30 18 2 21 10
M  V30 19 1 21 17
M  V30 20 1 22 13
M  V30 21 1 22 17
M  V30 22 1 23 4
M  V30 23 1 23 6
M  V30 24 2 23 11
M  V30 25 1 24 17
M  V30 26 1 24 18
M  V30 27 1 25 1
M  V30 28 1 26 1
M  V30 29 1 27 2
M  V30 30 1 28 3
M  V30 31 1 29 3
M  V30 32 1 30 4
M  V30 33 1 5 31 CFG=3
M  V30 34 1 32 6
M  V30 35 1 33 6
M  V30 36 1 34 6
M  V30 37 1 35 7
M  V30 38 1 36 8
M  V30 39 1 37 8
M  V30 40 1 38 8
M  V30 41 1 39 9
M  V30 42 1 40 10
M  V30 43 1 41 14
M  V30 44 1 42 14
M  V30 45 1 43 16
M  V30 46 1 44 18
M  V30 47 1 19 45 CFG=1
M  V30 48 1 46 20
M  V30 49 1 47 22
M  V30 50 1 48 22
M  V30 51 1 49 24
M  V30 52 1 50 24
M  V30 END BOND
M  V30 END CTAB
M  END
>  <i_epik_Tot_Q>  (1) 
0

>  <i_epik_Tot_abs_Q>  (1) 
0

>  <i_i_glide_confnum>  (1) 
16

>  <i_i_glide_lignum>  (1) 
23

>  <i_i_glide_posenum>  (1) 
205

>  <i_i_glide_rotatable_bonds>  (1) 
6

>  <i_lp_mmshare_version>  (1) 
72125

>  <i_m_source_file_index>  (1) 
6

>  <i_f3d_flags>  (1) 
0

>  <num_sample>  (1) 
100

>  <b_lp_Chiralities_Consistent>  (1) 
1

>  <r_epik_Charging_Adjusted_Penalty>  (1) 
0.0081103479682914613

>  <r_epik_Ionization_Penalty>  (1) 
0.0085425111303935736

>  <r_epik_Ionization_Penalty_Charging>  (1) 
0

>  <r_epik_Ionization_Penalty_Neutral>  (1) 
0.0085425111303935736

>  <r_epik_State_Penalty>  (1) 
0.0081103479682914613

>  <r_glide_ring_energy>  (1) 
0

>  <r_i_docking_score>  (1) 
-7.2939863286688214

>  <r_i_glide_ecoul>  (1) 
-2.4916658279647739

>  <r_i_glide_eff_state_penalty>  (1) 
0.0081103479682914613

>  <r_i_glide_einternal>  (1) 
7.1499218942795224

>  <r_i_glide_emodel>  (1) 
-51.35044691802392

>  <r_i_glide_emodel_strain>  (1) 
0.67443464108832529

>  <r_i_glide_energy>  (1) 
-40.748350459307389

>  <r_i_glide_erotb>  (1) 
0.64660109196089122

>  <r_i_glide_esite>  (1) 
-0.045310837036713375

>  <r_i_glide_evdw>  (1) 
-38.256684631342615

>  <r_i_glide_gscore>  (1) 
-7.3020966766371131

>  <r_i_glide_gscore_strain>  (1) 
0

>  <r_i_glide_hbond>  (1) 
-0.16

>  <r_i_glide_ligand_efficiency>  (1) 
-0.30391609702786754

>  <r_i_glide_ligand_efficiency_ln>  (1) 
-1.7457856276737782

>  <r_i_glide_ligand_efficiency_sa>  (1) 
-0.87664572069589319

>  <r_i_glide_lipo>  (1) 
-3.5436735928502445

>  <r_i_glide_metal>  (1) 
-0

>  <r_i_glide_rewards>  (1) 
-1.9131292329491987

>  <r_lp_Energy>  (1) 
35.538015999999999

>  <s_epik_Chemistry_Notes>  (1) 
This compound has an imine and may undergo hydrolysis. This compound contains an acetal/aminal-like group ( X-CH(R)-Y where X, Y are N, S, or O) that may be acid/base labile, releasing an aldehyde.

>  <s_epik_cmdline>  (1) 
J2VwaWtfcHl0aG9uJywgJy1waHQnLCAnMS4wJywgJy1waCcsICc3LjQnLCAnLXRuJywgJzgnLCAnLW1hJywgJzUwMCcsICctaW1hZScsICc8aW5maWxlLm1hZT4nLCAnLW9tYWUnLCAnPG91dGZpbGUubWFlPic=

>  <s_epik_input>  (1) 
W0NIM11bQ0gyXVtDSDJdW0NAQEhdKFtPSF0pXE49W0NIXVxbQ0BAXTEyQyg9W0NIXVtDSF09W0NIXVtDSDJdMilbQ0BASF0oW0NIMl1TW0NIMl0xKWMzW2NIXW5jKFtDSDNdKVtjSF1bY0hdMw==

>  <s_glide_docking_method>  (1) 
confgen

>  <s_i_glide_gridfile>  (1) 
gpcr_5ht2c_6bqh_protein_autoprepared_prepared

>  <s_lp_Force_Field>  (1) 
S-OPLS

>  <s_lp_Variant>  (1) 
DiffSBDD_5_num_sample_100-1

>  <s_m_source_file>  (1) 
generated__ligand_DiffSBDD_2026-05-06_prepared.sdf

>  <GenAI_Model>  (1) 
DiffSBDD

>  <Protein>  (1) 
GPCR_5HT2C

$$$$
DiffSBDD_25_num_sample_100
     RDKit          3D

  0  0  0  0  0  0  0  0  0  0999 V3000
M  V30 BEGIN CTAB
M  V30 COUNTS 57 59 0 0 1
M  V30 BEGIN ATOM
M  V30 1 C 38.599564 32.955765 60.799859 0
M  V30 2 C 39.931266 29.366569 60.587530 0
M  V30 3 C 40.202268 31.106134 62.368812 0
M  V30 4 C 38.180035 26.259642 54.373475 0
M  V30 5 C 38.003277 24.888458 56.450488 0
M  V30 6 C 37.067395 24.421413 57.286947 0
M  V30 7 C 38.191556 29.475238 57.128554 0 CFG=2
M  V30 8 N 41.867399 35.621431 66.102739 0
M  V30 9 O 39.806764 27.713478 58.853249 0
M  V30 10 C 39.470023 28.967323 59.316181 0
M  V30 11 C 38.587384 28.019167 52.572560 0
M  V30 12 C 41.526463 34.219875 65.962093 0 CFG=2
M  V30 13 C 39.106959 27.126324 56.693917 0 CFG=2
M  V30 14 O 39.067405 27.221427 51.738953 0
M  V30 15 O 38.724863 27.066875 58.062308 0
M  V30 16 C 39.514422 33.463616 61.932122 0
M  V30 17 O 38.850136 29.235869 52.653488 0 CHG=-1
M  V30 18 C 40.756142 32.693941 64.105259 0
M  V30 19 C 38.700166 29.874224 58.523988 0
M  V30 20 N 43.599297 32.689708 66.484390 0
M  V30 21 O 40.357585 26.523021 56.434465 0
M  V30 22 C 38.413789 31.162326 59.027418 0
M  V30 23 C 42.687054 33.362555 66.253900 0
M  V30 24 C 37.587862 27.454292 53.588067 0
M  V30 25 C 40.160064 32.379919 62.799958 0
M  V30 26 O 40.667398 28.494119 61.340931 0
M  V30 27 C 39.217227 28.626283 56.350175 0
M  V30 28 O 37.867406 30.592562 56.319233 0
M  V30 29 C 40.922197 33.945136 64.597331 0
M  V30 30 C 39.662722 30.669456 61.071169 0
M  V30 31 C 38.902015 31.561399 60.286311 0
M  V30 32 C 38.032714 26.313244 55.917368 0 CFG=1
M  V30 33 F 40.548308 35.000358 63.853487 0
M  V30 34 H 38.607862 33.665349 59.971286 0
M  V30 35 H 37.572161 32.930960 61.164912 0
M  V30 36 H 40.675888 30.355226 62.982723 0
M  V30 37 H 37.656922 25.375315 54.007529 0
M  V30 38 H 39.226225 26.084762 54.116067 0
M  V30 39 H 38.796672 24.234575 56.120392 0
M  V30 40 H 36.267401 25.056052 57.633666 0
M  V30 41 H 37.092263 23.399437 57.635191 0
M  V30 42 H 37.257058 28.926846 57.250722 0
M  V30 43 H 42.585356 35.882337 65.439550 0
M  V30 44 H 41.067879 36.200020 65.881370 0
M  V30 45 H 40.769354 33.985614 66.710860 0
M  V30 46 H 40.329737 34.036329 61.488376 0
M  V30 47 H 38.918770 34.151491 62.528811 0
M  V30 48 H 41.085651 31.866921 64.718077 0
M  V30 49 H 41.012370 26.945512 56.968945 0
M  V30 50 H 37.830256 31.855331 58.438379 0
M  V30 51 H 36.692831 27.141906 53.053501 0
M  V30 52 H 37.255134 28.249947 54.253883 0
M  V30 53 H 40.682057 28.704284 62.261390 0
M  V30 54 H 39.123459 28.766618 55.278849 0
M  V30 55 H 40.215600 29.008377 56.568977 0
M  V30 56 H 37.078103 31.011018 56.653468 0
M  V30 57 H 37.067403 26.752688 56.143327 0
M  V30 END ATOM
M  V30 BEGIN BOND
M  V30 1 2 6 5
M  V30 2 1 10 2
M  V30 3 1 10 9
M  V30 4 1 12 8
M  V30 5 2 14 11
M  V30 6 1 15 9
M  V30 7 1 15 13
M  V30 8 1 16 1
M  V30 9 1 17 11
M  V30 10 1 19 7
M  V30 11 2 19 10
M  V30 12 1 13 21 CFG=1
M  V30 13 1 22 19
M  V30 14 1 23 12
M  V30 15 3 23 20
M  V30 16 1 24 4
M  V30 17 1 24 11
M  V30 18 2 25 3
M  V30 19 1 25 16
M  V30 20 1 25 18
M  V30 21 1 26 2
M  V30 22 1 27 7
M  V30 23 1 27 13
M  V30 24 1 28 7
M  V30 25 1 29 12
M  V30 26 2 29 18
M  V30 27 2 30 2
M  V30 28 1 30 3
M  V30 29 1 31 1
M  V30 30 2 31 22
M  V30 31 1 31 30
M  V30 32 1 32 4
M  V30 33 1 32 5
M  V30 34 1 32 13
M  V30 35 1 33 29
M  V30 36 1 34 1
M  V30 37 1 35 1
M  V30 38 1 36 3
M  V30 39 1 37 4
M  V30 40 1 38 4
M  V30 41 1 39 5
M  V30 42 1 40 6
M  V30 43 1 41 6
M  V30 44 1 7 42 CFG=1
M  V30 45 1 43 8
M  V30 46 1 44 8
M  V30 47 1 12 45 CFG=1
M  V30 48 1 46 16
M  V30 49 1 47 16
M  V30 50 1 48 18
M  V30 51 1 49 21
M  V30 52 1 50 22
M  V30 53 1 51 24
M  V30 54 1 52 24
M  V30 55 1 53 26
M  V30 56 1 54 27
M  V30 57 1 55 27
M  V30 58 1 56 28
M  V30 59 1 32 57 CFG=3
M  V30 END BOND
M  V30 END CTAB
M  END
>  <i_epik_Tot_Q>  (1) 
-1

>  <i_epik_Tot_abs_Q>  (1) 
1

>  <i_i_glide_confnum>  (1) 
94

>  <i_i_glide_lignum>  (1) 
65

>  <i_i_glide_posenum>  (1) 
114

>  <i_i_glide_rotatable_bonds>  (1) 
10

>  <i_lp_mmshare_version>  (1) 
72125

>  <i_m_source_file_index>  (1) 
26

>  <i_f3d_flags>  (1) 
0

>  <num_sample>  (1) 
100

>  <b_lp_Chiralities_Consistent>  (1) 
1

>  <r_epik_Charging_Adjusted_Penalty>  (1) 
0.0056011124489286045

>  <r_epik_Ionization_Penalty>  (1) 
0.0056278004124673013

>  <r_epik_Ionization_Penalty_Charging>  (1) 
0.0010502183284910153

>  <r_epik_Ionization_Penalty_Neutral>  (1) 
0.0045775820839762862

>  <r_epik_State_Penalty>  (1) 
0.0045508941204375894

>  <r_glide_ring_energy>  (1) 
0

>  <r_i_docking_score>  (1) 
-7.2877012297194472

>  <r_i_glide_ecoul>  (1) 
-5.2182077476836497

>  <r_i_glide_eff_state_penalty>  (1) 
0.0045508941204375894

>  <r_i_glide_einternal>  (1) 
6.6767450941764084

>  <r_i_glide_emodel>  (1) 
-61.213708957724236

>  <r_i_glide_emodel_strain>  (1) 
1.9398796708540047

>  <r_i_glide_energy>  (1) 
-46.688016332494911

>  <r_i_glide_erotb>  (1) 
0.57188489385704211

>  <r_i_glide_esite>  (1) 
0

>  <r_i_glide_evdw>  (1) 
-41.469808584811261

>  <r_i_glide_gscore>  (1) 
-7.2922521238398845

>  <r_i_glide_gscore_strain>  (1) 
0

>  <r_i_glide_hbond>  (1) 
-0.16

>  <r_i_glide_ligand_efficiency>  (1) 
-0.22083943120361962

>  <r_i_glide_ligand_efficiency_ln>  (1) 
-1.6207470197921017

>  <r_i_glide_ligand_efficiency_sa>  (1) 
-0.70835005700236153

>  <r_i_glide_lipo>  (1) 
-3.2463221083154314

>  <r_i_glide_metal>  (1) 
-0

>  <r_i_glide_rewards>  (1) 
-1.6015933179883843

>  <r_lp_Energy>  (1) 
34.737321999999999

>  <s_epik_cmdline>  (1) 
J2VwaWtfcHl0aG9uJywgJy1waHQnLCAnMS4wJywgJy1waCcsICc3LjQnLCAnLXRuJywgJzgnLCAnLW1hJywgJzUwMCcsICctaW1hZScsICc8aW5maWxlLm1hZT4nLCAnLW9tYWUnLCAnPG91dGZpbGUubWFlPic=

>  <s_epik_input>  (1) 
TiNDW0NAQEhdKFtOSDJdKVxDKEYpPVtDSF1cQyhbQ0gyXVtDSDJdMSk9W0NIXWMoYzJbT0hdKWMxW2NIXWMoYzIzKVtDQEBIXShbT0hdKVtDSDJdW0NAXShPTzMpKFtPSF0pW0NASF0oW0NIXT1bQ0gyXSlbQ0gyXVtDSDJdQyg9TylbT0hd

>  <s_glide_docking_method>  (1) 
confgen

>  <s_i_glide_gridfile>  (1) 
gpcr_5ht2c_6bqh_protein_autoprepared_prepared

>  <s_lp_Force_Field>  (1) 
S-OPLS

>  <s_lp_Variant>  (1) 
DiffSBDD_25_num_sample_100-1

>  <s_m_source_file>  (1) 
generated__ligand_DiffSBDD_2026-05-06_prepared.sdf

>  <GenAI_Model>  (1) 
DiffSBDD

>  <Protein>  (1) 
GPCR_5HT2C

$$$$
DiffSBDD_64_num_sample_100
     RDKit          3D

  0  0  0  0  0  0  0  0  0  0999 V3000
M  V30 BEGIN CTAB
M  V30 COUNTS 66 68 0 0 1
M  V30 BEGIN ATOM
M  V30 1 C 39.328864 28.453613 51.702126 0
M  V30 2 C 39.539580 30.142614 53.774546 0
M  V30 3 C 41.579879 33.357575 63.814122 0
M  V30 4 C 37.278336 29.635905 57.096863 0
M  V30 5 C 37.772829 30.242955 59.469276 0
M  V30 6 O 37.838570 36.015980 61.939084 0
M  V30 7 N 39.067423 28.862949 54.026967 0
M  V30 8 C 40.018602 35.214403 62.337653 0
M  V30 9 O 40.159154 30.116844 50.300638 0 CHG=-1
M  V30 10 C 41.087873 35.652801 63.170107 0
M  V30 11 C 39.758202 33.793876 62.220546 0
M  V30 12 C 38.167127 32.752542 59.146089 0
M  V30 13 O 38.490561 26.821405 53.225144 0
M  V30 14 C 40.546098 32.887194 62.988751 0
M  V30 15 C 38.920278 27.956948 53.024647 0
M  V30 16 C 37.468023 29.177706 55.879739 0
M  V30 17 C 39.902594 30.580060 52.559575 0
M  V30 18 C 40.021189 27.765146 57.632685 0
M  V30 19 C 40.099059 26.264648 57.300405 0
M  V30 20 C 38.624868 33.912849 60.039247 0
M  V30 21 C 39.990248 28.651258 56.362464 0
M  V30 22 N 38.724249 33.286878 61.353600 0
M  V30 23 C 38.586509 31.839124 61.313410 0
M  V30 24 C 41.854513 34.728650 63.896581 0
M  V30 25 C 39.542061 37.563493 61.911105 0
M  V30 26 C 36.869772 30.103740 58.253571 0
M  V30 27 C 38.750824 28.493732 55.428797 0 CFG=2
M  V30 28 C 36.190483 31.936817 60.552387 0
M  V30 29 C 41.193962 28.176377 58.538753 0
M  V30 30 C 39.820376 29.743927 51.445140 0
M  V30 31 N 39.204534 36.168819 61.652844 0
M  V30 32 C 37.650970 31.650935 60.107054 0 CFG=2
M  V30 33 H 39.243632 27.766378 50.872812 0
M  V30 34 H 39.594760 30.763548 54.656397 0
M  V30 35 H 42.171274 32.656330 64.384949 0
M  V30 36 H 38.808932 30.041041 59.192880 0
M  V30 37 H 37.494270 29.488132 60.202111 0
M  V30 38 H 37.625056 35.139410 61.642632 0
M  V30 39 H 41.313315 36.701669 63.268001 0
M  V30 40 H 37.419535 33.058503 58.411966 0
M  V30 41 H 39.028237 32.385082 58.586458 0
M  V30 42 H 40.365605 31.826775 62.939804 0
M  V30 43 H 36.690998 29.264147 55.131843 0
M  V30 44 H 40.265996 31.590872 52.447549 0
M  V30 45 H 39.108776 27.917725 58.206269 0
M  V30 46 H 40.896451 26.061335 56.586509 0
M  V30 47 H 40.283310 25.667414 58.194411 0
M  V30 48 H 39.171439 25.898934 56.862246 0
M  V30 49 H 37.854816 34.678902 59.983602 0
M  V30 50 H 39.574241 34.323660 59.692628 0
M  V30 51 H 40.898038 28.432103 55.802114 0
M  V30 52 H 40.079183 29.698394 56.651746 0
M  V30 53 H 39.542435 31.361603 61.094104 0
M  V30 54 H 38.173527 31.423810 62.234139 0
M  V30 55 H 42.655753 35.079133 64.531363 0
M  V30 56 H 40.511999 37.793195 61.470788 0
M  V30 57 H 38.812400 38.219863 61.434601 0
M  V30 58 H 39.536478 37.802012 62.975855 0
M  V30 59 H 35.848160 30.421429 58.380945 0
M  V30 60 H 38.479916 27.441801 55.471028 0
M  V30 61 H 36.118234 32.830988 61.171751 0
M  V30 62 H 35.526713 32.105100 59.704169 0
M  V30 63 H 35.782273 31.111181 61.134205 0
M  V30 64 H 42.153328 27.990201 58.054792 0
M  V30 65 H 41.149685 29.235312 58.793705 0
M  V30 66 H 41.183525 27.623373 59.477238 0
M  V30 END ATOM
M  V30 BEGIN BOND
M  V30 1 1 7 2
M  V30 2 2 10 8
M  V30 3 1 11 8
M  V30 4 1 14 3
M  V30 5 2 14 11
M  V30 6 1 15 1
M  V30 7 1 15 7
M  V30 8 2 15 13
M  V30 9 2 16 4
M  V30 10 2 17 2
M  V30 11 1 19 18
M  V30 12 1 20 12
M  V30 13 1 21 18
M  V30 14 1 22 11
M  V30 15 1 22 20
M  V30 16 1 23 22
M  V30 17 2 24 3
M  V30 18 1 24 10
M  V30 19 2 26 4
M  V30 20 1 26 5
M  V30 21 1 27 7
M  V30 22 1 27 16
M  V30 23 1 27 21
M  V30 24 1 29 18
M  V30 25 2 30 1
M  V30 26 1 30 9
M  V30 27 1 30 17
M  V30 28 1 31 6
M  V30 29 1 31 8
M  V30 30 1 31 25
M  V30 31 1 32 5 CFG=3
M  V30 32 1 32 12
M  V30 33 1 32 23
M  V30 34 1 32 28
M  V30 35 1 33 1
M  V30 36 1 34 2
M  V30 37 1 35 3
M  V30 38 1 36 5
M  V30 39 1 37 5
M  V30 40 1 38 6
M  V30 41 1 39 10
M  V30 42 1 40 12
M  V30 43 1 41 12
M  V30 44 1 42 14
M  V30 45 1 43 16
M  V30 46 1 44 17
M  V30 47 1 45 18
M  V30 48 1 46 19
M  V30 49 1 47 19
M  V30 50 1 48 19
M  V30 51 1 49 20
M  V30 52 1 50 20
M  V30 53 1 51 21
M  V30 54 1 52 21
M  V30 55 1 53 23
M  V30 56 1 54 23
M  V30 57 1 55 24
M  V30 58 1 56 25
M  V30 59 1 57 25
M  V30 60 1 58 25
M  V30 61 1 59 26
M  V30 62 1 27 60 CFG=3
M  V30 63 1 61 28
M  V30 64 1 62 28
M  V30 65 1 63 28
M  V30 66 1 64 29
M  V30 67 1 65 29
M  V30 68 1 66 29
M  V30 END BOND
M  V30 END CTAB
M  END
>  <i_epik_Tot_Q>  (1) 
-1

>  <i_epik_Tot_abs_Q>  (1) 
1

>  <i_i_glide_confnum>  (1) 
298

>  <i_i_glide_lignum>  (1) 
161

>  <i_i_glide_posenum>  (1) 
331

>  <i_i_glide_rotatable_bonds>  (1) 
9

>  <i_lp_mmshare_version>  (1) 
72125

>  <i_m_source_file_index>  (1) 
65

>  <i_f3d_flags>  (1) 
0

>  <num_sample>  (1) 
100

>  <b_lp_Chiralities_Consistent>  (1) 
1

>  <r_epik_Charging_Adjusted_Penalty>  (1) 
0.52418754829992387

>  <r_epik_Ionization_Penalty>  (1) 
0.2719134954630722

>  <r_epik_Ionization_Penalty_Charging>  (1) 
0.27149649770889844

>  <r_epik_Ionization_Penalty_Neutral>  (1) 
0.00041699775417375828

>  <r_epik_State_Penalty>  (1) 
0.25269105059102542

>  <r_glide_ring_energy>  (1) 
0

>  <r_i_docking_score>  (1) 
-7.2830177712578914

>  <r_i_glide_ecoul>  (1) 
0.19013707438910399

>  <r_i_glide_eff_state_penalty>  (1) 
0.25269105059102542

>  <r_i_glide_einternal>  (1) 
6.4882956905901743

>  <r_i_glide_emodel>  (1) 
-57.415986278547749

>  <r_i_glide_emodel_strain>  (1) 
1.4762223258552751

>  <r_i_glide_energy>  (1) 
-43.717345253466384

>  <r_i_glide_erotb>  (1) 
0.62750977655133311

>  <r_i_glide_esite>  (1) 
0

>  <r_i_glide_evdw>  (1) 
-43.90748232785549

>  <r_i_glide_gscore>  (1) 
-7.5357088218489165

>  <r_i_glide_gscore_strain>  (1) 
0

>  <r_i_glide_hbond>  (1) 
0

>  <r_i_glide_ligand_efficiency>  (1) 
-0.22759430535180911

>  <r_i_glide_ligand_efficiency_ln>  (1) 
-1.6308662065510662

>  <r_i_glide_ligand_efficiency_sa>  (1) 
-0.72256687947486686

>  <r_i_glide_lipo>  (1) 
-4.3027967055344893

>  <r_i_glide_metal>  (1) 
-0

>  <r_i_glide_rewards>  (1) 
-1.6935683376313517

>  <r_lp_Energy>  (1) 
24.016719999999999

>  <r_lp_tautomer_probability>  (1) 
1

>  <s_epik_Chemistry_Notes>  (1) 
This compound has a N-S or N-O group and may undergo hydrolysis at high or low pH.

>  <s_epik_cmdline>  (1) 
J2VwaWtfcHl0aG9uJywgJy1waHQnLCAnMS4wJywgJy1waCcsICc3LjQnLCAnLXRuJywgJzgnLCAnLW1hJywgJzUwMCcsICctaW1hZScsICc8aW5maWxlLm1hZT4nLCAnLW9tYWUnLCAnPG91dGZpbGUubWFlPic=

>  <s_epik_input>  (1) 
Tz1DMVtDSDJdQyg9TylbQ0hdPVtDSF1OMVtDQEBIXShbQ0gyXVtDSF0oW0NIM10pW0NIM10pW0NIXT1DPVtDSF1bQ0gyXVtDQF0yKFtDSDNdKVtDSDJdW0NIMl1OKFtDSDJdMiljM1tjSF1bY0hdW2NIXVtjSF1jM04oW09IXSlbQ0gzXQ==

>  <s_glide_docking_method>  (1) 
confgen

>  <s_i_glide_gridfile>  (1) 
gpcr_5ht2c_6bqh_protein_autoprepared_prepared

>  <s_lp_Force_Field>  (1) 
S-OPLS

>  <s_lp_Variant>  (1) 
DiffSBDD_64_num_sample_100-1

>  <s_m_source_file>  (1) 
generated__ligand_DiffSBDD_2026-05-06_prepared.sdf

>  <GenAI_Model>  (1) 
DiffSBDD

>  <Protein>  (1) 
GPCR_5HT2C

$$$$
DiffSBDD_24_num_sample_100
     RDKit          3D

  0  0  0  0  0  0  0  0  0  0999 V3000
M  V30 BEGIN CTAB
M  V30 COUNTS 61 63 0 0 1
M  V30 BEGIN ATOM
M  V30 1 C 38.954573 32.285787 56.189617 0
M  V30 2 O 40.084484 31.786021 61.053529 0
M  V30 3 C 40.182329 35.836025 61.508987 0
M  V30 4 C 37.074248 25.288373 57.853365 0
M  V30 5 C 37.073348 23.886856 55.770983 0
M  V30 6 N 39.032627 33.762081 60.730513 0
M  V30 7 C 38.098563 33.211629 59.740038 0
M  V30 8 C 39.007368 29.615916 53.414081 0
M  V30 9 C 38.426857 28.552809 55.584202 0
M  V30 10 N 37.600640 25.020553 56.527641 0
M  V30 11 O 42.124746 31.621945 63.127521 0
M  V30 12 N 40.803717 35.049978 62.565619 0
M  V30 13 C 40.115258 30.727015 51.348523 0
M  V30 14 C 41.472819 32.839013 63.438900 0
M  V30 15 C 38.085836 27.426869 56.357434 0
M  V30 16 C 41.088562 33.657934 62.182586 0 CFG=1
M  V30 17 C 38.520943 29.793019 56.213331 0
M  V30 18 N 38.267334 32.283126 57.475271 0
M  V30 19 C 38.674397 28.427172 54.188477 0
M  V30 20 C 37.973640 26.156846 55.758810 0
M  V30 21 C 39.226740 29.621357 51.896606 0
M  V30 22 C 39.999798 32.991154 61.293299 0
M  V30 23 C 39.117394 30.853397 54.104730 0
M  V30 24 C 38.667429 28.730200 51.053495 0
M  V30 25 C 38.250428 26.021925 54.390330 0
M  V30 26 C 38.618244 27.129849 53.614174 0
M  V30 27 C 38.863264 35.174178 61.089898 0
M  V30 28 C 38.656159 33.393069 58.315572 0
M  V30 29 C 38.865242 30.940137 55.485571 0
M  V30 30 H 38.530054 33.064481 55.553851 0
M  V30 31 H 40.011613 32.516594 56.321510 0
M  V30 32 H 40.857888 35.910693 60.655505 0
M  V30 33 H 40.002976 36.855679 61.851313 0
M  V30 34 H 36.267022 26.021418 57.830313 0
M  V30 35 H 36.667714 24.368847 58.253536 0
M  V30 36 H 37.867304 25.623981 58.524268 0
M  V30 37 H 36.271285 24.199055 55.100437 0
M  V30 38 H 37.855664 23.407452 55.183694 0
M  V30 39 H 36.666859 23.130366 56.441702 0
M  V30 40 H 37.901567 32.157544 59.949071 0
M  V30 41 H 37.127152 33.701201 59.822950 0
M  V30 42 H 42.281377 31.146460 63.930014 0
M  V30 43 H 40.202306 35.055779 63.383316 0
M  V30 44 H 39.623195 31.692716 51.430708 0
M  V30 45 H 41.067461 30.776797 51.857360 0
M  V30 46 H 40.321787 30.575420 50.288906 0
M  V30 47 H 40.587144 32.622297 64.037750 0
M  V30 48 H 42.149503 33.417051 64.070462 0
M  V30 49 H 37.897679 27.550390 57.412093 0
M  V30 50 H 41.969168 33.677955 61.539974 0
M  V30 51 H 38.328966 29.862979 57.273340 0
M  V30 52 H 37.258212 32.291448 57.316680 0
M  V30 53 H 39.366597 31.749850 53.562688 0
M  V30 54 H 38.876328 28.779479 49.995375 0
M  V30 55 H 37.994558 27.968111 51.378131 0
M  V30 56 H 38.190507 25.064652 53.930035 0
M  V30 57 H 38.869561 26.959403 52.600498 0
M  V30 58 H 38.434612 35.727157 60.253500 0
M  V30 59 H 38.136302 35.235769 61.900478 0
M  V30 60 H 38.266892 34.306949 57.871038 0
M  V30 61 H 39.743607 33.460443 58.340033 0
M  V30 END ATOM
M  V30 BEGIN BOND
M  V30 1 1 7 6
M  V30 2 1 10 4
M  V30 3 1 10 5
M  V30 4 1 12 3
M  V30 5 1 14 11
M  V30 6 1 15 9
M  V30 7 1 16 12
M  V30 8 1 16 14
M  V30 9 2 17 9
M  V30 10 1 18 1
M  V30 11 2 19 8
M  V30 12 1 19 9
M  V30 13 1 20 10
M  V30 14 2 20 15
M  V30 15 1 21 8
M  V30 16 1 21 13
M  V30 17 2 22 2
M  V30 18 1 22 6
M  V30 19 1 22 16
M  V30 20 1 23 8
M  V30 21 2 24 21
M  V30 22 1 25 20
M  V30 23 1 26 19
M  V30 24 2 26 25
M  V30 25 1 27 3
M  V30 26 1 27 6
M  V30 27 1 28 7
M  V30 28 1 28 18
M  V30 29 1 29 1
M  V30 30 1 29 17
M  V30 31 2 29 23
M  V30 32 1 30 1
M  V30 33 1 31 1
M  V30 34 1 32 3
M  V30 35 1 33 3
M  V30 36 1 34 4
M  V30 37 1 35 4
M  V30 38 1 36 4
M  V30 39 1 37 5
M  V30 40 1 38 5
M  V30 41 1 39 5
M  V30 42 1 40 7
M  V30 43 1 41 7
M  V30 44 1 42 11
M  V30 45 1 43 12
M  V30 46 1 44 13
M  V30 47 1 45 13
M  V30 48 1 46 13
M  V30 49 1 47 14
M  V30 50 1 48 14
M  V30 51 1 49 15
M  V30 52 1 16 50 CFG=3
M  V30 53 1 51 17
M  V30 54 1 52 18
M  V30 55 1 53 23
M  V30 56 1 54 24
M  V30 57 1 55 24
M  V30 58 1 56 25
M  V30 59 1 57 26
M  V30 60 1 58 27
M  V30 61 1 59 27
M  V30 62 1 60 28
M  V30 63 1 61 28
M  V30 END BOND
M  V30 END CTAB
M  END
>  <i_epik_Tot_Q>  (1) 
0

>  <i_epik_Tot_abs_Q>  (1) 
0

>  <i_i_glide_confnum>  (1) 
394

>  <i_i_glide_lignum>  (1) 
64

>  <i_i_glide_posenum>  (1) 
24

>  <i_i_glide_rotatable_bonds>  (1) 
9

>  <i_lp_mmshare_version>  (1) 
72125

>  <i_m_source_file_index>  (1) 
25

>  <i_f3d_flags>  (1) 
0

>  <num_sample>  (1) 
100

>  <b_lp_Chiralities_Consistent>  (1) 
1

>  <r_epik_Charging_Adjusted_Penalty>  (1) 
1.3040267678810453

>  <r_epik_Ionization_Penalty>  (1) 
1.4057066568095866

>  <r_epik_Ionization_Penalty_Charging>  (1) 
0

>  <r_epik_Ionization_Penalty_Neutral>  (1) 
1.4057066568095866

>  <r_epik_State_Penalty>  (1) 
1.3040267678810453

>  <r_glide_ring_energy>  (1) 
0

>  <r_i_docking_score>  (1) 
-7.2802814075033195

>  <r_i_glide_ecoul>  (1) 
-4.4056895729270922

>  <r_i_glide_eff_state_penalty>  (1) 
1.3040267678810453

>  <r_i_glide_einternal>  (1) 
7.4727811788360938

>  <r_i_glide_emodel>  (1) 
-67.400085071579227

>  <r_i_glide_emodel_strain>  (1) 
0.641249531848743

>  <r_i_glide_energy>  (1) 
-46.00710284432207

>  <r_i_glide_erotb>  (1) 
0.87102097732651396

>  <r_i_glide_esite>  (1) 
0

>  <r_i_glide_evdw>  (1) 
-41.601413271394975

>  <r_i_glide_gscore>  (1) 
-8.5843081753843649

>  <r_i_glide_gscore_strain>  (1) 
0

>  <r_i_glide_hbond>  (1) 
-0.16

>  <r_i_glide_ligand_efficiency>  (1) 
-0.2510441864656317

>  <r_i_glide_ligand_efficiency_ln>  (1) 
-1.6669998303105258

>  <r_i_glide_ligand_efficiency_sa>  (1) 
-0.77128727806897568

>  <r_i_glide_lipo>  (1) 
-4.2556312231284359

>  <r_i_glide_metal>  (1) 
-0

>  <r_i_glide_rewards>  (1) 
-2.2987738300736291

>  <r_lp_Energy>  (1) 
67.58931299999999

>  <s_epik_cmdline>  (1) 
J2VwaWtfcHl0aG9uJywgJy1waHQnLCAnMS4wJywgJy1waCcsICc3LjQnLCAnLXRuJywgJzgnLCAnLW1hJywgJzUwMCcsICctaW1hZScsICc8aW5maWxlLm1hZT4nLCAnLW9tYWUnLCAnPG91dGZpbGUubWFlPic=

>  <s_epik_input>  (1) 
W0NIMl0xW0NIMl1bTkhdW0NAQEhdKFtDSDJdW09IXSlDKD1PKU4xW0NIMl1bQ0gyXVtOSF1bQ0gyXWMoW2NIXTIpW2NIXWMoQyhbQ0gzXSk9W0NIMl0pYyhjMjMpW2NIXVtjSF1jKFtjSF0zKU4oW0NIM10pW0NIM10=

>  <s_glide_docking_method>  (1) 
confgen

>  <s_i_glide_gridfile>  (1) 
gpcr_5ht2c_6bqh_protein_autoprepared_prepared

>  <s_lp_Force_Field>  (1) 
S-OPLS

>  <s_lp_Variant>  (1) 
DiffSBDD_24_num_sample_100-3

>  <s_m_source_file>  (1) 
generated__ligand_DiffSBDD_2026-05-06_prepared.sdf

>  <GenAI_Model>  (1) 
DiffSBDD

>  <Protein>  (1) 
GPCR_5HT2C

$$$$
DiffSBDD_46_num_sample_100
     RDKit          3D

  0  0  0  0  0  0  0  0  0  0999 V3000
M  V30 BEGIN CTAB
M  V30 COUNTS 67 70 0 0 1
M  V30 BEGIN ATOM
M  V30 1 N 38.979116 33.212407 61.116341 0 CHG=-1
M  V30 2 N 38.818153 30.285207 54.466609 0
M  V30 3 C 37.576692 33.626037 57.737933 0
M  V30 4 C 43.001802 25.928381 64.787251 0
M  V30 5 C 38.959269 31.470812 57.124850 0
M  V30 6 O 41.867402 33.361994 63.234308 0
M  V30 7 O 41.067401 35.431468 61.053504 0
M  V30 8 C 42.632407 28.232217 64.171561 0
M  V30 9 N 43.274465 27.111596 64.686160 0
M  V30 10 F 44.334771 29.649473 65.101550 0
M  V30 11 C 38.567122 32.565261 58.126072 0 CFG=2
M  V30 12 N 40.573201 31.539318 62.604259 0
M  V30 13 C 37.957857 30.336445 56.779425 0 CFG=2
M  V30 14 C 42.527409 30.640045 63.888057 0
M  V30 15 C 40.086315 35.239649 62.050597 0
M  V30 16 C 39.210967 27.655371 57.264197 0
M  V30 17 C 39.755255 28.423610 50.788379 0
M  V30 18 C 39.115125 29.647465 53.246231 0
M  V30 19 C 43.185083 29.511503 64.397149 0
M  V30 20 C 37.637098 33.279361 61.030118 0
M  V30 21 C 40.854577 29.134177 62.981918 0
M  V30 22 C 41.327664 30.447454 63.160193 0
M  V30 23 N 41.483562 28.043770 63.470428 0
M  V30 24 C 39.602470 28.516406 56.056303 0
M  V30 25 C 40.186898 29.733603 51.053502 0
M  V30 26 C 39.707371 33.751883 62.267428 0 CFG=2
M  V30 27 C 37.580886 29.447059 57.995154 0
M  V30 28 C 39.867403 30.344914 52.277768 0
M  V30 29 C 36.743850 33.021047 60.008946 0
M  V30 30 C 38.999425 27.721776 51.742895 0
M  V30 31 C 38.727634 28.521406 58.433021 0
M  V30 32 C 40.859030 32.852750 62.751298 0
M  V30 33 C 38.675238 28.326531 52.970643 0
M  V30 34 O 42.667397 24.821433 65.003505 0
M  V30 35 C 38.440358 29.439839 55.603204 0 CFG=2
M  V30 36 N 37.192074 32.566403 58.653500 0 CFG=1 CHG=1
M  V30 37 H 39.249065 31.177219 54.660449 0
M  V30 38 H 37.067405 33.538555 56.784453 0
M  V30 39 H 37.541155 34.589362 58.242175 0
M  V30 40 H 39.251364 32.012848 56.227299 0
M  V30 41 H 39.867393 30.987294 57.453501 0
M  V30 42 H 41.316466 36.342941 61.040722 0
M  V30 43 H 39.375193 32.943597 58.737470 0
M  V30 44 H 39.730995 31.306642 62.094003 0
M  V30 45 H 37.067403 30.821431 56.408553 0
M  V30 46 H 42.939267 31.614081 64.059185 0
M  V30 47 H 40.467922 35.661725 62.981807 0
M  V30 48 H 39.203406 35.824820 61.789339 0
M  V30 49 H 40.060047 27.047003 57.577514 0
M  V30 50 H 38.423361 26.959751 56.972861 0
M  V30 51 H 40.003468 27.957137 49.853501 0
M  V30 52 H 37.156603 33.607976 61.973668 0
M  V30 53 H 39.940592 28.952681 62.434566 0
M  V30 54 H 40.482028 29.109828 56.301716 0
M  V30 55 H 39.915344 27.849722 55.254874 0
M  V30 56 H 40.765754 30.271373 50.316806 0
M  V30 57 H 39.067404 33.756141 63.138440 0
M  V30 58 H 37.260630 30.037441 58.850376 0
M  V30 59 H 36.717202 28.835480 57.735203 0
M  V30 60 H 40.203788 31.351788 52.477832 0
M  V30 61 H 35.673434 33.125645 60.106221 0
M  V30 62 H 38.667609 26.718241 51.533152 0
M  V30 63 H 39.556670 29.109844 58.827262 0
M  V30 64 H 38.397224 27.880480 59.250497 0
M  V30 65 H 38.094466 27.777368 53.692616 0
M  V30 66 H 37.576133 28.833727 55.332824 0
M  V30 67 H 36.499457 32.021426 58.132072 0
M  V30 END ATOM
M  V30 BEGIN BOND
M  V30 1 2 9 4
M  V30 2 1 9 8
M  V30 3 1 11 3
M  V30 4 1 11 5
M  V30 5 1 13 5
M  V30 6 1 15 7
M  V30 7 1 18 2
M  V30 8 2 19 8
M  V30 9 1 19 10
M  V30 10 1 19 14
M  V30 11 1 20 1
M  V30 12 1 22 12
M  V30 13 2 22 14
M  V30 14 1 22 21
M  V30 15 1 23 8
M  V30 16 2 23 21
M  V30 17 1 24 16
M  V30 18 2 25 17
M  V30 19 1 26 1
M  V30 20 1 26 15
M  V30 21 1 27 13
M  V30 22 2 28 18
M  V30 23 1 28 25
M  V30 24 2 29 20
M  V30 25 1 30 17
M  V30 26 1 31 16
M  V30 27 1 31 27
M  V30 28 2 32 6
M  V30 29 1 32 12
M  V30 30 1 32 26
M  V30 31 1 33 18
M  V30 32 2 33 30
M  V30 33 2 34 4
M  V30 34 1 35 2
M  V30 35 1 35 13
M  V30 36 1 35 24
M  V30 37 1 36 3
M  V30 38 1 36 11
M  V30 39 1 36 29
M  V30 40 1 37 2
M  V30 41 1 38 3
M  V30 42 1 39 3
M  V30 43 1 40 5
M  V30 44 1 41 5
M  V30 45 1 42 7
M  V30 46 1 11 43 CFG=1
M  V30 47 1 44 12
M  V30 48 1 13 45 CFG=3
M  V30 49 1 46 14
M  V30 50 1 47 15
M  V30 51 1 48 15
M  V30 52 1 49 16
M  V30 53 1 50 16
M  V30 54 1 51 17
M  V30 55 1 52 20
M  V30 56 1 53 21
M  V30 57 1 54 24
M  V30 58 1 55 24
M  V30 59 1 56 25
M  V30 60 1 26 57 CFG=1
M  V30 61 1 58 27
M  V30 62 1 59 27
M  V30 63 1 60 28
M  V30 64 1 61 29
M  V30 65 1 62 30
M  V30 66 1 63 31
M  V30 67 1 64 31
M  V30 68 1 65 33
M  V30 69 1 35 66 CFG=3
M  V30 70 1 36 67 CFG=3
M  V30 END BOND
M  V30 END CTAB
M  END
>  <i_epik_Tot_Q>  (1) 
0

>  <i_epik_Tot_abs_Q>  (1) 
2

>  <i_i_glide_confnum>  (1) 
2761

>  <i_i_glide_lignum>  (1) 
126

>  <i_i_glide_posenum>  (1) 
328

>  <i_i_glide_rotatable_bonds>  (1) 
13

>  <i_lp_mmshare_version>  (1) 
72125

>  <i_m_source_file_index>  (1) 
47

>  <i_f3d_flags>  (1) 
0

>  <num_sample>  (1) 
100

>  <b_lp_Chiralities_Consistent>  (1) 
1

>  <r_epik_Charging_Adjusted_Penalty>  (1) 
0.33342598172051213

>  <r_epik_Ionization_Penalty>  (1) 
0.027696632267336825

>  <r_epik_Ionization_Penalty_Charging>  (1) 
0.022930597766060493

>  <r_epik_Ionization_Penalty_Neutral>  (1) 
0.0047660345012763301

>  <r_epik_State_Penalty>  (1) 
0.31049538395445164

>  <r_glide_ring_energy>  (1) 
0.011984252057721455

>  <r_i_docking_score>  (1) 
-7.2774119250843379

>  <r_i_glide_ecoul>  (1) 
-6.4881565277767637

>  <r_i_glide_eff_state_penalty>  (1) 
0.31049538395445164

>  <r_i_glide_einternal>  (1) 
4.4518039527649442

>  <r_i_glide_emodel>  (1) 
-80.589360759011399

>  <r_i_glide_emodel_strain>  (1) 
3.3240933099442032

>  <r_i_glide_energy>  (1) 
-57.203360109672623

>  <r_i_glide_erotb>  (1) 
0.99979395072351473

>  <r_i_glide_esite>  (1) 
-0.10000000000000001

>  <r_i_glide_evdw>  (1) 
-50.715203581895857

>  <r_i_glide_gscore>  (1) 
-7.5879073090387896

>  <r_i_glide_gscore_strain>  (1) 
0

>  <r_i_glide_hbond>  (1) 
-0.20000000000000001

>  <r_i_glide_ligand_efficiency>  (1) 
-0.20215033125234272

>  <r_i_glide_ligand_efficiency_ln>  (1) 
-1.5877346691046128

>  <r_i_glide_ligand_efficiency_sa>  (1) 
-0.66748568713518563

>  <r_i_glide_lipo>  (1) 
-3.347658599535221

>  <r_i_glide_metal>  (1) 
-0

>  <r_i_glide_rewards>  (1) 
-1.4310590019657754

>  <r_lp_Energy>  (1) 
55.985365999999999

>  <s_epik_Chemistry_Notes>  (1) 
This compound has an imine and may undergo hydrolysis.

>  <s_epik_cmdline>  (1) 
J2VwaWtfcHl0aG9uJywgJy1waHQnLCAnMS4wJywgJy1waCcsICc3LjQnLCAnLXRuJywgJzgnLCAnLW1hJywgJzUwMCcsICctaW1hZScsICc8aW5maWxlLm1hZT4nLCAnLW9tYWUnLCAnPG91dGZpbGUubWFlPic=

>  <s_epik_input>  (1) 
Tz1DPU5jMWMoRilbY0hdYyhbY0hdbjEpW05IXUMoPU8pW0NAQEhdKFtDSDJdW09IXSkvTj1bQ0hdL1tDSDJdTjJbQ0gyXVtDQEBIXTJbQ0gyXVtDQEBIXTNbQ0gyXVtDSDJdW0NIMl1bQ0gyXVtDQEBIXTNbTkhdYzRbY0hdW2NIXVtjSF1bY0hdW2NIXTQ=

>  <s_glide_docking_method>  (1) 
confgen

>  <s_i_glide_gridfile>  (1) 
gpcr_5ht2c_6bqh_protein_autoprepared_prepared

>  <s_lp_Force_Field>  (1) 
S-OPLS

>  <s_lp_Variant>  (1) 
DiffSBDD_46_num_sample_100-2

>  <s_m_source_file>  (1) 
generated__ligand_DiffSBDD_2026-05-06_prepared.sdf

>  <GenAI_Model>  (1) 
DiffSBDD

>  <Protein>  (1) 
GPCR_5HT2C

$$$$
DiffSBDD_0_num_sample_100
     RDKit          3D

  0  0  0  0  0  0  0  0  0  0999 V3000
M  V30 BEGIN CTAB
M  V30 COUNTS 59 61 0 0 1
M  V30 BEGIN ATOM
M  V30 1 C 38.346669 28.652621 59.614072 0
M  V30 2 C 39.342301 28.670976 55.788712 0 CFG=1
M  V30 3 C 36.773582 35.453364 59.553349 0
M  V30 4 C 37.684567 32.896776 58.403815 0
M  V30 5 C 39.397247 29.329120 60.320702 0
M  V30 6 C 41.010794 28.482875 58.500028 0
M  V30 7 C 38.599662 35.256468 61.161699 0
M  V30 8 C 36.666887 36.821533 59.841821 0
M  V30 9 C 37.743725 34.666838 60.206792 0
M  V30 10 C 39.207933 27.673472 53.472088 0 CFG=2
M  V30 11 N 39.132952 31.164950 55.626014 0
M  V30 12 C 38.502231 32.424236 56.055227 0
M  V30 13 C 38.694529 32.731796 57.533159 0
M  V30 14 C 37.522106 37.415897 60.787308 0
M  V30 15 F 39.313400 37.199120 62.366744 0
M  V30 16 C 38.488446 36.631363 61.453454 0
M  V30 17 C 37.868264 33.190643 59.880270 0 CFG=1
M  V30 18 C 40.660259 29.258554 59.818975 0
M  V30 19 N 36.136182 31.796950 61.286209 0
M  V30 20 C 38.730427 29.973326 56.382646 0
M  V30 21 C 38.656102 27.867731 58.603342 0
M  V30 22 C 39.388300 27.441296 56.757056 0 CFG=1
M  V30 23 N 38.534419 28.318487 54.607541 0
M  V30 24 O 37.418182 38.752355 61.053496 0
M  V30 25 C 38.198240 27.325269 52.370047 0
M  V30 26 C 40.014025 26.421097 53.877488 0
M  V30 27 C 38.868765 27.108950 51.002244 0
M  V30 28 N 39.889101 27.600187 58.142040 0
M  V30 29 S 37.719115 27.010771 57.453506 0
M  V30 30 C 36.899365 32.410265 60.667898 0
M  V30 31 Cl 39.068347 30.220533 61.759587 0
M  V30 32 H 37.317596 28.822122 59.872829 0
M  V30 33 H 40.361238 28.906551 55.480735 0
M  V30 34 H 36.112768 35.006303 58.823996 0
M  V30 35 H 36.668189 32.821452 58.060172 0
M  V30 36 H 41.196935 29.205122 57.715330 0
M  V30 37 H 41.912052 27.886714 58.646302 0
M  V30 38 H 39.342199 34.656775 61.666718 0
M  V30 39 H 35.925524 37.417311 59.334754 0
M  V30 40 H 39.867402 28.414039 53.029619 0
M  V30 41 H 40.142445 31.263071 55.650410 0
M  V30 42 H 37.437450 32.392852 55.836327 0
M  V30 43 H 38.905940 33.254685 55.475561 0
M  V30 44 H 39.708764 32.821392 57.877035 0
M  V30 45 H 38.861845 32.852688 60.174306 0
M  V30 46 H 41.467403 29.760654 60.319360 0
M  V30 47 H 39.065600 30.108094 57.407365 0
M  V30 48 H 37.641868 29.899873 56.429430 0
M  V30 49 H 39.833737 26.536100 56.361327 0
M  V30 50 H 38.070198 29.163678 54.285695 0
M  V30 51 H 36.760327 39.185660 60.521637 0
M  V30 52 H 37.643989 26.433496 52.663624 0
M  V30 53 H 37.452607 28.114424 52.264291 0
M  V30 54 H 40.521582 25.956837 53.039269 0
M  V30 55 H 40.807095 26.648791 54.582280 0
M  V30 56 H 39.368913 25.662768 54.322549 0
M  V30 57 H 38.267584 26.462382 50.364072 0
M  V30 58 H 39.026026 28.056040 50.485871 0
M  V30 59 H 39.836417 26.620755 51.080019 0
M  V30 END ATOM
M  V30 BEGIN BOND
M  V30 1 1 5 1
M  V30 2 2 8 3
M  V30 3 1 9 3
M  V30 4 2 9 7
M  V30 5 1 12 11
M  V30 6 2 13 4
M  V30 7 1 13 12
M  V30 8 1 14 8
M  V30 9 1 16 7
M  V30 10 2 16 14
M  V30 11 1 16 15
M  V30 12 1 17 4
M  V30 13 1 17 9
M  V30 14 2 18 5
M  V30 15 1 18 6
M  V30 16 1 20 2
M  V30 17 1 20 11
M  V30 18 2 21 1
M  V30 19 1 22 2
M  V30 20 1 23 2
M  V30 21 1 23 10
M  V30 22 1 24 14
M  V30 23 1 25 10
M  V30 24 1 26 10
M  V30 25 1 27 25
M  V30 26 1 28 6
M  V30 27 1 28 21
M  V30 28 1 28 22
M  V30 29 1 29 21
M  V30 30 1 29 22
M  V30 31 1 30 17
M  V30 32 3 30 19
M  V30 33 1 31 5
M  V30 34 1 32 1
M  V30 35 1 2 33 CFG=3
M  V30 36 1 34 3
M  V30 37 1 35 4
M  V30 38 1 36 6
M  V30 39 1 37 6
M  V30 40 1 38 7
M  V30 41 1 39 8
M  V30 42 1 10 40 CFG=3
M  V30 43 1 41 11
M  V30 44 1 42 12
M  V30 45 1 43 12
M  V30 46 1 44 13
M  V30 47 1 17 45 CFG=1
M  V30 48 1 46 18
M  V30 49 1 47 20
M  V30 50 1 48 20
M  V30 51 1 22 49 CFG=3
M  V30 52 1 50 23
M  V30 53 1 51 24
M  V30 54 1 52 25
M  V30 55 1 53 25
M  V30 56 1 54 26
M  V30 57 1 55 26
M  V30 58 1 56 26
M  V30 59 1 57 27
M  V30 60 1 58 27
M  V30 61 1 59 27
M  V30 END BOND
M  V30 END CTAB
M  END
>  <i_epik_Tot_Q>  (1) 
0

>  <i_epik_Tot_abs_Q>  (1) 
0

>  <i_i_glide_confnum>  (1) 
529

>  <i_i_glide_lignum>  (1) 
1

>  <i_i_glide_posenum>  (1) 
399

>  <i_i_glide_rotatable_bonds>  (1) 
11

>  <i_lp_mmshare_version>  (1) 
72125

>  <i_m_source_file_index>  (1) 
1

>  <i_f3d_flags>  (1) 
0

>  <num_sample>  (1) 
100

>  <b_lp_Chiralities_Consistent>  (1) 
1

>  <r_epik_Charging_Adjusted_Penalty>  (1) 
0.47819495767320574

>  <r_epik_Ionization_Penalty>  (1) 
0.67182721305937398

>  <r_epik_Ionization_Penalty_Charging>  (1) 
0

>  <r_epik_Ionization_Penalty_Neutral>  (1) 
0.67182721305937398

>  <r_epik_State_Penalty>  (1) 
0.47819495767320574

>  <r_glide_ring_energy>  (1) 
0

>  <r_i_docking_score>  (1) 
-7.2761321799101317

>  <r_i_glide_ecoul>  (1) 
-5.2461088435212808

>  <r_i_glide_eff_state_penalty>  (1) 
0.47819495767320574

>  <r_i_glide_einternal>  (1) 
13.493553832461956

>  <r_i_glide_emodel>  (1) 
-58.811777413773534

>  <r_i_glide_emodel_strain>  (1) 
0.68513087219130853

>  <r_i_glide_energy>  (1) 
-43.898800034575885

>  <r_i_glide_erotb>  (1) 
0.75184865993743433

>  <r_i_glide_esite>  (1) 
-0.019056971727378445

>  <r_i_glide_evdw>  (1) 
-38.6526911910546

>  <r_i_glide_gscore>  (1) 
-7.7543271375833376

>  <r_i_glide_gscore_strain>  (1) 
0

>  <r_i_glide_hbond>  (1) 
-0.60667054089613792

>  <r_i_glide_ligand_efficiency>  (1) 
-0.23471394128742359

>  <r_i_glide_ligand_efficiency_ln>  (1) 
-1.6409907932413625

>  <r_i_glide_ligand_efficiency_sa>  (1) 
-0.73732583400684204

>  <r_i_glide_lipo>  (1) 
-3.6236704896929632

>  <r_i_glide_metal>  (1) 
-0

>  <r_i_glide_rewards>  (1) 
-1.537226909123371

>  <r_lp_Energy>  (1) 
39.698704999999997

>  <r_lp_tautomer_probability>  (1) 
0.99999999999736477

>  <s_epik_Chemistry_Notes>  (1) 
This compound contains an acetal/aminal-like group ( X-CH(R)-Y where X, Y are N, S, or O) that may be acid/base labile, releasing an aldehyde.

>  <s_epik_cmdline>  (1) 
J2VwaWtfcHl0aG9uJywgJy1waHQnLCAnMS4wJywgJy1waCcsICc3LjQnLCAnLXRuJywgJzgnLCAnLW1hJywgJzUwMCcsICctaW1hZScsICc8aW5maWxlLm1hZT4nLCAnLW9tYWUnLCAnPG91dGZpbGUubWFlPic=

>  <s_epik_input>  (1) 
W0NIXT0xQyhDbCk9W0NIXVtDSDJdTihDMTIpW0NAQEhdKFMyKVtDQEBIXShbTkhdW0NAQEhdKFtDSDNdKVtDSDJdW0NIM10pW0NIMl1bTkhdW0NIMl1cW0NIXT1bQ0hdXFtDQEhdKEMjTiljM1tjSF1bY0hdYyhbT0hdKWMoRilbY0hdMw==

>  <s_glide_docking_method>  (1) 
confgen

>  <s_i_glide_gridfile>  (1) 
gpcr_5ht2c_6bqh_protein_autoprepared_prepared

>  <s_lp_Force_Field>  (1) 
S-OPLS

>  <s_lp_Variant>  (1) 
DiffSBDD_0_num_sample_100-1

>  <s_m_source_file>  (1) 
generated__ligand_DiffSBDD_2026-05-06_prepared.sdf

>  <GenAI_Model>  (1) 
DiffSBDD

>  <Protein>  (1) 
GPCR_5HT2C

$$$$
DiffSBDD_50_num_sample_100
     RDKit          3D

  0  0  0  0  0  0  0  0  0  0999 V3000
M  V30 BEGIN CTAB
M  V30 COUNTS 53 55 0 0 1
M  V30 BEGIN ATOM
M  V30 1 C 37.983595 25.787217 55.157325 0 CFG=1
M  V30 2 N 39.292715 25.304248 55.595012 0
M  V30 3 C 39.628132 29.219592 57.216873 0
M  V30 4 C 38.468746 30.240803 57.389728 0 CFG=1
M  V30 5 N 36.988025 31.288620 60.836559 0
M  V30 6 C 38.507145 33.237552 61.281289 0
M  V30 7 O 37.867403 32.620727 56.836147 0
M  V30 8 C 37.591084 35.363432 60.283562 0
M  V30 9 C 37.012862 31.165716 59.381644 0 CFG=1
M  V30 10 C 36.000033 33.571178 60.677582 0
M  V30 11 C 38.628656 34.669226 60.775760 0
M  V30 12 C 36.913578 25.010792 55.931054 0
M  V30 13 C 40.253101 26.346616 55.246231 0
M  V30 14 C 39.458106 27.654381 55.075980 0 CFG=1
M  V30 15 C 38.016342 27.293525 55.416698 0
M  V30 16 S 37.665276 24.421436 57.453503 0
M  V30 17 C 36.267418 34.798566 60.211052 0
M  V30 18 F 39.834586 35.259868 60.814913 0
M  V30 19 C 39.271123 25.116367 57.042543 0
M  V30 20 C 37.051550 32.669415 61.319924 0 CFG=1
M  V30 21 C 40.087244 28.879887 55.781525 0
M  V30 22 C 38.276621 30.420858 58.919985 0
M  V30 23 O 35.867443 30.421432 59.053501 0
M  V30 24 C 38.771648 31.559631 56.620031 0
M  V30 25 H 37.879628 25.619543 54.084553 0
M  V30 26 H 40.491866 29.621444 57.746687 0
M  V30 27 H 39.404137 28.298126 57.751599 0
M  V30 28 H 37.554918 29.810615 56.977762 0
M  V30 29 H 37.744892 30.744626 61.224788 0
M  V30 30 H 38.947007 33.186694 62.278082 0
M  V30 31 H 39.153551 32.638433 60.644433 0
M  V30 32 H 36.965800 32.338071 56.653558 0
M  V30 33 H 37.752238 36.372354 59.932560 0
M  V30 34 H 36.931213 32.139959 58.913856 0
M  V30 35 H 34.995233 33.177825 60.610158 0
M  V30 36 H 36.581699 24.145833 55.356946 0
M  V30 37 H 36.041160 25.621419 56.158064 0
M  V30 38 H 40.720790 26.078492 54.297976 0
M  V30 39 H 41.052646 26.421569 55.985490 0
M  V30 40 H 39.467407 27.867666 54.005720 0
M  V30 41 H 37.769642 27.488809 56.458855 0
M  V30 42 H 37.303575 27.834271 54.794184 0
M  V30 43 H 35.470144 35.379999 59.771988 0
M  V30 44 H 40.079735 24.461879 57.368099 0
M  V30 45 H 39.372034 26.064226 57.571289 0
M  V30 46 H 36.773310 32.619598 62.367867 0
M  V30 47 H 40.020297 29.742794 55.124120 0
M  V30 48 H 41.158420 28.697575 55.853498 0
M  V30 49 H 38.260960 29.437441 59.392863 0
M  V30 50 H 39.158586 30.917361 59.316942 0
M  V30 51 H 35.467423 30.869266 58.305593 0
M  V30 52 H 38.747417 31.382232 55.546654 0
M  V30 53 H 39.772510 31.920047 56.852671 0
M  V30 END ATOM
M  V30 BEGIN BOND
M  V30 1 1 2 1
M  V30 2 1 4 3
M  V30 3 1 9 5
M  V30 4 1 11 6
M  V30 5 2 11 8
M  V30 6 1 12 1
M  V30 7 1 13 2
M  V30 8 1 14 13
M  V30 9 1 15 1
M  V30 10 1 15 14
M  V30 11 1 16 12
M  V30 12 1 17 8
M  V30 13 2 17 10
M  V30 14 1 18 11
M  V30 15 1 19 2
M  V30 16 1 19 16
M  V30 17 1 20 5
M  V30 18 1 20 6
M  V30 19 1 20 10
M  V30 20 1 21 3
M  V30 21 1 21 14
M  V30 22 1 22 4
M  V30 23 1 22 9
M  V30 24 1 23 9
M  V30 25 1 24 4
M  V30 26 1 24 7
M  V30 27 1 1 25 CFG=3
M  V30 28 1 26 3
M  V30 29 1 27 3
M  V30 30 1 4 28 CFG=3
M  V30 31 1 29 5
M  V30 32 1 30 6
M  V30 33 1 31 6
M  V30 34 1 32 7
M  V30 35 1 33 8
M  V30 36 1 9 34 CFG=3
M  V30 37 1 35 10
M  V30 38 1 36 12
M  V30 39 1 37 12
M  V30 40 1 38 13
M  V30 41 1 39 13
M  V30 42 1 14 40 CFG=3
M  V30 43 1 41 15
M  V30 44 1 42 15
M  V30 45 1 43 17
M  V30 46 1 44 19
M  V30 47 1 45 19
M  V30 48 1 20 46 CFG=1
M  V30 49 1 47 21
M  V30 50 1 48 21
M  V30 51 1 49 22
M  V30 52 1 50 22
M  V30 53 1 51 23
M  V30 54 1 52 24
M  V30 55 1 53 24
M  V30 END BOND
M  V30 END CTAB
M  END
>  <i_epik_Tot_Q>  (1) 
0

>  <i_epik_Tot_abs_Q>  (1) 
0

>  <i_i_glide_confnum>  (1) 
96

>  <i_i_glide_lignum>  (1) 
134

>  <i_i_glide_posenum>  (1) 
285

>  <i_i_glide_rotatable_bonds>  (1) 
10

>  <i_lp_mmshare_version>  (1) 
72125

>  <i_m_source_file_index>  (1) 
51

>  <i_f3d_flags>  (1) 
0

>  <num_sample>  (1) 
100

>  <b_lp_Chiralities_Consistent>  (1) 
1

>  <r_epik_Charging_Adjusted_Penalty>  (1) 
0.070623884543316251

>  <r_epik_Ionization_Penalty>  (1) 
0.082390450655877454

>  <r_epik_Ionization_Penalty_Charging>  (1) 
0

>  <r_epik_Ionization_Penalty_Neutral>  (1) 
0.082390450655877454

>  <r_epik_State_Penalty>  (1) 
0.070623884543316251

>  <r_glide_ring_energy>  (1) 
0

>  <r_i_docking_score>  (1) 
-7.2730898613515667

>  <r_i_glide_ecoul>  (1) 
-9.808833622754829

>  <r_i_glide_eff_state_penalty>  (1) 
0.070623884543316251

>  <r_i_glide_einternal>  (1) 
8.5130972974943848

>  <r_i_glide_emodel>  (1) 
-57.922209014749328

>  <r_i_glide_emodel_strain>  (1) 
2.6139384998515638

>  <r_i_glide_energy>  (1) 
-43.677029248434224

>  <r_i_glide_erotb>  (1) 
0.90323980524591641

>  <r_i_glide_esite>  (1) 
-0.087021716626827506

>  <r_i_glide_evdw>  (1) 
-33.868195625679391

>  <r_i_glide_gscore>  (1) 
-7.3437137458948829

>  <r_i_glide_gscore_strain>  (1) 
0

>  <r_i_glide_hbond>  (1) 
-0.37060246873698982

>  <r_i_glide_ligand_efficiency>  (1) 
-0.30304541088964859

>  <r_i_glide_ligand_efficiency_ln>  (1) 
-1.7407841441683554

>  <r_i_glide_ligand_efficiency_sa>  (1) 
-0.87413422727845547

>  <r_i_glide_lipo>  (1) 
-2.8902911447507726

>  <r_i_glide_metal>  (1) 
-0

>  <r_i_glide_rewards>  (1) 
-1.7343033963290142

>  <r_lp_Energy>  (1) 
-4.9771999999999998

>  <s_epik_Chemistry_Notes>  (1) 
This compound contains an acetal/aminal-like group ( X-CH(R)-Y where X, Y are N, S, or O) that may be acid/base labile, releasing an aldehyde.

>  <s_epik_cmdline>  (1) 
J2VwaWtfcHl0aG9uJywgJy1waHQnLCAnMS4wJywgJy1waCcsICc3LjQnLCAnLXRuJywgJzgnLCAnLW1hJywgJzUwMCcsICctaW1hZScsICc8aW5maWxlLm1hZT4nLCAnLW9tYWUnLCAnPG91dGZpbGUubWFlPic=

>  <s_epik_input>  (1) 
W0NIMl0xU1tDSDJdTihbQ0BASF0xMilbQ0gyXVtDQEBIXShbQ0gyXTIpW0NIMl1bQ0gyXVtDQEhdKFtDSDJdW09IXSlbQ0gyXVtDQEBIXShbT0hdKVtOSF1bQ0BASF0oW0NIMl0zKVtDSF09W0NIXVtDSF09QzNG

>  <s_glide_docking_method>  (1) 
confgen

>  <s_i_glide_gridfile>  (1) 
gpcr_5ht2c_6bqh_protein_autoprepared_prepared

>  <s_lp_Force_Field>  (1) 
S-OPLS

>  <s_lp_Variant>  (1) 
DiffSBDD_50_num_sample_100-1

>  <s_m_source_file>  (1) 
generated__ligand_DiffSBDD_2026-05-06_prepared.sdf

>  <GenAI_Model>  (1) 
DiffSBDD

>  <Protein>  (1) 
GPCR_5HT2C

$$$$
DiffSBDD_30_num_sample_100
     RDKit          3D

  0  0  0  0  0  0  0  0  0  0999 V3000
M  V30 BEGIN CTAB
M  V30 COUNTS 69 72 0 0 1
M  V30 BEGIN ATOM
M  V30 1 C 43.428402 28.408150 64.089601 0
M  V30 2 C 41.610739 32.579664 65.425748 0 CFG=1
M  V30 3 O 44.011044 30.023788 65.688631 0
M  V30 4 C 39.596227 29.953892 52.333932 0
M  V30 5 C 39.333291 28.951271 51.382662 0
M  V30 6 N 41.440962 30.324295 62.999345 0
M  V30 7 C 38.802296 27.387610 53.172678 0
M  V30 8 C 42.090624 30.594937 64.284882 0 CFG=1
M  V30 9 O 41.687394 31.690636 68.878458 0
M  V30 10 O 42.059620 34.815579 66.256200 0
M  V30 11 C 38.216054 26.074782 56.903481 0
M  V30 12 C 41.801543 34.104455 65.286858 0
M  V30 13 C 41.652559 34.700986 63.890787 0
M  V30 14 C 37.175809 25.004825 57.115767 0
M  V30 15 C 37.867480 28.547070 56.521810 0 CFG=2
M  V30 16 C 40.099997 29.073255 60.548303 0
M  V30 17 N 40.618395 28.431988 61.776160 0 CHG=1
M  V30 18 C 38.392137 24.715697 56.272643 0
M  V30 19 C 39.865219 28.825261 57.995355 0 CFG=1
M  V30 20 C 38.934491 27.671524 51.801773 0
M  V30 21 C 38.322953 28.791976 57.950109 0
M  V30 22 N 37.867352 27.171461 56.002045 0
M  V30 23 C 39.461450 29.678718 53.708748 0
M  V30 24 C 40.469154 29.231757 63.009099 0
M  V30 25 C 39.067168 28.384504 54.141881 0
M  V30 26 C 40.457316 28.254317 59.298104 0
M  V30 27 C 41.132870 32.098755 67.652717 0
M  V30 28 C 43.485991 29.918041 64.383429 0 CFG=2
M  V30 29 C 38.949391 28.064487 55.607743 0 CFG=1
M  V30 30 O 39.722569 30.662211 54.620815 0
M  V30 31 S 40.502420 27.938929 56.541556 0
M  V30 32 O 42.293171 31.971316 64.371938 0
M  V30 33 O 42.105996 32.159819 66.662894 0
M  V30 34 H 43.112916 28.202607 63.067943 0
M  V30 35 H 44.410806 27.947887 64.205977 0
M  V30 36 H 42.741904 27.895425 64.764143 0
M  V30 37 H 40.552179 32.332942 65.328086 0
M  V30 38 H 44.896428 29.689781 65.688862 0
M  V30 39 H 39.902044 30.937888 52.008212 0
M  V30 40 H 39.436023 29.166451 50.329066 0
M  V30 41 H 40.971797 31.174741 62.702273 0
M  V30 42 H 38.500210 26.400489 53.486330 0
M  V30 43 H 41.448021 30.253320 65.102175 0
M  V30 44 H 42.087366 30.842871 68.747580 0
M  V30 45 H 38.849054 26.258936 57.766403 0
M  V30 46 H 41.983810 34.004862 63.121170 0
M  V30 47 H 40.609156 34.950542 63.701912 0
M  V30 48 H 42.244717 35.613672 63.809031 0
M  V30 49 H 37.121980 24.537494 58.096188 0
M  V30 50 H 36.226001 25.130976 56.603003 0
M  V30 51 H 37.136576 29.246930 56.120274 0
M  V30 52 H 40.511200 30.078812 60.447435 0
M  V30 53 H 39.018811 29.178558 60.645165 0
M  V30 54 H 40.107678 27.571328 61.914071 0
M  V30 55 H 38.234012 24.615947 55.200637 0
M  V30 56 H 39.172579 24.086341 56.691883 0
M  V30 57 H 40.189948 29.858791 57.867746 0
M  V30 58 H 38.732195 26.902032 51.070306 0
M  V30 59 H 37.889816 28.049089 58.619146 0
M  V30 60 H 37.929124 29.753863 58.281611 0
M  V30 61 H 39.456127 29.626135 63.080269 0
M  V30 62 H 40.622489 28.571404 63.863010 0
M  V30 63 H 40.123144 27.223820 59.425071 0
M  V30 64 H 41.542780 28.207745 59.203514 0
M  V30 65 H 40.679953 33.077228 67.818038 0
M  V30 66 H 40.355807 31.377638 67.388932 0
M  V30 67 H 44.163754 30.404634 63.683385 0
M  V30 68 H 39.494514 30.439891 55.507915 0
M  V30 69 H 41.595612 28.198819 61.655378 0
M  V30 END ATOM
M  V30 BEGIN BOND
M  V30 1 1 5 4
M  V30 2 1 8 6
M  V30 3 1 12 2
M  V30 4 2 12 10
M  V30 5 1 13 12
M  V30 6 1 14 11
M  V30 7 1 17 16
M  V30 8 1 18 11
M  V30 9 1 18 14
M  V30 10 2 20 5
M  V30 11 1 20 7
M  V30 12 1 21 15
M  V30 13 1 21 19
M  V30 14 1 22 11
M  V30 15 1 22 15
M  V30 16 2 23 4
M  V30 17 1 24 6
M  V30 18 1 24 17
M  V30 19 2 25 7
M  V30 20 1 25 23
M  V30 21 1 26 16
M  V30 22 1 26 19
M  V30 23 1 27 9
M  V30 24 1 28 1
M  V30 25 1 28 3
M  V30 26 1 28 8
M  V30 27 1 29 15
M  V30 28 1 29 22
M  V30 29 1 29 25 CFG=3
M  V30 30 1 30 23
M  V30 31 1 31 19
M  V30 32 1 31 29
M  V30 33 1 32 2
M  V30 34 1 32 8
M  V30 35 1 33 2
M  V30 36 1 33 27
M  V30 37 1 34 1
M  V30 38 1 35 1
M  V30 39 1 36 1
M  V30 40 1 2 37 CFG=1
M  V30 41 1 38 3
M  V30 42 1 39 4
M  V30 43 1 40 5
M  V30 44 1 41 6
M  V30 45 1 42 7
M  V30 46 1 8 43 CFG=1
M  V30 47 1 44 9
M  V30 48 1 45 11
M  V30 49 1 46 13
M  V30 50 1 47 13
M  V30 51 1 48 13
M  V30 52 1 49 14
M  V30 53 1 50 14
M  V30 54 1 15 51 CFG=3
M  V30 55 1 52 16
M  V30 56 1 53 16
M  V30 57 1 54 17
M  V30 58 1 55 18
M  V30 59 1 56 18
M  V30 60 1 19 57 CFG=3
M  V30 61 1 58 20
M  V30 62 1 59 21
M  V30 63 1 60 21
M  V30 64 1 61 24
M  V30 65 1 62 24
M  V30 66 1 63 26
M  V30 67 1 64 26
M  V30 68 1 65 27
M  V30 69 1 66 27
M  V30 70 1 28 67 CFG=3
M  V30 71 1 68 30
M  V30 72 1 69 17
M  V30 END BOND
M  V30 END CTAB
M  END
>  <i_epik_Tot_Q>  (1) 
1

>  <i_epik_Tot_abs_Q>  (1) 
1

>  <i_i_glide_confnum>  (1) 
4356

>  <i_i_glide_lignum>  (1) 
79

>  <i_i_glide_posenum>  (1) 
366

>  <i_i_glide_rotatable_bonds>  (1) 
17

>  <i_lp_mmshare_version>  (1) 
72125

>  <i_m_source_file_index>  (1) 
31

>  <i_f3d_flags>  (1) 
0

>  <num_sample>  (1) 
100

>  <b_lp_Chiralities_Consistent>  (1) 
1

>  <r_epik_Charging_Adjusted_Penalty>  (1) 
0.074635642036716146

>  <r_epik_Ionization_Penalty>  (1) 
0.2367700207343624

>  <r_epik_Ionization_Penalty_Charging>  (1) 
0.00051329390614008978

>  <r_epik_Ionization_Penalty_Neutral>  (1) 
0.23625672682822232

>  <r_epik_State_Penalty>  (1) 
0.074122348130576055

>  <r_glide_ring_energy>  (1) 
0

>  <r_i_docking_score>  (1) 
-7.2697162245987128

>  <r_i_glide_ecoul>  (1) 
-5.1964995837483574

>  <r_i_glide_eff_state_penalty>  (1) 
0.074122348130576055

>  <r_i_glide_einternal>  (1) 
15.992863568302216

>  <r_i_glide_emodel>  (1) 
-70.226000905031711

>  <r_i_glide_emodel_strain>  (1) 
0.15191219327203953

>  <r_i_glide_energy>  (1) 
-49.594993074398509

>  <r_i_glide_erotb>  (1) 
1.1326933877215775

>  <r_i_glide_esite>  (1) 
-0.043662495345374308

>  <r_i_glide_evdw>  (1) 
-44.398493490650154

>  <r_i_glide_gscore>  (1) 
-7.3438385727292887

>  <r_i_glide_gscore_strain>  (1) 
0

>  <r_i_glide_hbond>  (1) 
-0.13562722153377446

>  <r_i_glide_ligand_efficiency>  (1) 
-0.22029443104844584

>  <r_i_glide_ligand_efficiency_ln>  (1) 
-1.616747247774623

>  <r_i_glide_ligand_efficiency_sa>  (1) 
-0.70660195029478856

>  <r_i_glide_lipo>  (1) 
-4.1060800951200491

>  <r_i_glide_metal>  (1) 
-0

>  <r_i_glide_rewards>  (1) 
-1.1917625363569071

>  <r_lp_Energy>  (1) 
25.467389999999998

>  <r_lp_tautomer_probability>  (1) 
0.99999996999736518

>  <s_epik_Chemistry_Notes>  (1) 
This compound contains an acetal/aminal-like group ( X-CH(R)-Y where X, Y are N, S, or O) that may be acid/base labile, releasing an aldehyde.

>  <s_epik_cmdline>  (1) 
J2VwaWtfcHl0aG9uJywgJy1waHQnLCAnMS4wJywgJy1waCcsICc3LjQnLCAnLXRuJywgJzgnLCAnLW1hJywgJzUwMCcsICctaW1hZScsICc8aW5maWxlLm1hZT4nLCAnLW9tYWUnLCAnPG91dGZpbGUubWFlPic=

>  <s_epik_input>  (1) 
W09IXVtDSDJdT1tDQEBIXShDKD1PKVtDSDNdKU9bQ0BIXShbQ0BIXShbQ0gzXSlbT0hdKVtOSF1bQ0gyXVtOSF1bQ0gyXVtDSDJdW0NAQEhdKFMxKVtDSDJdW0NASF0oTjJbQ0hdM1tDSDJdW0NIMl0zKVtDQEBdMTJjNFtjSF1bY0hdW2NIXVtjSF1jNFtPSF0=

>  <s_glide_docking_method>  (1) 
confgen

>  <s_i_glide_gridfile>  (1) 
gpcr_5ht2c_6bqh_protein_autoprepared_prepared

>  <s_lp_Force_Field>  (1) 
S-OPLS

>  <s_lp_Variant>  (1) 
DiffSBDD_30_num_sample_100-1

>  <s_m_source_file>  (1) 
generated__ligand_DiffSBDD_2026-05-06_prepared.sdf

>  <GenAI_Model>  (1) 
DiffSBDD

>  <Protein>  (1) 
GPCR_5HT2C

$$$$
DiffSBDD_59_num_sample_100
     RDKit          3D

  0  0  0  0  0  0  0  0  0  0999 V3000
M  V30 BEGIN CTAB
M  V30 COUNTS 54 55 0 0 1
M  V30 BEGIN ATOM
M  V30 1 O 39.467822 31.103221 49.853518 0
M  V30 2 N 37.467402 32.127950 58.454202 0 CFG=1 CHG=1
M  V30 3 C 38.788635 32.512916 61.441702 0
M  V30 4 C 38.384676 30.960310 58.634548 0
M  V30 5 C 40.266736 29.544758 51.571369 0
M  V30 6 C 39.065468 35.316951 61.546809 0
M  V30 7 C 38.086930 34.744443 60.710291 0
M  V30 8 C 37.947106 33.328589 60.647750 0
M  V30 9 C 38.382200 29.419777 54.181643 0
M  V30 10 C 37.757295 29.407323 56.688041 0
M  V30 11 Cl 37.066230 35.776266 59.770857 0
M  V30 12 C 38.852454 30.262666 57.337935 0
M  V30 13 O 38.267372 30.732311 53.853541 0
M  V30 14 N 38.731238 28.492883 53.239924 0
M  V30 15 N 38.803490 27.253522 53.779317 0
M  V30 16 C 40.444125 30.126355 50.154250 0
M  V30 17 C 38.183843 28.807775 55.372739 0
M  V30 18 C 36.892456 32.678877 59.725439 0 CFG=2
M  V30 19 C 38.015810 33.192436 57.577342 0
M  V30 20 C 38.999067 28.690889 51.808439 0 CFG=2
M  V30 21 C 39.762721 33.097117 62.273062 0
M  V30 22 C 38.464430 27.433768 55.066683 0
M  V30 23 C 39.022249 27.379049 51.003892 0
M  V30 24 C 35.999757 31.657516 60.462253 0
M  V30 25 C 39.902366 34.495712 62.323413 0
M  V30 26 H 38.720176 30.669462 49.453495 0
M  V30 27 H 38.689925 31.438419 61.409662 0
M  V30 28 H 37.914354 30.206710 59.264166 0
M  V30 29 H 39.263687 31.292345 59.177401 0
M  V30 30 H 40.305054 30.372487 52.279054 0
M  V30 31 H 41.128863 28.921337 51.794182 0
M  V30 32 H 39.173204 36.390890 61.592832 0
M  V30 33 H 36.867634 30.021359 56.539866 0
M  V30 34 H 37.458470 28.623534 57.385121 0
M  V30 35 H 39.685992 29.603998 57.585876 0
M  V30 36 H 39.266325 30.974901 56.626000 0
M  V30 37 H 41.421107 30.607379 50.087768 0
M  V30 38 H 40.427326 29.349051 49.390750 0
M  V30 39 H 37.848759 31.175441 54.575626 0
M  V30 40 H 36.176203 33.432963 59.405065 0
M  V30 41 H 38.962836 33.575464 57.958709 0
M  V30 42 H 38.165455 32.837353 56.559235 0
M  V30 43 H 37.314700 34.021442 57.496111 0
M  V30 44 H 38.129514 29.222670 51.440366 0
M  V30 45 H 40.404718 32.469972 62.874583 0
M  V30 46 H 38.429029 26.575913 55.722059 0
M  V30 47 H 39.067446 27.568356 49.933235 0
M  V30 48 H 39.865807 26.745404 51.273796 0
M  V30 49 H 38.105302 26.821443 51.175535 0
M  V30 50 H 35.451485 32.141947 61.271179 0
M  V30 51 H 35.263083 31.227852 59.781894 0
M  V30 52 H 36.556875 30.832800 60.903530 0
M  V30 53 H 40.651127 34.940518 62.963192 0
M  V30 54 H 36.640977 31.802574 57.939591 0
M  V30 END ATOM
M  V30 BEGIN BOND
M  V30 1 1 4 2
M  V30 2 2 7 6
M  V30 3 2 8 3
M  V30 4 1 8 7
M  V30 5 1 11 7
M  V30 6 1 12 4
M  V30 7 1 12 10
M  V30 8 1 13 9
M  V30 9 1 14 9
M  V30 10 1 15 14
M  V30 11 1 16 1
M  V30 12 1 16 5
M  V30 13 2 17 9
M  V30 14 1 17 10
M  V30 15 1 18 2
M  V30 16 1 18 8
M  V30 17 1 19 2
M  V30 18 1 20 5
M  V30 19 1 20 14
M  V30 20 1 21 3
M  V30 21 2 22 15
M  V30 22 1 22 17
M  V30 23 1 23 20
M  V30 24 1 24 18
M  V30 25 1 25 6
M  V30 26 2 25 21
M  V30 27 1 26 1
M  V30 28 1 27 3
M  V30 29 1 28 4
M  V30 30 1 29 4
M  V30 31 1 30 5
M  V30 32 1 31 5
M  V30 33 1 32 6
M  V30 34 1 33 10
M  V30 35 1 34 10
M  V30 36 1 35 12
M  V30 37 1 36 12
M  V30 38 1 37 16
M  V30 39 1 38 16
M  V30 40 1 39 13
M  V30 41 1 18 40 CFG=3
M  V30 42 1 41 19
M  V30 43 1 42 19
M  V30 44 1 43 19
M  V30 45 1 20 44 CFG=3
M  V30 46 1 45 21
M  V30 47 1 46 22
M  V30 48 1 47 23
M  V30 49 1 48 23
M  V30 50 1 49 23
M  V30 51 1 50 24
M  V30 52 1 51 24
M  V30 53 1 52 24
M  V30 54 1 53 25
M  V30 55 1 2 54 CFG=3
M  V30 END BOND
M  V30 END CTAB
M  END
>  <i_epik_Tot_Q>  (1) 
1

>  <i_epik_Tot_abs_Q>  (1) 
1

>  <i_i_glide_confnum>  (1) 
134

>  <i_i_glide_lignum>  (1) 
148

>  <i_i_glide_posenum>  (1) 
289

>  <i_i_glide_rotatable_bonds>  (1) 
11

>  <i_lp_mmshare_version>  (1) 
72125

>  <i_m_source_file_index>  (1) 
60

>  <i_f3d_flags>  (1) 
0

>  <num_sample>  (1) 
100

>  <b_lp_Chiralities_Consistent>  (1) 
1

>  <r_epik_Charging_Adjusted_Penalty>  (1) 
0.34288875783321848

>  <r_epik_Ionization_Penalty>  (1) 
0.16299728195075516

>  <r_epik_Ionization_Penalty_Charging>  (1) 
0.10603582337888565

>  <r_epik_Ionization_Penalty_Neutral>  (1) 
0.05696145857186951

>  <r_epik_State_Penalty>  (1) 
0.23685293445433284

>  <r_glide_ring_energy>  (1) 
0

>  <r_i_docking_score>  (1) 
-7.2676212116645784

>  <r_i_glide_ecoul>  (1) 
-7.5586237482420957

>  <r_i_glide_eff_state_penalty>  (1) 
0.23685293445433284

>  <r_i_glide_einternal>  (1) 
7.1291600614885162

>  <r_i_glide_emodel>  (1) 
-67.439390059322278

>  <r_i_glide_emodel_strain>  (1) 
0.62016518192512038

>  <r_i_glide_energy>  (1) 
-46.356181245720158

>  <r_i_glide_erotb>  (1) 
1.1440711446639862

>  <r_i_glide_esite>  (1) 
-0.09104818538464203

>  <r_i_glide_evdw>  (1) 
-38.79755749747806

>  <r_i_glide_gscore>  (1) 
-7.5044741461189108

>  <r_i_glide_gscore_strain>  (1) 
0

>  <r_i_glide_hbond>  (1) 
-0.52000000000000002

>  <r_i_glide_ligand_efficiency>  (1) 
-0.29070484846658312

>  <r_i_glide_ligand_efficiency_ln>  (1) 
-1.7226440201973996

>  <r_i_glide_ligand_efficiency_sa>  (1) 
-0.8500261335007725

>  <r_i_glide_lipo>  (1) 
-3.0078262176720352

>  <r_i_glide_metal>  (1) 
-0

>  <r_i_glide_rewards>  (1) 
-1.9559994506160017

>  <r_lp_Energy>  (1) 
25.902715000000001

>  <r_lp_tautomer_probability>  (1) 
0.67048000943507491

>  <s_epik_cmdline>  (1) 
J2VwaWtfcHl0aG9uJywgJy1waHQnLCAnMS4wJywgJy1waCcsICc3LjQnLCAnLXRuJywgJzgnLCAnLW1hJywgJzUwMCcsICctaW1hZScsICc8aW5maWxlLm1hZT4nLCAnLW9tYWUnLCAnPG91dGZpbGUubWFlPic=

>  <s_epik_input>  (1) 
W09IXVtDSDJdW0NIMl1bQ0BASF0oW0NIM10pTihDMT1PKU49W0NIXVtDQEBIXTFbQ0gyXVtDSDJdW0NIMl1OKFtDSDNdKVtDQEBIXShbQ0gzXSljMltjSF1bY0hdW2NIXVtjSF1jMkNs

>  <s_glide_docking_method>  (1) 
confgen

>  <s_i_glide_gridfile>  (1) 
gpcr_5ht2c_6bqh_protein_autoprepared_prepared

>  <s_lp_Force_Field>  (1) 
S-OPLS

>  <s_lp_Variant>  (1) 
DiffSBDD_59_num_sample_100-1

>  <s_m_source_file>  (1) 
generated__ligand_DiffSBDD_2026-05-06_prepared.sdf

>  <GenAI_Model>  (1) 
DiffSBDD

>  <Protein>  (1) 
GPCR_5HT2C

$$$$
DiffSBDD_5_num_sample_100
     RDKit          3D

  0  0  0  0  0  0  0  0  0  0999 V3000
M  V30 BEGIN CTAB
M  V30 COUNTS 50 52 0 0 1
M  V30 BEGIN ATOM
M  V30 1 C 39.086945 30.127794 61.499254 0
M  V30 2 O 36.008529 31.009303 59.453527 0
M  V30 3 C 37.158902 30.290097 55.021705 0
M  V30 4 C 39.173419 28.260288 51.017079 0
M  V30 5 C 37.883180 29.005034 54.547576 0 CFG=1
M  V30 6 C 40.649486 29.670903 49.513862 0
M  V30 7 C 39.467428 30.217819 52.919533 0
M  V30 8 C 39.736612 30.735383 62.747142 0
M  V30 9 C 38.157628 29.298484 57.878624 0
M  V30 10 C 38.954342 26.966994 55.560455 0
M  V30 11 N 40.126282 30.367096 51.757723 0
M  V30 12 N 38.128043 30.264975 58.701256 0
M  V30 13 S 38.267369 31.589081 55.646872 0
M  V30 14 C 37.819165 30.874956 61.027589 0
M  V30 15 C 38.632176 29.111354 53.209809 0
M  V30 16 C 38.496272 28.105647 52.236076 0
M  V30 17 C 39.232069 29.167326 56.791851 0 CFG=1
M  V30 18 C 40.450170 26.986730 57.461036 0
M  V30 19 C 37.164002 30.262011 59.769037 0 CFG=1
M  V30 20 C 39.762814 26.297305 56.546466 0
M  V30 21 C 38.705006 28.291560 55.624158 0
M  V30 22 C 39.633993 30.567601 56.265156 0
M  V30 23 C 39.959610 29.415622 50.823629 0
M  V30 24 C 40.458464 28.502361 57.512691 0
M  V30 25 H 38.852070 29.083155 61.694851 0
M  V30 26 H 39.829188 30.122820 60.700702 0
M  V30 27 H 35.988152 31.221447 58.519448 0
M  V30 28 H 36.517616 30.711188 54.253512 0
M  V30 29 H 36.474859 30.021487 55.826879 0
M  V30 30 H 39.076789 27.519260 50.237020 0
M  V30 31 H 37.067106 28.312407 54.335948 0
M  V30 32 H 40.661675 28.821435 48.843429 0
M  V30 33 H 41.670136 30.021430 49.670152 0
M  V30 34 H 40.080921 30.472505 49.053524 0
M  V30 35 H 39.601443 31.010194 53.621038 0
M  V30 36 H 40.619205 30.162803 63.032984 0
M  V30 37 H 39.057074 30.722498 63.597029 0
M  V30 38 H 40.048161 31.765436 62.573249 0
M  V30 39 H 37.417640 28.493686 57.900806 0
M  V30 40 H 38.547345 26.394490 54.740648 0
M  V30 41 H 37.093082 30.901471 61.839031 0
M  V30 42 H 38.076825 31.915719 60.826727 0
M  V30 43 H 37.872862 27.241267 52.414351 0
M  V30 44 H 41.059595 26.465846 58.185194 0
M  V30 45 H 36.826822 29.247770 59.979481 0
M  V30 46 H 39.825258 25.218493 56.538007 0
M  V30 47 H 40.063235 31.164138 57.053502 0
M  V30 48 H 40.397233 30.472835 55.494368 0
M  V30 49 H 41.379888 28.788154 57.011765 0
M  V30 50 H 40.568502 28.837965 58.546035 0
M  V30 END ATOM
M  V30 BEGIN BOND
M  V30 1 1 5 3
M  V30 2 1 8 1
M  V30 3 1 11 7
M  V30 4 2 12 9
M  V30 5 1 13 3
M  V30 6 1 14 1
M  V30 7 1 15 5
M  V30 8 2 15 7
M  V30 9 2 16 4
M  V30 10 1 16 15
M  V30 11 1 17 9 CFG=1
M  V30 12 1 19 2
M  V30 13 1 19 12
M  V30 14 1 19 14
M  V30 15 1 20 10
M  V30 16 2 20 18
M  V30 17 1 21 5
M  V30 18 2 21 10
M  V30 19 1 21 17
M  V30 20 1 22 13
M  V30 21 1 22 17
M  V30 22 1 23 4
M  V30 23 1 23 6
M  V30 24 2 23 11
M  V30 25 1 24 17
M  V30 26 1 24 18
M  V30 27 1 25 1
M  V30 28 1 26 1
M  V30 29 1 27 2
M  V30 30 1 28 3
M  V30 31 1 29 3
M  V30 32 1 30 4
M  V30 33 1 5 31 CFG=3
M  V30 34 1 32 6
M  V30 35 1 33 6
M  V30 36 1 34 6
M  V30 37 1 35 7
M  V30 38 1 36 8
M  V30 39 1 37 8
M  V30 40 1 38 8
M  V30 41 1 39 9
M  V30 42 1 40 10
M  V30 43 1 41 14
M  V30 44 1 42 14
M  V30 45 1 43 16
M  V30 46 1 44 18
M  V30 47 1 19 45 CFG=1
M  V30 48 1 46 20
M  V30 49 1 47 22
M  V30 50 1 48 22
M  V30 51 1 49 24
M  V30 52 1 50 24
M  V30 END BOND
M  V30 END CTAB
M  END
>  <i_epik_Tot_Q>  (1) 
0

>  <i_epik_Tot_abs_Q>  (1) 
0

>  <i_i_glide_confnum>  (1) 
42

>  <i_i_glide_lignum>  (1) 
23

>  <i_i_glide_posenum>  (1) 
192

>  <i_i_glide_rotatable_bonds>  (1) 
6

>  <i_lp_mmshare_version>  (1) 
72125

>  <i_m_source_file_index>  (1) 
6

>  <i_f3d_flags>  (1) 
0

>  <num_sample>  (1) 
100

>  <b_lp_Chiralities_Consistent>  (1) 
1

>  <r_epik_Charging_Adjusted_Penalty>  (1) 
0.0081103479682914613

>  <r_epik_Ionization_Penalty>  (1) 
0.0085425111303935736

>  <r_epik_Ionization_Penalty_Charging>  (1) 
0

>  <r_epik_Ionization_Penalty_Neutral>  (1) 
0.0085425111303935736

>  <r_epik_State_Penalty>  (1) 
0.0081103479682914613

>  <r_glide_ring_energy>  (1) 
0

>  <r_i_docking_score>  (1) 
-7.2628439361031107

>  <r_i_glide_ecoul>  (1) 
-2.4167154363280572

>  <r_i_glide_eff_state_penalty>  (1) 
0.0081103479682914613

>  <r_i_glide_einternal>  (1) 
5.2696407463681254

>  <r_i_glide_emodel>  (1) 
-52.330217922601918

>  <r_i_glide_emodel_strain>  (1) 
0.68772296721063952

>  <r_i_glide_energy>  (1) 
-40.864608694559905

>  <r_i_glide_erotb>  (1) 
0.64660109196089122

>  <r_i_glide_esite>  (1) 
-0.048316424573058507

>  <r_i_glide_evdw>  (1) 
-38.447893258231851

>  <r_i_glide_gscore>  (1) 
-7.2709542840714025

>  <r_i_glide_gscore_strain>  (1) 
0

>  <r_i_glide_hbond>  (1) 
-0.16

>  <r_i_glide_ligand_efficiency>  (1) 
-0.30261849733762963

>  <r_i_glide_ligand_efficiency_ln>  (1) 
-1.7383318241015258

>  <r_i_glide_ligand_efficiency_sa>  (1) 
-0.87290279550453986

>  <r_i_glide_lipo>  (1) 
-3.4505212003711594

>  <r_i_glide_metal>  (1) 
-0

>  <r_i_glide_rewards>  (1) 
-1.9738157727272734

>  <r_lp_Energy>  (1) 
35.538015999999999

>  <s_epik_Chemistry_Notes>  (1) 
This compound has an imine and may undergo hydrolysis. This compound contains an acetal/aminal-like group ( X-CH(R)-Y where X, Y are N, S, or O) that may be acid/base labile, releasing an aldehyde.

>  <s_epik_cmdline>  (1) 
J2VwaWtfcHl0aG9uJywgJy1waHQnLCAnMS4wJywgJy1waCcsICc3LjQnLCAnLXRuJywgJzgnLCAnLW1hJywgJzUwMCcsICctaW1hZScsICc8aW5maWxlLm1hZT4nLCAnLW9tYWUnLCAnPG91dGZpbGUubWFlPic=

>  <s_epik_input>  (1) 
W0NIM11bQ0gyXVtDSDJdW0NAQEhdKFtPSF0pXE49W0NIXVxbQ0BAXTEyQyg9W0NIXVtDSF09W0NIXVtDSDJdMilbQ0BASF0oW0NIMl1TW0NIMl0xKWMzW2NIXW5jKFtDSDNdKVtjSF1bY0hdMw==

>  <s_glide_docking_method>  (1) 
confgen

>  <s_i_glide_gridfile>  (1) 
gpcr_5ht2c_6bqh_protein_autoprepared_prepared

>  <s_lp_Force_Field>  (1) 
S-OPLS

>  <s_lp_Variant>  (1) 
DiffSBDD_5_num_sample_100-1

>  <s_m_source_file>  (1) 
generated__ligand_DiffSBDD_2026-05-06_prepared.sdf

>  <GenAI_Model>  (1) 
DiffSBDD

>  <Protein>  (1) 
GPCR_5HT2C

$$$$
DiffSBDD_97_num_sample_100
     RDKit          3D

  0  0  0  0  0  0  0  0  0  0999 V3000
M  V30 BEGIN CTAB
M  V30 COUNTS 74 78 0 0 1
M  V30 BEGIN ATOM
M  V30 1 C 40.068650 29.707709 51.572711 0
M  V30 2 C 38.731930 30.025711 59.986226 0
M  V30 3 C 42.251430 30.527839 63.463343 0
M  V30 4 S 39.067403 30.224853 61.762744 0 CHG=1
M  V30 5 C 40.582157 35.335097 61.277023 0
M  V30 6 C 41.149941 31.984842 65.607790 0
M  V30 7 C 39.824411 29.133261 59.367202 0 CFG=2
M  V30 8 C 37.492330 28.371118 54.729414 0
M  V30 9 C 39.853135 28.607506 61.860236 0
M  V30 10 C 40.042732 32.844438 61.383202 0 CFG=1
M  V30 11 N 38.675179 36.991497 61.456726 0 CHG=1
M  V30 12 N 38.498027 28.743249 53.709759 0 CFG=2 CHG=1
M  V30 13 C 42.845924 30.465719 64.739310 0
M  V30 14 C 39.341613 28.245441 58.189557 0
M  V30 15 C 38.854758 30.192815 53.731761 0 CFG=1
M  V30 16 C 40.445157 28.273111 60.487966 0
M  V30 17 N 38.697400 33.196498 61.856906 0
M  V30 18 C 41.037124 33.965168 61.798090 0
M  V30 19 O 37.647027 37.076892 60.793929 0
M  V30 20 C 38.226470 34.483677 61.353342 0
M  V30 21 O 39.336803 37.944751 61.853637 0 CHG=-1
M  V30 22 C 42.295748 31.195064 65.809770 0
M  V30 23 C 39.817612 29.784877 56.177012 0
M  V30 24 C 38.185995 27.843560 55.997162 0
M  V30 25 C 39.246554 30.754160 55.122546 0
M  V30 26 C 39.867403 30.500570 52.634860 0
M  V30 27 C 38.144086 28.264321 52.342088 0
M  V30 28 C 40.553458 32.050566 64.335066 0
M  V30 29 F 42.868187 31.135688 67.034318 0
M  V30 30 C 38.768293 28.932101 56.919648 0 CFG=1
M  V30 31 C 40.460269 31.407589 61.855139 0 CFG=1
M  V30 32 C 39.320999 28.413547 51.354487 0
M  V30 33 C 41.103361 31.326999 63.253409 0
M  V30 34 C 39.166704 35.616287 61.809529 0 CFG=1
M  V30 35 H 40.800637 29.983127 50.823717 0
M  V30 36 H 38.635126 30.985771 59.478368 0
M  V30 37 H 37.768234 29.522107 59.899964 0
M  V30 38 H 42.676033 29.962929 62.653500 0
M  V30 39 H 40.567582 35.326328 60.190428 0
M  V30 40 H 41.283301 36.113233 61.582857 0
M  V30 41 H 40.729296 32.543585 66.429734 0
M  V30 42 H 40.627629 29.768449 59.010871 0
M  V30 43 H 36.852656 27.575876 54.340805 0
M  V30 44 H 36.839200 29.217906 54.954312 0
M  V30 45 H 40.570153 28.533253 62.675327 0
M  V30 46 H 39.066587 27.889370 62.079341 0
M  V30 47 H 39.984184 32.822845 60.292949 0
M  V30 48 H 43.725792 29.857697 64.896700 0
M  V30 49 H 38.582290 27.567736 58.582901 0
M  V30 50 H 40.167279 27.602702 57.880755 0
M  V30 51 H 37.960281 30.746739 53.453541 0
M  V30 52 H 40.267798 27.221716 60.289268 0
M  V30 53 H 41.525467 28.403297 60.504363 0
M  V30 54 H 38.031384 32.488642 61.583634 0
M  V30 55 H 41.129049 34.052344 62.879213 0
M  V30 56 H 42.041439 33.724365 61.453501 0
M  V30 57 H 38.154190 34.451823 60.264674 0
M  V30 58 H 37.220148 34.654502 61.736359 0
M  V30 59 H 40.619681 29.171028 55.766097 0
M  V30 60 H 40.267163 30.422102 56.929790 0
M  V30 61 H 38.965762 27.131096 55.722728 0
M  V30 62 H 37.466910 27.264041 56.574588 0
M  V30 63 H 39.956355 31.570695 54.984649 0
M  V30 64 H 38.370652 31.239951 55.556750 0
M  V30 65 H 40.432007 31.415280 52.733019 0
M  V30 66 H 37.851271 27.213278 52.366236 0
M  V30 67 H 37.279300 28.821398 51.983957 0
M  V30 68 H 39.679163 32.662760 64.186769 0
M  V30 69 H 37.950095 29.584237 57.230487 0
M  V30 70 H 41.212920 31.065351 61.146407 0
M  V30 71 H 38.965492 28.356365 50.324475 0
M  V30 72 H 40.031286 27.601297 51.492332 0
M  V30 73 H 39.188259 35.636964 62.899920 0
M  V30 74 H 39.338431 28.240699 53.955294 0
M  V30 END ATOM
M  V30 BEGIN BOND
M  V30 1 1 4 2 CFG=3
M  V30 2 1 7 2
M  V30 3 1 9 4
M  V30 4 1 12 8
M  V30 5 1 13 3
M  V30 6 1 14 7
M  V30 7 1 15 12
M  V30 8 1 16 7
M  V30 9 1 16 9
M  V30 10 1 17 10
M  V30 11 1 18 5
M  V30 12 1 18 10
M  V30 13 2 19 11
M  V30 14 1 20 17
M  V30 15 1 21 11
M  V30 16 1 22 6
M  V30 17 2 22 13
M  V30 18 1 24 8
M  V30 19 1 25 15
M  V30 20 1 25 23
M  V30 21 2 26 1
M  V30 22 1 26 15
M  V30 23 1 27 12
M  V30 24 2 28 6
M  V30 25 1 29 22
M  V30 26 1 30 14
M  V30 27 1 30 23
M  V30 28 1 30 24
M  V30 29 1 31 4
M  V30 30 1 31 10
M  V30 31 1 32 1
M  V30 32 1 32 27
M  V30 33 2 33 3
M  V30 34 1 33 28
M  V30 35 1 33 31
M  V30 36 1 34 5
M  V30 37 1 34 11
M  V30 38 1 34 20
M  V30 39 1 35 1
M  V30 40 1 36 2
M  V30 41 1 37 2
M  V30 42 1 38 3
M  V30 43 1 39 5
M  V30 44 1 40 5
M  V30 45 1 41 6
M  V30 46 1 7 42 CFG=3
M  V30 47 1 43 8
M  V30 48 1 44 8
M  V30 49 1 45 9
M  V30 50 1 46 9
M  V30 51 1 10 47 CFG=3
M  V30 52 1 48 13
M  V30 53 1 49 14
M  V30 54 1 50 14
M  V30 55 1 15 51 CFG=3
M  V30 56 1 52 16
M  V30 57 1 53 16
M  V30 58 1 54 17
M  V30 59 1 55 18
M  V30 60 1 56 18
M  V30 61 1 57 20
M  V30 62 1 58 20
M  V30 63 1 59 23
M  V30 64 1 60 23
M  V30 65 1 61 24
M  V30 66 1 62 24
M  V30 67 1 63 25
M  V30 68 1 64 25
M  V30 69 1 65 26
M  V30 70 1 66 27
M  V30 71 1 67 27
M  V30 72 1 68 28
M  V30 73 1 30 69 CFG=1
M  V30 74 1 31 70 CFG=3
M  V30 75 1 71 32
M  V30 76 1 72 32
M  V30 77 1 34 73 CFG=1
M  V30 78 1 12 74 CFG=1
M  V30 END BOND
M  V30 END CTAB
M  END
>  <i_epik_Tot_Q>  (1) 
2

>  <i_epik_Tot_abs_Q>  (1) 
4

>  <i_i_glide_confnum>  (1) 
194

>  <i_i_glide_lignum>  (1) 
269

>  <i_i_glide_posenum>  (1) 
210

>  <i_i_glide_rotatable_bonds>  (1) 
6

>  <i_lp_mmshare_version>  (1) 
72125

>  <i_m_source_file_index>  (1) 
98

>  <i_f3d_flags>  (1) 
0

>  <num_sample>  (1) 
100

>  <b_lp_Chiralities_Consistent>  (1) 
1

>  <r_epik_Charging_Adjusted_Penalty>  (1) 
0.028424460748094963

>  <r_epik_Ionization_Penalty>  (1) 
0.031653010901111077

>  <r_epik_Ionization_Penalty_Charging>  (1) 
0.0018620536084809386

>  <r_epik_Ionization_Penalty_Neutral>  (1) 
0.029790957292630139

>  <r_epik_State_Penalty>  (1) 
0.026562407139614025

>  <r_glide_ring_energy>  (1) 
0

>  <r_i_docking_score>  (1) 
-7.2574667933508747

>  <r_i_glide_ecoul>  (1) 
0.47278468673118068

>  <r_i_glide_eff_state_penalty>  (1) 
0.026562407139614025

>  <r_i_glide_einternal>  (1) 
13.312163484253563

>  <r_i_glide_emodel>  (1) 
-49.063679411810952

>  <r_i_glide_emodel_strain>  (1) 
1.19997456039372

>  <r_i_glide_energy>  (1) 
-39.292663852565724

>  <r_i_glide_erotb>  (1) 
0.42420227184638803

>  <r_i_glide_esite>  (1) 
0

>  <r_i_glide_evdw>  (1) 
-39.765448539296905

>  <r_i_glide_gscore>  (1) 
-7.2840292004904885

>  <r_i_glide_gscore_strain>  (1) 
0

>  <r_i_glide_hbond>  (1) 
0

>  <r_i_glide_ligand_efficiency>  (1) 
-0.21345490568679043

>  <r_i_glide_ligand_efficiency_ln>  (1) 
-1.603377979699554

>  <r_i_glide_ligand_efficiency_sa>  (1) 
-0.69151103150349857

>  <r_i_glide_lipo>  (1) 
-4.600247099490069

>  <r_i_glide_metal>  (1) 
-0

>  <r_i_glide_rewards>  (1) 
-1.190629648891639

>  <r_lp_Energy>  (1) 
45.469682999999996

>  <s_epik_cmdline>  (1) 
J2VwaWtfcHl0aG9uJywgJy1waHQnLCAnMS4wJywgJy1waCcsICc3LjQnLCAnLXRuJywgJzgnLCAnLW1hJywgJzUwMCcsICctaW1hZScsICc8aW5maWxlLm1hZT4nLCAnLW9tYWUnLCAnPG91dGZpbGUubWFlPic=

>  <s_epik_input>  (1) 
W0NIMl0xW0NIMl1bQ0hdPVtDSF1bQ0BASF0oTjEyKVtDSDJdW0NIMl1bQ0BASF0oW0NIMl1bQ0gyXTIpW0NIMl1bQ0BIXShbQ0gyXVtDSDJdMylbQ0gyXVtTK10zW0NASF0oYyhbY0hdW2NIXTQpW2NIXVtjSF1jNEYpW0NASF01W05IXVtDSDJdW0NASF0oW04rXSg9TylbTy1dKVtDSDJdW0NIMl01

>  <s_glide_docking_method>  (1) 
confgen

>  <s_i_glide_gridfile>  (1) 
gpcr_5ht2c_6bqh_protein_autoprepared_prepared

>  <s_lp_Force_Field>  (1) 
S-OPLS

>  <s_lp_Variant>  (1) 
DiffSBDD_97_num_sample_100-2

>  <s_m_source_file>  (1) 
generated__ligand_DiffSBDD_2026-05-06_prepared.sdf

>  <GenAI_Model>  (1) 
DiffSBDD

>  <Protein>  (1) 
GPCR_5HT2C

$$$$
DiffSBDD_70_num_sample_100
     RDKit          3D

  0  0  0  0  0  0  0  0  0  0999 V3000
M  V30 BEGIN CTAB
M  V30 COUNTS 77 80 0 0 1
M  V30 BEGIN ATOM
M  V30 1 N 40.109041 30.745157 61.910605 0
M  V30 2 C 38.231711 26.199041 58.643131 0
M  V30 3 F 39.467347 26.821423 50.879366 0
M  V30 4 C 38.892151 24.162185 57.400933 0
M  V30 5 P 38.807982 31.965476 61.637389 0
M  V30 6 C 38.265682 27.698227 55.984030 0
M  V30 7 F 38.089370 28.435717 51.206425 0
M  V30 8 C 38.639273 27.559824 59.251426 0
M  V30 9 C 41.387976 32.778503 63.949955 0
M  V30 10 O 40.267418 28.799185 51.476479 0
M  V30 11 C 40.836031 27.602312 57.945418 0
M  V30 12 C 40.286227 29.564874 50.283761 0
M  V30 13 C 40.299536 26.427645 57.103456 0 CFG=2
M  V30 14 O 39.127178 33.267051 62.253548 0 CHG=-1
M  V30 15 C 40.959748 31.487495 64.303606 0
M  V30 16 O 38.989447 32.178520 59.977108 0
M  V30 17 C 40.813462 31.176471 65.672844 0
M  V30 18 C 39.073662 28.834258 55.359730 0
M  V30 19 C 39.098432 26.453774 56.182062 0 CFG=1
M  V30 20 C 41.630056 33.706446 64.979675 0
M  V30 21 C 39.035660 25.682175 57.486679 0 CFG=2
M  V30 22 O 41.867420 29.667435 63.073856 0
M  V30 23 C 39.193980 25.693814 54.847517 0
M  V30 24 C 39.250126 27.915448 51.623367 0
M  V30 25 N 41.067391 32.054170 66.672287 0
M  V30 26 C 38.958515 27.583474 53.096206 0 CFG=2
M  V30 27 C 41.456539 33.298818 66.316479 0
M  V30 28 C 38.792551 28.925793 53.884503 0 CFG=1
M  V30 29 C 39.877916 26.485804 53.729106 0
M  V30 30 O 37.467453 29.406517 53.831318 0
M  V30 31 C 39.785202 29.472074 61.236384 0
M  V30 32 C 41.406840 30.578924 50.437758 0
M  V30 33 O 37.475286 31.353652 61.853499 0
M  V30 34 C 40.372767 29.301104 59.822310 0
M  V30 35 C 40.133496 27.869811 59.291255 0 CFG=1
M  V30 36 C 40.680852 30.423300 63.246785 0 CFG=2
M  V30 37 C 42.062704 35.120399 64.659169 0
M  V30 38 H 38.267407 25.459085 59.437612 0
M  V30 39 H 37.208477 26.235125 58.253909 0
M  V30 40 H 38.267337 23.745569 58.192513 0
M  V30 41 H 38.395343 23.873842 56.477461 0
M  V30 42 H 39.867391 23.686571 57.453166 0
M  V30 43 H 37.795659 28.051866 56.882765 0
M  V30 44 H 37.417286 27.413554 55.368335 0
M  V30 45 H 38.267406 27.552427 60.271421 0
M  V30 46 H 38.107252 28.399459 58.813238 0
M  V30 47 H 41.520477 33.054524 62.914833 0
M  V30 48 H 40.853730 28.517198 57.366387 0
M  V30 49 H 41.887571 27.399130 58.151646 0
M  V30 50 H 40.428944 28.929915 49.409891 0
M  V30 51 H 39.354611 30.113728 50.146948 0
M  V30 52 H 41.067403 25.902754 56.580764 0
M  V30 53 H 38.169031 32.529940 59.671018 0
M  V30 54 H 40.493681 30.189381 65.975617 0
M  V30 55 H 40.144965 28.693704 55.462550 0
M  V30 56 H 38.845510 29.780664 55.854084 0
M  V30 57 H 41.809332 28.894850 63.615680 0
M  V30 58 H 39.790015 24.795385 54.995217 0
M  V30 59 H 38.204633 25.349741 54.542948 0
M  V30 60 H 37.978038 27.102793 53.072941 0
M  V30 61 H 41.634368 33.991779 67.126174 0
M  V30 62 H 39.439732 29.708798 53.487979 0
M  V30 63 H 40.787855 26.821426 54.190081 0
M  V30 64 H 40.261605 25.812526 52.962548 0
M  V30 65 H 36.990164 29.045026 54.562286 0
M  V30 66 H 40.068572 28.605534 61.833703 0
M  V30 67 H 38.703141 29.389535 61.168471 0
M  V30 68 H 41.510512 31.197081 49.546160 0
M  V30 69 H 41.183001 31.221442 51.285720 0
M  V30 70 H 42.355885 30.095980 50.652406 0
M  V30 71 H 39.927013 30.021449 59.139231 0
M  V30 72 H 41.443306 29.502174 59.842824 0
M  V30 73 H 40.577291 27.221432 60.032395 0
M  V30 74 H 39.971664 29.752043 63.734349 0
M  V30 75 H 42.061496 35.749490 65.550513 0
M  V30 76 H 43.067393 35.115669 64.253481 0
M  V30 77 H 41.391467 35.569203 63.925645 0
M  V30 END ATOM
M  V30 BEGIN BOND
M  V30 1 1 5 1
M  V30 2 1 8 2
M  V30 3 1 12 10
M  V30 4 1 13 11
M  V30 5 1 14 5
M  V30 6 1 15 9
M  V30 7 1 16 5
M  V30 8 2 17 15
M  V30 9 1 18 6
M  V30 10 1 19 6 CFG=3
M  V30 11 1 19 13
M  V30 12 2 20 9
M  V30 13 1 21 2
M  V30 14 1 21 4 CFG=3
M  V30 15 1 21 13
M  V30 16 1 21 19
M  V30 17 1 23 19
M  V30 18 1 24 3
M  V30 19 1 24 7
M  V30 20 1 24 10
M  V30 21 1 25 17
M  V30 22 1 26 24
M  V30 23 1 27 20
M  V30 24 2 27 25
M  V30 25 1 28 18
M  V30 26 1 28 26
M  V30 27 1 29 23
M  V30 28 1 29 26
M  V30 29 1 30 28
M  V30 30 1 31 1
M  V30 31 1 32 12
M  V30 32 2 33 5
M  V30 33 1 34 31
M  V30 34 1 35 8
M  V30 35 1 35 11
M  V30 36 1 35 34
M  V30 37 1 36 1
M  V30 38 1 36 15
M  V30 39 1 36 22
M  V30 40 1 37 20
M  V30 41 1 38 2
M  V30 42 1 39 2
M  V30 43 1 40 4
M  V30 44 1 41 4
M  V30 45 1 42 4
M  V30 46 1 43 6
M  V30 47 1 44 6
M  V30 48 1 45 8
M  V30 49 1 46 8
M  V30 50 1 47 9
M  V30 51 1 48 11
M  V30 52 1 49 11
M  V30 53 1 50 12
M  V30 54 1 51 12
M  V30 55 1 13 52 CFG=3
M  V30 56 1 53 16
M  V30 57 1 54 17
M  V30 58 1 55 18
M  V30 59 1 56 18
M  V30 60 1 57 22
M  V30 61 1 58 23
M  V30 62 1 59 23
M  V30 63 1 26 60 CFG=3
M  V30 64 1 61 27
M  V30 65 1 28 62 CFG=3
M  V30 66 1 63 29
M  V30 67 1 64 29
M  V30 68 1 65 30
M  V30 69 1 66 31
M  V30 70 1 67 31
M  V30 71 1 68 32
M  V30 72 1 69 32
M  V30 73 1 70 32
M  V30 74 1 71 34
M  V30 75 1 72 34
M  V30 76 1 35 73 CFG=1
M  V30 77 1 36 74 CFG=1
M  V30 78 1 75 37
M  V30 79 1 76 37
M  V30 80 1 77 37
M  V30 END BOND
M  V30 END CTAB
M  END
>  <i_epik_Tot_Q>  (1) 
-1

>  <i_epik_Tot_abs_Q>  (1) 
1

>  <i_i_glide_confnum>  (1) 
1014

>  <i_i_glide_lignum>  (1) 
179

>  <i_i_glide_posenum>  (1) 
22

>  <i_i_glide_rotatable_bonds>  (1) 
12

>  <i_lp_mmshare_version>  (1) 
72125

>  <i_m_source_file_index>  (1) 
71

>  <i_f3d_flags>  (1) 
0

>  <num_sample>  (1) 
100

>  <b_lp_Chiralities_Consistent>  (1) 
1

>  <r_epik_Charging_Adjusted_Penalty>  (1) 
2.5863915032327713e-05

>  <r_epik_Ionization_Penalty>  (1) 
0.063291997969961059

>  <r_epik_Ionization_Penalty_Charging>  (1) 
2.5863915032327713e-05

>  <r_epik_Ionization_Penalty_Neutral>  (1) 
0.06326613405492873

>  <r_epik_State_Penalty>  (1) 
-0

>  <r_glide_ring_energy>  (1) 
0

>  <r_i_docking_score>  (1) 
-7.257421844750672

>  <r_i_glide_ecoul>  (1) 
-8.5707706087451694

>  <r_i_glide_eff_state_penalty>  (1) 
-0

>  <r_i_glide_einternal>  (1) 
10.636125812151324

>  <r_i_glide_emodel>  (1) 
-46.599660014058216

>  <r_i_glide_emodel_strain>  (1) 
10.170593419805954

>  <r_i_glide_energy>  (1) 
-45.105389379369811

>  <r_i_glide_erotb>  (1) 
0.55646031454045308

>  <r_i_glide_esite>  (1) 
-0.009432066768705066

>  <r_i_glide_evdw>  (1) 
-36.53461877062464

>  <r_i_glide_gscore>  (1) 
-7.257421844750672

>  <r_i_glide_gscore_strain>  (1) 
1.5426483549514884

>  <r_i_glide_hbond>  (1) 
-0.36509145434265494

>  <r_i_glide_ligand_efficiency>  (1) 
-0.19614653634461277

>  <r_i_glide_ligand_efficiency_ln>  (1) 
-1.5739646600190194

>  <r_i_glide_ligand_efficiency_sa>  (1) 
-0.65360377453218588

>  <r_i_glide_lipo>  (1) 
-5.1161090207512663

>  <r_i_glide_metal>  (1) 
-0

>  <r_i_glide_rewards>  (1) 
-0.75355144253698048

>  <r_lp_Energy>  (1) 
42.482589999999995

>  <r_lp_tautomer_probability>  (1) 
1

>  <s_epik_Chemistry_Notes>  (1) 
This compound contains an acetal/aminal-like group ( X-CH(R)-Y where X, Y are N, S, or O) that may be acid/base labile, releasing an aldehyde.

>  <s_epik_cmdline>  (1) 
J2VwaWtfcHl0aG9uJywgJy1waHQnLCAnMS4wJywgJy1waCcsICc3LjQnLCAnLXRuJywgJzgnLCAnLW1hJywgJzUwMCcsICctaW1hZScsICc8aW5maWxlLm1hZT4nLCAnLW9tYWUnLCAnPG91dGZpbGUubWFlPic=

>  <s_epik_input>  (1) 
W2NIXTFuW2NIXWMoW0NIM10pW2NIXWMxW0NASF0oW09IXSlOKFAoPU8pKFtPSF0pW09IXSlbQ0gyXVtDSDJdW0NASF0oW0NIMl0yKVtDSDJdW0NIMl1bQ0BdMyhbQ0gzXSlbQ0BIXTJbQ0BdMzRbQ0gyXVtDSDJdW0NASF0oW09IXSlbQ0BIXShbQ0gyXVtDSDJdNClDKEYpKEYpT1tDSDJdW0NIM10=

>  <s_glide_docking_method>  (1) 
confgen

>  <s_i_glide_gridfile>  (1) 
gpcr_5ht2c_6bqh_protein_autoprepared_prepared

>  <s_lp_Force_Field>  (1) 
S-OPLS

>  <s_lp_Variant>  (1) 
DiffSBDD_70_num_sample_100-1

>  <s_m_source_file>  (1) 
generated__ligand_DiffSBDD_2026-05-06_prepared.sdf

>  <GenAI_Model>  (1) 
DiffSBDD

>  <Protein>  (1) 
GPCR_5HT2C

$$$$
DiffSBDD_97_num_sample_100
     RDKit          3D

  0  0  0  0  0  0  0  0  0  0999 V3000
M  V30 BEGIN CTAB
M  V30 COUNTS 74 78 0 0 1
M  V30 BEGIN ATOM
M  V30 1 C 41.876761 30.302645 63.705013 0
M  V30 2 C 37.870951 30.707004 56.893881 0
M  V30 3 C 38.982174 28.310080 52.311394 0
M  V30 4 S 37.629623 30.515633 55.087727 0 CHG=1
M  V30 5 C 39.896514 25.951632 56.189704 0
M  V30 6 C 40.295462 30.504737 51.146904 0
M  V30 7 C 39.076328 31.606682 57.142822 0 CFG=2
M  V30 8 C 38.796545 32.884987 62.243716 0
M  V30 9 C 38.257009 32.185707 54.846508 0
M  V30 10 C 38.934256 28.081802 55.347899 0 CFG=1
M  V30 11 N 38.213535 24.422437 57.189487 0 CHG=1
M  V30 12 N 39.907842 32.012897 62.683619 0 CFG=2 CHG=1
M  V30 13 C 39.294701 28.300047 50.942087 0
M  V30 14 C 38.955295 32.586634 58.339995 0
M  V30 15 C 39.558557 30.563604 62.746067 0 CFG=1
M  V30 16 C 39.393975 32.385337 55.846689 0
M  V30 17 N 37.707319 27.396101 54.972625 0
M  V30 18 C 40.105147 27.102840 55.209133 0
M  V30 19 O 37.146778 24.524614 57.782033 0
M  V30 20 C 37.381032 26.421059 55.990490 0
M  V30 21 O 39.080284 23.621429 57.453473 0 CHG=-1
M  V30 22 C 39.954045 29.396392 50.363409 0
M  V30 23 C 39.465809 30.721645 60.143455 0
M  V30 24 C 38.931615 33.187280 60.748498 0
M  V30 25 C 38.934979 30.055323 61.427086 0
M  V30 26 C 40.786387 29.756510 63.148326 0
M  V30 27 C 40.641450 32.492624 63.884833 0
M  V30 28 C 39.993118 30.520480 52.517942 0
M  V30 29 F 40.267064 29.381028 49.053702 0
M  V30 30 C 38.688867 32.018750 59.763466 0 CFG=1
M  V30 31 C 39.053375 29.440576 54.627346 0 CFG=1
M  V30 32 C 42.004806 31.782494 63.994002 0
M  V30 33 C 39.339572 29.424633 53.113129 0
M  V30 34 C 38.475797 25.351322 56.058107 0 CFG=1
M  V30 35 H 42.719733 29.677660 63.967410 0
M  V30 36 H 37.919260 29.761865 57.426815 0
M  V30 37 H 37.067438 31.220342 57.373200 0
M  V30 38 H 38.485239 27.460337 52.740583 0
M  V30 39 H 40.044129 26.317967 57.206595 0
M  V30 40 H 40.664961 25.196888 56.023629 0
M  V30 41 H 40.803891 31.342734 50.697430 0
M  V30 42 H 39.875913 30.900614 57.320886 0
M  V30 43 H 38.870659 33.846682 62.746353 0
M  V30 44 H 37.819674 32.471271 62.498679 0
M  V30 45 H 38.523944 32.391919 53.813753 0
M  V30 46 H 37.467668 32.886568 55.101513 0
M  V30 47 H 38.885226 28.302530 56.409912 0
M  V30 48 H 39.032667 27.445794 50.334448 0
M  V30 49 H 38.149479 33.288981 58.116917 0
M  V30 50 H 39.848498 33.221120 58.361817 0
M  V30 51 H 38.826796 30.421531 63.542982 0
M  V30 52 H 39.530149 33.451110 56.020592 0
M  V30 53 H 40.332565 32.020197 55.434870 0
M  V30 54 H 36.945646 28.054897 54.892974 0
M  V30 55 H 40.192782 26.716944 54.193658 0
M  V30 56 H 41.041891 27.601120 55.454554 0
M  V30 57 H 37.263737 26.917987 56.956394 0
M  V30 58 H 36.423129 25.957123 55.754682 0
M  V30 59 H 40.536239 30.883005 60.256212 0
M  V30 60 H 39.353829 29.991380 59.342735 0
M  V30 61 H 39.925253 33.607658 60.583267 0
M  V30 62 H 38.235536 33.990392 60.503377 0
M  V30 63 H 39.068302 28.974007 61.361291 0
M  V30 64 H 37.859113 30.204057 61.468647 0
M  V30 65 H 40.752003 28.690474 62.969520 0
M  V30 66 H 40.816620 33.567626 63.823772 0
M  V30 67 H 40.040984 32.318286 64.778609 0
M  V30 68 H 40.278204 31.369045 53.115411 0
M  V30 69 H 37.627930 31.766665 59.797490 0
M  V30 70 H 39.946296 29.886884 55.059616 0
M  V30 71 H 42.434114 31.932166 64.985074 0
M  V30 72 H 42.696333 32.206719 63.267777 0
M  V30 73 H 38.422240 24.722575 55.167708 0
M  V30 74 H 40.587455 32.085094 61.941403 0
M  V30 END ATOM
M  V30 BEGIN BOND
M  V30 1 1 4 2 CFG=1
M  V30 2 1 7 2
M  V30 3 1 9 4
M  V30 4 1 12 8
M  V30 5 1 13 3
M  V30 6 1 14 7
M  V30 7 1 15 12
M  V30 8 1 16 7
M  V30 9 1 16 9
M  V30 10 1 17 10
M  V30 11 1 18 5
M  V30 12 1 18 10
M  V30 13 2 19 11
M  V30 14 1 20 17
M  V30 15 1 21 11
M  V30 16 1 22 6
M  V30 17 2 22 13
M  V30 18 1 24 8
M  V30 19 1 25 15
M  V30 20 1 25 23
M  V30 21 2 26 1
M  V30 22 1 26 15
M  V30 23 1 27 12
M  V30 24 2 28 6
M  V30 25 1 29 22
M  V30 26 1 30 14
M  V30 27 1 30 23
M  V30 28 1 30 24
M  V30 29 1 31 4
M  V30 30 1 31 10
M  V30 31 1 32 1
M  V30 32 1 32 27
M  V30 33 2 33 3
M  V30 34 1 33 28
M  V30 35 1 33 31
M  V30 36 1 34 5
M  V30 37 1 34 11
M  V30 38 1 34 20
M  V30 39 1 35 1
M  V30 40 1 36 2
M  V30 41 1 37 2
M  V30 42 1 38 3
M  V30 43 1 39 5
M  V30 44 1 40 5
M  V30 45 1 41 6
M  V30 46 1 7 42 CFG=1
M  V30 47 1 43 8
M  V30 48 1 44 8
M  V30 49 1 45 9
M  V30 50 1 46 9
M  V30 51 1 10 47 CFG=1
M  V30 52 1 48 13
M  V30 53 1 49 14
M  V30 54 1 50 14
M  V30 55 1 15 51 CFG=1
M  V30 56 1 52 16
M  V30 57 1 53 16
M  V30 58 1 54 17
M  V30 59 1 55 18
M  V30 60 1 56 18
M  V30 61 1 57 20
M  V30 62 1 58 20
M  V30 63 1 59 23
M  V30 64 1 60 23
M  V30 65 1 61 24
M  V30 66 1 62 24
M  V30 67 1 63 25
M  V30 68 1 64 25
M  V30 69 1 65 26
M  V30 70 1 66 27
M  V30 71 1 67 27
M  V30 72 1 68 28
M  V30 73 1 30 69 CFG=3
M  V30 74 1 31 70 CFG=1
M  V30 75 1 71 32
M  V30 76 1 72 32
M  V30 77 1 34 73 CFG=3
M  V30 78 1 12 74 CFG=3
M  V30 END BOND
M  V30 END CTAB
M  END
>  <i_epik_Tot_Q>  (1) 
2

>  <i_epik_Tot_abs_Q>  (1) 
4

>  <i_i_glide_confnum>  (1) 
242

>  <i_i_glide_lignum>  (1) 
269

>  <i_i_glide_posenum>  (1) 
398

>  <i_i_glide_rotatable_bonds>  (1) 
6

>  <i_lp_mmshare_version>  (1) 
72125

>  <i_m_source_file_index>  (1) 
98

>  <i_f3d_flags>  (1) 
0

>  <num_sample>  (1) 
100

>  <b_lp_Chiralities_Consistent>  (1) 
1

>  <r_epik_Charging_Adjusted_Penalty>  (1) 
0.028424460748094963

>  <r_epik_Ionization_Penalty>  (1) 
0.031653010901111077

>  <r_epik_Ionization_Penalty_Charging>  (1) 
0.0018620536084809386

>  <r_epik_Ionization_Penalty_Neutral>  (1) 
0.029790957292630139

>  <r_epik_State_Penalty>  (1) 
0.026562407139614025

>  <r_glide_ring_energy>  (1) 
0

>  <r_i_docking_score>  (1) 
-7.2531511271049309

>  <r_i_glide_ecoul>  (1) 
-3.4966077516616956

>  <r_i_glide_eff_state_penalty>  (1) 
0.026562407139614025

>  <r_i_glide_einternal>  (1) 
15.442290333768899

>  <r_i_glide_emodel>  (1) 
-41.341286887218871

>  <r_i_glide_emodel_strain>  (1) 
3.9242915037477317

>  <r_i_glide_energy>  (1) 
-35.370095443214112

>  <r_i_glide_erotb>  (1) 
0.42420227184638803

>  <r_i_glide_esite>  (1) 
-0.046508538762305832

>  <r_i_glide_evdw>  (1) 
-31.87348769155242

>  <r_i_glide_gscore>  (1) 
-7.2797135342445447

>  <r_i_glide_gscore_strain>  (1) 
0

>  <r_i_glide_hbond>  (1) 
0

>  <r_i_glide_ligand_efficiency>  (1) 
-0.21332797432661563

>  <r_i_glide_ligand_efficiency_ln>  (1) 
-1.6024245279754872

>  <r_i_glide_ligand_efficiency_sa>  (1) 
-0.69109982317112406

>  <r_i_glide_lipo>  (1) 
-4.048790964624839

>  <r_i_glide_metal>  (1) 
-0

>  <r_i_glide_rewards>  (1) 
-1.490450755376912

>  <r_lp_Energy>  (1) 
45.469682999999996

>  <s_epik_cmdline>  (1) 
J2VwaWtfcHl0aG9uJywgJy1waHQnLCAnMS4wJywgJy1waCcsICc3LjQnLCAnLXRuJywgJzgnLCAnLW1hJywgJzUwMCcsICctaW1hZScsICc8aW5maWxlLm1hZT4nLCAnLW9tYWUnLCAnPG91dGZpbGUubWFlPic=

>  <s_epik_input>  (1) 
W0NIMl0xW0NIMl1bQ0hdPVtDSF1bQ0BASF0oTjEyKVtDSDJdW0NIMl1bQ0BASF0oW0NIMl1bQ0gyXTIpW0NIMl1bQ0BIXShbQ0gyXVtDSDJdMylbQ0gyXVtTK10zW0NASF0oYyhbY0hdW2NIXTQpW2NIXVtjSF1jNEYpW0NASF01W05IXVtDSDJdW0NASF0oW04rXSg9TylbTy1dKVtDSDJdW0NIMl01

>  <s_glide_docking_method>  (1) 
confgen

>  <s_i_glide_gridfile>  (1) 
gpcr_5ht2c_6bqh_protein_autoprepared_prepared

>  <s_lp_Force_Field>  (1) 
S-OPLS

>  <s_lp_Variant>  (1) 
DiffSBDD_97_num_sample_100-2

>  <s_m_source_file>  (1) 
generated__ligand_DiffSBDD_2026-05-06_prepared.sdf

>  <GenAI_Model>  (1) 
DiffSBDD

>  <Protein>  (1) 
GPCR_5HT2C

$$$$
DiffSBDD_18_num_sample_100
     RDKit          3D

  0  0  0  0  0  0  0  0  0  0999 V3000
M  V30 BEGIN CTAB
M  V30 COUNTS 71 73 0 0 1
M  V30 BEGIN ATOM
M  V30 1 O 37.351878 33.997955 59.730159 0
M  V30 2 C 38.725486 27.429961 52.504738 0
M  V30 3 C 38.492042 29.835053 57.213779 0
M  V30 4 C 38.868822 28.018526 51.329840 0
M  V30 5 O 38.234916 30.468736 59.950900 0
M  V30 6 C 39.222327 27.796818 54.900135 0 CFG=2
M  V30 7 C 41.496515 33.044204 62.286236 0
M  V30 8 N 39.067405 28.212737 53.471141 0 CHG=1
M  V30 9 N 39.733456 26.418987 55.008917 0
M  V30 10 C 38.082939 35.554125 61.453499 0
M  V30 11 C 41.283111 35.266220 63.335109 0
M  V30 12 O 42.480647 32.820059 61.588012 0
M  V30 13 O 39.613167 30.158375 50.653504 0
M  V30 14 C 41.150207 34.077472 66.099910 0
M  V30 15 C 38.976368 27.492696 58.053061 0
M  V30 16 C 39.307602 29.221430 51.558799 0
M  V30 17 C 41.506114 31.785470 65.169484 0
M  V30 18 C 40.214875 35.725330 62.647835 0
M  V30 19 C 37.419207 30.916124 59.145614 0
M  V30 20 N 40.232263 32.622321 62.037066 0
M  V30 21 C 38.060437 28.350579 57.154429 0 CFG=2
M  V30 22 C 36.902534 34.888863 60.747131 0 CFG=2
M  V30 23 C 37.917202 27.835379 55.690631 0 CFG=2
M  V30 24 C 37.467440 26.371335 55.609390 0
M  V30 25 O 40.728892 31.026709 65.788645 0 CHG=-1
M  V30 26 C 39.512759 29.659200 53.036853 0
M  V30 27 C 39.219949 33.378264 61.853495 0
M  V30 28 C 36.269240 31.806360 59.617714 0
M  V30 29 C 36.360752 33.244455 59.053505 0
M  V30 30 C 35.899768 34.301394 61.766076 0
M  V30 31 C 39.165273 34.911930 61.973735 0
M  V30 32 C 41.630655 33.830363 63.564280 0 CFG=1
M  V30 33 C 40.985795 33.198752 64.842471 0 CFG=2
M  V30 34 N 37.467407 30.661569 57.832278 0
M  V30 35 N 38.671607 25.562351 55.417892 0
M  V30 36 O 42.667395 31.501679 64.800730 0
M  V30 37 H 38.389363 26.421427 52.687936 0
M  V30 38 H 39.452681 29.960067 57.718156 0
M  V30 39 H 38.639667 30.236356 56.211168 0
M  V30 40 H 38.667411 27.536650 50.384639 0
M  V30 41 H 39.968327 28.472189 55.320578 0
M  V30 42 H 40.150428 26.090781 54.140606 0
M  V30 43 H 38.026068 36.629423 61.540272 0
M  V30 44 H 41.957517 35.985240 63.779708 0
M  V30 45 H 40.537174 29.889143 53.320710 0
M  V30 46 H 40.736448 33.589644 66.983436 0
M  V30 47 H 42.201967 34.286770 66.298177 0
M  V30 48 H 40.635443 35.031755 65.992371 0
M  V30 49 H 40.005662 27.484733 57.694472 0
M  V30 50 H 38.990292 27.881919 59.071921 0
M  V30 51 H 38.636255 26.459443 58.117053 0
M  V30 52 H 40.105235 36.798770 62.594139 0
M  V30 53 H 37.067399 28.270442 57.597765 0
M  V30 54 H 36.388654 35.694935 60.221109 0
M  V30 55 H 37.213174 28.482229 55.161751 0
M  V30 56 H 36.829811 26.232331 54.738151 0
M  V30 57 H 36.907395 26.033339 56.482169 0
M  V30 58 H 38.784240 30.385418 53.399468 0
M  V30 59 H 38.277808 32.931622 61.550102 0
M  V30 60 H 35.341705 31.347519 59.273518 0
M  V30 61 H 36.220565 31.796385 60.704335 0
M  V30 62 H 36.667409 33.223491 58.008115 0
M  V30 63 H 35.390532 33.742966 59.061154 0
M  V30 64 H 35.668622 35.019292 62.554296 0
M  V30 65 H 34.957372 34.021425 61.297848 0
M  V30 66 H 36.290526 33.413996 62.253487 0
M  V30 67 H 42.698659 33.868381 63.761976 0
M  V30 68 H 39.922441 33.062319 64.660186 0
M  V30 69 H 36.749422 31.071080 57.228684 0
M  V30 70 H 38.522095 24.816668 54.739945 0
M  V30 71 H 39.361378 29.834400 49.799719 0
M  V30 END ATOM
M  V30 BEGIN BOND
M  V30 1 1 4 2
M  V30 2 2 8 2
M  V30 3 1 8 6
M  V30 4 1 9 6
M  V30 5 2 12 7
M  V30 6 2 16 4
M  V30 7 1 16 13
M  V30 8 2 18 11
M  V30 9 2 19 5
M  V30 10 1 20 7
M  V30 11 1 21 3
M  V30 12 1 21 15
M  V30 13 1 22 1
M  V30 14 1 22 10
M  V30 15 1 23 6
M  V30 16 1 23 21
M  V30 17 1 24 23
M  V30 18 1 25 17
M  V30 19 1 26 8
M  V30 20 1 26 16
M  V30 21 2 27 20
M  V30 22 1 28 19
M  V30 23 1 29 1
M  V30 24 1 29 28
M  V30 25 1 30 22
M  V30 26 2 31 10
M  V30 27 1 31 18
M  V30 28 1 31 27
M  V30 29 1 32 7
M  V30 30 1 32 11
M  V30 31 1 33 14
M  V30 32 1 33 17
M  V30 33 1 33 32
M  V30 34 1 34 3
M  V30 35 1 34 19
M  V30 36 1 35 9
M  V30 37 1 35 24
M  V30 38 2 36 17
M  V30 39 1 37 2
M  V30 40 1 38 3
M  V30 41 1 39 3
M  V30 42 1 40 4
M  V30 43 1 6 41 CFG=1
M  V30 44 1 42 9
M  V30 45 1 43 10
M  V30 46 1 44 11
M  V30 47 1 45 26
M  V30 48 1 46 14
M  V30 49 1 47 14
M  V30 50 1 48 14
M  V30 51 1 49 15
M  V30 52 1 50 15
M  V30 53 1 51 15
M  V30 54 1 52 18
M  V30 55 1 21 53 CFG=1
M  V30 56 1 22 54 CFG=3
M  V30 57 1 23 55 CFG=3
M  V30 58 1 56 24
M  V30 59 1 57 24
M  V30 60 1 58 26
M  V30 61 1 59 27
M  V30 62 1 60 28
M  V30 63 1 61 28
M  V30 64 1 62 29
M  V30 65 1 63 29
M  V30 66 1 64 30
M  V30 67 1 65 30
M  V30 68 1 66 30
M  V30 69 1 32 67 CFG=1
M  V30 70 1 33 68 CFG=3
M  V30 71 1 69 34
M  V30 72 1 70 35
M  V30 73 1 71 13
M  V30 END BOND
M  V30 END CTAB
M  END
>  <i_epik_Tot_Q>  (1) 
0

>  <i_epik_Tot_abs_Q>  (1) 
2

>  <i_i_glide_confnum>  (1) 
1860

>  <i_i_glide_lignum>  (1) 
48

>  <i_i_glide_posenum>  (1) 
259

>  <i_i_glide_rotatable_bonds>  (1) 
13

>  <i_lp_mmshare_version>  (1) 
72125

>  <i_m_source_file_index>  (1) 
19

>  <i_f3d_flags>  (1) 
0

>  <num_sample>  (1) 
100

>  <b_lp_Chiralities_Consistent>  (1) 
1

>  <r_epik_Charging_Adjusted_Penalty>  (1) 
0.76693695219889413

>  <r_epik_Ionization_Penalty>  (1) 
0.76778133156762796

>  <r_epik_Ionization_Penalty_Charging>  (1) 
0.00011398914501928687

>  <r_epik_Ionization_Penalty_Neutral>  (1) 
0.7676673424226087

>  <r_epik_State_Penalty>  (1) 
0.76682296305387487

>  <r_glide_ring_energy>  (1) 
1.7561163794185919

>  <r_i_docking_score>  (1) 
-7.2469907096947326

>  <r_i_glide_ecoul>  (1) 
-7.0915653997725965

>  <r_i_glide_eff_state_penalty>  (1) 
0.76682296305387487

>  <r_i_glide_einternal>  (1) 
12.084718847360506

>  <r_i_glide_emodel>  (1) 
-73.331296370442402

>  <r_i_glide_emodel_strain>  (1) 
0.96041668199634955

>  <r_i_glide_energy>  (1) 
-53.005480319980443

>  <r_i_glide_erotb>  (1) 
0.89312676016186854

>  <r_i_glide_esite>  (1) 
-0.17181856450287208

>  <r_i_glide_evdw>  (1) 
-45.913914920207844

>  <r_i_glide_gscore>  (1) 
-8.0138136727486078

>  <r_i_glide_gscore_strain>  (1) 
0

>  <r_i_glide_hbond>  (1) 
-0.25276204043217859

>  <r_i_glide_ligand_efficiency>  (1) 
-0.20130529749152035

>  <r_i_glide_ligand_efficiency_ln>  (1) 
-1.5810975817928601

>  <r_i_glide_ligand_efficiency_sa>  (1) 
-0.66469544713409034

>  <r_i_glide_lipo>  (1) 
-3.1769244057989825

>  <r_i_glide_metal>  (1) 
-0

>  <r_i_glide_rewards>  (1) 
-1.9460048662001603

>  <r_lp_Energy>  (1) 
32.790411999999996

>  <r_lp_tautomer_probability>  (1) 
0.99929914239148299

>  <s_epik_Chemistry_Notes>  (1) 
This compound has an imine and may undergo hydrolysis. This compound contains an acetal/aminal-like group ( X-CH(R)-Y where X, Y are N, S, or O) that may be acid/base labile, releasing an aldehyde.

>  <s_epik_cmdline>  (1) 
J2VwaWtfcHl0aG9uJywgJy1waHQnLCAnMS4wJywgJy1waCcsICc3LjQnLCAnLXRuJywgJzgnLCAnLW1hJywgJzUwMCcsICctaW1hZScsICc8aW5maWxlLm1hZT4nLCAnLW9tYWUnLCAnPG91dGZpbGUubWFlPic=

>  <s_epik_input>  (1) 
W09IXUMoPU8pW0NASF0oW0NIM10pW0NAQEhdMVtDSF09W0NIXVxDKFtDSF09TkMxPU8pPVtDSF1cW0NASF0oW0NIM10pT1tDSDJdW0NIMl1DKD1PKVtOSF1bQ0gyXVtDQEhdKFtDSDNdKVtDQEBIXTJbQ0gyXVtOSF1bTkhdW0NASF0ybjNbY0hdW2NIXWMoW09IXSlbY0hdMw==

>  <s_glide_docking_method>  (1) 
confgen

>  <s_i_glide_gridfile>  (1) 
gpcr_5ht2c_6bqh_protein_autoprepared_prepared

>  <s_lp_Force_Field>  (1) 
S-OPLS

>  <s_lp_Variant>  (1) 
DiffSBDD_18_num_sample_100-8

>  <s_m_source_file>  (1) 
generated__ligand_DiffSBDD_2026-05-06_prepared.sdf

>  <GenAI_Model>  (1) 
DiffSBDD

>  <Protein>  (1) 
GPCR_5HT2C

$$$$
DiffSBDD_27_num_sample_100
     RDKit          3D

  0  0  0  0  0  0  0  0  0  0999 V3000
M  V30 BEGIN CTAB
M  V30 COUNTS 52 54 0 0 1
M  V30 BEGIN ATOM
M  V30 1 C 39.201289 27.105668 54.611673 0 CFG=1
M  V30 2 C 41.891030 27.221431 58.371788 0
M  V30 3 C 39.153199 29.713824 58.846927 0
M  V30 4 C 39.906019 28.918677 57.920739 0 CHG=-1
M  V30 5 C 39.067359 30.135833 61.130128 0
M  V30 6 C 39.994856 28.190178 51.339925 0
M  V30 7 C 40.536764 30.169854 49.853470 0
M  V30 8 N 40.603234 28.594616 60.083147 0 CHG=1
M  V30 9 F 38.154517 32.965247 62.253388 0
M  V30 10 C 39.913460 30.623607 52.233998 0
M  V30 11 C 38.939664 27.613770 56.042106 0
M  V30 12 C 38.202271 29.329196 53.598040 0
M  V30 13 O 38.825154 25.744288 54.653481 0
M  V30 14 C 37.539652 31.280881 59.612176 0
M  V30 15 C 38.122792 30.589925 58.539488 0
M  V30 16 C 39.700960 29.670229 51.038252 0 CFG=2
M  V30 17 C 38.846680 27.419082 52.031427 0
M  V30 18 N 39.458776 30.113114 53.548021 0 CHG=1
M  V30 19 C 40.838437 28.204471 58.748179 0
M  V30 20 C 39.782882 28.828079 56.443845 0
M  V30 21 C 39.632866 29.460975 60.051521 0
M  V30 22 C 38.015665 31.057498 60.915966 0
M  V30 23 O 37.467992 31.727946 61.965843 0
M  V30 24 C 38.410745 27.811731 53.467279 0 CFG=1
M  V30 25 H 40.267366 27.120988 54.410305 0
M  V30 26 H 42.362663 27.497633 57.429196 0
M  V30 27 H 42.669014 27.165544 59.127175 0
M  V30 28 H 41.458621 26.229132 58.253473 0
M  V30 29 H 39.432875 29.960227 62.131999 0
M  V30 30 H 40.943819 28.089316 51.853505 0
M  V30 31 H 40.152071 27.682877 50.386481 0
M  V30 32 H 41.604458 30.134607 50.070826 0
M  V30 33 H 40.354801 29.564734 48.966086 0
M  V30 34 H 40.285076 31.200890 49.600889 0
M  V30 35 H 40.963529 30.877486 52.323865 0
M  V30 36 H 39.467400 31.593748 52.032091 0
M  V30 37 H 37.878775 27.796698 56.219781 0
M  V30 38 H 39.210734 26.812675 56.733173 0
M  V30 39 H 37.516094 29.621430 52.816633 0
M  V30 40 H 37.684949 29.555727 54.530677 0
M  V30 41 H 39.315692 25.316825 55.339617 0
M  V30 42 H 36.734601 31.981190 59.435048 0
M  V30 43 H 37.777746 30.746525 57.527188 0
M  V30 44 H 38.667415 29.722571 50.712038 0
M  V30 45 H 39.127761 26.374104 52.033653 0
M  V30 46 H 37.970681 27.477575 51.383986 0
M  V30 47 H 40.188036 29.540750 53.945589 0
M  V30 48 H 40.778085 28.756324 56.004437 0
M  V30 49 H 39.348124 29.751513 56.073780 0
M  V30 50 H 37.398442 27.411377 53.564412 0
M  V30 51 H 39.344024 30.915727 54.152456 0
M  V30 52 H 41.101040 28.263873 60.895550 0
M  V30 END ATOM
M  V30 BEGIN BOND
M  V30 1 1 4 3
M  V30 2 1 11 1
M  V30 3 1 13 1
M  V30 4 1 15 3
M  V30 5 2 15 14
M  V30 6 1 16 6
M  V30 7 1 16 7
M  V30 8 1 16 10
M  V30 9 1 17 6
M  V30 10 1 18 10
M  V30 11 1 18 12
M  V30 12 1 19 2
M  V30 13 1 19 4
M  V30 14 2 19 8
M  V30 15 1 20 4
M  V30 16 1 20 11
M  V30 17 2 21 3
M  V30 18 1 21 5
M  V30 19 1 21 8
M  V30 20 2 22 5
M  V30 21 1 22 14
M  V30 22 1 23 9
M  V30 23 1 23 22
M  V30 24 1 24 1
M  V30 25 1 24 12
M  V30 26 1 24 17
M  V30 27 1 1 25 CFG=3
M  V30 28 1 26 2
M  V30 29 1 27 2
M  V30 30 1 28 2
M  V30 31 1 29 5
M  V30 32 1 30 6
M  V30 33 1 31 6
M  V30 34 1 32 7
M  V30 35 1 33 7
M  V30 36 1 34 7
M  V30 37 1 35 10
M  V30 38 1 36 10
M  V30 39 1 37 11
M  V30 40 1 38 11
M  V30 41 1 39 12
M  V30 42 1 40 12
M  V30 43 1 41 13
M  V30 44 1 42 14
M  V30 45 1 43 15
M  V30 46 1 16 44 CFG=3
M  V30 47 1 45 17
M  V30 48 1 46 17
M  V30 49 1 47 18
M  V30 50 1 48 20
M  V30 51 1 49 20
M  V30 52 1 24 50 CFG=1
M  V30 53 1 51 18
M  V30 54 1 52 8
M  V30 END BOND
M  V30 END CTAB
M  END
>  <i_epik_Tot_Q>  (1) 
1

>  <i_epik_Tot_abs_Q>  (1) 
3

>  <i_i_glide_confnum>  (1) 
11

>  <i_i_glide_lignum>  (1) 
68

>  <i_i_glide_posenum>  (1) 
224

>  <i_i_glide_rotatable_bonds>  (1) 
6

>  <i_lp_mmshare_version>  (1) 
72125

>  <i_m_source_file_index>  (1) 
28

>  <i_f3d_flags>  (1) 
2

>  <num_sample>  (1) 
100

>  <b_lp_Chiralities_Consistent>  (1) 
0

>  <r_epik_Charging_Adjusted_Penalty>  (1) 
0.00098671700734174138

>  <r_epik_Ionization_Penalty>  (1) 
0.00098676197071069244

>  <r_epik_Ionization_Penalty_Charging>  (1) 
0.00098671700734174138

>  <r_epik_Ionization_Penalty_Neutral>  (1) 
4.4963368951131644e-08

>  <r_epik_State_Penalty>  (1) 
-0

>  <r_glide_ring_energy>  (1) 
0

>  <r_i_docking_score>  (1) 
-7.2459495829818481

>  <r_i_glide_ecoul>  (1) 
-1.5552118371017041

>  <r_i_glide_eff_state_penalty>  (1) 
-0

>  <r_i_glide_einternal>  (1) 
3.2907323213882078

>  <r_i_glide_emodel>  (1) 
-51.293277860774104

>  <r_i_glide_emodel_strain>  (1) 
0.14943079938807102

>  <r_i_glide_energy>  (1) 
-31.180111506485485

>  <r_i_glide_erotb>  (1) 
0.67091893137299763

>  <r_i_glide_esite>  (1) 
0

>  <r_i_glide_evdw>  (1) 
-29.62489966938378

>  <r_i_glide_gscore>  (1) 
-7.2459495829818481

>  <r_i_glide_gscore_strain>  (1) 
0

>  <r_i_glide_hbond>  (1) 
-0.32000000000000001

>  <r_i_glide_ligand_efficiency>  (1) 
-0.30191456595757699

>  <r_i_glide_ligand_efficiency_ln>  (1) 
-1.7342882301682576

>  <r_i_glide_ligand_efficiency_sa>  (1) 
-0.87087230604372634

>  <r_i_glide_lipo>  (1) 
-3.8469795281707846

>  <r_i_glide_metal>  (1) 
-0

>  <r_i_glide_rewards>  (1) 
-2.0353622271496166

>  <r_lp_Energy>  (1) 
34.541933999999998

>  <r_lp_tautomer_probability>  (1) 
1

>  <s_epik_cmdline>  (1) 
J2VwaWtfcHl0aG9uJywgJy1waHQnLCAnMS4wJywgJy1waCcsICc3LjQnLCAnLXRuJywgJzgnLCAnLW1hJywgJzUwMCcsICctaW1hZScsICc8aW5maWxlLm1hZT4nLCAnLW9tYWUnLCAnPG91dGZpbGUubWFlPic=

>  <s_epik_input>  (1) 
W0NIM11bQ0BIXTFbQ0gyXVtDSDJdW0NASF0oW0NIMl1bTkhdW0NIMl0xKVtDQEhdKFtPSF0pW0NIMl1bQ0gyXVtDQEBIXTJDKFtDSDNdKT1OYyhjMjMpW2NIXWMoT0YpW2NIXVtjSF0z

>  <s_glide_docking_method>  (1) 
confgen

>  <s_i_glide_gridfile>  (1) 
gpcr_5ht2c_6bqh_protein_autoprepared_prepared

>  <s_lp_Force_Field>  (1) 
S-OPLS

>  <s_lp_Variant>  (1) 
DiffSBDD_27_num_sample_100-1

>  <s_m_source_file>  (1) 
generated__ligand_DiffSBDD_2026-05-06_prepared.sdf

>  <GenAI_Model>  (1) 
DiffSBDD

>  <Protein>  (1) 
GPCR_5HT2C

$$$$
DiffSBDD_66_num_sample_100
     RDKit          3D

  0  0  0  0  0  0  0  0  0  0999 V3000
M  V30 BEGIN CTAB
M  V30 COUNTS 112 116 0 0 1
M  V30 BEGIN ATOM
M  V30 1 C 38.904530 28.538463 55.716994 0
M  V30 2 C 41.861646 31.810639 62.653541 0
M  V30 3 C 34.541301 34.421429 58.875309 0
M  V30 4 C 40.218825 35.744686 66.811785 0
M  V30 5 C 45.813965 27.175917 70.020599 0
M  V30 6 C 45.610911 24.704132 70.761342 0
M  V30 7 C 36.739179 34.724612 59.858718 0
M  V30 8 S 41.145654 34.810539 62.834395 0
M  V30 9 C 40.663880 32.239061 61.829941 0 CFG=1
M  V30 10 C 39.405693 29.928162 55.762403 0
M  V30 11 C 38.839186 29.304422 58.734015 0
M  V30 12 C 39.003396 30.542652 58.212571 0
M  V30 13 C 43.719122 28.701409 69.671479 0
M  V30 14 C 38.090408 26.669764 54.893058 0
M  V30 15 C 42.699561 31.370607 66.110858 0 CFG=2
M  V30 16 C 39.171414 28.007112 58.073960 0
M  V30 17 C 38.695851 31.775962 59.083002 0
M  V30 18 O 41.867290 27.949336 68.268527 0
M  V30 19 C 37.817746 32.891056 61.271003 0 CFG=1
M  V30 20 N 38.526573 27.935660 54.602299 0 CHG=1
M  V30 21 C 35.683218 35.208750 59.084267 0
M  V30 22 C 36.657766 33.439919 60.444829 0
M  V30 23 C 44.367475 27.324728 69.493403 0
M  V30 24 C 37.956749 25.334416 57.153750 0
M  V30 25 C 39.459124 30.779932 56.825560 0
M  V30 26 C 42.531387 32.923567 66.155323 0
M  V30 27 C 46.397466 25.749545 69.957784 0 CFG=1
M  V30 28 C 41.565151 30.593324 66.824955 0
M  V30 29 C 38.443690 31.619338 60.617906 0 CFG=2
M  V30 30 C 39.668417 31.093298 61.444575 0 CFG=2
M  V30 31 C 42.466237 35.757930 65.798600 0
M  V30 32 C 41.352689 30.972017 68.290892 0
M  V30 33 N 38.760845 27.702664 56.729038 0
M  V30 34 C 35.501232 32.656502 60.249827 0
M  V30 35 C 38.239343 26.501872 56.263218 0
M  V30 36 C 44.042286 31.036984 66.798948 0
M  V30 37 O 46.492875 25.325059 68.616491 0
M  V30 38 C 42.841645 30.842546 64.659156 0
M  V30 39 C 41.132824 33.570380 65.890033 0
M  V30 40 C 41.072469 35.133356 65.679687 0
M  V30 41 C 39.972657 33.449758 62.498622 0 CFG=2
M  V30 42 N 41.715441 31.203832 63.784379 0 CHG=1
M  V30 43 C 41.629764 30.195498 69.371911 0
M  V30 44 C 40.473928 35.620907 64.315024 0
M  V30 45 C 34.445306 33.149304 59.462749 0
M  V30 46 C 39.158012 30.241196 62.624835 0
M  V30 47 C 44.419327 29.779655 70.080731 0
M  V30 48 C 42.219838 28.771373 69.358294 0 CFG=2
M  V30 49 C 38.881595 33.962856 61.581328 0
M  V30 50 H 42.872037 32.021177 62.319669 0
M  V30 51 H 33.729659 34.799678 58.270815 0
M  V30 52 H 39.195655 35.371482 66.801359 0
M  V30 53 H 40.164141 36.830750 66.726768 0
M  V30 54 H 40.639175 35.517205 67.792119 0
M  V30 55 H 46.471808 27.834169 69.451624 0
M  V30 56 H 45.856024 27.514802 71.056974 0
M  V30 57 H 45.492988 25.016001 71.799151 0
M  V30 58 H 46.131820 23.746320 70.762507 0
M  V30 59 H 44.617267 24.531563 70.347374 0
M  V30 60 H 37.610736 35.340097 59.999304 0
M  V30 61 H 39.729691 30.320812 54.809358 0
M  V30 62 H 38.494838 29.212633 59.749141 0
M  V30 63 H 37.724491 25.994585 54.131731 0
M  V30 64 H 40.253343 27.876438 58.111911 0
M  V30 65 H 38.763195 27.236796 58.726713 0
M  V30 66 H 39.467010 32.531503 58.928357 0
M  V30 67 H 37.810328 32.189193 58.600890 0
M  V30 68 H 40.967818 27.664518 68.398288 0
M  V30 69 H 37.382347 32.594602 62.226908 0
M  V30 70 H 35.746612 36.192403 58.653475 0
M  V30 71 H 44.342689 27.072494 68.433192 0
M  V30 72 H 43.720886 26.607895 69.997706 0
M  V30 73 H 37.633430 24.477002 56.562321 0
M  V30 74 H 37.161142 25.582147 57.856558 0
M  V30 75 H 38.850524 25.049099 57.709624 0
M  V30 76 H 39.820974 31.775189 56.611249 0
M  V30 77 H 42.845538 33.259739 67.143809 0
M  V30 78 H 43.261903 33.332054 65.458095 0
M  V30 79 H 47.412973 25.787344 70.355174 0
M  V30 80 H 40.616744 30.796111 66.328073 0
M  V30 81 H 41.724754 29.541244 66.647480 0
M  V30 82 H 37.646118 30.880552 60.680771 0
M  V30 83 H 40.225008 30.402155 60.811701 0
M  V30 84 H 43.067664 35.588978 64.907234 0
M  V30 85 H 42.993457 35.371227 66.653510 0
M  V30 86 H 42.431812 36.821418 65.982454 0
M  V30 87 H 40.943436 31.956033 68.461181 0
M  V30 88 H 35.428784 31.675418 60.693959 0
M  V30 89 H 44.885918 31.491130 66.276627 0
M  V30 90 H 44.222343 29.961230 66.833540 0
M  V30 91 H 44.076272 31.405186 67.823770 0
M  V30 92 H 45.628296 25.345475 68.235915 0
M  V30 93 H 43.761236 31.214753 64.208459 0
M  V30 94 H 42.906017 29.753389 64.644443 0
M  V30 95 H 40.654681 33.066271 65.072239 0
M  V30 96 H 40.495083 33.310014 66.731948 0
M  V30 97 H 39.483809 33.139843 63.416792 0
M  V30 98 H 41.426389 30.598506 70.353524 0
M  V30 99 H 39.393835 35.621440 64.253536 0
M  V30 100 H 40.690722 36.681231 64.198343 0
M  V30 101 H 33.564013 32.549564 59.306169 0
M  V30 102 H 38.802245 30.844775 63.453403 0
M  V30 103 H 39.913020 29.548543 62.996219 0
M  V30 104 H 38.322202 29.621461 62.320877 0
M  V30 105 H 43.947142 30.741005 70.202909 0
M  V30 106 H 45.468125 29.712470 70.297816 0
M  V30 107 H 41.741554 28.277667 70.205212 0
M  V30 108 H 38.409440 34.825018 62.054655 0
M  V30 109 H 39.350436 34.313881 60.661053 0
M  V30 110 H 38.542864 28.354409 53.679990 0
M  V30 111 H 41.075343 32.598532 60.887517 0
M  V30 112 H 40.779114 30.989540 64.116507 0
M  V30 END ATOM
M  V30 BEGIN BOND
M  V30 1 1 9 2
M  V30 2 1 10 1
M  V30 3 2 12 11
M  V30 4 1 16 11
M  V30 5 1 17 12
M  V30 6 2 20 1
M  V30 7 1 20 14
M  V30 8 2 21 3
M  V30 9 1 21 7
M  V30 10 2 22 7
M  V30 11 1 22 19
M  V30 12 1 23 5
M  V30 13 1 23 13
M  V30 14 2 25 10
M  V30 15 1 25 12
M  V30 16 1 26 15
M  V30 17 1 27 5
M  V30 18 1 27 6
M  V30 19 1 15 28 CFG=1
M  V30 20 1 29 17
M  V30 21 1 29 19
M  V30 22 1 30 9
M  V30 23 1 30 29
M  V30 24 1 32 28
M  V30 25 1 33 1
M  V30 26 1 33 16
M  V30 27 1 34 22
M  V30 28 2 35 14
M  V30 29 1 35 24
M  V30 30 1 35 33
M  V30 31 1 36 15
M  V30 32 1 37 27
M  V30 33 1 38 15
M  V30 34 1 39 26
M  V30 35 1 40 4
M  V30 36 1 40 31
M  V30 37 1 40 39
M  V30 38 1 41 8
M  V30 39 1 41 9
M  V30 40 2 42 2
M  V30 41 1 42 38
M  V30 42 2 43 32
M  V30 43 1 44 8
M  V30 44 1 44 40
M  V30 45 1 45 3
M  V30 46 2 45 34
M  V30 47 1 46 30
M  V30 48 2 47 13
M  V30 49 1 48 13
M  V30 50 1 48 18
M  V30 51 1 48 43
M  V30 52 1 49 19
M  V30 53 1 49 41
M  V30 54 1 50 2
M  V30 55 1 51 3
M  V30 56 1 52 4
M  V30 57 1 53 4
M  V30 58 1 54 4
M  V30 59 1 55 5
M  V30 60 1 56 5
M  V30 61 1 57 6
M  V30 62 1 58 6
M  V30 63 1 59 6
M  V30 64 1 60 7
M  V30 65 1 61 10
M  V30 66 1 62 11
M  V30 67 1 63 14
M  V30 68 1 64 16
M  V30 69 1 65 16
M  V30 70 1 66 17
M  V30 71 1 67 17
M  V30 72 1 68 18
M  V30 73 1 19 69 CFG=1
M  V30 74 1 70 21
M  V30 75 1 71 23
M  V30 76 1 72 23
M  V30 77 1 73 24
M  V30 78 1 74 24
M  V30 79 1 75 24
M  V30 80 1 76 25
M  V30 81 1 77 26
M  V30 82 1 78 26
M  V30 83 1 27 79 CFG=1
M  V30 84 1 80 28
M  V30 85 1 81 28
M  V30 86 1 29 82 CFG=3
M  V30 87 1 30 83 CFG=3
M  V30 88 1 84 31
M  V30 89 1 85 31
M  V30 90 1 86 31
M  V30 91 1 87 32
M  V30 92 1 88 34
M  V30 93 1 89 36
M  V30 94 1 90 36
M  V30 95 1 91 36
M  V30 96 1 92 37
M  V30 97 1 93 38
M  V30 98 1 94 38
M  V30 99 1 95 39
M  V30 100 1 96 39
M  V30 101 1 41 97 CFG=1
M  V30 102 1 98 43
M  V30 103 1 99 44
M  V30 104 1 100 44
M  V30 105 1 101 45
M  V30 106 1 102 46
M  V30 107 1 103 46
M  V30 108 1 104 46
M  V30 109 1 105 47
M  V30 110 1 106 47
M  V30 111 1 48 107 CFG=1
M  V30 112 1 108 49
M  V30 113 1 109 49
M  V30 114 1 110 20
M  V30 115 1 9 111 CFG=3
M  V30 116 1 112 42
M  V30 END BOND
M  V30 END CTAB
M  END
>  <i_epik_Tot_Q>  (1) 
2

>  <i_epik_Tot_abs_Q>  (1) 
2

>  <i_i_glide_confnum>  (1) 
125

>  <i_i_glide_lignum>  (1) 
165

>  <i_i_glide_posenum>  (1) 
142

>  <i_i_glide_rotatable_bonds>  (1) 
12

>  <i_lp_mmshare_version>  (1) 
72125

>  <i_m_source_file_index>  (1) 
67

>  <i_f3d_flags>  (1) 
0

>  <num_sample>  (1) 
100

>  <b_lp_Chiralities_Consistent>  (1) 
1

>  <r_epik_Charging_Adjusted_Penalty>  (1) 
0.52025287817150023

>  <r_epik_Ionization_Penalty>  (1) 
3.4472135568412994

>  <r_epik_Ionization_Penalty_Charging>  (1) 
0.14055655438482481

>  <r_epik_Ionization_Penalty_Neutral>  (1) 
3.3066570024564745

>  <r_epik_State_Penalty>  (1) 
0.37969632378667539

>  <r_glide_ring_energy>  (1) 
0

>  <r_i_docking_score>  (1) 
-7.2323209521204586

>  <r_i_glide_ecoul>  (1) 
-1.667667864096098

>  <r_i_glide_eff_state_penalty>  (1) 
0.37969632378667539

>  <r_i_glide_einternal>  (1) 
16.777042163131537

>  <r_i_glide_emodel>  (1) 
-93.464396071220179

>  <r_i_glide_emodel_strain>  (1) 
1.023430095713735

>  <r_i_glide_energy>  (1) 
-42.941248801919208

>  <r_i_glide_erotb>  (1) 
0.28524200512041686

>  <r_i_glide_esite>  (1) 
0

>  <r_i_glide_evdw>  (1) 
-41.273580937823112

>  <r_i_glide_gscore>  (1) 
-7.6120172759071343

>  <r_i_glide_gscore_strain>  (1) 
0

>  <r_i_glide_hbond>  (1) 
-0.32000000000000001

>  <r_i_glide_ligand_efficiency>  (1) 
-0.14759838677796855

>  <r_i_glide_ligand_efficiency_ln>  (1) 
-1.4784518873094756

>  <r_i_glide_ligand_efficiency_sa>  (1) 
-0.54010761952679942

>  <r_i_glide_lipo>  (1) 
-4.1152934980611748

>  <r_i_glide_metal>  (1) 
-0

>  <r_i_glide_rewards>  (1) 
-1.1481365564608059

>  <r_lp_Energy>  (1) 
65.466734000000002

>  <s_epik_Chemistry_Notes>  (1) 
This compound has an imine and may undergo hydrolysis.

>  <s_epik_cmdline>  (1) 
J2VwaWtfcHl0aG9uJywgJy1waHQnLCAnMS4wJywgJy1waCcsICc3LjQnLCAnLXRuJywgJzgnLCAnLW1hJywgJzUwMCcsICctaW1hZScsICc8aW5maWxlLm1hZT4nLCAnLW9tYWUnLCAnPG91dGZpbGUubWFlPic=

>  <s_epik_input>  (1) 
bjFbY0hdYyhbQ0gzXSluKGMxMilbQ0gyXVtDSF09QyhbQ0hdPVtDSF0yKVtDSDJdW0NAQEhdKFtDQEBIXTNbQ0gzXSlbQ0BIXShjNFtjSF1bY0hdW2NIXVtjSF1bY0hdNClbQ0gyXVtDQEBIXShbQ0BIXTM1KVNbQ0gyXUMoW0NIM10pKFtDSDNdKVtDSDJdW0NIMl1bQ0BdKFtDSDNdKShbQ0gyXVxOPVtDSF1cNSlbQ0gyXS9bQ0hdPVtDSF1cW0NAQEhdKFtPSF0pQyg9W0NIMl0pW0NIMl1bQ0gyXVtDQEBIXShbQ0gzXSlbT0hd

>  <s_glide_docking_method>  (1) 
confgen

>  <s_i_glide_gridfile>  (1) 
gpcr_5ht2c_6bqh_protein_autoprepared_prepared

>  <s_lp_Force_Field>  (1) 
S-OPLS

>  <s_lp_Variant>  (1) 
DiffSBDD_66_num_sample_100-2

>  <s_m_source_file>  (1) 
generated__ligand_DiffSBDD_2026-05-06_prepared.sdf

>  <GenAI_Model>  (1) 
DiffSBDD

>  <Protein>  (1) 
GPCR_5HT2C

$$$$
DiffSBDD_42_num_sample_100
     RDKit          3D

  0  0  0  0  0  0  0  0  0  0999 V3000
M  V30 BEGIN CTAB
M  V30 COUNTS 70 74 0 0 1
M  V30 BEGIN ATOM
M  V30 1 O 41.184129 35.420973 62.455631 0
M  V30 2 C 39.267047 36.955187 65.215464 0
M  V30 3 C 38.896690 28.788826 55.431445 0
M  V30 4 C 41.067443 28.510493 63.540600 0
M  V30 5 O 37.993193 30.186804 58.871284 0
M  V30 6 C 39.867439 36.421434 63.951710 0
M  V30 7 C 39.853060 29.308862 60.302660 0
M  V30 8 C 38.533374 32.616855 61.730352 0
M  V30 9 C 42.034557 35.143564 64.748305 0
M  V30 10 C 40.587551 29.944260 63.457362 0 CFG=2
M  V30 11 C 40.117741 36.047694 61.882057 0
M  V30 12 C 41.007065 35.677786 63.789356 0
M  V30 13 O 40.465266 30.629872 62.218478 0
M  V30 14 C 39.970723 30.143894 53.750526 0
M  V30 15 C 39.352141 30.191969 61.438297 0 CFG=1
M  V30 16 C 40.192741 30.433955 52.457408 0
M  V30 17 C 41.206761 32.857279 64.193959 0
M  V30 18 Cl 37.124528 27.208053 53.535715 0
M  V30 19 C 38.816455 28.342771 56.665579 0
M  V30 20 O 40.960129 28.773679 60.347915 0
M  V30 21 N 41.793228 33.752421 65.224912 0 CFG=2 CHG=1
M  V30 22 C 38.301745 28.402588 53.110057 0
M  V30 23 C 38.577394 31.365123 60.865614 0
M  V30 24 C 37.443867 33.611255 61.286849 0
M  V30 25 C 39.048376 29.098930 54.160825 0
M  V30 26 P 41.479629 31.069246 64.546217 0 CFG=2
M  V30 27 C 39.530266 29.700670 51.306972 0
M  V30 28 C 37.173909 32.456433 59.053300 0
M  V30 29 C 38.516118 28.678843 51.807804 0
M  V30 30 O 42.363947 30.623820 65.658329 0
M  V30 31 C 38.911897 29.107272 59.103375 0 CFG=2
M  V30 32 C 37.446297 33.792269 59.764007 0
M  V30 33 C 37.958049 31.312349 59.666028 0
M  V30 34 C 39.687105 28.874772 57.789523 0
M  V30 35 C 41.080083 33.708716 66.524579 0
M  V30 36 N 39.280097 36.659200 62.720416 0
M  V30 37 O 39.945447 30.527058 64.600510 0
M  V30 38 H 39.671382 36.462891 66.098506 0
M  V30 39 H 38.185324 36.821429 65.229134 0
M  V30 40 H 39.467396 38.021368 65.320554 0
M  V30 41 H 40.326312 27.844468 63.100959 0
M  V30 42 H 41.220431 28.213931 64.578509 0
M  V30 43 H 42.006980 28.394410 62.999859 0
M  V30 44 H 39.512786 33.092632 61.686308 0
M  V30 45 H 38.357578 32.328560 62.762784 0
M  V30 46 H 43.002670 35.142207 64.253513 0
M  V30 47 H 42.153254 35.827070 65.590736 0
M  V30 48 H 39.976929 36.021465 60.811447 0
M  V30 49 H 40.494965 30.708761 54.508999 0
M  V30 50 H 38.667438 29.620960 62.066223 0
M  V30 51 H 40.883499 31.221444 52.195339 0
M  V30 52 H 41.673883 33.041280 63.226370 0
M  V30 53 H 40.139891 33.046338 64.088820 0
M  V30 54 H 38.119781 27.559826 56.927307 0
M  V30 55 H 36.464358 33.247516 61.601393 0
M  V30 56 H 37.584549 34.571173 61.782838 0
M  V30 57 H 39.067390 30.418659 50.633350 0
M  V30 58 H 40.297288 29.180851 50.732386 0
M  V30 59 H 37.421682 32.537614 57.993847 0
M  V30 60 H 36.113267 32.210515 59.111595 0
M  V30 61 H 37.952886 28.149330 51.053546 0
M  V30 62 H 38.319246 28.219326 59.324014 0
M  V30 63 H 38.415896 34.181822 59.453027 0
M  V30 64 H 36.702370 34.530726 59.462273 0
M  V30 65 H 40.471570 28.131915 57.940414 0
M  V30 66 H 40.186791 29.793997 57.480580 0
M  V30 67 H 40.094981 34.163604 66.460429 0
M  V30 68 H 41.643893 34.248144 67.286572 0
M  V30 69 H 40.956037 32.687065 66.884159 0
M  V30 70 H 42.708004 33.369000 65.422662 0
M  V30 END ATOM
M  V30 BEGIN BOND
M  V30 1 1 6 2
M  V30 2 1 10 4
M  V30 3 1 11 1
M  V30 4 1 12 1
M  V30 5 2 12 6
M  V30 6 1 12 9
M  V30 7 1 10 13 CFG=3
M  V30 8 1 15 7
M  V30 9 1 15 13
M  V30 10 2 16 14
M  V30 11 2 19 3
M  V30 12 2 20 7
M  V30 13 1 21 9
M  V30 14 1 21 17
M  V30 15 1 22 18
M  V30 16 1 23 8
M  V30 17 1 23 15
M  V30 18 1 24 8
M  V30 19 2 25 3
M  V30 20 1 25 14
M  V30 21 1 25 22
M  V30 22 1 26 10
M  V30 23 1 26 17 CFG=3
M  V30 24 1 27 16
M  V30 25 2 29 22
M  V30 26 1 29 27
M  V30 27 2 30 26
M  V30 28 1 31 5
M  V30 29 1 31 7
M  V30 30 1 32 24
M  V30 31 1 32 28
M  V30 32 1 33 5
M  V30 33 2 33 23
M  V30 34 1 33 28
M  V30 35 1 34 19
M  V30 36 1 34 31
M  V30 37 1 35 21
M  V30 38 1 36 6
M  V30 39 2 36 11
M  V30 40 1 37 10
M  V30 41 1 37 26
M  V30 42 1 38 2
M  V30 43 1 39 2
M  V30 44 1 40 2
M  V30 45 1 41 4
M  V30 46 1 42 4
M  V30 47 1 43 4
M  V30 48 1 44 8
M  V30 49 1 45 8
M  V30 50 1 46 9
M  V30 51 1 47 9
M  V30 52 1 48 11
M  V30 53 1 49 14
M  V30 54 1 15 50 CFG=1
M  V30 55 1 51 16
M  V30 56 1 52 17
M  V30 57 1 53 17
M  V30 58 1 54 19
M  V30 59 1 55 24
M  V30 60 1 56 24
M  V30 61 1 57 27
M  V30 62 1 58 27
M  V30 63 1 59 28
M  V30 64 1 60 28
M  V30 65 1 61 29
M  V30 66 1 31 62 CFG=1
M  V30 67 1 63 32
M  V30 68 1 64 32
M  V30 69 1 65 34
M  V30 70 1 66 34
M  V30 71 1 67 35
M  V30 72 1 68 35
M  V30 73 1 69 35
M  V30 74 1 21 70 CFG=1
M  V30 END BOND
M  V30 END CTAB
M  END
>  <i_epik_Tot_Q>  (1) 
1

>  <i_epik_Tot_abs_Q>  (1) 
1

>  <i_i_glide_confnum>  (1) 
664

>  <i_i_glide_lignum>  (1) 
104

>  <i_i_glide_posenum>  (1) 
125

>  <i_i_glide_rotatable_bonds>  (1) 
8

>  <i_lp_mmshare_version>  (1) 
72125

>  <i_m_source_file_index>  (1) 
43

>  <i_f3d_flags>  (1) 
0

>  <num_sample>  (1) 
100

>  <b_lp_Chiralities_Consistent>  (1) 
1

>  <r_epik_Charging_Adjusted_Penalty>  (1) 
0.2152556309207356

>  <r_epik_Ionization_Penalty>  (1) 
0.1076280395274669

>  <r_epik_Ionization_Penalty_Charging>  (1) 
0.10762781546036781

>  <r_epik_Ionization_Penalty_Neutral>  (1) 
2.2406709908736756e-07

>  <r_epik_State_Penalty>  (1) 
0.10762781546036779

>  <r_glide_ring_energy>  (1) 
0

>  <r_i_docking_score>  (1) 
-7.2321621061140986

>  <r_i_glide_ecoul>  (1) 
-1.8705743508900423

>  <r_i_glide_eff_state_penalty>  (1) 
0.10762781546036779

>  <r_i_glide_einternal>  (1) 
23.486313805367278

>  <r_i_glide_emodel>  (1) 
-60.166380250973944

>  <r_i_glide_emodel_strain>  (1) 
0.41639925471589834

>  <r_i_glide_energy>  (1) 
-50.680541618205602

>  <r_i_glide_erotb>  (1) 
0.55194975081301367

>  <r_i_glide_esite>  (1) 
-0.035023465440793648

>  <r_i_glide_evdw>  (1) 
-48.809967267315557

>  <r_i_glide_gscore>  (1) 
-7.3397899215744662

>  <r_i_glide_gscore_strain>  (1) 
0

>  <r_i_glide_hbond>  (1) 
-0.086549305497147594

>  <r_i_glide_ligand_efficiency>  (1) 
-0.19546384070578646

>  <r_i_glide_ligand_efficiency_ln>  (1) 
-1.5684864148810382

>  <r_i_glide_ligand_efficiency_sa>  (1) 
-0.65132888120646548

>  <r_i_glide_lipo>  (1) 
-3.8872098637666084

>  <r_i_glide_metal>  (1) 
-0

>  <r_i_glide_rewards>  (1) 
-1.1618725216836463

>  <r_lp_Energy>  (1) 
6.6760409999999997

>  <r_lp_tautomer_probability>  (1) 
0.99995000000000001

>  <s_epik_cmdline>  (1) 
J2VwaWtfcHl0aG9uJywgJy1waHQnLCAnMS4wJywgJy1waCcsICc3LjQnLCAnLXRuJywgJzgnLCAnLW1hJywgJzUwMCcsICctaW1hZScsICc8aW5maWxlLm1hZT4nLCAnLW9tYWUnLCAnPG91dGZpbGUubWFlPic=

>  <s_epik_input>  (1) 
bjFbY0hdb2MoYzFbQ0gzXSlbQ0gyXU4oW0NIM10pW0NIMl1bUEBAXSg9TykoTzIpW0NAXTIoW0NIM10pT1tDQEBIXTNDKD1PKVtDQEBIXShPQyg9QzM0KVtDSDJdW0NIMl1bQ0gyXVtDSDJdNClbQ0gyXVtDSF09Qz1DNVtDSF09W0NIXVtDSDJdW0NIXT1DNUNs

>  <s_glide_docking_method>  (1) 
confgen

>  <s_i_glide_gridfile>  (1) 
gpcr_5ht2c_6bqh_protein_autoprepared_prepared

>  <s_lp_Force_Field>  (1) 
S-OPLS

>  <s_lp_Variant>  (1) 
DiffSBDD_42_num_sample_100-1

>  <s_m_source_file>  (1) 
generated__ligand_DiffSBDD_2026-05-06_prepared.sdf

>  <GenAI_Model>  (1) 
DiffSBDD

>  <Protein>  (1) 
GPCR_5HT2C

$$$$
DiffSBDD_26_num_sample_100
     RDKit          3D

  0  0  0  0  0  0  0  0  0  0999 V3000
M  V30 BEGIN CTAB
M  V30 COUNTS 63 66 0 0 1
M  V30 BEGIN ATOM
M  V30 1 C 36.529258 30.563428 59.982859 0
M  V30 2 C 38.965112 34.703526 61.738952 0
M  V30 3 N 38.624766 29.167051 57.055085 0
M  V30 4 C 38.899707 30.215253 56.178380 0
M  V30 5 C 38.406412 37.079387 61.497742 0
M  V30 6 O 40.089336 28.611293 61.072472 0
M  V30 7 C 38.254833 28.868378 54.072642 0
M  V30 8 C 38.643220 30.439757 61.655959 0
M  V30 9 C 39.874769 25.968234 55.502855 0
M  V30 10 C 37.576510 32.759622 60.971445 0
M  V30 11 C 39.016942 29.904322 54.684697 0
M  V30 12 C 37.912333 25.478218 56.859808 0
M  V30 13 C 40.503523 36.421432 62.554214 0
M  V30 14 O 41.048983 34.101547 62.801051 0
M  V30 15 C 37.067404 30.434624 58.572068 0
M  V30 16 C 39.458743 29.592453 60.687469 0
M  V30 17 C 39.467404 30.012934 59.229485 0
M  V30 18 C 39.307326 29.343713 51.923333 0
M  V30 19 O 39.467401 29.031203 50.588144 0
M  V30 20 C 40.182253 35.065941 62.367310 0
M  V30 21 C 38.072400 35.726741 61.300000 0
M  V30 22 N 40.267403 29.961364 49.837553 0
M  V30 23 C 38.938317 25.050792 56.003458 0
M  V30 24 N 38.661759 33.292314 61.592324 0
M  V30 25 O 39.067406 31.372862 56.565174 0
M  V30 26 C 38.259037 29.488799 58.453833 0 CFG=2
M  V30 27 C 39.617017 37.424159 62.124858 0
M  V30 28 C 40.017309 30.418762 52.519249 0
M  V30 29 C 38.734860 27.768877 56.690321 0
M  V30 30 C 39.783738 27.322807 55.847193 0
M  V30 31 C 37.810886 26.831869 57.209725 0
M  V30 32 O 37.554110 38.060770 61.081466 0
M  V30 33 C 37.422653 31.229394 61.070880 0 CFG=1
M  V30 34 O 36.738287 33.416053 60.365246 0
M  V30 35 C 39.867403 30.692263 53.888382 0
M  V30 36 C 38.415659 28.585958 52.703099 0
M  V30 37 H 36.267373 29.553907 60.253503 0
M  V30 38 H 35.581064 31.101363 59.927421 0
M  V30 39 H 37.559331 28.284035 54.652468 0
M  V30 40 H 39.341497 31.069630 62.201957 0
M  V30 41 H 38.267406 29.752069 62.413009 0
M  V30 42 H 40.667363 25.629577 54.853570 0
M  V30 43 H 37.197478 24.765521 57.244779 0
M  V30 44 H 41.432479 36.694738 63.035171 0
M  V30 45 H 40.636306 33.309419 63.101232 0
M  V30 46 H 37.276119 31.436176 58.200281 0
M  V30 47 H 36.269516 30.021649 57.949032 0
M  V30 48 H 39.467402 31.100155 59.178876 0
M  V30 49 H 40.391526 29.639855 58.784457 0
M  V30 50 H 37.141340 35.492562 60.829903 0
M  V30 51 H 36.774557 37.735763 60.656804 0
M  V30 52 H 39.690757 30.787727 49.760965 0
M  V30 53 H 41.035439 30.195575 50.448673 0
M  V30 54 H 39.010238 24.021431 55.733235 0
M  V30 55 H 39.308394 32.650142 62.016767 0
M  V30 56 H 37.967536 28.577231 58.966847 0
M  V30 57 H 39.867404 38.462972 62.274986 0
M  V30 58 H 40.688835 31.026182 51.935833 0
M  V30 59 H 40.514041 28.019981 55.466771 0
M  V30 60 H 37.009997 27.154088 57.853504 0
M  V30 61 H 36.738184 31.221427 61.911233 0
M  V30 62 H 40.426228 31.500785 54.336663 0
M  V30 63 H 37.853728 27.781864 52.249574 0
M  V30 END ATOM
M  V30 BEGIN BOND
M  V30 1 1 4 3
M  V30 2 1 11 4
M  V30 3 2 11 7
M  V30 4 1 15 1
M  V30 5 2 16 6
M  V30 6 1 16 8
M  V30 7 1 17 16
M  V30 8 1 19 18
M  V30 9 1 20 2
M  V30 10 2 20 13
M  V30 11 1 20 14
M  V30 12 2 21 2
M  V30 13 1 21 5
M  V30 14 1 22 19
M  V30 15 2 23 9
M  V30 16 1 23 12
M  V30 17 1 24 2
M  V30 18 1 24 10
M  V30 19 2 25 4
M  V30 20 1 26 3
M  V30 21 1 26 15
M  V30 22 1 26 17
M  V30 23 2 27 5
M  V30 24 1 27 13
M  V30 25 1 28 18
M  V30 26 1 29 3
M  V30 27 1 30 9
M  V30 28 2 30 29
M  V30 29 2 31 12
M  V30 30 1 31 29
M  V30 31 1 32 5
M  V30 32 1 33 1
M  V30 33 1 33 8
M  V30 34 1 33 10
M  V30 35 2 34 10
M  V30 36 1 35 11
M  V30 37 2 35 28
M  V30 38 1 36 7
M  V30 39 2 36 18
M  V30 40 1 37 1
M  V30 41 1 38 1
M  V30 42 1 39 7
M  V30 43 1 40 8
M  V30 44 1 41 8
M  V30 45 1 42 9
M  V30 46 1 43 12
M  V30 47 1 44 13
M  V30 48 1 45 14
M  V30 49 1 46 15
M  V30 50 1 47 15
M  V30 51 1 48 17
M  V30 52 1 49 17
M  V30 53 1 50 21
M  V30 54 1 51 32
M  V30 55 1 52 22
M  V30 56 1 53 22
M  V30 57 1 54 23
M  V30 58 1 55 24
M  V30 59 1 26 56 CFG=1
M  V30 60 1 57 27
M  V30 61 1 58 28
M  V30 62 1 59 30
M  V30 63 1 60 31
M  V30 64 1 33 61 CFG=1
M  V30 65 1 62 35
M  V30 66 1 63 36
M  V30 END BOND
M  V30 END CTAB
M  END
>  <i_epik_Tot_Q>  (1) 
0

>  <i_epik_Tot_abs_Q>  (1) 
0

>  <i_i_glide_confnum>  (1) 
898

>  <i_i_glide_lignum>  (1) 
67

>  <i_i_glide_posenum>  (1) 
300

>  <i_i_glide_rotatable_bonds>  (1) 
10

>  <i_lp_mmshare_version>  (1) 
72125

>  <i_m_source_file_index>  (1) 
27

>  <i_f3d_flags>  (1) 
0

>  <num_sample>  (1) 
100

>  <b_lp_Chiralities_Consistent>  (1) 
1

>  <r_epik_Charging_Adjusted_Penalty>  (1) 
0

>  <r_epik_Ionization_Penalty>  (1) 
0.0023635104904880574

>  <r_epik_Ionization_Penalty_Charging>  (1) 
0

>  <r_epik_Ionization_Penalty_Neutral>  (1) 
0.0023635104904880574

>  <r_epik_State_Penalty>  (1) 
-0

>  <r_glide_ring_energy>  (1) 
2.3766593037937223

>  <r_i_docking_score>  (1) 
-7.2283075374223511

>  <r_i_glide_ecoul>  (1) 
1.1117023218317543

>  <r_i_glide_eff_state_penalty>  (1) 
-0

>  <r_i_glide_einternal>  (1) 
12.350049431219475

>  <r_i_glide_emodel>  (1) 
-67.12387067386183

>  <r_i_glide_emodel_strain>  (1) 
5.6571924380859855

>  <r_i_glide_energy>  (1) 
-55.666218656351084

>  <r_i_glide_erotb>  (1) 
0.59425720056655684

>  <r_i_glide_esite>  (1) 
-0.0011831181303684978

>  <r_i_glide_evdw>  (1) 
-56.777920978182841

>  <r_i_glide_gscore>  (1) 
-7.2283075374223511

>  <r_i_glide_gscore_strain>  (1) 
0.41429810952149637

>  <r_i_glide_hbond>  (1) 
0

>  <r_i_glide_ligand_efficiency>  (1) 
-0.2007863204839542

>  <r_i_glide_ligand_efficiency_ln>  (1) 
-1.577021418364009

>  <r_i_glide_ligand_efficiency_sa>  (1) 
-0.66298182281125784

>  <r_i_glide_lipo>  (1) 
-4.8180735701882877

>  <r_i_glide_metal>  (1) 
-0

>  <r_i_glide_rewards>  (1) 
-0.74546545855736812

>  <r_lp_Energy>  (1) 
69.479281999999998

>  <r_lp_tautomer_probability>  (1) 
1

>  <s_epik_Chemistry_Notes>  (1) 
This compound has a N-S or N-O group and may undergo hydrolysis at high or low pH.

>  <s_epik_cmdline>  (1) 
J2VwaWtfcHl0aG9uJywgJy1waHQnLCAnMS4wJywgJy1waCcsICc3LjQnLCAnLXRuJywgJzgnLCAnLW1hJywgJzUwMCcsICctaW1hZScsICc8aW5maWxlLm1hZT4nLCAnLW9tYWUnLCAnPG91dGZpbGUubWFlPic=

>  <s_epik_input>  (1) 
W0NIMl0xQyg9TylbQ0hdPVtDSF1DKFtPSF0pPUMxW05IXUMoPU8pW0NASF0oW0NIMl1DMj1PKVtDSDJdW0NIMl1bQ0BIXShbQ0gyXTIpTihjM1tjSF1bY0hdW2NIXVtjSF1bY0hdMylDKD1PKWM0W2NIXVtjSF1jKE9bTkgyXSlbY0hdW2NIXTQ=

>  <s_glide_docking_method>  (1) 
confgen

>  <s_i_glide_gridfile>  (1) 
gpcr_5ht2c_6bqh_protein_autoprepared_prepared

>  <s_lp_Force_Field>  (1) 
S-OPLS

>  <s_lp_Variant>  (1) 
DiffSBDD_26_num_sample_100-1

>  <s_m_source_file>  (1) 
generated__ligand_DiffSBDD_2026-05-06_prepared.sdf

>  <GenAI_Model>  (1) 
DiffSBDD

>  <Protein>  (1) 
GPCR_5HT2C

$$$$
DiffSBDD_16_num_sample_100
     RDKit          3D

  0  0  0  0  0  0  0  0  0  0999 V3000
M  V30 BEGIN CTAB
M  V30 COUNTS 58 60 0 0 1
M  V30 BEGIN ATOM
M  V30 1 C 39.133129 28.844405 54.861160 0
M  V30 2 O 40.267279 29.621390 49.453550 0
M  V30 3 C 37.673596 26.746711 54.650607 0
M  V30 4 C 37.334188 32.612372 60.104736 0
M  V30 5 C 38.955771 26.466310 55.787453 0 CFG=2
M  V30 6 C 36.614280 30.323253 59.651601 0
M  V30 7 C 40.343118 29.395638 55.609325 0
M  V30 8 C 39.947833 30.270733 51.697717 0
M  V30 9 C 38.901818 26.525989 57.325942 0 CFG=1
M  V30 10 C 38.399913 31.324550 58.332142 0
M  V30 11 C 38.028631 31.130867 54.542596 0
M  V30 12 C 36.496188 31.519593 60.393471 0
M  V30 13 C 40.613773 30.571840 50.426957 0
M  V30 14 C 39.313337 30.021854 52.709318 0
M  V30 15 C 37.570882 30.219611 58.622846 0
M  V30 16 C 40.289628 28.522999 58.040956 0
M  V30 17 C 38.677628 27.595759 55.058294 0
M  V30 18 C 38.860687 27.919282 58.078467 0 CFG=1
M  V30 19 C 41.009481 28.486121 56.673383 0
M  V30 20 O 35.565008 31.621362 61.385891 0
M  V30 21 C 37.676365 28.925951 57.799641 0
M  V30 22 C 38.095823 25.373862 57.931538 0
M  V30 23 C 38.462064 29.802339 53.888951 0 CFG=1
M  V30 24 C 38.282797 32.514944 59.072894 0
M  V30 25 C 38.586793 24.021197 57.417633 0
M  V30 26 C 36.606832 25.472955 57.668530 0
M  V30 27 H 39.383722 29.800867 49.153358 0
M  V30 28 H 37.740405 26.233102 53.693368 0
M  V30 29 H 36.669611 26.821555 55.053231 0
M  V30 30 H 37.244749 33.528470 60.669662 0
M  V30 31 H 39.700963 25.761356 55.421292 0
M  V30 32 H 35.963720 29.490344 59.860749 0
M  V30 33 H 41.067412 29.736189 54.886824 0
M  V30 34 H 40.067510 30.320993 56.086963 0
M  V30 35 H 39.902798 26.180963 57.591820 0
M  V30 36 H 39.118019 31.266447 57.542033 0
M  V30 37 H 37.469024 31.757636 53.853668 0
M  V30 38 H 38.876018 31.727485 54.881295 0
M  V30 39 H 37.371050 30.962976 55.394612 0
M  V30 40 H 41.692262 30.564619 50.584994 0
M  V30 41 H 40.323879 31.566658 50.088820 0
M  V30 42 H 40.908613 27.945528 58.730030 0
M  V30 43 H 40.309712 29.528249 58.452226 0
M  V30 44 H 38.718923 27.668048 59.131301 0
M  V30 45 H 42.029145 28.821331 56.858332 0
M  V30 46 H 41.181467 27.480874 56.298590 0
M  V30 47 H 35.404707 32.520671 61.631668 0
M  V30 48 H 36.728291 28.429803 57.957181 0
M  V30 49 H 37.615940 29.233619 56.767735 0
M  V30 50 H 38.267399 25.395025 59.008501 0
M  V30 51 H 37.565789 29.312968 53.506483 0
M  V30 52 H 38.921155 33.355281 58.844327 0
M  V30 53 H 38.335589 23.891386 56.365521 0
M  V30 54 H 38.104242 23.221399 57.972149 0
M  V30 55 H 39.665678 23.902703 57.503250 0
M  V30 56 H 36.331741 25.194278 56.652015 0
M  V30 57 H 36.267392 26.474233 57.853545 0
M  V30 58 H 36.087184 24.821475 58.355666 0
M  V30 END ATOM
M  V30 BEGIN BOND
M  V30 1 1 5 3
M  V30 2 1 7 1
M  V30 3 1 9 5
M  V30 4 1 12 4
M  V30 5 2 12 6
M  V30 6 1 13 2
M  V30 7 1 13 8
M  V30 8 3 14 8
M  V30 9 1 15 6
M  V30 10 2 15 10
M  V30 11 2 17 1
M  V30 12 1 17 3
M  V30 13 1 17 5
M  V30 14 1 18 9
M  V30 15 1 18 16
M  V30 16 1 19 7
M  V30 17 1 19 16
M  V30 18 1 20 12
M  V30 19 1 21 15
M  V30 20 1 21 18
M  V30 21 1 22 9
M  V30 22 1 23 1
M  V30 23 1 23 11
M  V30 24 1 23 14
M  V30 25 2 24 4
M  V30 26 1 24 10
M  V30 27 1 25 22
M  V30 28 1 26 22
M  V30 29 1 27 2
M  V30 30 1 28 3
M  V30 31 1 29 3
M  V30 32 1 30 4
M  V30 33 1 5 31 CFG=1
M  V30 34 1 32 6
M  V30 35 1 33 7
M  V30 36 1 34 7
M  V30 37 1 9 35 CFG=1
M  V30 38 1 36 10
M  V30 39 1 37 11
M  V30 40 1 38 11
M  V30 41 1 39 11
M  V30 42 1 40 13
M  V30 43 1 41 13
M  V30 44 1 42 16
M  V30 45 1 43 16
M  V30 46 1 18 44 CFG=1
M  V30 47 1 45 19
M  V30 48 1 46 19
M  V30 49 1 47 20
M  V30 50 1 48 21
M  V30 51 1 49 21
M  V30 52 1 50 22
M  V30 53 1 23 51 CFG=3
M  V30 54 1 52 24
M  V30 55 1 53 25
M  V30 56 1 54 25
M  V30 57 1 55 25
M  V30 58 1 56 26
M  V30 59 1 57 26
M  V30 60 1 58 26
M  V30 END BOND
M  V30 END CTAB
M  END
>  <i_epik_Tot_Q>  (1) 
0

>  <i_epik_Tot_abs_Q>  (1) 
0

>  <i_i_glide_confnum>  (1) 
2

>  <i_i_glide_lignum>  (1) 
38

>  <i_i_glide_posenum>  (1) 
19

>  <i_i_glide_rotatable_bonds>  (1) 
8

>  <i_lp_mmshare_version>  (1) 
72125

>  <i_m_source_file_index>  (1) 
17

>  <i_f3d_flags>  (1) 
0

>  <num_sample>  (1) 
100

>  <b_lp_Chiralities_Consistent>  (1) 
1

>  <r_epik_Charging_Adjusted_Penalty>  (1) 
0

>  <r_epik_Ionization_Penalty>  (1) 
0.00099862310418953213

>  <r_epik_Ionization_Penalty_Charging>  (1) 
0

>  <r_epik_Ionization_Penalty_Neutral>  (1) 
0.00099862310418953213

>  <r_epik_State_Penalty>  (1) 
-0

>  <r_glide_ring_energy>  (1) 
0

>  <r_i_docking_score>  (1) 
-7.2259231081108837

>  <r_i_glide_ecoul>  (1) 
-4.2948573915446833

>  <r_i_glide_eff_state_penalty>  (1) 
-0

>  <r_i_glide_einternal>  (1) 
6.3190420441842665

>  <r_i_glide_emodel>  (1) 
-42.458843456070696

>  <r_i_glide_emodel_strain>  (1) 
2.5938779328279225

>  <r_i_glide_energy>  (1) 
-35.626872453781012

>  <r_i_glide_erotb>  (1) 
0.76791189123998571

>  <r_i_glide_esite>  (1) 
0

>  <r_i_glide_evdw>  (1) 
-31.33201506223633

>  <r_i_glide_gscore>  (1) 
-7.2259231081108837

>  <r_i_glide_gscore_strain>  (1) 
0

>  <r_i_glide_hbond>  (1) 
-0.59847653130687162

>  <r_i_glide_ligand_efficiency>  (1) 
-0.27792011954272627

>  <r_i_glide_ligand_efficiency_ln>  (1) 
-1.6969843317522337

>  <r_i_glide_ligand_efficiency_sa>  (1) 
-0.82333726147663322

>  <r_i_glide_lipo>  (1) 
-3.3815398479186238

>  <r_i_glide_metal>  (1) 
-0

>  <r_i_glide_rewards>  (1) 
-1.8029892582818534

>  <r_lp_Energy>  (1) 
30.586513999999998

>  <r_lp_tautomer_probability>  (1) 
1

>  <s_epik_cmdline>  (1) 
J2VwaWtfcHl0aG9uJywgJy1waHQnLCAnMS4wJywgJy1waCcsICc3LjQnLCAnLXRuJywgJzgnLCAnLW1hJywgJzUwMCcsICctaW1hZScsICc8aW5maWxlLm1hZT4nLCAnLW9tYWUnLCAnPG91dGZpbGUubWFlPic=

>  <s_epik_input>  (1) 
W09IXVtDSDJdQyNDW0NASF0oW0NIM10pQyg9QygvW0NIMl0xKVtDQEhdMTIpXFtDSDJdW0NIMl1bQ0gyXVtDQEhdKFtDQEhdMltDSF0oW0NIM10pW0NIM10pW0NIMl1jKFtjSF0zKVtjSF1bY0hdW2NIXWMzW09IXQ==

>  <s_glide_docking_method>  (1) 
confgen

>  <s_i_glide_gridfile>  (1) 
gpcr_5ht2c_6bqh_protein_autoprepared_prepared

>  <s_lp_Force_Field>  (1) 
S-OPLS

>  <s_lp_Variant>  (1) 
DiffSBDD_16_num_sample_100-1

>  <s_m_source_file>  (1) 
generated__ligand_DiffSBDD_2026-05-06_prepared.sdf

>  <GenAI_Model>  (1) 
DiffSBDD

>  <Protein>  (1) 
GPCR_5HT2C

$$$$
DiffSBDD_29_num_sample_100
     RDKit          3D

  0  0  0  0  0  0  0  0  0  0999 V3000
M  V30 BEGIN CTAB
M  V30 COUNTS 86 90 0 0 1
M  V30 BEGIN ATOM
M  V30 1 F 40.229767 35.429938 63.222823 0
M  V30 2 C 36.269453 31.508681 61.555585 0
M  V30 3 C 39.834796 34.870328 60.407033 0
M  V30 4 C 38.926019 28.327590 56.792909 0 CFG=2
M  V30 5 C 39.224319 30.637969 53.180832 0
M  V30 6 C 39.849660 29.531351 56.570099 0
M  V30 7 C 38.444334 36.869325 63.077089 0
M  V30 8 N 37.396791 31.764215 60.672822 0
M  V30 9 C 37.781234 26.175211 55.732440 0 CFG=1
M  V30 10 C 39.994523 28.606314 51.027953 0
M  V30 11 C 39.394629 30.377446 59.912596 0
M  V30 12 C 39.635755 28.128635 52.421627 0 CFG=2
M  V30 13 C 39.267233 36.047974 62.513563 0
M  V30 14 C 38.173946 29.544449 59.763842 0 CFG=2
M  V30 15 C 35.693526 33.888029 61.589014 0
M  V30 16 C 37.708357 25.268157 58.192077 0
M  V30 17 C 38.722429 27.440784 55.490021 0 CFG=1
M  V30 18 C 37.333095 29.735893 58.498901 0 CFG=1
M  V30 19 C 37.999295 36.695438 60.563453 0
M  V30 20 N 36.844729 34.005919 60.709048 0 CHG=1
M  V30 21 N 39.086654 35.860835 61.195069 0
M  V30 22 F 38.469902 37.178793 64.383332 0
M  V30 23 S 37.935224 27.642335 52.660170 0
M  V30 24 C 37.956699 33.091041 60.958926 0 CFG=2
M  V30 25 C 35.121645 32.508718 61.410309 0
M  V30 26 C 39.669158 24.679596 56.682023 0
M  V30 27 O 37.466844 31.004901 57.899772 0
M  V30 28 C 38.301727 28.378367 54.284585 0 CFG=2
M  V30 29 C 37.536210 28.737447 57.356068 0
M  V30 30 C 39.505786 30.016787 50.727250 0
M  V30 31 C 39.869211 31.009947 51.832678 0
M  V30 32 C 39.101175 33.563687 60.032546 0
M  V30 33 O 37.642892 25.405498 54.569416 0
M  V30 34 C 39.414635 29.183166 53.541945 0 CFG=2
M  V30 35 C 38.267351 30.609988 60.859382 0 CFG=2
M  V30 36 C 38.198183 25.079196 56.756815 0
M  V30 37 O 39.669399 27.630162 57.761558 0
M  V30 38 S 37.229970 37.591980 62.062874 0
M  V30 39 H 35.892937 30.499404 61.385566 0
M  V30 40 H 36.681432 31.616142 62.560576 0
M  V30 41 H 40.709450 34.580136 60.994180 0
M  V30 42 H 40.275425 35.290912 59.516336 0
M  V30 43 H 39.636040 31.288600 53.950914 0
M  V30 44 H 38.168775 30.842355 53.241093 0
M  V30 45 H 39.386105 30.299486 55.959568 0
M  V30 46 H 40.146976 30.007479 57.490270 0
M  V30 47 H 40.787521 29.221030 56.119533 0
M  V30 48 H 36.754447 26.448026 55.948320 0
M  V30 49 H 41.069888 28.650655 50.989683 0
M  V30 50 H 39.674695 27.906197 50.256199 0
M  V30 51 H 40.313101 29.927158 60.278857 0
M  V30 52 H 39.467362 31.094735 59.121406 0
M  V30 53 H 40.252457 27.280339 52.726011 0
M  V30 54 H 38.249696 28.513821 60.103751 0
M  V30 55 H 35.067552 34.657307 61.210358 0
M  V30 56 H 35.873470 34.114320 62.641111 0
M  V30 57 H 38.262620 25.988279 58.780463 0
M  V30 58 H 36.659210 25.552096 58.205035 0
M  V30 59 H 37.778580 24.325807 58.726718 0
M  V30 60 H 39.705175 27.041090 55.236763 0
M  V30 61 H 36.290205 29.651644 58.805143 0
M  V30 62 H 38.263104 37.480198 59.863452 0
M  V30 63 H 37.245588 36.164660 59.997259 0
M  V30 64 H 36.537568 33.858527 59.757156 0
M  V30 65 H 38.272363 33.177301 61.996445 0
M  V30 66 H 34.650385 32.401565 60.430677 0
M  V30 67 H 34.374999 32.345262 62.192339 0
M  V30 68 H 40.363442 25.454495 56.989126 0
M  V30 69 H 39.855560 23.811982 57.314510 0
M  V30 70 H 39.912541 24.427294 55.654425 0
M  V30 71 H 36.614424 31.221370 57.484393 0
M  V30 72 H 37.459991 29.026540 54.516133 0
M  V30 73 H 37.016735 29.210616 56.527999 0
M  V30 74 H 36.976104 27.849863 57.626592 0
M  V30 75 H 39.860325 30.362304 49.754928 0
M  V30 76 H 38.435614 29.950809 50.653054 0
M  V30 77 H 40.949808 31.083595 51.915578 0
M  V30 78 H 39.498128 31.997227 51.551190 0
M  V30 79 H 39.900796 32.834947 60.041120 0
M  V30 80 H 38.743991 33.619564 59.003878 0
M  V30 81 H 38.502636 25.182457 54.249583 0
M  V30 82 H 40.266647 29.229021 54.170535 0
M  V30 83 H 38.466349 30.250368 61.868010 0
M  V30 84 H 37.651986 24.174477 56.473555 0
M  V30 85 H 39.321519 26.752572 57.820977 0
M  V30 86 H 37.210246 34.936147 60.807936 0
M  V30 END ATOM
M  V30 BEGIN BOND
M  V30 1 1 6 4
M  V30 2 1 8 2
M  V30 3 1 12 10
M  V30 4 1 13 1
M  V30 5 2 13 7
M  V30 6 1 14 11
M  V30 7 1 17 4
M  V30 8 1 17 9
M  V30 9 1 18 14
M  V30 10 1 20 15
M  V30 11 1 21 3
M  V30 12 1 21 13
M  V30 13 1 21 19
M  V30 14 1 22 7
M  V30 15 1 23 12
M  V30 16 1 24 8
M  V30 17 1 24 20
M  V30 18 1 25 2
M  V30 19 1 25 15
M  V30 20 1 27 18
M  V30 21 1 28 17
M  V30 22 1 28 23
M  V30 23 1 29 4
M  V30 24 1 29 18
M  V30 25 1 30 10
M  V30 26 1 31 5
M  V30 27 1 31 30
M  V30 28 1 32 3
M  V30 29 1 32 24
M  V30 30 1 33 9
M  V30 31 1 34 5
M  V30 32 1 34 12
M  V30 33 1 34 28
M  V30 34 1 35 8
M  V30 35 1 35 11
M  V30 36 1 35 14
M  V30 37 1 36 9
M  V30 38 1 36 16
M  V30 39 1 36 26
M  V30 40 1 4 37 CFG=1
M  V30 41 1 38 7
M  V30 42 1 38 19
M  V30 43 1 39 2
M  V30 44 1 40 2
M  V30 45 1 41 3
M  V30 46 1 42 3
M  V30 47 1 43 5
M  V30 48 1 44 5
M  V30 49 1 45 6
M  V30 50 1 46 6
M  V30 51 1 47 6
M  V30 52 1 9 48 CFG=1
M  V30 53 1 49 10
M  V30 54 1 50 10
M  V30 55 1 51 11
M  V30 56 1 52 11
M  V30 57 1 12 53 CFG=1
M  V30 58 1 14 54 CFG=1
M  V30 59 1 55 15
M  V30 60 1 56 15
M  V30 61 1 57 16
M  V30 62 1 58 16
M  V30 63 1 59 16
M  V30 64 1 17 60 CFG=3
M  V30 65 1 18 61 CFG=1
M  V30 66 1 62 19
M  V30 67 1 63 19
M  V30 68 1 64 20
M  V30 69 1 24 65 CFG=1
M  V30 70 1 66 25
M  V30 71 1 67 25
M  V30 72 1 68 26
M  V30 73 1 69 26
M  V30 74 1 70 26
M  V30 75 1 71 27
M  V30 76 1 28 72 CFG=1
M  V30 77 1 73 29
M  V30 78 1 74 29
M  V30 79 1 75 30
M  V30 80 1 76 30
M  V30 81 1 77 31
M  V30 82 1 78 31
M  V30 83 1 79 32
M  V30 84 1 80 32
M  V30 85 1 81 33
M  V30 86 1 34 82 CFG=1
M  V30 87 1 35 83 CFG=1
M  V30 88 1 84 36
M  V30 89 1 85 37
M  V30 90 1 86 20
M  V30 END BOND
M  V30 END CTAB
M  END
>  <i_epik_Tot_Q>  (1) 
1

>  <i_epik_Tot_abs_Q>  (1) 
1

>  <i_i_glide_confnum>  (1) 
1658

>  <i_i_glide_lignum>  (1) 
71

>  <i_i_glide_posenum>  (1) 
120

>  <i_i_glide_rotatable_bonds>  (1) 
14

>  <i_lp_mmshare_version>  (1) 
72125

>  <i_m_source_file_index>  (1) 
30

>  <i_f3d_flags>  (1) 
0

>  <num_sample>  (1) 
100

>  <b_lp_Chiralities_Consistent>  (1) 
1

>  <r_epik_Charging_Adjusted_Penalty>  (1) 
0.43533657855592212

>  <r_epik_Ionization_Penalty>  (1) 
0.17417288321429925

>  <r_epik_Ionization_Penalty_Charging>  (1) 
0.17415579174197784

>  <r_epik_Ionization_Penalty_Neutral>  (1) 
1.7091472321405907e-05

>  <r_epik_State_Penalty>  (1) 
0.2611807868139443

>  <r_glide_ring_energy>  (1) 
0.53215094814157604

>  <r_i_docking_score>  (1) 
-7.2181170729644295

>  <r_i_glide_ecoul>  (1) 
-1.6108844446123642

>  <r_i_glide_eff_state_penalty>  (1) 
0.2611807868139443

>  <r_i_glide_einternal>  (1) 
26.051533460212074

>  <r_i_glide_emodel>  (1) 
-11.745055089211171

>  <r_i_glide_emodel_strain>  (1) 
6.4323224882615477

>  <r_i_glide_energy>  (1) 
-25.161852848588797

>  <r_i_glide_erotb>  (1) 
0.46833353265868582

>  <r_i_glide_esite>  (1) 
0

>  <r_i_glide_evdw>  (1) 
-23.550968403976434

>  <r_i_glide_gscore>  (1) 
-7.4792978597783737

>  <r_i_glide_gscore_strain>  (1) 
0.60808062206538693

>  <r_i_glide_hbond>  (1) 
-0.1585414232243704

>  <r_i_glide_ligand_efficiency>  (1) 
-0.18995044928853763

>  <r_i_glide_ligand_efficiency_ln>  (1) 
-1.5564383764225942

>  <r_i_glide_ligand_efficiency_sa>  (1) 
-0.63860873901847726

>  <r_i_glide_lipo>  (1) 
-5.3294649570250971

>  <r_i_glide_metal>  (1) 
-0

>  <r_i_glide_rewards>  (1) 
-1.6485245473623018

>  <r_lp_Energy>  (1) 
40.958697000000001

>  <s_epik_Chemistry_Notes>  (1) 
This compound has an imine and may undergo hydrolysis. This compound contains an acetal/aminal-like group ( X-CH(R)-Y where X, Y are N, S, or O) that may be acid/base labile, releasing an aldehyde.

>  <s_epik_cmdline>  (1) 
J2VwaWtfcHl0aG9uJywgJy1waHQnLCAnMS4wJywgJy1waCcsICc3LjQnLCAnLXRuJywgJzgnLCAnLW1hJywgJzUwMCcsICctaW1hZScsICc8aW5maWxlLm1hZT4nLCAnLW9tYWUnLCAnPG91dGZpbGUubWFlPic=

>  <s_epik_input>  (1) 
RkMxPUMoRilOKFtDSDJdUzEpW0NIMl1bQ0gyXVtDQEhdMltOSF1bQ0gyXVtDSDJdW0NIMl1OMltDQEBIXTNbQ0gyXVtDQEBIXTNbQ0BASF0oW09IXSlbQ0gyXVtDQEBdKFtDSDNdKShbT0hdKVtDQEBIXShbQ0BASF0oW09IXSlbQ0hdKFtDSDNdKVtDSDNdKVtDQEhdKFM0KVtDQEBIXShbQ0BASF00NSlbQ0gyXVtDSDJdW0NIMl1bQ0gyXTU=

>  <s_glide_docking_method>  (1) 
confgen

>  <s_i_glide_gridfile>  (1) 
gpcr_5ht2c_6bqh_protein_autoprepared_prepared

>  <s_lp_Force_Field>  (1) 
S-OPLS

>  <s_lp_Variant>  (1) 
DiffSBDD_29_num_sample_100-1

>  <s_m_source_file>  (1) 
generated__ligand_DiffSBDD_2026-05-06_prepared.sdf

>  <GenAI_Model>  (1) 
DiffSBDD

>  <Protein>  (1) 
GPCR_5HT2C

$$$$
DiffSBDD_29_num_sample_100
     RDKit          3D

  0  0  0  0  0  0  0  0  0  0999 V3000
M  V30 BEGIN CTAB
M  V30 COUNTS 86 90 0 0 1
M  V30 BEGIN ATOM
M  V30 1 F 38.268474 27.453912 52.051936 0
M  V30 2 C 40.295130 25.911947 57.108337 0
M  V30 3 C 38.373468 29.122349 54.436786 0
M  V30 4 C 39.219351 30.341788 61.457655 0 CFG=2
M  V30 5 C 40.068005 34.842805 60.730290 0
M  V30 6 C 37.916144 30.175091 60.643351 0
M  V30 7 C 39.503711 29.089066 51.014985 0
M  V30 8 N 40.204515 27.356521 57.417469 0 CFG=2 CHG=1
M  V30 9 C 40.631514 31.666058 63.204996 0 CFG=1
M  V30 10 C 37.144075 35.605834 61.057831 0
M  V30 11 C 42.528168 27.674825 58.381500 0
M  V30 12 C 37.559545 34.263219 60.460470 0 CFG=2
M  V30 13 C 38.880760 28.648460 52.059651 0
M  V30 14 C 41.697348 28.919719 58.669119 0 CFG=2
M  V30 15 C 37.934285 25.967638 56.319779 0
M  V30 16 C 41.906880 32.479599 65.301601 0
M  V30 17 C 39.251380 31.560605 62.444181 0 CFG=1
M  V30 18 C 40.648189 28.936221 59.785293 0 CFG=1
M  V30 19 C 39.658514 30.728056 52.959153 0
M  V30 20 N 37.867394 27.340267 56.801473 0
M  V30 21 N 38.904598 29.461261 53.129751 0
M  V30 22 F 39.591667 28.423237 49.859965 0
M  V30 23 S 36.918985 32.935450 61.453502 0
M  V30 24 C 39.117225 28.079907 56.697714 0 CFG=2
M  V30 25 C 38.929988 25.230386 57.208474 0
M  V30 26 C 40.065304 30.790226 65.538524 0
M  V30 27 O 41.067510 28.021428 60.750693 0
M  V30 28 C 38.665486 32.945099 61.993295 0 CFG=2
M  V30 29 C 40.416451 30.282866 60.509052 0
M  V30 30 C 38.270854 36.624061 60.954674 0
M  V30 31 C 39.602441 36.081958 61.511377 0
M  V30 32 C 39.467296 28.414492 55.235642 0
M  V30 33 O 41.490167 32.570759 62.538874 0
M  V30 34 C 39.010717 33.738273 60.690825 0 CFG=2
M  V30 35 C 41.490185 28.099688 57.398626 0 CFG=2
M  V30 36 C 40.560302 32.000705 64.718971 0
M  V30 37 O 39.340521 29.195335 62.253505 0
M  V30 38 S 40.267407 30.626674 51.144949 0
M  V30 39 H 40.709480 25.769198 56.110734 0
M  V30 40 H 40.950118 25.459910 57.853159 0
M  V30 41 H 37.496635 28.481886 54.327102 0
M  V30 42 H 38.043573 30.027154 54.949281 0
M  V30 43 H 40.267493 35.156376 59.714147 0
M  V30 44 H 41.028971 34.495652 61.094145 0
M  V30 45 H 37.873482 30.874316 59.806996 0
M  V30 46 H 37.811154 29.181736 60.217367 0
M  V30 47 H 37.027983 30.353025 61.243394 0
M  V30 48 H 41.151006 30.708552 63.160189 0
M  V30 49 H 36.267470 35.991662 60.541165 0
M  V30 50 H 36.865695 35.508509 62.108589 0
M  V30 51 H 43.566417 27.830173 58.092773 0
M  V30 52 H 42.374994 26.821245 59.019419 0
M  V30 53 H 37.262486 34.149150 59.416414 0
M  V30 54 H 42.319764 29.802968 58.653581 0
M  V30 55 H 38.231876 25.930596 55.270882 0
M  V30 56 H 36.945555 25.512350 56.386753 0
M  V30 57 H 42.693716 31.740564 65.145210 0
M  V30 58 H 42.235207 33.417933 64.851804 0
M  V30 59 H 41.828648 32.659648 66.374167 0
M  V30 60 H 38.545046 31.218272 63.187669 0
M  V30 61 H 39.688717 28.599782 59.416127 0
M  V30 62 H 39.021056 31.601881 53.105483 0
M  V30 63 H 40.505472 30.788547 53.644201 0
M  V30 64 H 37.507899 27.360190 57.746182 0
M  V30 65 H 38.954799 29.028991 57.211127 0
M  V30 66 H 39.007153 24.184933 56.907439 0
M  V30 67 H 38.583679 25.233352 58.242974 0
M  V30 68 H 40.764599 29.956742 65.462667 0
M  V30 69 H 39.978766 31.042770 66.594974 0
M  V30 70 H 39.093574 30.422034 65.216212 0
M  V30 71 H 40.519438 28.184485 61.518636 0
M  V30 72 H 38.734722 33.639782 62.823425 0
M  V30 73 H 40.087680 31.046726 59.853528 0
M  V30 74 H 41.346681 30.624388 60.947068 0
M  V30 75 H 38.364705 36.833857 59.891062 0
M  V30 76 H 37.995825 37.555186 61.453979 0
M  V30 77 H 40.367649 36.857801 61.455444 0
M  V30 78 H 39.490393 35.840384 62.570677 0
M  V30 79 H 40.311468 29.098097 55.227453 0
M  V30 80 H 39.783467 27.519855 54.698173 0
M  V30 81 H 41.173496 33.448053 62.694048 0
M  V30 82 H 39.238868 33.032406 59.894607 0
M  V30 83 H 41.869261 28.417074 56.433271 0
M  V30 84 H 39.867570 32.821349 64.856172 0
M  V30 85 H 38.684091 29.174599 62.944044 0
M  V30 86 H 39.932314 27.360743 58.389404 0
M  V30 END ATOM
M  V30 BEGIN BOND
M  V30 1 1 6 4
M  V30 2 1 8 2
M  V30 3 1 12 10
M  V30 4 1 13 1
M  V30 5 2 13 7
M  V30 6 1 14 11
M  V30 7 1 17 4
M  V30 8 1 17 9
M  V30 9 1 18 14
M  V30 10 1 20 15
M  V30 11 1 21 3
M  V30 12 1 21 13
M  V30 13 1 21 19
M  V30 14 1 22 7
M  V30 15 1 23 12
M  V30 16 1 24 8
M  V30 17 1 24 20
M  V30 18 1 25 2
M  V30 19 1 25 15
M  V30 20 1 27 18
M  V30 21 1 28 17
M  V30 22 1 28 23
M  V30 23 1 29 4
M  V30 24 1 29 18
M  V30 25 1 30 10
M  V30 26 1 31 5
M  V30 27 1 31 30
M  V30 28 1 32 3
M  V30 29 1 32 24
M  V30 30 1 33 9
M  V30 31 1 34 5
M  V30 32 1 34 12
M  V30 33 1 34 28
M  V30 34 1 35 8
M  V30 35 1 35 11
M  V30 36 1 35 14
M  V30 37 1 36 9
M  V30 38 1 36 16
M  V30 39 1 36 26
M  V30 40 1 4 37 CFG=1
M  V30 41 1 38 7
M  V30 42 1 38 19
M  V30 43 1 39 2
M  V30 44 1 40 2
M  V30 45 1 41 3
M  V30 46 1 42 3
M  V30 47 1 43 5
M  V30 48 1 44 5
M  V30 49 1 45 6
M  V30 50 1 46 6
M  V30 51 1 47 6
M  V30 52 1 9 48 CFG=1
M  V30 53 1 49 10
M  V30 54 1 50 10
M  V30 55 1 51 11
M  V30 56 1 52 11
M  V30 57 1 12 53 CFG=3
M  V30 58 1 14 54 CFG=3
M  V30 59 1 55 15
M  V30 60 1 56 15
M  V30 61 1 57 16
M  V30 62 1 58 16
M  V30 63 1 59 16
M  V30 64 1 17 60 CFG=1
M  V30 65 1 18 61 CFG=3
M  V30 66 1 62 19
M  V30 67 1 63 19
M  V30 68 1 64 20
M  V30 69 1 24 65 CFG=1
M  V30 70 1 66 25
M  V30 71 1 67 25
M  V30 72 1 68 26
M  V30 73 1 69 26
M  V30 74 1 70 26
M  V30 75 1 71 27
M  V30 76 1 28 72 CFG=1
M  V30 77 1 73 29
M  V30 78 1 74 29
M  V30 79 1 75 30
M  V30 80 1 76 30
M  V30 81 1 77 31
M  V30 82 1 78 31
M  V30 83 1 79 32
M  V30 84 1 80 32
M  V30 85 1 81 33
M  V30 86 1 34 82 CFG=3
M  V30 87 1 35 83 CFG=3
M  V30 88 1 84 36
M  V30 89 1 85 37
M  V30 90 1 8 86 CFG=1
M  V30 END BOND
M  V30 END CTAB
M  END
>  <i_epik_Tot_Q>  (1) 
1

>  <i_epik_Tot_abs_Q>  (1) 
1

>  <i_i_glide_confnum>  (1) 
818

>  <i_i_glide_lignum>  (1) 
76

>  <i_i_glide_posenum>  (1) 
138

>  <i_i_glide_rotatable_bonds>  (1) 
14

>  <i_lp_mmshare_version>  (1) 
72125

>  <i_m_source_file_index>  (1) 
30

>  <i_f3d_flags>  (1) 
0

>  <num_sample>  (1) 
100

>  <b_lp_Chiralities_Consistent>  (1) 
1

>  <r_epik_Charging_Adjusted_Penalty>  (1) 
1.7477768688038313

>  <r_epik_Ionization_Penalty>  (1) 
0.56833185219894722

>  <r_epik_Ionization_Penalty_Charging>  (1) 
0.56833130032608237

>  <r_epik_Ionization_Penalty_Neutral>  (1) 
5.5187286482775955e-07

>  <r_epik_State_Penalty>  (1) 
1.179445568477749

>  <r_glide_ring_energy>  (1) 
2.3029442833190661

>  <r_i_docking_score>  (1) 
-7.2143652866559647

>  <r_i_glide_ecoul>  (1) 
-2.4995915352223674

>  <r_i_glide_eff_state_penalty>  (1) 
1.179445568477749

>  <r_i_glide_einternal>  (1) 
13.56722326305815

>  <r_i_glide_emodel>  (1) 
-48.649550683006602

>  <r_i_glide_emodel_strain>  (1) 
5.6307552667672667

>  <r_i_glide_energy>  (1) 
-35.947902392682224

>  <r_i_glide_erotb>  (1) 
0.46833353265868582

>  <r_i_glide_esite>  (1) 
0

>  <r_i_glide_evdw>  (1) 
-33.448310857459859

>  <r_i_glide_gscore>  (1) 
-8.3938108551337134

>  <r_i_glide_gscore_strain>  (1) 
0.40768881669181667

>  <r_i_glide_hbond>  (1) 
-0.27923366321607807

>  <r_i_glide_ligand_efficiency>  (1) 
-0.18985171806989382

>  <r_i_glide_ligand_efficiency_ln>  (1) 
-1.5556293809281179

>  <r_i_glide_ligand_efficiency_sa>  (1) 
-0.63827680708951351

>  <r_i_glide_lipo>  (1) 
-5.1112869882272749

>  <r_i_glide_metal>  (1) 
-0

>  <r_i_glide_rewards>  (1) 
-1.8319582798845144

>  <r_lp_Energy>  (1) 
42.485220999999996

>  <s_epik_Chemistry_Notes>  (1) 
This compound has an imine and may undergo hydrolysis. This compound contains an acetal/aminal-like group ( X-CH(R)-Y where X, Y are N, S, or O) that may be acid/base labile, releasing an aldehyde.

>  <s_epik_cmdline>  (1) 
J2VwaWtfcHl0aG9uJywgJy1waHQnLCAnMS4wJywgJy1waCcsICc3LjQnLCAnLXRuJywgJzgnLCAnLW1hJywgJzUwMCcsICctaW1hZScsICc8aW5maWxlLm1hZT4nLCAnLW9tYWUnLCAnPG91dGZpbGUubWFlPic=

>  <s_epik_input>  (1) 
RkMxPUMoRilOKFtDSDJdUzEpW0NIMl1bQ0gyXVtDQEhdMltOSF1bQ0gyXVtDSDJdW0NIMl1OMltDQEBIXTNbQ0gyXVtDQEBIXTNbQ0BASF0oW09IXSlbQ0gyXVtDQEBdKFtDSDNdKShbT0hdKVtDQEBIXShbQ0BASF0oW09IXSlbQ0hdKFtDSDNdKVtDSDNdKVtDQEhdKFM0KVtDQEBIXShbQ0BASF00NSlbQ0gyXVtDSDJdW0NIMl1bQ0gyXTU=

>  <s_glide_docking_method>  (1) 
confgen

>  <s_i_glide_gridfile>  (1) 
gpcr_5ht2c_6bqh_protein_autoprepared_prepared

>  <s_lp_Force_Field>  (1) 
S-OPLS

>  <s_lp_Variant>  (1) 
DiffSBDD_29_num_sample_100-6

>  <s_m_source_file>  (1) 
generated__ligand_DiffSBDD_2026-05-06_prepared.sdf

>  <GenAI_Model>  (1) 
DiffSBDD

>  <Protein>  (1) 
GPCR_5HT2C

$$$$
DiffSBDD_30_num_sample_100
     RDKit          3D

  0  0  0  0  0  0  0  0  0  0999 V3000
M  V30 BEGIN CTAB
M  V30 COUNTS 69 72 0 0 1
M  V30 BEGIN ATOM
M  V30 1 C 41.854370 32.804454 65.312874 0
M  V30 2 C 39.203374 33.168581 61.436600 0 CFG=2
M  V30 3 O 41.439312 34.413867 63.651883 0
M  V30 4 C 39.067331 27.852305 52.719493 0
M  V30 5 C 39.067854 29.234653 52.486343 0
M  V30 6 N 40.302705 30.843011 63.697734 0
M  V30 7 C 39.061073 29.642495 54.891487 0
M  V30 8 C 40.342522 32.269111 63.322905 0 CFG=1
M  V30 9 O 38.196578 35.851732 60.488134 0
M  V30 10 O 37.798134 31.225770 61.853501 0
M  V30 11 C 38.445249 25.678686 57.761913 0
M  V30 12 C 37.853390 32.417476 61.554634 0
M  V30 13 C 36.584064 33.217606 61.280673 0
M  V30 14 C 37.559551 24.457623 57.751851 0
M  V30 15 C 38.005296 28.168849 57.532192 0 CFG=2
M  V30 16 C 40.523839 29.246962 61.233232 0
M  V30 17 N 41.084768 28.869544 62.547529 0 CHG=1
M  V30 18 C 38.872781 24.421552 57.028803 0
M  V30 19 C 40.062653 28.582392 58.838351 0 CFG=1
M  V30 20 C 39.067406 30.131242 53.571188 0
M  V30 21 C 38.541302 28.407582 58.926518 0
M  V30 22 N 37.984304 26.815641 56.964925 0
M  V30 23 C 39.067394 27.359930 54.038243 0
M  V30 24 C 41.479288 30.026502 63.380906 0
M  V30 25 C 39.059345 28.251545 55.136654 0
M  V30 26 C 40.753958 28.186218 60.151526 0
M  V30 27 C 39.332959 35.506874 61.246134 0
M  V30 28 C 41.608383 33.024366 63.810367 0 CFG=2
M  V30 29 C 39.047242 27.729951 56.546222 0 CFG=1
M  V30 30 O 39.079035 26.021447 54.253494 0
M  V30 31 S 40.652033 27.634244 57.407957 0
M  V30 32 O 40.284420 32.406743 61.925343 0
M  V30 33 O 39.109194 34.410553 62.075587 0
M  V30 34 H 42.085656 31.766300 65.546831 0
M  V30 35 H 42.700822 33.400681 65.656337 0
M  V30 36 H 40.985424 33.096743 65.903871 0
M  V30 37 H 39.399231 33.307722 60.372384 0
M  V30 38 H 40.759907 34.550552 63.003433 0
M  V30 39 H 39.070707 27.165925 51.885184 0
M  V30 40 H 39.070347 29.611248 51.473746 0
M  V30 41 H 40.081394 30.758124 64.686446 0
M  V30 42 H 39.056443 30.335200 55.720305 0
M  V30 43 H 39.467437 32.732409 63.780562 0
M  V30 44 H 38.084569 35.220445 59.793734 0
M  V30 45 H 38.977247 25.855978 58.691665 0
M  V30 46 H 36.572940 34.143872 61.853507 0
M  V30 47 H 36.518193 33.468445 60.221790 0
M  V30 48 H 35.700843 32.637341 61.547756 0
M  V30 49 H 37.486000 23.866517 58.653478 0
M  V30 50 H 36.667404 24.482405 57.132777 0
M  V30 51 H 37.229843 28.855217 57.197409 0
M  V30 52 H 40.960548 30.185251 60.891458 0
M  V30 53 H 39.458514 29.420483 61.367908 0
M  V30 54 H 40.396346 28.323249 63.048713 0
M  V30 55 H 38.795034 24.358514 55.951260 0
M  V30 56 H 39.681240 23.836002 57.453892 0
M  V30 57 H 40.283400 29.621429 58.596776 0
M  V30 58 H 39.068509 31.196753 53.390901 0
M  V30 59 H 38.267403 27.598421 59.598286 0
M  V30 60 H 38.079641 29.308065 59.333490 0
M  V30 61 H 41.939329 29.659775 64.299080 0
M  V30 62 H 42.242759 30.592807 62.849056 0
M  V30 63 H 40.366131 27.224291 60.486219 0
M  V30 64 H 41.823344 28.056882 59.979239 0
M  V30 65 H 39.552043 36.362409 61.886660 0
M  V30 66 H 40.181729 35.362548 60.574023 0
M  V30 67 H 42.474385 32.715276 63.224728 0
M  V30 68 H 38.877912 25.527664 53.475105 0
M  V30 69 H 41.907751 28.299439 62.397319 0
M  V30 END ATOM
M  V30 BEGIN BOND
M  V30 1 1 5 4
M  V30 2 1 8 6
M  V30 3 1 12 2
M  V30 4 2 12 10
M  V30 5 1 13 12
M  V30 6 1 14 11
M  V30 7 1 17 16
M  V30 8 1 18 11
M  V30 9 1 18 14
M  V30 10 2 20 5
M  V30 11 1 20 7
M  V30 12 1 21 15
M  V30 13 1 21 19
M  V30 14 1 22 11
M  V30 15 1 22 15
M  V30 16 2 23 4
M  V30 17 1 24 6
M  V30 18 1 24 17
M  V30 19 2 25 7
M  V30 20 1 25 23
M  V30 21 1 26 16
M  V30 22 1 26 19
M  V30 23 1 27 9
M  V30 24 1 28 1
M  V30 25 1 28 3
M  V30 26 1 28 8
M  V30 27 1 29 15
M  V30 28 1 29 22
M  V30 29 1 29 25 CFG=3
M  V30 30 1 30 23
M  V30 31 1 31 19
M  V30 32 1 31 29
M  V30 33 1 32 2
M  V30 34 1 32 8
M  V30 35 1 33 2
M  V30 36 1 33 27
M  V30 37 1 34 1
M  V30 38 1 35 1
M  V30 39 1 36 1
M  V30 40 1 2 37 CFG=3
M  V30 41 1 38 3
M  V30 42 1 39 4
M  V30 43 1 40 5
M  V30 44 1 41 6
M  V30 45 1 42 7
M  V30 46 1 8 43 CFG=1
M  V30 47 1 44 9
M  V30 48 1 45 11
M  V30 49 1 46 13
M  V30 50 1 47 13
M  V30 51 1 48 13
M  V30 52 1 49 14
M  V30 53 1 50 14
M  V30 54 1 15 51 CFG=3
M  V30 55 1 52 16
M  V30 56 1 53 16
M  V30 57 1 54 17
M  V30 58 1 55 18
M  V30 59 1 56 18
M  V30 60 1 19 57 CFG=3
M  V30 61 1 58 20
M  V30 62 1 59 21
M  V30 63 1 60 21
M  V30 64 1 61 24
M  V30 65 1 62 24
M  V30 66 1 63 26
M  V30 67 1 64 26
M  V30 68 1 65 27
M  V30 69 1 66 27
M  V30 70 1 28 67 CFG=3
M  V30 71 1 68 30
M  V30 72 1 69 17
M  V30 END BOND
M  V30 END CTAB
M  END
>  <i_epik_Tot_Q>  (1) 
1

>  <i_epik_Tot_abs_Q>  (1) 
1

>  <i_i_glide_confnum>  (1) 
5956

>  <i_i_glide_lignum>  (1) 
80

>  <i_i_glide_posenum>  (1) 
194

>  <i_i_glide_rotatable_bonds>  (1) 
17

>  <i_lp_mmshare_version>  (1) 
72125

>  <i_m_source_file_index>  (1) 
31

>  <i_f3d_flags>  (1) 
0

>  <num_sample>  (1) 
100

>  <b_lp_Chiralities_Consistent>  (1) 
1

>  <r_epik_Charging_Adjusted_Penalty>  (1) 
0.074635642036716146

>  <r_epik_Ionization_Penalty>  (1) 
0.2367700207343624

>  <r_epik_Ionization_Penalty_Charging>  (1) 
0.00051329390614008978

>  <r_epik_Ionization_Penalty_Neutral>  (1) 
0.23625672682822232

>  <r_epik_State_Penalty>  (1) 
0.074122348130576055

>  <r_glide_ring_energy>  (1) 
0

>  <r_i_docking_score>  (1) 
-7.2142852581829091

>  <r_i_glide_ecoul>  (1) 
-2.8799435521787995

>  <r_i_glide_eff_state_penalty>  (1) 
0.074122348130576055

>  <r_i_glide_einternal>  (1) 
22.552442849655264

>  <r_i_glide_emodel>  (1) 
-64.684087933081045

>  <r_i_glide_emodel_strain>  (1) 
3.5142468717158266

>  <r_i_glide_energy>  (1) 
-50.018823123436121

>  <r_i_glide_erotb>  (1) 
1.1326933877215775

>  <r_i_glide_esite>  (1) 
-0.04616607570495207

>  <r_i_glide_evdw>  (1) 
-47.13887957125732

>  <r_i_glide_gscore>  (1) 
-7.2884076063134851

>  <r_i_glide_gscore_strain>  (1) 
0

>  <r_i_glide_hbond>  (1) 
-0.25307231802136843

>  <r_i_glide_ligand_efficiency>  (1) 
-0.21861470479342149

>  <r_i_glide_ligand_efficiency_ln>  (1) 
-1.6044196878499322

>  <r_i_glide_ligand_efficiency_sa>  (1) 
-0.70121417066680269

>  <r_i_glide_lipo>  (1) 
-3.8666145258451694

>  <r_i_glide_metal>  (1) 
-0

>  <r_i_glide_rewards>  (1) 
-1.4663125630738851

>  <r_lp_Energy>  (1) 
27.490511999999999

>  <r_lp_tautomer_probability>  (1) 
0.99999996999736518

>  <s_epik_Chemistry_Notes>  (1) 
This compound contains an acetal/aminal-like group ( X-CH(R)-Y where X, Y are N, S, or O) that may be acid/base labile, releasing an aldehyde.

>  <s_epik_cmdline>  (1) 
J2VwaWtfcHl0aG9uJywgJy1waHQnLCAnMS4wJywgJy1waCcsICc3LjQnLCAnLXRuJywgJzgnLCAnLW1hJywgJzUwMCcsICctaW1hZScsICc8aW5maWxlLm1hZT4nLCAnLW9tYWUnLCAnPG91dGZpbGUubWFlPic=

>  <s_epik_input>  (1) 
W09IXVtDSDJdT1tDQEBIXShDKD1PKVtDSDNdKU9bQ0BIXShbQ0BIXShbQ0gzXSlbT0hdKVtOSF1bQ0gyXVtOSF1bQ0gyXVtDSDJdW0NAQEhdKFMxKVtDSDJdW0NASF0oTjJbQ0hdM1tDSDJdW0NIMl0zKVtDQEBdMTJjNFtjSF1bY0hdW2NIXVtjSF1jNFtPSF0=

>  <s_glide_docking_method>  (1) 
confgen

>  <s_i_glide_gridfile>  (1) 
gpcr_5ht2c_6bqh_protein_autoprepared_prepared

>  <s_lp_Force_Field>  (1) 
S-OPLS

>  <s_lp_Variant>  (1) 
DiffSBDD_30_num_sample_100-2

>  <s_m_source_file>  (1) 
generated__ligand_DiffSBDD_2026-05-06_prepared.sdf

>  <GenAI_Model>  (1) 
DiffSBDD

>  <Protein>  (1) 
GPCR_5HT2C

$$$$
DiffSBDD_72_num_sample_100
     RDKit          3D

  0  0  0  0  0  0  0  0  0  0999 V3000
M  V30 BEGIN CTAB
M  V30 COUNTS 68 72 0 0 1
M  V30 BEGIN ATOM
M  V30 1 C 39.752055 25.965763 57.495776 0
M  V30 2 C 40.584768 31.948900 63.562584 0
M  V30 3 C 37.960512 34.983625 61.227059 0 CFG=1
M  V30 4 C 40.189627 28.702475 61.507429 0
M  V30 5 C 40.379974 32.189641 61.053561 0 CFG=2
M  V30 6 O 40.667289 32.429598 64.692297 0
M  V30 7 C 39.106042 36.009195 61.268705 0
M  V30 8 C 40.294656 32.854721 62.387936 0 CFG=1
M  V30 9 N 40.089315 30.071106 62.023839 0
M  V30 10 O 35.268336 34.421422 58.743204 0
M  V30 11 O 39.867484 30.572611 54.880446 0
M  V30 12 C 37.288870 37.848697 61.077870 0
M  V30 13 C 36.581573 34.471780 59.255842 0 CFG=1
M  V30 14 C 36.740368 35.465148 60.406602 0 CFG=2
M  V30 15 C 39.022320 32.632065 61.530571 0 CFG=1
M  V30 16 C 38.594227 28.042107 55.976764 0
M  V30 17 O 39.752479 27.369132 59.453510 0
M  V30 18 C 40.421632 29.622023 64.499117 0
M  V30 19 C 35.459674 32.712067 61.440388 0
M  V30 20 C 38.382565 33.649131 60.583565 0 CFG=1
M  V30 21 C 39.460082 27.199034 58.111446 0
M  V30 22 C 39.467550 25.767954 56.130553 0
M  V30 23 C 37.185409 33.143748 59.747075 0 CFG=1
M  V30 24 C 38.890804 26.803076 55.371797 0
M  V30 25 C 36.835852 36.928639 59.936546 0
M  V30 26 C 37.971541 29.162369 55.153382 0
M  V30 27 O 40.790574 30.832799 61.037954 0
M  V30 28 C 40.813462 30.442943 63.260950 0 CFG=2
M  V30 29 C 39.062235 29.813589 54.297046 0
M  V30 30 C 38.874070 28.242415 57.345845 0
M  V30 31 O 36.345866 32.220277 60.451956 0
M  V30 32 C 39.577585 28.639944 60.072979 0
M  V30 33 O 39.067440 29.536955 53.076453 0 CHG=-1
M  V30 34 C 38.634451 37.414580 61.697210 0
M  V30 35 H 40.198084 25.170273 58.072509 0
M  V30 36 H 37.639680 34.822508 62.250566 0
M  V30 37 H 41.234527 28.388587 61.484688 0
M  V30 38 H 39.656372 28.021387 62.169055 0
M  V30 39 H 40.832390 32.743622 60.253510 0
M  V30 40 H 39.888412 35.688626 61.952751 0
M  V30 41 H 39.573150 36.021511 60.284386 0
M  V30 42 H 40.745022 33.841347 62.433742 0
M  V30 43 H 35.215724 35.044672 58.030957 0
M  V30 44 H 36.521241 37.847482 61.852952 0
M  V30 45 H 37.356015 38.878661 60.725801 0
M  V30 46 H 37.212646 34.803427 58.429814 0
M  V30 47 H 35.869273 35.343614 61.044795 0
M  V30 48 H 38.321251 31.913541 61.950262 0
M  V30 49 H 41.161047 29.753307 65.289463 0
M  V30 50 H 39.467391 29.961898 64.906056 0
M  V30 51 H 40.368315 28.553935 64.296921 0
M  V30 52 H 34.964905 31.859629 61.901970 0
M  V30 53 H 35.988475 33.267469 62.212686 0
M  V30 54 H 34.676761 33.340264 61.017698 0
M  V30 55 H 39.120288 33.914480 59.825944 0
M  V30 56 H 39.695581 24.821331 55.664414 0
M  V30 57 H 37.558021 32.580591 58.890012 0
M  V30 58 H 38.677179 26.649055 54.323615 0
M  V30 59 H 35.867614 37.243031 59.549932 0
M  V30 60 H 37.537974 37.018811 59.107076 0
M  V30 61 H 37.182103 28.762538 54.515902 0
M  V30 62 H 37.514470 29.914211 55.798608 0
M  V30 63 H 41.878074 30.282662 63.085206 0
M  V30 64 H 38.641583 29.192173 57.800871 0
M  V30 65 H 38.516092 28.890286 60.112141 0
M  V30 66 H 40.066127 29.367619 59.425720 0
M  V30 67 H 38.539138 37.441372 62.783186 0
M  V30 68 H 39.409108 38.142372 61.454487 0
M  V30 END ATOM
M  V30 BEGIN BOND
M  V30 1 2 6 2
M  V30 2 1 7 3
M  V30 3 1 8 2
M  V30 4 1 8 5
M  V30 5 1 9 4
M  V30 6 1 13 10
M  V30 7 1 14 3
M  V30 8 1 14 13
M  V30 9 1 15 5
M  V30 10 1 15 8
M  V30 11 1 20 3
M  V30 12 1 20 15
M  V30 13 2 21 1
M  V30 14 1 21 17
M  V30 15 1 22 1
M  V30 16 1 23 13
M  V30 17 1 23 20
M  V30 18 1 24 16
M  V30 19 2 24 22
M  V30 20 1 25 12
M  V30 21 1 25 14
M  V30 22 1 26 16
M  V30 23 1 27 5
M  V30 24 1 27 9
M  V30 25 1 28 2
M  V30 26 1 28 9
M  V30 27 1 28 18
M  V30 28 2 29 11
M  V30 29 1 29 26
M  V30 30 2 30 16
M  V30 31 1 30 21
M  V30 32 1 31 19
M  V30 33 1 31 23
M  V30 34 1 32 4
M  V30 35 1 32 17
M  V30 36 1 33 29
M  V30 37 1 34 7
M  V30 38 1 34 12
M  V30 39 1 35 1
M  V30 40 1 3 36 CFG=1
M  V30 41 1 37 4
M  V30 42 1 38 4
M  V30 43 1 5 39 CFG=3
M  V30 44 1 40 7
M  V30 45 1 41 7
M  V30 46 1 8 42 CFG=3
M  V30 47 1 43 10
M  V30 48 1 44 12
M  V30 49 1 45 12
M  V30 50 1 13 46 CFG=3
M  V30 51 1 14 47 CFG=1
M  V30 52 1 15 48 CFG=1
M  V30 53 1 49 18
M  V30 54 1 50 18
M  V30 55 1 51 18
M  V30 56 1 52 19
M  V30 57 1 53 19
M  V30 58 1 54 19
M  V30 59 1 20 55 CFG=3
M  V30 60 1 56 22
M  V30 61 1 23 57 CFG=3
M  V30 62 1 58 24
M  V30 63 1 59 25
M  V30 64 1 60 25
M  V30 65 1 61 26
M  V30 66 1 62 26
M  V30 67 1 28 63 CFG=3
M  V30 68 1 64 30
M  V30 69 1 65 32
M  V30 70 1 66 32
M  V30 71 1 67 34
M  V30 72 1 68 34
M  V30 END BOND
M  V30 END CTAB
M  END
>  <i_epik_Tot_Q>  (1) 
-1

>  <i_epik_Tot_abs_Q>  (1) 
1

>  <i_i_glide_confnum>  (1) 
526

>  <i_i_glide_lignum>  (1) 
181

>  <i_i_glide_posenum>  (1) 
310

>  <i_i_glide_rotatable_bonds>  (1) 
9

>  <i_lp_mmshare_version>  (1) 
72125

>  <i_m_source_file_index>  (1) 
73

>  <i_f3d_flags>  (1) 
0

>  <num_sample>  (1) 
100

>  <b_lp_Chiralities_Consistent>  (1) 
1

>  <r_epik_Charging_Adjusted_Penalty>  (1) 
0.00040534896778007237

>  <r_epik_Ionization_Penalty>  (1) 
0.00058627792093801146

>  <r_epik_Ionization_Penalty_Charging>  (1) 
0.00040534896778007237

>  <r_epik_Ionization_Penalty_Neutral>  (1) 
0.00018092895315793904

>  <r_epik_State_Penalty>  (1) 
-0

>  <r_glide_ring_energy>  (1) 
0.98737463910041545

>  <r_i_docking_score>  (1) 
-7.2130081228344443

>  <r_i_glide_ecoul>  (1) 
-2.3394098632388127

>  <r_i_glide_eff_state_penalty>  (1) 
-0

>  <r_i_glide_einternal>  (1) 
21.039059798453167

>  <r_i_glide_emodel>  (1) 
-43.18814785426153

>  <r_i_glide_emodel_strain>  (1) 
2.7505393994681384

>  <r_i_glide_energy>  (1) 
-41.384019484829913

>  <r_i_glide_erotb>  (1) 
0.54329249107916178

>  <r_i_glide_esite>  (1) 
-0.031818884135157377

>  <r_i_glide_evdw>  (1) 
-39.0446096215911

>  <r_i_glide_gscore>  (1) 
-7.2130081228344443

>  <r_i_glide_gscore_strain>  (1) 
0

>  <r_i_glide_hbond>  (1) 
-0.32000000000000001

>  <r_i_glide_ligand_efficiency>  (1) 
-0.21214729773042484

>  <r_i_glide_ligand_efficiency_ln>  (1) 
-1.5935558123590061

>  <r_i_glide_ligand_efficiency_sa>  (1) 
-0.68727488933661218

>  <r_i_glide_lipo>  (1) 
-3.6910400119455971

>  <r_i_glide_metal>  (1) 
-0

>  <r_i_glide_rewards>  (1) 
-1.410299757267474

>  <r_lp_Energy>  (1) 
56.228467999999999

>  <r_lp_tautomer_probability>  (1) 
1

>  <s_epik_Chemistry_Notes>  (1) 
This compound has a N-S or N-O group and may undergo hydrolysis at high or low pH.

>  <s_epik_cmdline>  (1) 
J2VwaWtfcHl0aG9uJywgJy1waHQnLCAnMS4wJywgJy1waCcsICc3LjQnLCAnLXRuJywgJzgnLCAnLW1hJywgJzUwMCcsICctaW1hZScsICc8aW5maWxlLm1hZT4nLCAnLW9tYWUnLCAnPG91dGZpbGUubWFlPic=

>  <s_epik_input>  (1) 
Tz1DKFtPSF0pW0NIMl1jMVtjSF1bY0hdW2NIXWMoW2NIXTEpT1tDSDJdW0NIMl1OKE8yKVtDQEhdKFtDSDNdKUMoPU8pW0NAQEhdKFtDQEBIXTIzKVtDQEhdM1tDQEhdNFtDQEBIXShPW0NIM10pW0NAQEhdKFtPSF0pW0NAQEhdKFtDQEBIXTQ1KVtDSDJdW0NIMl1bQ0gyXVtDSDJdNQ==

>  <s_glide_docking_method>  (1) 
confgen

>  <s_i_glide_gridfile>  (1) 
gpcr_5ht2c_6bqh_protein_autoprepared_prepared

>  <s_lp_Force_Field>  (1) 
S-OPLS

>  <s_lp_Variant>  (1) 
DiffSBDD_72_num_sample_100-1

>  <s_m_source_file>  (1) 
generated__ligand_DiffSBDD_2026-05-06_prepared.sdf

>  <GenAI_Model>  (1) 
DiffSBDD

>  <Protein>  (1) 
GPCR_5HT2C

$$$$
DiffSBDD_32_num_sample_100
     RDKit          3D

  0  0  0  0  0  0  0  0  0  0999 V3000
M  V30 BEGIN CTAB
M  V30 COUNTS 84 87 0 0 1
M  V30 BEGIN ATOM
M  V30 1 C 38.567215 29.529802 58.330623 0 CFG=2
M  V30 2 O 38.492625 27.032720 56.310671 0 CHG=-1
M  V30 3 O 39.303910 35.695936 62.605712 0
M  V30 4 C 36.785436 36.359800 61.230019 0
M  V30 5 C 39.905871 30.473030 64.044741 0
M  V30 6 C 38.708373 28.275194 53.270899 0
M  V30 7 O 39.435240 30.741425 60.268289 0
M  V30 8 C 39.067687 28.389147 50.679622 0
M  V30 9 C 36.948207 32.571948 61.078724 0 CFG=1
M  V30 10 C 37.643818 29.811038 55.460040 0
M  V30 11 C 38.116443 36.145347 60.509101 0 CFG=2
M  V30 12 C 40.057770 30.340195 52.893643 0
M  V30 13 C 37.490628 31.936888 58.568000 0
M  V30 14 C 39.716621 29.535757 50.505386 0
M  V30 15 O 39.890903 29.938923 49.260403 0
M  V30 16 C 40.235554 30.395533 51.552571 0
M  V30 17 C 40.156731 32.452370 61.727854 0
M  V30 18 C 39.687990 27.394749 56.276753 0
M  V30 19 O 40.670972 26.638359 56.312638 0
M  V30 20 C 39.975702 28.916576 56.186509 0 CFG=2
M  V30 21 O 39.463192 26.543962 51.998373 0
M  V30 22 C 36.451422 32.110895 59.692615 0
M  V30 23 C 39.287309 29.395852 53.718797 0
M  V30 24 C 38.737780 27.720478 51.930312 0 CFG=1
M  V30 25 C 37.760021 31.532380 61.906114 0
M  V30 26 C 38.788994 29.536652 59.848431 0
M  V30 27 N 37.473867 30.848570 56.430683 0 CHG=1
M  V30 28 C 38.005602 34.687757 60.056082 0
M  V30 29 C 36.285879 34.942771 61.589759 0
M  V30 30 C 39.352532 36.421181 61.396064 0
M  V30 31 C 40.848040 29.552893 64.832593 0
M  V30 32 N 37.370048 34.006541 61.205083 0 CFG=1 CHG=1
M  V30 33 C 39.257556 31.204978 61.607424 0 CFG=1
M  V30 34 C 39.908486 29.597433 57.575395 0
M  V30 35 C 39.825603 30.107866 62.549217 0
M  V30 36 C 39.127465 29.726633 55.169601 0 CFG=1
M  V30 37 C 37.481356 30.552771 57.868217 0 CFG=1
M  V30 38 H 38.135385 28.547583 58.156942 0
M  V30 39 H 40.018406 35.986524 63.156023 0
M  V30 40 H 36.102165 36.845926 60.534242 0
M  V30 41 H 36.885306 37.014232 62.097773 0
M  V30 42 H 40.244030 31.499891 64.177317 0
M  V30 43 H 38.910435 30.422086 64.480206 0
M  V30 44 H 38.161670 27.673135 53.981843 0
M  V30 45 H 38.742240 27.866473 49.802831 0
M  V30 46 H 36.014317 32.564753 61.643803 0
M  V30 47 H 37.123366 30.184632 54.578188 0
M  V30 48 H 37.149533 28.892056 55.732477 0
M  V30 49 H 38.172889 36.812738 59.646510 0
M  V30 50 H 40.547170 31.131295 53.442074 0
M  V30 51 H 38.495043 32.217165 58.854228 0
M  V30 52 H 37.259756 32.716262 57.840983 0
M  V30 53 H 39.185450 29.569797 48.741720 0
M  V30 54 H 40.836984 31.222360 51.205898 0
M  V30 55 H 39.836724 33.107323 62.539482 0
M  V30 56 H 41.195513 32.185108 61.922272 0
M  V30 57 H 40.180249 33.026324 60.809974 0
M  V30 58 H 41.013128 29.006318 55.850763 0
M  V30 59 H 40.174745 26.658000 52.618553 0
M  V30 60 H 35.692679 32.815445 59.347448 0
M  V30 61 H 35.899960 31.181180 59.830624 0
M  V30 62 H 37.690585 27.449302 51.781230 0
M  V30 63 H 37.675054 31.822306 62.947742 0
M  V30 64 H 37.197911 30.603556 61.853288 0
M  V30 65 H 39.401015 28.684756 60.146826 0
M  V30 66 H 37.803282 29.392422 60.269830 0
M  V30 67 H 38.153983 31.574054 56.240543 0
M  V30 68 H 38.956707 34.280252 59.739960 0
M  V30 69 H 37.345688 34.658374 59.189325 0
M  V30 70 H 35.437838 34.692608 60.957114 0
M  V30 71 H 35.941932 34.869633 62.624932 0
M  V30 72 H 40.270810 36.141928 60.875799 0
M  V30 73 H 39.419052 37.484780 61.632685 0
M  V30 74 H 40.886921 29.843677 65.882322 0
M  V30 75 H 40.529990 28.511387 64.786854 0
M  V30 76 H 41.864016 29.603314 64.442474 0
M  V30 77 H 40.132577 30.647381 57.444832 0
M  V30 78 H 40.709479 29.193455 58.195251 0
M  V30 79 H 39.249194 29.189212 62.455429 0
M  V30 80 H 40.829021 29.859853 62.200686 0
M  V30 81 H 39.525431 30.740690 55.237293 0
M  V30 82 H 36.516477 30.076267 58.031356 0
M  V30 83 H 38.059648 34.067562 61.945491 0
M  V30 84 H 36.531103 31.221491 56.277787 0
M  V30 END ATOM
M  V30 BEGIN BOND
M  V30 1 1 11 4
M  V30 2 2 14 8
M  V30 3 1 15 14
M  V30 4 2 16 12
M  V30 5 1 16 14
M  V30 6 1 18 2
M  V30 7 2 19 18
M  V30 8 1 20 18
M  V30 9 1 22 9
M  V30 10 1 22 13
M  V30 11 2 23 6
M  V30 12 1 23 12
M  V30 13 1 24 6
M  V30 14 1 24 8
M  V30 15 1 24 21
M  V30 16 1 25 9
M  V30 17 1 26 1
M  V30 18 1 26 7
M  V30 19 1 27 10
M  V30 20 1 28 11
M  V30 21 1 29 4
M  V30 22 1 30 3
M  V30 23 1 30 11
M  V30 24 1 31 5
M  V30 25 1 32 9
M  V30 26 1 32 28
M  V30 27 1 32 29
M  V30 28 1 33 7
M  V30 29 1 33 17 CFG=3
M  V30 30 1 33 25
M  V30 31 1 34 1
M  V30 32 1 34 20
M  V30 33 1 35 5
M  V30 34 1 35 33
M  V30 35 1 36 10
M  V30 36 1 36 20
M  V30 37 1 36 23
M  V30 38 1 37 1
M  V30 39 1 37 13
M  V30 40 1 37 27
M  V30 41 1 1 38 CFG=3
M  V30 42 1 39 3
M  V30 43 1 40 4
M  V30 44 1 41 4
M  V30 45 1 42 5
M  V30 46 1 43 5
M  V30 47 1 44 6
M  V30 48 1 45 8
M  V30 49 1 9 46 CFG=1
M  V30 50 1 47 10
M  V30 51 1 48 10
M  V30 52 1 11 49 CFG=3
M  V30 53 1 50 12
M  V30 54 1 51 13
M  V30 55 1 52 13
M  V30 56 1 53 15
M  V30 57 1 54 16
M  V30 58 1 55 17
M  V30 59 1 56 17
M  V30 60 1 57 17
M  V30 61 1 20 58 CFG=3
M  V30 62 1 59 21
M  V30 63 1 60 22
M  V30 64 1 61 22
M  V30 65 1 24 62 CFG=3
M  V30 66 1 63 25
M  V30 67 1 64 25
M  V30 68 1 65 26
M  V30 69 1 66 26
M  V30 70 1 67 27
M  V30 71 1 68 28
M  V30 72 1 69 28
M  V30 73 1 70 29
M  V30 74 1 71 29
M  V30 75 1 72 30
M  V30 76 1 73 30
M  V30 77 1 74 31
M  V30 78 1 75 31
M  V30 79 1 76 31
M  V30 80 1 77 34
M  V30 81 1 78 34
M  V30 82 1 79 35
M  V30 83 1 80 35
M  V30 84 1 36 81 CFG=3
M  V30 85 1 37 82 CFG=1
M  V30 86 1 32 83 CFG=1
M  V30 87 1 84 27
M  V30 END BOND
M  V30 END CTAB
M  END
>  <i_epik_Tot_Q>  (1) 
1

>  <i_epik_Tot_abs_Q>  (1) 
3

>  <i_i_glide_confnum>  (1) 
92

>  <i_i_glide_lignum>  (1) 
86

>  <i_i_glide_posenum>  (1) 
321

>  <i_i_glide_rotatable_bonds>  (1) 
9

>  <i_lp_mmshare_version>  (1) 
72125

>  <i_m_source_file_index>  (1) 
33

>  <i_f3d_flags>  (1) 
0

>  <num_sample>  (1) 
100

>  <b_lp_Chiralities_Consistent>  (1) 
1

>  <r_epik_Charging_Adjusted_Penalty>  (1) 
0.016900800142501185

>  <r_epik_Ionization_Penalty>  (1) 
0.019380071947909534

>  <r_epik_Ionization_Penalty_Charging>  (1) 
0.016900800142501185

>  <r_epik_Ionization_Penalty_Neutral>  (1) 
0.0024792718054083493

>  <r_epik_State_Penalty>  (1) 
-0

>  <r_glide_ring_energy>  (1) 
0.61486460330697923

>  <r_i_docking_score>  (1) 
-7.2114796580430038

>  <r_i_glide_ecoul>  (1) 
-7.9145784363849518

>  <r_i_glide_eff_state_penalty>  (1) 
-0

>  <r_i_glide_einternal>  (1) 
18.570117845825528

>  <r_i_glide_emodel>  (1) 
-19.289533244404357

>  <r_i_glide_emodel_strain>  (1) 
5.0297828078144278

>  <r_i_glide_energy>  (1) 
-29.268925315282125

>  <r_i_glide_erotb>  (1) 
0.30428459818937692

>  <r_i_glide_esite>  (1) 
-0.091653707985709432

>  <r_i_glide_evdw>  (1) 
-21.354346878897172

>  <r_i_glide_gscore>  (1) 
-7.2114796580430038

>  <r_i_glide_gscore_strain>  (1) 
0.25744570195360694

>  <r_i_glide_hbond>  (1) 
-0.357613592374592

>  <r_i_glide_ligand_efficiency>  (1) 
-0.1949048556227839

>  <r_i_glide_ligand_efficiency_ln>  (1) 
-1.5640008767597937

>  <r_i_glide_ligand_efficiency_sa>  (1) 
-0.64946621889814016

>  <r_i_glide_lipo>  (1) 
-3.8572878187670807

>  <r_i_glide_metal>  (1) 
-0

>  <r_i_glide_rewards>  (1) 
-1.2117507296560044

>  <r_lp_Energy>  (1) 
56.404024999999997

>  <r_lp_tautomer_probability>  (1) 
1

>  <s_epik_cmdline>  (1) 
J2VwaWtfcHl0aG9uJywgJy1waHQnLCAnMS4wJywgJy1waCcsICc3LjQnLCAnLXRuJywgJzgnLCAnLW1hJywgJzUwMCcsICctaW1hZScsICc8aW5maWxlLm1hZT4nLCAnLW9tYWUnLCAnPG91dGZpbGUubWFlPic=

>  <s_epik_input>  (1) 
W09IXUMxPVtDSF1bQ0BASF0oW09IXSlbQ0hdPUMoW0NIXT1bQ0hdMSlbQ0BIXShbQ0BASF0oW0NIMl0yKUMoPU8pW09IXSlbQ0gyXVtOSF1bQ0BASF0oW0NAQEhdMjMpW0NIMl1bQ0gyXVtDQEBIXShbQ0gyXVtDQF0oW0NIM10pKE9bQ0gyXTMpW0NIMl1bQ0gyXVtDSDNdKU4oW0NIMl00KVtDSDJdW0NIMl1bQ0BIXTRbQ0gyXVtPSF0=

>  <s_glide_docking_method>  (1) 
confgen

>  <s_i_glide_gridfile>  (1) 
gpcr_5ht2c_6bqh_protein_autoprepared_prepared

>  <s_lp_Force_Field>  (1) 
S-OPLS

>  <s_lp_Variant>  (1) 
DiffSBDD_32_num_sample_100-1

>  <s_m_source_file>  (1) 
generated__ligand_DiffSBDD_2026-05-06_prepared.sdf

>  <GenAI_Model>  (1) 
DiffSBDD

>  <Protein>  (1) 
GPCR_5HT2C

$$$$
DiffSBDD_39_num_sample_100
     RDKit          3D

  0  0  0  0  0  0  0  0  0  0999 V3000
M  V30 BEGIN CTAB
M  V30 COUNTS 60 63 0 0 1
M  V30 BEGIN ATOM
M  V30 1 C 39.061248 34.804916 60.435175 0
M  V30 2 C 38.646635 28.723175 58.742929 0
M  V30 3 C 36.037244 32.553592 61.315392 0
M  V30 4 C 38.185719 30.029740 59.397169 0
M  V30 5 C 38.033070 33.048209 58.973108 0
M  V30 6 C 38.487745 28.106724 56.312773 0
M  V30 7 N 38.469744 27.223508 52.609433 0
M  V30 8 O 35.686756 33.621434 61.853498 0 CHG=-1
M  V30 9 C 38.710969 28.249498 54.826017 0
M  V30 10 C 36.775065 35.168532 59.642309 0
M  V30 11 O 36.667444 31.621424 61.853499 0
M  V30 12 C 36.746028 36.400969 60.327049 0
M  V30 13 C 37.863396 36.822549 61.077772 0
M  V30 14 N 36.952535 32.215343 59.057920 0
M  V30 15 C 40.242910 36.486254 61.920351 0
M  V30 16 C 34.800220 33.535434 59.327916 0
M  V30 17 C 39.249409 28.385298 50.615001 0
M  V30 18 C 37.157976 30.843130 58.555260 0
M  V30 19 C 41.046828 34.419631 63.330581 0
M  V30 20 C 39.318397 29.401167 54.212020 0
M  V30 21 C 35.705425 32.396166 59.844417 0 CFG=2
M  V30 22 C 40.002109 29.749664 50.372748 0
M  V30 23 O 41.467419 33.959075 62.248444 0 CHG=-1
M  V30 24 C 37.942516 34.360619 59.705068 0
M  V30 25 S 40.200003 30.698712 51.948097 0
M  V30 26 C 39.467414 29.391112 52.818516 0
M  V30 27 O 39.742637 30.478551 54.932343 0 CHG=-1
M  V30 28 C 39.023568 36.021609 61.129400 0
M  V30 29 Cl 37.571114 25.769642 54.644667 0
M  V30 30 C 40.425699 35.825448 63.310655 0
M  V30 31 C 38.300473 27.185794 53.959457 0
M  V30 32 C 38.946548 28.924723 57.277404 0
M  V30 33 C 35.574848 34.736437 58.813973 0
M  V30 34 O 39.067384 32.749623 58.382312 0
M  V30 35 C 39.048940 28.323594 52.091671 0
M  V30 36 O 41.095674 33.840824 64.437512 0
M  V30 37 H 39.950873 34.197604 60.463914 0
M  V30 38 H 37.869144 27.969333 58.841763 0
M  V30 39 H 39.534273 28.338570 59.245103 0
M  V30 40 H 37.766194 29.810161 60.375468 0
M  V30 41 H 39.081768 30.610807 59.603368 0
M  V30 42 H 37.895969 27.261770 56.621333 0
M  V30 43 H 35.868188 37.025632 60.272882 0
M  V30 44 H 37.833662 37.765293 61.603138 0
M  V30 45 H 41.135476 36.340031 61.308949 0
M  V30 46 H 40.170646 37.565332 62.056896 0
M  V30 47 H 34.098057 33.858531 60.095497 0
M  V30 48 H 34.137821 33.167727 58.553145 0
M  V30 49 H 39.800834 27.517492 50.253543 0
M  V30 50 H 38.267468 28.421423 50.163404 0
M  V30 51 H 37.467623 30.943289 57.513813 0
M  V30 52 H 36.227147 30.281069 58.500989 0
M  V30 53 H 35.097048 31.493642 59.805408 0
M  V30 54 H 39.467417 30.364085 49.648996 0
M  V30 55 H 40.997447 29.588318 49.962537 0
M  V30 56 H 41.113022 36.431051 63.895340 0
M  V30 57 H 39.481258 35.821610 63.854082 0
M  V30 58 H 39.552261 29.771830 57.042782 0
M  V30 59 H 34.906308 35.578640 58.640813 0
M  V30 60 H 35.960376 34.421426 57.853502 0
M  V30 END ATOM
M  V30 BEGIN BOND
M  V30 1 1 4 2
M  V30 2 1 8 3
M  V30 3 1 9 6
M  V30 4 2 11 3
M  V30 5 1 12 10
M  V30 6 2 13 12
M  V30 7 1 14 5
M  V30 8 1 18 4
M  V30 9 1 18 14
M  V30 10 2 20 9
M  V30 11 1 21 3
M  V30 12 1 21 14
M  V30 13 1 21 16
M  V30 14 1 22 17
M  V30 15 1 23 19
M  V30 16 1 24 1
M  V30 17 1 24 5
M  V30 18 2 24 10
M  V30 19 1 25 22
M  V30 20 1 26 20
M  V30 21 1 26 25
M  V30 22 1 27 20
M  V30 23 2 28 1
M  V30 24 1 28 13
M  V30 25 1 28 15
M  V30 26 1 30 15
M  V30 27 1 30 19
M  V30 28 2 31 7
M  V30 29 1 31 9
M  V30 30 1 31 29
M  V30 31 1 32 2
M  V30 32 2 32 6
M  V30 33 1 33 10
M  V30 34 1 33 16
M  V30 35 2 34 5
M  V30 36 1 35 7
M  V30 37 1 35 17
M  V30 38 2 35 26
M  V30 39 2 36 19
M  V30 40 1 37 1
M  V30 41 1 38 2
M  V30 42 1 39 2
M  V30 43 1 40 4
M  V30 44 1 41 4
M  V30 45 1 42 6
M  V30 46 1 43 12
M  V30 47 1 44 13
M  V30 48 1 45 15
M  V30 49 1 46 15
M  V30 50 1 47 16
M  V30 51 1 48 16
M  V30 52 1 49 17
M  V30 53 1 50 17
M  V30 54 1 51 18
M  V30 55 1 52 18
M  V30 56 1 21 53 CFG=1
M  V30 57 1 54 22
M  V30 58 1 55 22
M  V30 59 1 56 30
M  V30 60 1 57 30
M  V30 61 1 58 32
M  V30 62 1 59 33
M  V30 63 1 60 33
M  V30 END BOND
M  V30 END CTAB
M  END
>  <i_epik_Tot_Q>  (1) 
-3

>  <i_epik_Tot_abs_Q>  (1) 
3

>  <i_i_glide_confnum>  (1) 
195

>  <i_i_glide_lignum>  (1) 
94

>  <i_i_glide_posenum>  (1) 
63

>  <i_i_glide_rotatable_bonds>  (1) 
9

>  <i_lp_mmshare_version>  (1) 
72125

>  <i_m_source_file_index>  (1) 
40

>  <i_f3d_flags>  (1) 
0

>  <num_sample>  (1) 
100

>  <b_lp_Chiralities_Consistent>  (1) 
1

>  <r_epik_Charging_Adjusted_Penalty>  (1) 
0.2804944600534911

>  <r_epik_Ionization_Penalty>  (1) 
0.1893944324441556

>  <r_epik_Ionization_Penalty_Charging>  (1) 
0.1048911762492778

>  <r_epik_Ionization_Penalty_Neutral>  (1) 
0.084503256194877821

>  <r_epik_State_Penalty>  (1) 
0.17560328380421328

>  <r_glide_ring_energy>  (1) 
0

>  <r_i_docking_score>  (1) 
-7.2110149195443611

>  <r_i_glide_ecoul>  (1) 
-3.8318394217466039

>  <r_i_glide_eff_state_penalty>  (1) 
0.17560328380421328

>  <r_i_glide_einternal>  (1) 
2.2581452823149633

>  <r_i_glide_emodel>  (1) 
-53.027512373528182

>  <r_i_glide_emodel_strain>  (1) 
5.2197175452574669

>  <r_i_glide_energy>  (1) 
-42.805715493678058

>  <r_i_glide_erotb>  (1) 
0.44331424450836554

>  <r_i_glide_esite>  (1) 
-0.15015921606986568

>  <r_i_glide_evdw>  (1) 
-38.973876071931457

>  <r_i_glide_gscore>  (1) 
-7.3866182033485748

>  <r_i_glide_gscore_strain>  (1) 
0.30492938631436672

>  <r_i_glide_hbond>  (1) 
-0.16

>  <r_i_glide_ligand_efficiency>  (1) 
-0.20030596998734337

>  <r_i_glide_ligand_efficiency_ln>  (1) 
-1.5732486363355758

>  <r_i_glide_ligand_efficiency_sa>  (1) 
-0.66139574041747851

>  <r_i_glide_lipo>  (1) 
-4.134920459295838

>  <r_i_glide_metal>  (1) 
-0

>  <r_i_glide_rewards>  (1) 
-1.1663124419470399

>  <r_lp_Energy>  (1) 
58.368376999999995

>  <s_epik_cmdline>  (1) 
J2VwaWtfcHl0aG9uJywgJy1waHQnLCAnMS4wJywgJy1waCcsICc3LjQnLCAnLXRuJywgJzgnLCAnLW1hJywgJzUwMCcsICctaW1hZScsICc8aW5maWxlLm1hZT4nLCAnLW9tYWUnLCAnPG91dGZpbGUubWFlPic=

>  <s_epik_input>  (1) 
W09IXUMoPU8pW0NIMl1bQ0gyXWMoW2NIXVtjSF0xKVtjSF1jKGMxMilDKD1PKU4oW0NAQEhdKEMoPU8pW09IXSlbQ0gyXVtDSDJdMilbQ0gyXVtDSDJdW0NIMl1cW0NIXT1bQ0hdXGMoYzNbT0hdKWMoQ2wpbmMoYzM0KVtDSDJdW0NIMl1TNA==

>  <s_glide_docking_method>  (1) 
confgen

>  <s_i_glide_gridfile>  (1) 
gpcr_5ht2c_6bqh_protein_autoprepared_prepared

>  <s_lp_Force_Field>  (1) 
S-OPLS

>  <s_lp_Variant>  (1) 
DiffSBDD_39_num_sample_100-1

>  <s_m_source_file>  (1) 
generated__ligand_DiffSBDD_2026-05-06_prepared.sdf

>  <GenAI_Model>  (1) 
DiffSBDD

>  <Protein>  (1) 
GPCR_5HT2C

$$$$
DiffSBDD_18_num_sample_100
     RDKit          3D

  0  0  0  0  0  0  0  0  0  0999 V3000
M  V30 BEGIN CTAB
M  V30 COUNTS 70 72 0 0 1
M  V30 BEGIN ATOM
M  V30 1 O 38.667420 34.755107 62.232030 0
M  V30 2 C 39.263503 25.426939 57.453479 0
M  V30 3 C 37.322736 30.407838 58.906099 0
M  V30 4 C 38.529875 24.430599 57.092004 0
M  V30 5 O 38.899792 31.947125 60.625199 0
M  V30 6 C 39.639240 27.856279 56.938075 0 CFG=2
M  V30 7 C 42.267757 31.356777 64.205204 0
M  V30 8 N 39.167988 26.509426 56.630360 0
M  V30 9 N 41.013830 27.816311 57.443371 0
M  V30 10 C 40.847068 35.411263 63.139581 0
M  V30 11 C 42.687326 33.377357 65.633786 0
M  V30 12 O 43.149637 30.555933 63.901863 0
M  V30 13 O 37.043358 24.131881 55.274282 0
M  V30 14 C 40.406839 30.271746 66.382353 0
M  V30 15 C 37.838553 30.324198 56.433836 0
M  V30 16 C 37.835821 24.824029 55.910220 0
M  V30 17 C 41.121515 32.195536 67.853359 0
M  V30 18 C 42.267608 34.370985 64.827900 0
M  V30 19 C 38.094952 32.516542 59.892635 0
M  V30 20 N 41.244318 31.751847 63.398017 0
M  V30 21 C 38.370593 29.987561 57.842231 0 CFG=2
M  V30 22 C 39.845297 35.517546 61.980498 0 CFG=2
M  V30 23 C 38.752297 28.497938 58.027725 0 CFG=2
M  V30 24 C 39.633869 28.294795 59.267509 0
M  V30 25 O 41.728857 31.418350 68.623153 0 CHG=-1
M  V30 26 C 38.205778 26.303725 55.490480 0
M  V30 27 C 40.808385 32.926598 63.139276 0
M  V30 28 C 37.995740 34.043052 59.890282 0
M  V30 29 C 37.627099 34.679433 61.250547 0
M  V30 30 C 39.446461 36.999909 61.853498 0
M  V30 31 C 41.307392 34.261412 63.705412 0
M  V30 32 C 42.231087 31.955916 65.586116 0 CFG=1
M  V30 33 C 40.922337 31.728615 66.395197 0 CFG=1
M  V30 34 N 37.283218 31.856952 59.053366 0
M  V30 35 N 41.015297 28.219619 58.804029 0
M  V30 36 O 40.667409 33.320327 68.158686 0
M  V30 37 H 39.911870 25.497694 58.313592 0
M  V30 38 H 37.511455 29.943319 59.874322 0
M  V30 39 H 36.329479 30.064744 58.610987 0
M  V30 40 H 38.425467 23.475024 57.579069 0
M  V30 41 H 39.647305 28.414627 56.004728 0
M  V30 42 H 41.401858 26.878012 57.357114 0
M  V30 43 H 41.201459 36.354364 63.533993 0
M  V30 44 H 43.391133 33.613395 66.419423 0
M  V30 45 H 37.349813 26.975275 55.534916 0
M  V30 46 H 39.560515 30.143802 67.057936 0
M  V30 47 H 40.063291 29.980122 65.389950 0
M  V30 48 H 41.184680 29.571089 66.687896 0
M  V30 49 H 37.013413 29.669224 56.155940 0
M  V30 50 H 37.467404 31.348537 56.384868 0
M  V30 51 H 38.605981 30.249128 55.666315 0
M  V30 52 H 42.669904 35.354748 65.027456 0
M  V30 53 H 39.278055 30.574024 57.991204 0
M  V30 54 H 40.342500 35.180744 61.070517 0
M  V30 55 H 37.822760 27.936182 58.134514 0
M  V30 56 H 39.534067 29.071319 60.025296 0
M  V30 57 H 39.382625 27.345346 59.738915 0
M  V30 58 H 38.696259 26.346035 54.517856 0
M  V30 59 H 40.014243 33.036675 62.418636 0
M  V30 60 H 37.243678 34.338416 59.156982 0
M  V30 61 H 38.941517 34.421354 59.514125 0
M  V30 62 H 36.822019 34.095817 61.700219 0
M  V30 63 H 37.190392 35.664069 61.089476 0
M  V30 64 H 40.318834 37.621848 61.660755 0
M  V30 65 H 38.744174 37.180427 61.043919 0
M  V30 66 H 38.982753 37.359514 62.772976 0
M  V30 67 H 43.010482 31.416570 66.127561 0
M  V30 68 H 40.156469 32.357815 65.945965 0
M  V30 69 H 36.638060 32.373557 58.464213 0
M  V30 70 H 41.564970 27.572591 59.367026 0
M  V30 END ATOM
M  V30 BEGIN BOND
M  V30 1 2 4 2
M  V30 2 1 8 2
M  V30 3 1 8 6
M  V30 4 1 9 6
M  V30 5 2 12 7
M  V30 6 1 16 4
M  V30 7 2 16 13
M  V30 8 2 18 11
M  V30 9 2 19 5
M  V30 10 1 20 7
M  V30 11 1 21 3
M  V30 12 1 21 15
M  V30 13 1 22 1
M  V30 14 1 22 10
M  V30 15 1 23 6
M  V30 16 1 23 21
M  V30 17 1 24 23
M  V30 18 1 25 17
M  V30 19 1 26 8
M  V30 20 1 26 16
M  V30 21 2 27 20
M  V30 22 1 28 19
M  V30 23 1 29 1
M  V30 24 1 29 28
M  V30 25 1 30 22
M  V30 26 2 31 10
M  V30 27 1 31 18
M  V30 28 1 31 27
M  V30 29 1 32 7
M  V30 30 1 32 11
M  V30 31 1 33 14
M  V30 32 1 33 17
M  V30 33 1 33 32
M  V30 34 1 34 3
M  V30 35 1 34 19
M  V30 36 1 35 9
M  V30 37 1 35 24
M  V30 38 2 36 17
M  V30 39 1 37 2
M  V30 40 1 38 3
M  V30 41 1 39 3
M  V30 42 1 40 4
M  V30 43 1 6 41 CFG=3
M  V30 44 1 42 9
M  V30 45 1 43 10
M  V30 46 1 44 11
M  V30 47 1 45 26
M  V30 48 1 46 14
M  V30 49 1 47 14
M  V30 50 1 48 14
M  V30 51 1 49 15
M  V30 52 1 50 15
M  V30 53 1 51 15
M  V30 54 1 52 18
M  V30 55 1 21 53 CFG=1
M  V30 56 1 22 54 CFG=3
M  V30 57 1 23 55 CFG=1
M  V30 58 1 56 24
M  V30 59 1 57 24
M  V30 60 1 58 26
M  V30 61 1 59 27
M  V30 62 1 60 28
M  V30 63 1 61 28
M  V30 64 1 62 29
M  V30 65 1 63 29
M  V30 66 1 64 30
M  V30 67 1 65 30
M  V30 68 1 66 30
M  V30 69 1 32 67 CFG=1
M  V30 70 1 33 68 CFG=3
M  V30 71 1 69 34
M  V30 72 1 70 35
M  V30 END BOND
M  V30 END CTAB
M  END
>  <i_epik_Tot_Q>  (1) 
-1

>  <i_epik_Tot_abs_Q>  (1) 
1

>  <i_i_glide_confnum>  (1) 
826

>  <i_i_glide_lignum>  (1) 
42

>  <i_i_glide_posenum>  (1) 
326

>  <i_i_glide_rotatable_bonds>  (1) 
12

>  <i_lp_mmshare_version>  (1) 
72125

>  <i_m_source_file_index>  (1) 
19

>  <i_f3d_flags>  (1) 
0

>  <num_sample>  (1) 
100

>  <b_lp_Chiralities_Consistent>  (1) 
1

>  <r_epik_Charging_Adjusted_Penalty>  (1) 
0.37971815023500188

>  <r_epik_Ionization_Penalty>  (1) 
0.19445293645399606

>  <r_epik_Ionization_Penalty_Charging>  (1) 
0.18991606969001057

>  <r_epik_Ionization_Penalty_Neutral>  (1) 
0.004536866763985496

>  <r_epik_State_Penalty>  (1) 
0.18980208054499129

>  <r_glide_ring_energy>  (1) 
1.7561163794185952

>  <r_i_docking_score>  (1) 
-7.205086454164868

>  <r_i_glide_ecoul>  (1) 
-3.6129974301935435

>  <r_i_glide_eff_state_penalty>  (1) 
0.18980208054499129

>  <r_i_glide_einternal>  (1) 
5.2787286944865066

>  <r_i_glide_emodel>  (1) 
-74.139331086128323

>  <r_i_glide_emodel_strain>  (1) 
0.71413898301742051

>  <r_i_glide_energy>  (1) 
-53.819881376339303

>  <r_i_glide_erotb>  (1) 
0.89642714384868305

>  <r_i_glide_esite>  (1) 
-0.11520853696324321

>  <r_i_glide_evdw>  (1) 
-50.206883946145759

>  <r_i_glide_gscore>  (1) 
-7.3948885347098594

>  <r_i_glide_gscore_strain>  (1) 
0

>  <r_i_glide_hbond>  (1) 
-0.096884734567668634

>  <r_i_glide_ligand_efficiency>  (1) 
-0.20014129039346856

>  <r_i_glide_ligand_efficiency_ln>  (1) 
-1.5719552053583952

>  <r_i_glide_ligand_efficiency_sa>  (1) 
-0.66085198037912629

>  <r_i_glide_lipo>  (1) 
-3.2641306146299844

>  <r_i_glide_metal>  (1) 
-0

>  <r_i_glide_rewards>  (1) 
-1.7627979805613281

>  <r_lp_Energy>  (1) 
20.917635000000001

>  <r_lp_tautomer_probability>  (1) 
0.98846045845713826

>  <s_epik_Chemistry_Notes>  (1) 
This compound has an imine and may undergo hydrolysis. This compound contains an acetal/aminal-like group ( X-CH(R)-Y where X, Y are N, S, or O) that may be acid/base labile, releasing an aldehyde.

>  <s_epik_cmdline>  (1) 
J2VwaWtfcHl0aG9uJywgJy1waHQnLCAnMS4wJywgJy1waCcsICc3LjQnLCAnLXRuJywgJzgnLCAnLW1hJywgJzUwMCcsICctaW1hZScsICc8aW5maWxlLm1hZT4nLCAnLW9tYWUnLCAnPG91dGZpbGUubWFlPic=

>  <s_epik_input>  (1) 
W09IXUMoPU8pW0NASF0oW0NIM10pW0NAQEhdMVtDSF09W0NIXVxDKFtDSF09TkMxPU8pPVtDSF1cW0NASF0oW0NIM10pT1tDSDJdW0NIMl1DKD1PKVtOSF1bQ0gyXVtDQEhdKFtDSDNdKVtDQEBIXTJbQ0gyXVtOSF1bTkhdW0NASF0ybjNbY0hdW2NIXWMoW09IXSlbY0hdMw==

>  <s_glide_docking_method>  (1) 
confgen

>  <s_i_glide_gridfile>  (1) 
gpcr_5ht2c_6bqh_protein_autoprepared_prepared

>  <s_lp_Force_Field>  (1) 
S-OPLS

>  <s_lp_Variant>  (1) 
DiffSBDD_18_num_sample_100-2

>  <s_m_source_file>  (1) 
generated__ligand_DiffSBDD_2026-05-06_prepared.sdf

>  <GenAI_Model>  (1) 
DiffSBDD

>  <Protein>  (1) 
GPCR_5HT2C

$$$$
DiffSBDD_79_num_sample_100
     RDKit          3D

  0  0  0  0  0  0  0  0  0  0999 V3000
M  V30 BEGIN CTAB
M  V30 COUNTS 84 86 0 0 1
M  V30 BEGIN ATOM
M  V30 1 C 37.194559 33.974713 59.460471 0
M  V30 2 C 39.135535 32.865155 62.248182 0
M  V30 3 C 38.340309 25.984413 55.869071 0
M  V30 4 C 40.202746 36.452003 66.359035 0
M  V30 5 C 38.119105 32.264805 57.999213 0
M  V30 6 C 38.042956 27.519561 53.946056 0
M  V30 7 C 37.391005 32.461535 59.329572 0
M  V30 8 C 39.829547 28.243043 59.584227 0
M  V30 9 F 37.467316 28.713625 54.080937 0
M  V30 10 C 40.668950 37.541148 67.338746 0
M  V30 11 C 37.777009 32.248227 61.919944 0
M  V30 12 C 40.220818 28.133233 57.058919 0
M  V30 13 F 38.950103 27.615814 52.973850 0
M  V30 14 C 38.723874 27.115208 55.250825 0
M  V30 15 C 39.106564 26.288841 58.254021 0
M  V30 16 C 40.739368 32.574088 64.024996 0
M  V30 17 C 41.067285 34.266734 67.165944 0
M  V30 18 N 41.126527 35.303906 66.287757 0
M  V30 19 C 36.331810 31.484062 59.856152 0
M  V30 20 C 39.700385 27.491689 58.268027 0
M  V30 21 C 42.148072 35.348095 65.228433 0
M  V30 22 C 40.404157 30.794928 62.312874 0 CFG=2
M  V30 23 C 37.716182 31.577429 60.549834 0
M  V30 24 C 35.872558 30.276965 59.043301 0
M  V30 25 O 39.365714 30.079085 61.720146 0
M  V30 26 O 41.834923 33.306300 67.113514 0
M  V30 27 C 41.175452 29.736416 63.113151 0
M  V30 28 C 35.069316 31.982882 60.573124 0
M  V30 29 C 39.993167 34.322880 68.260208 0
M  V30 30 N 39.867525 31.907997 63.059934 0
M  V30 31 F 37.114357 26.653388 53.550804 0
M  V30 32 C 39.797919 27.980144 55.770686 0
M  V30 33 C 41.607637 35.010176 63.821621 0
M  V30 34 C 38.974352 25.405698 57.075250 0
M  V30 35 C 41.752533 33.537165 63.387966 0
M  V30 36 C 38.633667 29.197625 59.730869 0
M  V30 37 C 38.892975 30.534600 60.451587 0 CFG=1
M  V30 38 H 36.675653 34.365080 58.583523 0
M  V30 39 H 36.612294 34.273310 60.326038 0
M  V30 40 H 38.162367 34.470460 59.533712 0
M  V30 41 H 38.987403 33.786075 62.809231 0
M  V30 42 H 39.686253 33.138975 61.347140 0
M  V30 43 H 37.548555 25.392281 55.433196 0
M  V30 44 H 40.126665 36.899947 65.368609 0
M  V30 45 H 39.181357 36.151173 66.587361 0
M  V30 46 H 37.495839 32.617837 57.177209 0
M  V30 47 H 39.045452 32.839686 57.988151 0
M  V30 48 H 38.379053 31.235529 57.785823 0
M  V30 49 H 39.904105 27.579157 60.443860 0
M  V30 50 H 40.760803 28.810634 59.564116 0
M  V30 51 H 39.978966 38.384721 67.326004 0
M  V30 52 H 40.737055 37.188870 68.366202 0
M  V30 53 H 41.649355 37.919488 67.053530 0
M  V30 54 H 37.469797 31.519727 62.664314 0
M  V30 55 H 37.055087 33.048591 62.011290 0
M  V30 56 H 40.983633 28.875528 57.214941 0
M  V30 57 H 38.733843 25.883064 59.177630 0
M  V30 58 H 40.108366 33.113593 64.724940 0
M  V30 59 H 41.256419 31.839064 64.641008 0
M  V30 60 H 43.008970 34.718066 65.452534 0
M  V30 61 H 42.561328 36.356063 65.222195 0
M  V30 62 H 41.069140 31.177877 61.538334 0
M  V30 63 H 36.472882 30.117061 58.154297 0
M  V30 64 H 34.866162 30.421330 58.653501 0
M  V30 65 H 35.857511 29.377254 59.651978 0
M  V30 66 H 42.109770 30.142893 63.498875 0
M  V30 67 H 40.560786 29.383120 63.941806 0
M  V30 68 H 41.410145 28.885668 62.472462 0
M  V30 69 H 34.274479 32.182005 59.851692 0
M  V30 70 H 34.718231 31.223192 61.271955 0
M  V30 71 H 35.195299 32.902205 61.134826 0
M  V30 72 H 38.988505 34.421924 67.853571 0
M  V30 73 H 40.009560 33.397675 68.835274 0
M  V30 74 H 40.179202 35.135785 68.958766 0
M  V30 75 H 40.267944 28.622517 55.052925 0
M  V30 76 H 42.177412 35.613614 63.114743 0
M  V30 77 H 40.576944 35.343819 63.702596 0
M  V30 78 H 39.956049 25.009238 56.813289 0
M  V30 79 H 38.374120 24.546910 57.377260 0
M  V30 80 H 42.728005 33.172305 63.661955 0
M  V30 81 H 41.731898 33.478656 62.299878 0
M  V30 82 H 38.281324 29.385365 58.728821 0
M  V30 83 H 37.867000 28.644124 60.253497 0
M  V30 84 H 39.704399 31.021978 59.915427 0
M  V30 END ATOM
M  V30 BEGIN BOND
M  V30 1 1 7 1
M  V30 2 1 7 5
M  V30 3 1 9 6
M  V30 4 1 10 4
M  V30 5 1 11 2
M  V30 6 1 13 6
M  V30 7 2 14 3
M  V30 8 1 14 6
M  V30 9 1 18 4
M  V30 10 1 18 17
M  V30 11 1 19 7
M  V30 12 1 20 8
M  V30 13 1 20 12
M  V30 14 2 20 15
M  V30 15 1 21 18
M  V30 16 1 23 7
M  V30 17 1 23 11
M  V30 18 1 23 19
M  V30 19 1 24 19
M  V30 20 1 25 22
M  V30 21 2 26 17
M  V30 22 1 27 22
M  V30 23 1 28 19
M  V30 24 1 29 17
M  V30 25 1 30 2
M  V30 26 1 30 16
M  V30 27 1 30 22
M  V30 28 1 31 6
M  V30 29 2 32 12
M  V30 30 1 32 14
M  V30 31 1 33 21
M  V30 32 1 34 3
M  V30 33 1 34 15
M  V30 34 1 35 16
M  V30 35 1 35 33
M  V30 36 1 36 8
M  V30 37 1 37 23
M  V30 38 1 37 25
M  V30 39 1 37 36
M  V30 40 1 38 1
M  V30 41 1 39 1
M  V30 42 1 40 1
M  V30 43 1 41 2
M  V30 44 1 42 2
M  V30 45 1 43 3
M  V30 46 1 44 4
M  V30 47 1 45 4
M  V30 48 1 46 5
M  V30 49 1 47 5
M  V30 50 1 48 5
M  V30 51 1 49 8
M  V30 52 1 50 8
M  V30 53 1 51 10
M  V30 54 1 52 10
M  V30 55 1 53 10
M  V30 56 1 54 11
M  V30 57 1 55 11
M  V30 58 1 56 12
M  V30 59 1 57 15
M  V30 60 1 58 16
M  V30 61 1 59 16
M  V30 62 1 60 21
M  V30 63 1 61 21
M  V30 64 1 22 62 CFG=3
M  V30 65 1 63 24
M  V30 66 1 64 24
M  V30 67 1 65 24
M  V30 68 1 66 27
M  V30 69 1 67 27
M  V30 70 1 68 27
M  V30 71 1 69 28
M  V30 72 1 70 28
M  V30 73 1 71 28
M  V30 74 1 72 29
M  V30 75 1 73 29
M  V30 76 1 74 29
M  V30 77 1 75 32
M  V30 78 1 76 33
M  V30 79 1 77 33
M  V30 80 1 78 34
M  V30 81 1 79 34
M  V30 82 1 80 35
M  V30 83 1 81 35
M  V30 84 1 82 36
M  V30 85 1 83 36
M  V30 86 1 37 84 CFG=3
M  V30 END BOND
M  V30 END CTAB
M  END
>  <i_epik_Tot_Q>  (1) 
0

>  <i_epik_Tot_abs_Q>  (1) 
0

>  <i_i_glide_confnum>  (1) 
1130

>  <i_i_glide_lignum>  (1) 
199

>  <i_i_glide_posenum>  (1) 
232

>  <i_i_glide_rotatable_bonds>  (1) 
11

>  <i_lp_mmshare_version>  (1) 
72125

>  <i_m_source_file_index>  (1) 
80

>  <i_f3d_flags>  (1) 
0

>  <num_sample>  (1) 
100

>  <b_lp_Chiralities_Consistent>  (1) 
1

>  <r_epik_Charging_Adjusted_Penalty>  (1) 
0.2050768058510691

>  <r_epik_Ionization_Penalty>  (1) 
0.20507783400789523

>  <r_epik_Ionization_Penalty_Charging>  (1) 
0

>  <r_epik_Ionization_Penalty_Neutral>  (1) 
0.20507783400789523

>  <r_epik_State_Penalty>  (1) 
0.2050768058510691

>  <r_glide_ring_energy>  (1) 
0

>  <r_i_docking_score>  (1) 
-7.2049062661645591

>  <r_i_glide_ecoul>  (1) 
1.4887896662897155

>  <r_i_glide_eff_state_penalty>  (1) 
0.2050768058510691

>  <r_i_glide_einternal>  (1) 
51.244548893556868

>  <r_i_glide_emodel>  (1) 
-41.346466264949086

>  <r_i_glide_emodel_strain>  (1) 
0.64787543493426369

>  <r_i_glide_energy>  (1) 
-47.886205907292521

>  <r_i_glide_erotb>  (1) 
0.59792730839384334

>  <r_i_glide_esite>  (1) 
0

>  <r_i_glide_evdw>  (1) 
-49.374995573582233

>  <r_i_glide_gscore>  (1) 
-7.4099830720156286

>  <r_i_glide_gscore_strain>  (1) 
0

>  <r_i_glide_hbond>  (1) 
0

>  <r_i_glide_ligand_efficiency>  (1) 
-0.19472719638282593

>  <r_i_glide_ligand_efficiency_ln>  (1) 
-1.5625752621635287

>  <r_i_glide_ligand_efficiency_sa>  (1) 
-0.64887421889660546

>  <r_i_glide_lipo>  (1) 
-4.0495322559940181

>  <r_i_glide_metal>  (1) 
-0

>  <r_i_glide_rewards>  (1) 
-1.7129467956797999

>  <r_lp_Energy>  (1) 
55.785767999999997

>  <s_epik_Chemistry_Notes>  (1) 
This compound contains an acetal/aminal-like group ( X-CH(R)-Y where X, Y are N, S, or O) that may be acid/base labile, releasing an aldehyde.

>  <s_epik_cmdline>  (1) 
J2VwaWtfcHl0aG9uJywgJy1waHQnLCAnMS4wJywgJy1waCcsICc3LjQnLCAnLXRuJywgJzgnLCAnLW1hJywgJzUwMCcsICctaW1hZScsICc8aW5maWxlLm1hZT4nLCAnLW9tYWUnLCAnPG91dGZpbGUubWFlPic=

>  <s_epik_input>  (1) 
W0NIM11bQ0gyXU4oQyg9TylbQ0gzXSlbQ0gyXVtDSDJdW0NIMl1bQ0gyXU4oW0NIMl1bQ0gyXUMxMkMoW0NIM10pKFtDSDNdKUMxKFtDSDNdKVtDSDNdKVtDQEBIXShbQ0gzXSlPW0NASF0yW0NIMl1bQ0gyXUMoW0NIXT1bQ0hdMyk9W0NIXVtDSDJdW0NIXT1DM0MoRikoRilG

>  <s_glide_docking_method>  (1) 
confgen

>  <s_i_glide_gridfile>  (1) 
gpcr_5ht2c_6bqh_protein_autoprepared_prepared

>  <s_lp_Force_Field>  (1) 
S-OPLS

>  <s_lp_Variant>  (1) 
DiffSBDD_79_num_sample_100-1

>  <s_m_source_file>  (1) 
generated__ligand_DiffSBDD_2026-05-06_prepared.sdf

>  <GenAI_Model>  (1) 
DiffSBDD

>  <Protein>  (1) 
GPCR_5HT2C

$$$$
DiffSBDD_79_num_sample_100
     RDKit          3D

  0  0  0  0  0  0  0  0  0  0999 V3000
M  V30 BEGIN CTAB
M  V30 COUNTS 84 86 0 0 1
M  V30 BEGIN ATOM
M  V30 1 C 36.981316 33.891481 59.148936 0
M  V30 2 C 39.044205 33.072029 62.018003 0
M  V30 3 C 38.646102 26.112662 55.974657 0
M  V30 4 C 40.383135 35.751964 66.518180 0
M  V30 5 C 38.087994 32.144866 57.871084 0
M  V30 6 C 38.687522 27.681704 54.066472 0
M  V30 7 C 37.314512 32.397557 59.167230 0
M  V30 8 C 39.805921 28.252431 59.842943 0
M  V30 9 F 39.023125 28.951690 53.836950 0
M  V30 10 C 40.643237 36.715868 67.680508 0
M  V30 11 C 37.700544 32.394642 61.771629 0
M  V30 12 C 40.537055 28.086261 57.414971 0
M  V30 13 F 39.221049 26.935774 53.099768 0
M  V30 14 C 39.191699 27.210077 55.426819 0
M  V30 15 C 39.125749 26.347680 58.430104 0
M  V30 16 C 40.670341 32.959138 63.782335 0
M  V30 17 C 41.790400 33.761755 66.902505 0
M  V30 18 N 41.544587 34.903953 66.199332 0
M  V30 19 C 36.295517 31.417946 59.753611 0
M  V30 20 C 39.808670 27.498279 58.531893 0
M  V30 21 C 42.418519 35.372567 65.103380 0
M  V30 22 C 40.369922 31.033176 62.248050 0 CFG=2
M  V30 23 C 37.659561 31.616098 60.454775 0
M  V30 24 C 35.868199 30.165562 58.984102 0
M  V30 25 O 39.338981 30.248964 61.737836 0
M  V30 26 O 41.063885 33.377720 67.817519 0
M  V30 27 C 41.170103 30.073560 63.140621 0
M  V30 28 C 35.026489 31.930895 60.435611 0
M  V30 29 C 43.028245 32.939815 66.523419 0
M  V30 30 N 39.817427 32.199390 62.887593 0
M  V30 31 F 37.361280 27.585838 53.980472 0
M  V30 32 C 40.268001 27.975179 56.087467 0
M  V30 33 C 41.785085 35.256222 63.700122 0
M  V30 34 C 39.086410 25.470822 57.236358 0
M  V30 35 C 41.726750 33.835549 63.099005 0
M  V30 36 C 38.629423 29.231130 59.798270 0
M  V30 37 C 38.857303 30.602360 60.441762 0 CFG=1
M  V30 38 H 36.352824 34.111848 58.284635 0
M  V30 39 H 36.453765 34.250479 60.026509 0
M  V30 40 H 37.891187 34.479895 59.063643 0
M  V30 41 H 38.864520 34.031250 62.505179 0
M  V30 42 H 39.565245 33.285217 61.084019 0
M  V30 43 H 37.862026 25.598690 55.437268 0
M  V30 44 H 40.097091 36.341441 65.649475 0
M  V30 45 H 39.512066 35.138810 66.746989 0
M  V30 46 H 37.499507 32.468264 57.010556 0
M  V30 47 H 39.020388 32.709913 57.875424 0
M  V30 48 H 38.342327 31.107509 57.704512 0
M  V30 49 H 39.752847 27.621567 60.725257 0
M  V30 50 H 40.748378 28.794966 59.925755 0
M  V30 51 H 39.762822 37.329006 67.871499 0
M  V30 52 H 40.874558 36.186961 68.603887 0
M  V30 53 H 41.465873 37.389928 67.450123 0
M  V30 54 H 37.428780 31.729263 62.591866 0
M  V30 55 H 36.959593 33.184227 61.802346 0
M  V30 56 H 41.340218 28.759615 57.676414 0
M  V30 57 H 38.592748 25.981577 59.290539 0
M  V30 58 H 40.000140 33.617537 64.311945 0
M  V30 59 H 41.103555 32.308545 64.539835 0
M  V30 60 H 43.399753 34.908241 65.053499 0
M  V30 61 H 42.638791 36.421430 65.308438 0
M  V30 62 H 41.028108 31.355621 61.440460 0
M  V30 63 H 34.869394 30.295489 58.572665 0
M  V30 64 H 36.488096 29.965184 58.116216 0
M  V30 65 H 35.828399 29.292790 59.629671 0
M  V30 66 H 42.077134 30.552806 63.509362 0
M  V30 67 H 40.558585 29.751934 63.985888 0
M  V30 68 H 41.456911 29.191040 62.566133 0
M  V30 69 H 34.233734 32.072268 59.700278 0
M  V30 70 H 34.686503 31.218225 61.183778 0
M  V30 71 H 35.121366 32.885822 60.938889 0
M  V30 72 H 43.939454 33.451633 66.826403 0
M  V30 73 H 43.006438 31.983026 67.046568 0
M  V30 74 H 43.075802 32.714171 65.460533 0
M  V30 75 H 40.887646 28.571220 55.453571 0
M  V30 76 H 42.359970 35.899769 63.038367 0
M  V30 77 H 40.789649 35.698591 63.680074 0
M  V30 78 H 40.062105 25.005715 57.085922 0
M  V30 79 H 38.392981 24.655338 57.448284 0
M  V30 80 H 42.684150 33.332783 63.167467 0
M  V30 81 H 41.525063 33.932597 62.032619 0
M  V30 82 H 38.372151 29.366474 58.758816 0
M  V30 83 H 37.797951 28.724290 60.252783 0
M  V30 84 H 39.657410 31.067706 59.871105 0
M  V30 END ATOM
M  V30 BEGIN BOND
M  V30 1 1 7 1
M  V30 2 1 7 5
M  V30 3 1 9 6
M  V30 4 1 10 4
M  V30 5 1 11 2
M  V30 6 1 13 6
M  V30 7 2 14 3
M  V30 8 1 14 6
M  V30 9 1 18 4
M  V30 10 1 18 17
M  V30 11 1 19 7
M  V30 12 1 20 8
M  V30 13 1 20 12
M  V30 14 2 20 15
M  V30 15 1 21 18
M  V30 16 1 23 7
M  V30 17 1 23 11
M  V30 18 1 23 19
M  V30 19 1 24 19
M  V30 20 1 25 22
M  V30 21 2 26 17
M  V30 22 1 27 22
M  V30 23 1 28 19
M  V30 24 1 29 17
M  V30 25 1 30 2
M  V30 26 1 30 16
M  V30 27 1 30 22
M  V30 28 1 31 6
M  V30 29 2 32 12
M  V30 30 1 32 14
M  V30 31 1 33 21
M  V30 32 1 34 3
M  V30 33 1 34 15
M  V30 34 1 35 16
M  V30 35 1 35 33
M  V30 36 1 36 8
M  V30 37 1 37 23
M  V30 38 1 37 25
M  V30 39 1 37 36
M  V30 40 1 38 1
M  V30 41 1 39 1
M  V30 42 1 40 1
M  V30 43 1 41 2
M  V30 44 1 42 2
M  V30 45 1 43 3
M  V30 46 1 44 4
M  V30 47 1 45 4
M  V30 48 1 46 5
M  V30 49 1 47 5
M  V30 50 1 48 5
M  V30 51 1 49 8
M  V30 52 1 50 8
M  V30 53 1 51 10
M  V30 54 1 52 10
M  V30 55 1 53 10
M  V30 56 1 54 11
M  V30 57 1 55 11
M  V30 58 1 56 12
M  V30 59 1 57 15
M  V30 60 1 58 16
M  V30 61 1 59 16
M  V30 62 1 60 21
M  V30 63 1 61 21
M  V30 64 1 22 62 CFG=3
M  V30 65 1 63 24
M  V30 66 1 64 24
M  V30 67 1 65 24
M  V30 68 1 66 27
M  V30 69 1 67 27
M  V30 70 1 68 27
M  V30 71 1 69 28
M  V30 72 1 70 28
M  V30 73 1 71 28
M  V30 74 1 72 29
M  V30 75 1 73 29
M  V30 76 1 74 29
M  V30 77 1 75 32
M  V30 78 1 76 33
M  V30 79 1 77 33
M  V30 80 1 78 34
M  V30 81 1 79 34
M  V30 82 1 80 35
M  V30 83 1 81 35
M  V30 84 1 82 36
M  V30 85 1 83 36
M  V30 86 1 37 84 CFG=3
M  V30 END BOND
M  V30 END CTAB
M  END
>  <i_epik_Tot_Q>  (1) 
0

>  <i_epik_Tot_abs_Q>  (1) 
0

>  <i_i_glide_confnum>  (1) 
1130

>  <i_i_glide_lignum>  (1) 
199

>  <i_i_glide_posenum>  (1) 
232

>  <i_i_glide_rotatable_bonds>  (1) 
11

>  <i_lp_mmshare_version>  (1) 
72125

>  <i_m_source_file_index>  (1) 
80

>  <i_f3d_flags>  (1) 
0

>  <num_sample>  (1) 
100

>  <b_lp_Chiralities_Consistent>  (1) 
1

>  <r_epik_Charging_Adjusted_Penalty>  (1) 
0.2050768058510691

>  <r_epik_Ionization_Penalty>  (1) 
0.20507783400789523

>  <r_epik_Ionization_Penalty_Charging>  (1) 
0

>  <r_epik_Ionization_Penalty_Neutral>  (1) 
0.20507783400789523

>  <r_epik_State_Penalty>  (1) 
0.2050768058510691

>  <r_glide_ring_energy>  (1) 
0

>  <r_i_docking_score>  (1) 
-7.1993635114067382

>  <r_i_glide_ecoul>  (1) 
0.98668284989163257

>  <r_i_glide_eff_state_penalty>  (1) 
0.2050768058510691

>  <r_i_glide_einternal>  (1) 
48.420105331592737

>  <r_i_glide_emodel>  (1) 
-39.390617333368183

>  <r_i_glide_emodel_strain>  (1) 
0.68436136884673715

>  <r_i_glide_energy>  (1) 
-44.569379708272386

>  <r_i_glide_erotb>  (1) 
0.59792730839384334

>  <r_i_glide_esite>  (1) 
0

>  <r_i_glide_evdw>  (1) 
-45.556062558164015

>  <r_i_glide_gscore>  (1) 
-7.4044403172578077

>  <r_i_glide_gscore_strain>  (1) 
0

>  <r_i_glide_hbond>  (1) 
0

>  <r_i_glide_ligand_efficiency>  (1) 
-0.19457739220018211

>  <r_i_glide_ligand_efficiency_ln>  (1) 
-1.561373168597165

>  <r_i_glide_ligand_efficiency_sa>  (1) 
-0.64837503812573183

>  <r_i_glide_lipo>  (1) 
-3.8971502441894539

>  <r_i_glide_metal>  (1) 
-0

>  <r_i_glide_rewards>  (1) 
-1.9754166810377403

>  <r_lp_Energy>  (1) 
55.785767999999997

>  <s_epik_Chemistry_Notes>  (1) 
This compound contains an acetal/aminal-like group ( X-CH(R)-Y where X, Y are N, S, or O) that may be acid/base labile, releasing an aldehyde.

>  <s_epik_cmdline>  (1) 
J2VwaWtfcHl0aG9uJywgJy1waHQnLCAnMS4wJywgJy1waCcsICc3LjQnLCAnLXRuJywgJzgnLCAnLW1hJywgJzUwMCcsICctaW1hZScsICc8aW5maWxlLm1hZT4nLCAnLW9tYWUnLCAnPG91dGZpbGUubWFlPic=

>  <s_epik_input>  (1) 
W0NIM11bQ0gyXU4oQyg9TylbQ0gzXSlbQ0gyXVtDSDJdW0NIMl1bQ0gyXU4oW0NIMl1bQ0gyXUMxMkMoW0NIM10pKFtDSDNdKUMxKFtDSDNdKVtDSDNdKVtDQEBIXShbQ0gzXSlPW0NASF0yW0NIMl1bQ0gyXUMoW0NIXT1bQ0hdMyk9W0NIXVtDSDJdW0NIXT1DM0MoRikoRilG

>  <s_glide_docking_method>  (1) 
confgen

>  <s_i_glide_gridfile>  (1) 
gpcr_5ht2c_6bqh_protein_autoprepared_prepared

>  <s_lp_Force_Field>  (1) 
S-OPLS

>  <s_lp_Variant>  (1) 
DiffSBDD_79_num_sample_100-1

>  <s_m_source_file>  (1) 
generated__ligand_DiffSBDD_2026-05-06_prepared.sdf

>  <GenAI_Model>  (1) 
DiffSBDD

>  <Protein>  (1) 
GPCR_5HT2C

$$$$
DiffSBDD_77_num_sample_100
     RDKit          3D

  0  0  0  0  0  0  0  0  0  0999 V3000
M  V30 BEGIN CTAB
M  V30 COUNTS 77 79 0 0 1
M  V30 BEGIN ATOM
M  V30 1 C 37.481530 24.133866 57.018493 0
M  V30 2 F 36.406078 24.821429 53.576029 0
M  V30 3 C 39.199928 35.805281 61.744066 0
M  V30 4 C 38.439341 25.146308 57.198092 0
M  V30 5 C 42.322544 33.014709 65.073768 0
M  V30 6 C 39.335580 27.779497 58.784644 0
M  V30 7 C 38.571329 31.865707 61.666927 0
M  V30 8 C 38.763309 30.010638 60.033180 0 CFG=2
M  V30 9 O 40.785012 34.374782 63.390554 0
M  V30 10 C 43.385676 32.672035 66.142638 0
M  V30 11 N 37.867424 30.971795 55.591322 0
M  V30 12 C 39.729101 27.167764 56.347906 0
M  V30 13 C 37.067399 24.926713 54.752101 0
M  V30 14 O 36.286372 34.412265 61.092395 0
M  V30 15 C 37.526507 34.375323 60.420979 0
M  V30 16 C 38.705947 26.060247 56.154812 0
M  V30 17 F 35.876555 23.044986 55.622057 0
M  V30 18 C 37.189166 29.535472 58.037237 0
M  V30 19 O 40.041650 31.056114 54.974143 0
M  V30 20 O 41.067348 29.221433 59.517053 0
M  V30 21 C 36.795876 24.022757 55.795342 0
M  V30 22 C 43.078794 30.237441 65.570728 0
M  V30 23 N 40.652861 32.093238 63.402738 0
M  V30 24 C 37.788423 29.513603 55.631973 0
M  V30 25 C 38.018463 25.945547 54.931351 0
M  V30 26 C 38.664708 34.405009 61.431830 0
M  V30 27 C 38.989479 31.621334 55.264600 0
M  V30 28 C 42.036754 30.523601 64.596066 0
M  V30 29 C 38.074206 30.562325 58.770384 0
M  V30 30 F 43.438342 28.959305 65.777553 0
M  V30 31 C 41.355639 29.384070 63.845694 0
M  V30 32 C 39.259313 28.289009 57.312078 0 CFG=1
M  V30 33 C 40.267434 33.335891 62.990460 0
M  V30 34 N 39.424575 31.104054 60.747698 0
M  V30 35 C 39.152937 33.253100 62.004310 0
M  V30 36 C 41.681160 31.807850 64.357336 0
M  V30 37 C 43.697446 31.197352 66.273488 0
M  V30 38 C 39.748637 28.824884 59.828791 0 CFG=2
M  V30 39 N 37.900585 28.813634 56.949423 0 CFG=1 CHG=1
M  V30 40 H 37.276535 23.436909 57.818267 0
M  V30 41 H 40.251575 35.900285 61.470120 0
M  V30 42 H 38.662686 36.565873 61.177636 0
M  V30 43 H 39.065150 36.059665 62.796089 0
M  V30 44 H 38.966434 25.221430 58.135290 0
M  V30 45 H 42.809577 33.664759 64.348815 0
M  V30 46 H 41.542786 33.591719 65.572975 0
M  V30 47 H 38.407072 27.294098 59.083333 0
M  V30 48 H 40.088906 26.993694 58.852983 0
M  V30 49 H 38.400176 31.296974 62.582401 0
M  V30 50 H 37.571786 31.977213 61.252273 0
M  V30 51 H 37.959686 29.621498 60.653536 0
M  V30 52 H 43.058402 33.033864 67.118058 0
M  V30 53 H 44.314962 33.197175 65.920919 0
M  V30 54 H 37.029533 31.504179 55.825103 0
M  V30 55 H 39.990091 27.588576 55.377068 0
M  V30 56 H 40.660824 26.723859 56.702679 0
M  V30 57 H 36.261317 35.190051 61.629180 0
M  V30 58 H 37.579075 33.501233 59.776107 0
M  V30 59 H 37.594698 35.227215 59.743769 0
M  V30 60 H 36.775575 28.821581 58.745103 0
M  V30 61 H 36.307822 30.021429 57.621609 0
M  V30 62 H 41.643744 28.471985 59.580074 0
M  V30 63 H 40.191322 31.295604 62.994653 0
M  V30 64 H 38.455797 29.071475 54.893301 0
M  V30 65 H 36.798925 29.295820 55.233488 0
M  V30 66 H 38.219893 26.639338 54.128412 0
M  V30 67 H 38.843249 32.712022 55.291975 0
M  V30 68 H 37.414111 31.377455 59.063377 0
M  V30 69 H 38.810808 31.016897 58.109769 0
M  V30 70 H 41.697860 28.407824 64.188415 0
M  V30 71 H 40.275290 29.416020 63.991533 0
M  V30 72 H 41.565471 29.449103 62.777949 0
M  V30 73 H 39.970871 29.107527 57.197544 0
M  V30 74 H 40.267369 30.755184 61.191209 0
M  V30 75 H 44.464345 30.926689 66.985039 0
M  V30 76 H 39.826763 28.315042 60.791103 0
M  V30 77 H 37.359321 27.970833 56.814617 0
M  V30 END ATOM
M  V30 BEGIN BOND
M  V30 1 2 4 1
M  V30 2 1 10 5
M  V30 3 1 13 2
M  V30 4 1 15 14
M  V30 5 1 16 4
M  V30 6 1 16 12
M  V30 7 1 21 1
M  V30 8 2 21 13
M  V30 9 1 21 17
M  V30 10 1 24 11
M  V30 11 1 25 13
M  V30 12 2 25 16
M  V30 13 1 26 3
M  V30 14 1 26 15
M  V30 15 1 27 11
M  V30 16 2 27 19
M  V30 17 1 28 22
M  V30 18 1 29 8
M  V30 19 1 29 18
M  V30 20 1 30 22
M  V30 21 1 31 28
M  V30 22 1 32 6
M  V30 23 1 32 12
M  V30 24 2 33 9
M  V30 25 1 33 23
M  V30 26 1 34 7
M  V30 27 1 34 8
M  V30 28 1 35 7
M  V30 29 2 35 26
M  V30 30 1 35 33
M  V30 31 1 36 5
M  V30 32 1 36 23
M  V30 33 2 36 28
M  V30 34 1 37 10
M  V30 35 2 37 22
M  V30 36 1 38 6
M  V30 37 1 38 8
M  V30 38 1 38 20
M  V30 39 1 39 18
M  V30 40 1 39 24
M  V30 41 1 39 32
M  V30 42 1 40 1
M  V30 43 1 41 3
M  V30 44 1 42 3
M  V30 45 1 43 3
M  V30 46 1 44 4
M  V30 47 1 45 5
M  V30 48 1 46 5
M  V30 49 1 47 6
M  V30 50 1 48 6
M  V30 51 1 49 7
M  V30 52 1 50 7
M  V30 53 1 8 51 CFG=1
M  V30 54 1 52 10
M  V30 55 1 53 10
M  V30 56 1 54 11
M  V30 57 1 55 12
M  V30 58 1 56 12
M  V30 59 1 57 14
M  V30 60 1 58 15
M  V30 61 1 59 15
M  V30 62 1 60 18
M  V30 63 1 61 18
M  V30 64 1 62 20
M  V30 65 1 63 23
M  V30 66 1 64 24
M  V30 67 1 65 24
M  V30 68 1 66 25
M  V30 69 1 67 27
M  V30 70 1 68 29
M  V30 71 1 69 29
M  V30 72 1 70 31
M  V30 73 1 71 31
M  V30 74 1 72 31
M  V30 75 1 32 73 CFG=1
M  V30 76 1 74 34
M  V30 77 1 75 37
M  V30 78 1 38 76 CFG=1
M  V30 79 1 39 77 CFG=3
M  V30 END BOND
M  V30 END CTAB
M  END
>  <i_epik_Tot_Q>  (1) 
1

>  <i_epik_Tot_abs_Q>  (1) 
1

>  <i_i_glide_confnum>  (1) 
1399

>  <i_i_glide_lignum>  (1) 
196

>  <i_i_glide_posenum>  (1) 
362

>  <i_i_glide_rotatable_bonds>  (1) 
14

>  <i_lp_mmshare_version>  (1) 
72125

>  <i_m_source_file_index>  (1) 
78

>  <i_f3d_flags>  (1) 
0

>  <num_sample>  (1) 
100

>  <b_lp_Chiralities_Consistent>  (1) 
1

>  <r_epik_Charging_Adjusted_Penalty>  (1) 
1.2599673287133732

>  <r_epik_Ionization_Penalty>  (1) 
0.56885031527891383

>  <r_epik_Ionization_Penalty_Charging>  (1) 
0.52000942162343

>  <r_epik_Ionization_Penalty_Neutral>  (1) 
0.048840893655483872

>  <r_epik_State_Penalty>  (1) 
0.73995790708994325

>  <r_glide_ring_energy>  (1) 
0

>  <r_i_docking_score>  (1) 
-7.1989729525156205

>  <r_i_glide_ecoul>  (1) 
-3.4665998042619064

>  <r_i_glide_eff_state_penalty>  (1) 
0.73995790708994325

>  <r_i_glide_einternal>  (1) 
28.48572485642795

>  <r_i_glide_emodel>  (1) 
-65.537535821565427

>  <r_i_glide_emodel_strain>  (1) 
0.68454259480802193

>  <r_i_glide_energy>  (1) 
-49.030227369953508

>  <r_i_glide_erotb>  (1) 
0.67934156738045093

>  <r_i_glide_esite>  (1) 
-0.1245883243463481

>  <r_i_glide_evdw>  (1) 
-45.563627565691604

>  <r_i_glide_gscore>  (1) 
-7.9389308596055637

>  <r_i_glide_gscore_strain>  (1) 
0

>  <r_i_glide_hbond>  (1) 
-0.17128654762586262

>  <r_i_glide_ligand_efficiency>  (1) 
-0.1845890500645031

>  <r_i_glide_ligand_efficiency_ln>  (1) 
-1.5436641560190689

>  <r_i_glide_ligand_efficiency_sa>  (1) 
-0.62598049883385787

>  <r_i_glide_lipo>  (1) 
-4.531106222355735

>  <r_i_glide_metal>  (1) 
-0

>  <r_i_glide_rewards>  (1) 
-0.99311998373420407

>  <r_lp_Energy>  (1) 
52.110675999999998

>  <s_epik_Chemistry_Notes>  (1) 
This compound contains an acetal/aminal-like group ( X-CH(R)-Y where X, Y are N, S, or O) that may be acid/base labile, releasing an aldehyde.

>  <s_epik_cmdline>  (1) 
J2VwaWtfcHl0aG9uJywgJy1waHQnLCAnMS4wJywgJy1waCcsICc3LjQnLCAnLXRuJywgJzgnLCAnLW1hJywgJzUwMCcsICctaW1hZScsICc8aW5maWxlLm1hZT4nLCAnLW9tYWUnLCAnPG91dGZpbGUubWFlPic=

>  <s_epik_input>  (1) 
RmMxYyhGKVtjSF1bY0hdYyhbY0hdMSlbQ0gyXVtDQEhdKFtDSDJdW0NASF0yW09IXSlOKFtDSDJdW05IXVtDSF09TylbQ0gyXVtDSDJdW0NAQEhdMltOSF1bQ0gyXVxDKD1DKFxbQ0gzXSlbQ0gyXVtPSF0pQyg9TylbTkhdQyg9QzNbQ0gzXSlbQ0gyXVtDSDJdW0NIXT1DM0Y=

>  <s_glide_docking_method>  (1) 
confgen

>  <s_i_glide_gridfile>  (1) 
gpcr_5ht2c_6bqh_protein_autoprepared_prepared

>  <s_lp_Force_Field>  (1) 
S-OPLS

>  <s_lp_Variant>  (1) 
DiffSBDD_77_num_sample_100-7

>  <s_m_source_file>  (1) 
generated__ligand_DiffSBDD_2026-05-06_prepared.sdf

>  <GenAI_Model>  (1) 
DiffSBDD

>  <Protein>  (1) 
GPCR_5HT2C

$$$$
DiffSBDD_49_num_sample_100
     RDKit          3D

  0  0  0  0  0  0  0  0  0  0999 V3000
M  V30 BEGIN CTAB
M  V30 COUNTS 44 46 0 0 1
M  V30 BEGIN ATOM
M  V30 1 Cl 39.467399 30.421424 53.453501 0
M  V30 2 C 39.329093 31.032249 60.774927 0
M  V30 3 O 38.262515 25.982063 57.863768 0
M  V30 4 C 37.727879 26.800983 53.714837 0
M  V30 5 C 39.181772 33.384868 61.724923 0
M  V30 6 C 38.219979 28.019365 53.210965 0
M  V30 7 C 37.866854 26.490571 55.079935 0
M  V30 8 N 39.615905 31.999612 61.719111 0
M  V30 9 C 40.737797 29.223473 63.147446 0
M  V30 10 O 36.654785 37.626019 61.991804 0
M  V30 11 C 39.700774 35.699238 62.320801 0
M  V30 12 C 38.468863 36.118716 61.792191 0
M  V30 13 S 38.288862 31.179905 59.455407 0
M  V30 14 O 41.067732 30.031257 62.029336 0
M  V30 15 C 38.851087 28.934040 54.073757 0
M  V30 16 N 40.092063 29.914739 61.022164 0
M  V30 17 C 39.396762 27.898755 59.601288 0
M  V30 18 N 39.175066 28.034195 58.170351 0
M  V30 19 C 40.467098 28.915861 60.011699 0
M  V30 20 C 40.053116 34.338846 62.293610 0
M  V30 21 N 38.138417 37.501829 61.825852 0
M  V30 22 C 37.572686 35.170074 61.240022 0
M  V30 23 C 37.922601 33.805497 61.209620 0
M  V30 24 C 38.985428 28.634423 55.442578 0
M  V30 25 C 38.491598 27.404706 55.953311 0
M  V30 26 C 38.631424 27.069620 57.418489 0
M  V30 27 O 37.254300 37.811062 60.653503 0
M  V30 28 H 37.242854 26.100437 53.053502 0
M  V30 29 H 38.114709 28.250812 52.160946 0
M  V30 30 H 37.487554 25.551973 55.458602 0
M  V30 31 H 40.339171 31.760833 62.383569 0
M  V30 32 H 41.567306 29.222979 63.854294 0
M  V30 33 H 39.867397 29.621432 63.664979 0
M  V30 34 H 40.541196 28.188709 62.861476 0
M  V30 35 H 40.380256 36.423232 62.748153 0
M  V30 36 H 38.466887 28.021399 60.157577 0
M  V30 37 H 39.792321 26.904606 59.805910 0
M  V30 38 H 39.439868 28.904034 57.734358 0
M  V30 39 H 41.321645 28.358942 60.399316 0
M  V30 40 H 40.863871 29.442447 59.142208 0
M  V30 41 H 41.003906 34.024651 62.698894 0
M  V30 42 H 36.618611 35.484159 60.843632 0
M  V30 43 H 37.222026 33.101463 60.810388 0
M  V30 44 H 39.469454 29.344492 56.095221 0
M  V30 END ATOM
M  V30 BEGIN BOND
M  V30 1 2 6 4
M  V30 2 1 7 4
M  V30 3 1 8 2
M  V30 4 1 8 5
M  V30 5 1 12 11
M  V30 6 2 13 2
M  V30 7 1 14 9
M  V30 8 1 15 1
M  V30 9 1 15 6
M  V30 10 1 16 2
M  V30 11 1 16 14
M  V30 12 1 18 17
M  V30 13 1 19 16
M  V30 14 1 19 17
M  V30 15 1 20 5
M  V30 16 2 20 11
M  V30 17 1 21 10
M  V30 18 1 21 12
M  V30 19 2 22 12
M  V30 20 2 23 5
M  V30 21 1 23 22
M  V30 22 2 24 15
M  V30 23 2 25 7
M  V30 24 1 25 24
M  V30 25 2 26 3
M  V30 26 1 26 18
M  V30 27 1 26 25
M  V30 28 1 27 10
M  V30 29 1 27 21
M  V30 30 1 28 4
M  V30 31 1 29 6
M  V30 32 1 30 7
M  V30 33 1 31 8
M  V30 34 1 32 9
M  V30 35 1 33 9
M  V30 36 1 34 9
M  V30 37 1 35 11
M  V30 38 1 36 17
M  V30 39 1 37 17
M  V30 40 1 38 18
M  V30 41 1 39 19
M  V30 42 1 40 19
M  V30 43 1 41 20
M  V30 44 1 42 22
M  V30 45 1 43 23
M  V30 46 1 44 24
M  V30 END BOND
M  V30 END CTAB
M  END
>  <i_epik_Tot_Q>  (1) 
0

>  <i_epik_Tot_abs_Q>  (1) 
0

>  <i_i_glide_confnum>  (1) 
121

>  <i_i_glide_lignum>  (1) 
133

>  <i_i_glide_posenum>  (1) 
60

>  <i_i_glide_rotatable_bonds>  (1) 
10

>  <i_lp_mmshare_version>  (1) 
72125

>  <i_m_source_file_index>  (1) 
50

>  <i_f3d_flags>  (1) 
0

>  <num_sample>  (1) 
100

>  <b_lp_Chiralities_Consistent>  (1) 
1

>  <r_epik_Charging_Adjusted_Penalty>  (1) 
0

>  <r_epik_Ionization_Penalty>  (1) 
1.2411307214121904e-05

>  <r_epik_Ionization_Penalty_Charging>  (1) 
0

>  <r_epik_Ionization_Penalty_Neutral>  (1) 
1.2411307214121904e-05

>  <r_epik_State_Penalty>  (1) 
-0

>  <r_glide_ring_energy>  (1) 
0

>  <r_i_docking_score>  (1) 
-7.1950905012805642

>  <r_i_glide_ecoul>  (1) 
-3.0203529836212399

>  <r_i_glide_eff_state_penalty>  (1) 
-0

>  <r_i_glide_einternal>  (1) 
4.9197020362096353

>  <r_i_glide_emodel>  (1) 
-70.691921737511578

>  <r_i_glide_emodel_strain>  (1) 
0.530300402644869

>  <r_i_glide_energy>  (1) 
-48.369003182891127

>  <r_i_glide_erotb>  (1) 
0.94204315138098349

>  <r_i_glide_esite>  (1) 
-0.024756068005110675

>  <r_i_glide_evdw>  (1) 
-45.34865019926989

>  <r_i_glide_gscore>  (1) 
-7.1950905012805642

>  <r_i_glide_gscore_strain>  (1) 
0

>  <r_i_glide_hbond>  (1) 
-0.32000000000000001

>  <r_i_glide_ligand_efficiency>  (1) 
-0.26648483338076162

>  <r_i_glide_ligand_efficiency_ln>  (1) 
-1.6748984483605187

>  <r_i_glide_ligand_efficiency_sa>  (1) 
-0.79945450014228503

>  <r_i_glide_lipo>  (1) 
-3.248103862677735

>  <r_i_glide_metal>  (1) 
-0

>  <r_i_glide_rewards>  (1) 
-1.8237882644720211

>  <r_lp_Energy>  (1) 
32.022877999999999

>  <r_lp_tautomer_probability>  (1) 
1

>  <s_epik_Chemistry_Notes>  (1) 
This compound has a N-S or N-O group and may undergo hydrolysis at high or low pH.

>  <s_epik_cmdline>  (1) 
J2VwaWtfcHl0aG9uJywgJy1waHQnLCAnMS4wJywgJy1waCcsICc3LjQnLCAnLXRuJywgJzgnLCAnLW1hJywgJzUwMCcsICctaW1hZScsICc8aW5maWxlLm1hZT4nLCAnLW9tYWUnLCAnPG91dGZpbGUubWFlPic=

>  <s_epik_input>  (1) 
Q2xjMVtjSF1bY0hdW2NIXWMoW2NIXTEpQyg9TylbTkhdW0NIMl1bQ0gyXU4oT1tDSDNdKUMoPVMpW05IXWMyW2NIXVtjSF1jKC1uM29vMylbY0hdW2NIXTI=

>  <s_glide_docking_method>  (1) 
confgen

>  <s_i_glide_gridfile>  (1) 
gpcr_5ht2c_6bqh_protein_autoprepared_prepared

>  <s_lp_Force_Field>  (1) 
S-OPLS

>  <s_lp_Variant>  (1) 
DiffSBDD_49_num_sample_100-1

>  <s_m_source_file>  (1) 
generated__ligand_DiffSBDD_2026-05-06_prepared.sdf

>  <GenAI_Model>  (1) 
DiffSBDD

>  <Protein>  (1) 
GPCR_5HT2C

$$$$
DiffSBDD_65_num_sample_100
     RDKit          3D

  0  0  0  0  0  0  0  0  0  0999 V3000
M  V30 BEGIN CTAB
M  V30 COUNTS 35 36 0 0 1
M  V30 BEGIN ATOM
M  V30 1 C 38.075676 28.476291 53.771052 0 CFG=2
M  V30 2 C 39.067388 29.623819 53.818254 0
M  V30 3 C 39.404848 30.267184 54.949223 0
M  V30 4 N 39.428933 27.451856 58.868086 0
M  V30 5 C 38.734274 27.112633 54.060948 0 CFG=2
M  V30 6 C 39.527172 28.742317 57.013383 0 CFG=1
M  V30 7 F 37.498031 28.421427 52.570779 0
M  V30 8 O 39.111949 28.751788 58.359109 0
M  V30 9 F 37.757572 26.224800 54.253504 0
M  V30 10 C 36.882882 25.920321 57.514048 0
M  V30 11 C 39.382622 26.577935 57.706325 0 CFG=2
M  V30 12 C 39.731385 27.073502 55.251097 0 CFG=1
M  V30 13 N 39.108281 27.425689 56.542097 0
M  V30 14 C 38.639693 24.123118 57.348933 0
M  V30 15 C 38.842448 29.935352 56.320646 0
M  V30 16 C 38.295039 25.492585 57.947965 0
M  V30 17 O 40.267035 25.767633 55.313929 0
M  V30 18 F 39.634815 30.021448 52.667150 0
M  V30 19 H 37.261471 28.656184 54.471780 0
M  V30 20 H 40.121431 31.075036 54.906243 0
M  V30 21 H 40.380294 27.532298 59.198483 0
M  V30 22 H 39.259429 26.785269 53.162517 0
M  V30 23 H 40.614918 28.835361 56.988520 0
M  V30 24 H 36.769285 25.915099 56.432516 0
M  V30 25 H 36.667278 26.932040 57.853501 0
M  V30 26 H 36.127772 25.248921 57.918764 0
M  V30 27 H 40.377841 26.132994 57.674018 0
M  V30 28 H 40.577817 27.722233 55.053634 0
M  V30 29 H 38.404227 24.081940 56.285144 0
M  V30 30 H 38.069963 23.340383 57.853498 0
M  V30 31 H 39.697381 23.887224 57.453501 0
M  V30 32 H 38.978532 30.827081 56.933652 0
M  V30 33 H 37.763392 29.785896 56.279420 0
M  V30 34 H 38.267404 25.321931 59.024513 0
M  V30 35 H 41.157886 25.804311 55.634780 0
M  V30 END ATOM
M  V30 BEGIN BOND
M  V30 1 1 2 1
M  V30 2 2 3 2
M  V30 3 1 5 1
M  V30 4 1 7 1
M  V30 5 1 8 4
M  V30 6 1 8 6
M  V30 7 1 9 5
M  V30 8 1 11 4
M  V30 9 1 12 5
M  V30 10 1 13 6
M  V30 11 1 13 11
M  V30 12 1 13 12
M  V30 13 1 15 3
M  V30 14 1 15 6
M  V30 15 1 16 10
M  V30 16 1 16 11
M  V30 17 1 16 14
M  V30 18 1 17 12
M  V30 19 1 18 2
M  V30 20 1 1 19 CFG=1
M  V30 21 1 20 3
M  V30 22 1 21 4
M  V30 23 1 5 22 CFG=3
M  V30 24 1 6 23 CFG=1
M  V30 25 1 24 10
M  V30 26 1 25 10
M  V30 27 1 26 10
M  V30 28 1 11 27 CFG=3
M  V30 29 1 12 28 CFG=3
M  V30 30 1 29 14
M  V30 31 1 30 14
M  V30 32 1 31 14
M  V30 33 1 32 15
M  V30 34 1 33 15
M  V30 35 1 34 16
M  V30 36 1 35 17
M  V30 END BOND
M  V30 END CTAB
M  END
>  <i_epik_Tot_Q>  (1) 
0

>  <i_epik_Tot_abs_Q>  (1) 
0

>  <i_i_glide_confnum>  (1) 
1

>  <i_i_glide_lignum>  (1) 
163

>  <i_i_glide_posenum>  (1) 
261

>  <i_i_glide_rotatable_bonds>  (1) 
2

>  <i_lp_mmshare_version>  (1) 
72125

>  <i_m_source_file_index>  (1) 
66

>  <i_f3d_flags>  (1) 
0

>  <num_sample>  (1) 
100

>  <b_lp_Chiralities_Consistent>  (1) 
1

>  <r_epik_Charging_Adjusted_Penalty>  (1) 
0

>  <r_epik_Ionization_Penalty>  (1) 
3.2857673984672069e-05

>  <r_epik_Ionization_Penalty_Charging>  (1) 
0

>  <r_epik_Ionization_Penalty_Neutral>  (1) 
3.2857673984672069e-05

>  <r_epik_State_Penalty>  (1) 
-0

>  <r_glide_ring_energy>  (1) 
0

>  <r_i_docking_score>  (1) 
-7.1902601710050904

>  <r_i_glide_ecoul>  (1) 
-1.351968133799206

>  <r_i_glide_eff_state_penalty>  (1) 
-0

>  <r_i_glide_einternal>  (1) 
2.4893235572469194

>  <r_i_glide_emodel>  (1) 
-35.712743105262994

>  <r_i_glide_emodel_strain>  (1) 
0.28712384982591743

>  <r_i_glide_energy>  (1) 
-26.321270615739234

>  <r_i_glide_erotb>  (1) 
0

>  <r_i_glide_esite>  (1) 
0

>  <r_i_glide_evdw>  (1) 
-24.969302481940026

>  <r_i_glide_gscore>  (1) 
-7.1902601710050904

>  <r_i_glide_gscore_strain>  (1) 
0

>  <r_i_glide_hbond>  (1) 
-0.13151225807653555

>  <r_i_glide_ligand_efficiency>  (1) 
-0.3994588983891717

>  <r_i_glide_ligand_efficiency_ln>  (1) 
-1.8482193009989976

>  <r_i_glide_ligand_efficiency_sa>  (1) 
-1.0468784702935878

>  <r_i_glide_lipo>  (1) 
-1.7344372234696122

>  <r_i_glide_metal>  (1) 
-0

>  <r_i_glide_rewards>  (1) 
-3.8730503452920608

>  <r_lp_Energy>  (1) 
7.9581929999999996

>  <r_lp_tautomer_probability>  (1) 
1

>  <s_epik_Chemistry_Notes>  (1) 
This compound contains an acetal/aminal-like group ( X-CH(R)-Y where X, Y are N, S, or O) that may be acid/base labile, releasing an aldehyde. This compound has a N-S or N-O group and may undergo hydrolysis at high or low pH.

>  <s_epik_cmdline>  (1) 
J2VwaWtfcHl0aG9uJywgJy1waHQnLCAnMS4wJywgJy1waCcsICc3LjQnLCAnLXRuJywgJzgnLCAnLW1hJywgJzUwMCcsICctaW1hZScsICc8aW5maWxlLm1hZT4nLCAnLW9tYWUnLCAnPG91dGZpbGUubWFlPic=

>  <s_epik_input>  (1) 
W0NIMl0xL1tDSF09QyhGKVxbQ0BASF0oRilbQ0BIXShGKVtDQEhdKFtPSF0pTihbQ0BASF0xMilbQ0BASF0oW05IXU8yKVtDSF0oW0NIM10pW0NIM10=

>  <s_glide_docking_method>  (1) 
confgen

>  <s_i_glide_gridfile>  (1) 
gpcr_5ht2c_6bqh_protein_autoprepared_prepared

>  <s_lp_Force_Field>  (1) 
S-OPLS

>  <s_lp_Variant>  (1) 
DiffSBDD_65_num_sample_100-1

>  <s_m_source_file>  (1) 
generated__ligand_DiffSBDD_2026-05-06_prepared.sdf

>  <GenAI_Model>  (1) 
DiffSBDD

>  <Protein>  (1) 
GPCR_5HT2C

$$$$
DiffSBDD_44_num_sample_100
     RDKit          3D

  0  0  0  0  0  0  0  0  0  0999 V3000
M  V30 BEGIN CTAB
M  V30 COUNTS 58 59 0 0 1
M  V30 BEGIN ATOM
M  V30 1 C 37.742984 23.967868 57.625367 0
M  V30 2 O 40.267388 26.659165 54.961601 0 CHG=-1
M  V30 3 C 38.924068 28.940838 52.969955 0
M  V30 4 C 37.932815 25.273108 55.578901 0 CFG=1
M  V30 5 N 39.268481 25.221655 56.219499 0 CFG=2 CHG=1
M  V30 6 C 40.245283 30.911438 52.347018 0
M  V30 7 N 39.867424 29.491988 55.650537 0
M  V30 8 C 39.467286 30.076429 53.341372 0
M  V30 9 O 38.210089 31.215857 55.113703 0
M  V30 10 C 37.015149 24.306073 56.332335 0 CFG=1
M  V30 11 C 36.596002 23.158371 55.422522 0
M  V30 12 C 39.813935 27.607279 57.220457 0 CFG=1
M  V30 13 C 39.263730 28.907653 56.603493 0
M  V30 14 C 39.185205 24.440712 57.453506 0
M  V30 15 C 38.409740 32.475950 55.744965 0
M  V30 16 C 39.359133 28.022818 50.720512 0
M  V30 17 C 40.173892 26.404927 56.234764 0 CFG=2
M  V30 18 C 39.435139 30.573991 54.786967 0 CFG=1
M  V30 19 F 40.267393 29.388234 49.053507 0
M  V30 20 C 39.761443 29.454288 50.275160 0 CFG=2
M  V30 21 C 38.763264 27.961082 52.118732 0
M  V30 22 C 41.050172 27.992119 58.067216 0
M  V30 23 C 37.976273 29.438029 57.232242 0
M  V30 24 C 37.259157 26.610259 55.594784 0
M  V30 25 C 40.819523 30.134379 51.136698 0
M  V30 26 H 37.647343 22.915996 57.883208 0
M  V30 27 H 37.294084 24.526962 58.444820 0
M  V30 28 H 38.061764 24.978887 54.537457 0
M  V30 29 H 39.605319 31.725081 52.010451 0
M  V30 30 H 41.067394 31.357758 52.880942 0
M  V30 31 H 36.083685 24.790174 56.633088 0
M  V30 32 H 37.442518 22.731568 54.888078 0
M  V30 33 H 36.061291 22.369721 55.952021 0
M  V30 34 H 35.931314 23.582120 54.668848 0
M  V30 35 H 39.080624 27.237228 57.933015 0
M  V30 36 H 39.867406 23.600048 57.432845 0
M  V30 37 H 39.492705 25.092061 58.257009 0
M  V30 38 H 37.467407 32.884613 56.093652 0
M  V30 39 H 39.069033 32.387856 56.610009 0
M  V30 40 H 38.850671 33.193276 55.053519 0
M  V30 41 H 40.229772 27.370909 50.676660 0
M  V30 42 H 38.667415 27.596348 50.011069 0
M  V30 43 H 41.067381 26.021411 56.704319 0
M  V30 44 H 40.235405 31.313466 54.854512 0
M  V30 45 H 38.899941 30.113941 50.253489 0
M  V30 46 H 38.255321 27.049264 52.397505 0
M  V30 47 H 40.830406 28.799555 58.766943 0
M  V30 48 H 41.413308 27.149659 58.653601 0
M  V30 49 H 41.876601 28.320753 57.434042 0
M  V30 50 H 37.645066 28.830189 58.073352 0
M  V30 51 H 38.141264 30.441392 57.623378 0
M  V30 52 H 37.164554 29.473844 56.507051 0
M  V30 53 H 36.267405 26.421776 55.230013 0
M  V30 54 H 37.161497 26.970990 56.615823 0
M  V30 55 H 37.723032 27.351217 54.950016 0
M  V30 56 H 41.395012 30.835117 50.530360 0
M  V30 57 H 41.515553 29.362335 51.453466 0
M  V30 58 H 39.780299 24.628716 55.583341 0
M  V30 END ATOM
M  V30 BEGIN BOND
M  V30 1 1 5 4
M  V30 2 2 8 3
M  V30 3 1 8 6
M  V30 4 1 10 1
M  V30 5 1 10 4
M  V30 6 1 11 10
M  V30 7 2 13 7
M  V30 8 1 13 12
M  V30 9 1 14 1
M  V30 10 1 14 5
M  V30 11 1 15 9
M  V30 12 1 17 2
M  V30 13 1 17 5
M  V30 14 1 17 12
M  V30 15 1 18 7
M  V30 16 1 18 8
M  V30 17 1 18 9
M  V30 18 1 20 16
M  V30 19 1 20 19
M  V30 20 2 21 3
M  V30 21 1 21 16
M  V30 22 1 22 12
M  V30 23 1 23 13
M  V30 24 1 24 4
M  V30 25 1 25 6
M  V30 26 1 25 20
M  V30 27 1 26 1
M  V30 28 1 27 1
M  V30 29 1 4 28 CFG=3
M  V30 30 1 29 6
M  V30 31 1 30 6
M  V30 32 1 10 31 CFG=1
M  V30 33 1 32 11
M  V30 34 1 33 11
M  V30 35 1 34 11
M  V30 36 1 12 35 CFG=1
M  V30 37 1 36 14
M  V30 38 1 37 14
M  V30 39 1 38 15
M  V30 40 1 39 15
M  V30 41 1 40 15
M  V30 42 1 41 16
M  V30 43 1 42 16
M  V30 44 1 17 43 CFG=1
M  V30 45 1 18 44 CFG=3
M  V30 46 1 20 45 CFG=3
M  V30 47 1 46 21
M  V30 48 1 47 22
M  V30 49 1 48 22
M  V30 50 1 49 22
M  V30 51 1 50 23
M  V30 52 1 51 23
M  V30 53 1 52 23
M  V30 54 1 53 24
M  V30 55 1 54 24
M  V30 56 1 55 24
M  V30 57 1 56 25
M  V30 58 1 57 25
M  V30 59 1 5 58 CFG=3
M  V30 END BOND
M  V30 END CTAB
M  END
>  <i_epik_Tot_Q>  (1) 
0

>  <i_epik_Tot_abs_Q>  (1) 
2

>  <i_i_glide_confnum>  (1) 
22

>  <i_i_glide_lignum>  (1) 
121

>  <i_i_glide_posenum>  (1) 
64

>  <i_i_glide_rotatable_bonds>  (1) 
6

>  <i_lp_mmshare_version>  (1) 
72125

>  <i_m_source_file_index>  (1) 
45

>  <i_f3d_flags>  (1) 
0

>  <num_sample>  (1) 
100

>  <b_lp_Chiralities_Consistent>  (1) 
1

>  <r_epik_Charging_Adjusted_Penalty>  (1) 
0.41733257654759531

>  <r_epik_Ionization_Penalty>  (1) 
0.0069177268181324029

>  <r_epik_Ionization_Penalty_Charging>  (1) 
0.0066527375949913311

>  <r_epik_Ionization_Penalty_Neutral>  (1) 
0.00026498922314107146

>  <r_epik_State_Penalty>  (1) 
0.41067983895260396

>  <r_glide_ring_energy>  (1) 
0

>  <r_i_docking_score>  (1) 
-7.1885863283439884

>  <r_i_glide_ecoul>  (1) 
-2.2076574502797666

>  <r_i_glide_eff_state_penalty>  (1) 
0.41067983895260396

>  <r_i_glide_einternal>  (1) 
10.289884597129909

>  <r_i_glide_emodel>  (1) 
-40.872991924898606

>  <r_i_glide_emodel_strain>  (1) 
4.7643536554066515

>  <r_i_glide_energy>  (1) 
-29.851367274751702

>  <r_i_glide_erotb>  (1) 
0.61440649929112812

>  <r_i_glide_esite>  (1) 
0

>  <r_i_glide_evdw>  (1) 
-27.643709824471937

>  <r_i_glide_gscore>  (1) 
-7.5992661672965927

>  <r_i_glide_gscore_strain>  (1) 
0.19108841385166286

>  <r_i_glide_hbond>  (1) 
0

>  <r_i_glide_ligand_efficiency>  (1) 
-0.28754345313375951

>  <r_i_glide_ligand_efficiency_ln>  (1) 
-1.7039103843660917

>  <r_i_glide_ligand_efficiency_sa>  (1) 
-0.84078215747009288

>  <r_i_glide_lipo>  (1) 
-4.0585817049967243

>  <r_i_glide_metal>  (1) 
-0

>  <r_i_glide_rewards>  (1) 
-2.632845266677097

>  <r_lp_Energy>  (1) 
12.967366999999999

>  <r_lp_tautomer_probability>  (1) 
0.49999399997599986

>  <s_epik_Chemistry_Notes>  (1) 
This compound has an imine and may undergo hydrolysis. This compound contains an acetal/aminal-like group ( X-CH(R)-Y where X, Y are N, S, or O) that may be acid/base labile, releasing an aldehyde.

>  <s_epik_cmdline>  (1) 
J2VwaWtfcHl0aG9uJywgJy1waHQnLCAnMS4wJywgJy1waCcsICc3LjQnLCAnLXRuJywgJzgnLCAnLW1hJywgJzUwMCcsICctaW1hZScsICc8aW5maWxlLm1hZT4nLCAnLW9tYWUnLCAnPG91dGZpbGUubWFlPic=

>  <s_epik_input>  (1) 
W0NIM11bQ0BIXTFbQ0gyXVtDSDJdTihbQ0BASF0xW0NIM10pW0NAQEhdKFtPSF0pW0NAQEhdKFtDSDNdKVxDKFtDSDNdKT1OXFtDQEBIXShPW0NIM10pQzI9Qz1bQ0hdW0NIMl1bQ0BASF0oRilbQ0gyXVtDSDJdMg==

>  <s_glide_docking_method>  (1) 
confgen

>  <s_i_glide_gridfile>  (1) 
gpcr_5ht2c_6bqh_protein_autoprepared_prepared

>  <s_lp_Force_Field>  (1) 
S-OPLS

>  <s_lp_Variant>  (1) 
DiffSBDD_44_num_sample_100-14

>  <s_m_source_file>  (1) 
generated__ligand_DiffSBDD_2026-05-06_prepared.sdf

>  <GenAI_Model>  (1) 
DiffSBDD

>  <Protein>  (1) 
GPCR_5HT2C

$$$$
DiffSBDD_91_num_sample_100
     RDKit          3D

  0  0  0  0  0  0  0  0  0  0999 V3000
M  V30 BEGIN CTAB
M  V30 COUNTS 73 75 0 0 1
M  V30 BEGIN ATOM
M  V30 1 C 42.876920 28.867001 64.191552 0
M  V30 2 C 41.795727 33.164889 65.007779 0 CFG=1
M  V30 3 N 39.611424 29.931713 59.994193 0
M  V30 4 C 39.976027 33.514512 62.779813 0 CFG=2
M  V30 5 O 39.627215 33.557581 61.427211 0
M  V30 6 C 41.362002 34.582861 64.574290 0 CFG=2
M  V30 7 F 42.660439 26.770887 65.324968 0
M  V30 8 C 40.989206 34.643140 63.075448 0 CFG=2
M  V30 9 C 41.315623 30.674107 64.705419 0
M  V30 10 C 38.786678 30.855340 54.942505 0
M  V30 11 C 38.553669 32.808041 61.070864 0
M  V30 12 C 39.628497 29.538037 58.690553 0
M  V30 13 C 40.040817 29.276979 51.513036 0 CFG=1
M  V30 14 O 37.815953 32.200383 61.853456 0
M  V30 15 C 39.610906 30.695604 53.650302 0
M  V30 16 C 40.385963 36.011485 62.696123 0
M  V30 17 S 38.964216 29.412260 56.031007 0
M  V30 18 C 42.423229 30.184265 63.980942 0
M  V30 19 O 41.774455 33.111168 66.423176 0
M  V30 20 O 42.444830 35.465046 64.796782 0
M  V30 21 C 39.182282 29.496009 52.776075 0
M  V30 22 C 37.429020 31.609607 59.095532 0
M  V30 23 C 40.818982 32.093174 64.472773 0 CFG=2
M  V30 24 C 42.226008 28.038105 65.126131 0
M  V30 25 C 41.123019 28.526708 65.853593 0
M  V30 26 N 37.867409 31.012141 57.838737 0
M  V30 27 O 39.542054 28.151039 50.822320 0
M  V30 28 C 40.667535 29.843493 65.644443 0
M  V30 29 C 38.843740 30.020288 57.696016 0
M  V30 30 C 40.576051 28.567091 58.534015 0
M  V30 31 C 38.331421 32.774004 59.555868 0
M  V30 32 C 40.068923 30.463191 50.542154 0
M  V30 33 C 40.592974 29.211740 60.881867 0 CFG=2
M  V30 34 C 41.141088 28.340809 59.697097 0
M  V30 35 C 39.895414 28.421195 61.975777 0
M  V30 36 O 40.591837 32.300235 63.083734 0
M  V30 37 H 43.722810 28.491034 63.633798 0
M  V30 38 H 42.802329 32.961874 64.649405 0
M  V30 39 H 39.079417 33.624532 63.387859 0
M  V30 40 H 40.520134 34.916386 65.181004 0
M  V30 41 H 41.867402 34.452221 62.461256 0
M  V30 42 H 39.131760 31.741686 55.475475 0
M  V30 43 H 37.730293 31.010526 54.720846 0
M  V30 44 H 41.063312 29.046879 51.808129 0
M  V30 45 H 40.666475 30.602760 53.910535 0
M  V30 46 H 39.520367 31.620032 53.077361 0
M  V30 47 H 39.471774 36.213262 63.255272 0
M  V30 48 H 41.085577 36.821456 62.903418 0
M  V30 49 H 40.146208 36.067097 61.634155 0
M  V30 50 H 42.921794 30.817999 63.261977 0
M  V30 51 H 42.118401 32.273633 66.694853 0
M  V30 52 H 42.160978 36.359631 64.656232 0
M  V30 53 H 38.133149 29.600570 52.510094 0
M  V30 54 H 39.234059 28.582328 53.368338 0
M  V30 55 H 36.421696 31.998697 58.947879 0
M  V30 56 H 37.305798 30.827895 59.843937 0
M  V30 57 H 39.867403 32.203003 64.988277 0
M  V30 58 H 40.624611 27.890375 66.570496 0
M  V30 59 H 37.285425 31.227834 57.034297 0
M  V30 60 H 38.684578 28.355612 50.480764 0
M  V30 61 H 39.818640 30.214425 66.200941 0
M  V30 62 H 40.822840 28.066462 57.609186 0
M  V30 63 H 39.311066 32.684209 59.087040 0
M  V30 64 H 37.919003 33.726263 59.222920 0
M  V30 65 H 40.564991 31.320879 50.992394 0
M  V30 66 H 40.622396 30.215399 49.635865 0
M  V30 67 H 39.067429 30.773481 50.249149 0
M  V30 68 H 41.337931 29.897066 61.278925 0
M  V30 69 H 41.926027 27.621427 59.854206 0
M  V30 70 H 40.601570 27.818128 62.545944 0
M  V30 71 H 39.416720 29.121480 62.654027 0
M  V30 72 H 39.122602 27.768918 61.573442 0
M  V30 73 H 38.942731 30.587708 60.368353 0
M  V30 END ATOM
M  V30 BEGIN BOND
M  V30 1 1 5 4
M  V30 2 1 6 2
M  V30 3 1 8 4
M  V30 4 1 8 6
M  V30 5 1 11 5
M  V30 6 1 12 3
M  V30 7 2 14 11
M  V30 8 1 15 10
M  V30 9 1 16 8
M  V30 10 1 17 10
M  V30 11 2 18 1
M  V30 12 1 18 9
M  V30 13 1 19 2
M  V30 14 1 20 6
M  V30 15 1 21 13
M  V30 16 1 21 15
M  V30 17 1 23 2
M  V30 18 1 23 9
M  V30 19 1 24 1
M  V30 20 1 24 7
M  V30 21 2 25 24
M  V30 22 1 26 22
M  V30 23 1 27 13
M  V30 24 2 28 9
M  V30 25 1 28 25
M  V30 26 2 29 12
M  V30 27 1 29 17
M  V30 28 1 29 26
M  V30 29 1 30 12
M  V30 30 1 31 11
M  V30 31 1 31 22
M  V30 32 1 32 13
M  V30 33 1 33 3
M  V30 34 2 34 30
M  V30 35 1 34 33
M  V30 36 1 35 33
M  V30 37 1 36 4
M  V30 38 1 36 23
M  V30 39 1 37 1
M  V30 40 1 2 38 CFG=3
M  V30 41 1 4 39 CFG=1
M  V30 42 1 6 40 CFG=1
M  V30 43 1 8 41 CFG=3
M  V30 44 1 42 10
M  V30 45 1 43 10
M  V30 46 1 13 44 CFG=1
M  V30 47 1 45 15
M  V30 48 1 46 15
M  V30 49 1 47 16
M  V30 50 1 48 16
M  V30 51 1 49 16
M  V30 52 1 50 18
M  V30 53 1 51 19
M  V30 54 1 52 20
M  V30 55 1 53 21
M  V30 56 1 54 21
M  V30 57 1 55 22
M  V30 58 1 56 22
M  V30 59 1 23 57 CFG=1
M  V30 60 1 58 25
M  V30 61 1 59 26
M  V30 62 1 60 27
M  V30 63 1 61 28
M  V30 64 1 62 30
M  V30 65 1 63 31
M  V30 66 1 64 31
M  V30 67 1 65 32
M  V30 68 1 66 32
M  V30 69 1 67 32
M  V30 70 1 33 68 CFG=1
M  V30 71 1 69 34
M  V30 72 1 70 35
M  V30 73 1 71 35
M  V30 74 1 72 35
M  V30 75 1 73 3
M  V30 END BOND
M  V30 END CTAB
M  END
>  <i_epik_Tot_Q>  (1) 
0

>  <i_epik_Tot_abs_Q>  (1) 
0

>  <i_i_glide_confnum>  (1) 
3585

>  <i_i_glide_lignum>  (1) 
245

>  <i_i_glide_posenum>  (1) 
203

>  <i_i_glide_rotatable_bonds>  (1) 
15

>  <i_lp_mmshare_version>  (1) 
72125

>  <i_m_source_file_index>  (1) 
92

>  <i_f3d_flags>  (1) 
0

>  <num_sample>  (1) 
100

>  <b_lp_Chiralities_Consistent>  (1) 
1

>  <r_epik_Charging_Adjusted_Penalty>  (1) 
0.41626047813520761

>  <r_epik_Ionization_Penalty>  (1) 
0.0056919315549441929

>  <r_epik_Ionization_Penalty_Charging>  (1) 
0.0055806391826036302

>  <r_epik_Ionization_Penalty_Neutral>  (1) 
0.00011129237234056257

>  <r_epik_State_Penalty>  (1) 
0.41067983895260396

>  <r_glide_ring_energy>  (1) 
0

>  <r_i_docking_score>  (1) 
-7.1870913518892365

>  <r_i_glide_ecoul>  (1) 
-7.0919365301954267

>  <r_i_glide_eff_state_penalty>  (1) 
0.41067983895260396

>  <r_i_glide_einternal>  (1) 
8.0998144324900068

>  <r_i_glide_emodel>  (1) 
-78.893698615001583

>  <r_i_glide_emodel_strain>  (1) 
0.033608622920482389

>  <r_i_glide_energy>  (1) 
-56.46618497949931

>  <r_i_glide_erotb>  (1) 
0.89707811728232589

>  <r_i_glide_esite>  (1) 
-0.10000000000000001

>  <r_i_glide_evdw>  (1) 
-49.374248449303884

>  <r_i_glide_gscore>  (1) 
-7.5977711908418408

>  <r_i_glide_gscore_strain>  (1) 
0

>  <r_i_glide_hbond>  (1) 
-0.40392603614457351

>  <r_i_glide_ligand_efficiency>  (1) 
-0.19964142644136768

>  <r_i_glide_ligand_efficiency_ln>  (1) 
-1.5680291602133318

>  <r_i_glide_ligand_efficiency_sa>  (1) 
-0.65920146597494433

>  <r_i_glide_lipo>  (1) 
-3.4975259206664435

>  <r_i_glide_metal>  (1) 
-0

>  <r_i_glide_rewards>  (1) 
-0.96089444931864043

>  <r_lp_Energy>  (1) 
38.539941999999996

>  <r_lp_tautomer_probability>  (1) 
0.49957765584955821

>  <s_epik_Chemistry_Notes>  (1) 
This compound has an ester and may undergo hydrolysis at high or low pH. This compound has an imine and may undergo hydrolysis. This compound contains an acetal/aminal-like group ( X-CH(R)-Y where X, Y are N, S, or O) that may be acid/base labile, releasing an aldehyde.

>  <s_epik_cmdline>  (1) 
J2VwaWtfcHl0aG9uJywgJy1waHQnLCAnMS4wJywgJy1waCcsICc3LjQnLCAnLXRuJywgJzgnLCAnLW1hJywgJzUwMCcsICctaW1hZScsICc8aW5maWxlLm1hZT4nLCAnLW9tYWUnLCAnPG91dGZpbGUubWFlPic=

>  <s_epik_input>  (1) 
W2NIXTFbY0hdYyhGKVtjSF1bY0hdYzFbQ0BASF0yT1tDQEBIXShbQ0BASF0oW0NIM10pW0NASF0oW09IXSlbQ0BIXTJbT0hdKU9DKD1PKVtDSDJdW0NIMl1bTkhdW0NAQEhdKEMzPU5bQ0BASF0oW0NIM10pW0NIXT1bQ0hdMylTW0NIMl1bQ0gyXVtDSDJdW0NAQEhdKFtPSF0pW0NIM10=

>  <s_glide_docking_method>  (1) 
confgen

>  <s_i_glide_gridfile>  (1) 
gpcr_5ht2c_6bqh_protein_autoprepared_prepared

>  <s_lp_Force_Field>  (1) 
S-OPLS

>  <s_lp_Variant>  (1) 
DiffSBDD_91_num_sample_100-1

>  <s_m_source_file>  (1) 
generated__ligand_DiffSBDD_2026-05-06_prepared.sdf

>  <GenAI_Model>  (1) 
DiffSBDD

>  <Protein>  (1) 
GPCR_5HT2C

$$$$
DiffSBDD_80_num_sample_100
     RDKit          3D

  0  0  0  0  0  0  0  0  0  0999 V3000
M  V30 BEGIN CTAB
M  V30 COUNTS 73 76 0 0 1
M  V30 BEGIN ATOM
M  V30 1 C 40.719971 33.662305 63.062509 0
M  V30 2 C 37.682465 32.912121 58.894021 0
M  V30 3 N 37.867404 32.169650 57.619568 0 CFG=2 CHG=1
M  V30 4 O 41.481092 30.897837 63.134747 0
M  V30 5 O 37.722556 35.098805 60.781950 0
M  V30 6 O 41.067607 34.967232 62.645846 0
M  V30 7 C 38.992628 30.833012 55.273079 0 CFG=2
M  V30 8 C 38.426379 29.993451 56.450853 0 CFG=1
M  V30 9 C 40.737220 28.513827 66.606542 0
M  V30 10 C 40.744122 28.950518 62.032520 0
M  V30 11 O 43.406646 27.193882 63.659953 0
M  V30 12 C 42.530496 27.633325 64.615275 0
M  V30 13 O 37.868102 26.341437 55.659182 0
M  V30 14 C 40.813235 29.201404 65.381295 0
M  V30 15 C 38.385860 27.667494 57.605992 0
M  V30 16 C 42.448504 26.951637 65.844142 0
M  V30 17 O 38.953013 30.000367 60.817907 0
M  V30 18 C 38.273724 32.189485 55.194644 0
M  V30 19 O 41.467436 26.714705 68.018834 0
M  V30 20 C 39.121850 28.641275 56.688766 0
M  V30 21 C 41.551059 27.387073 66.835812 0
M  V30 22 C 40.325501 31.262488 62.375754 0 CFG=1
M  V30 23 C 38.968591 33.285758 59.635797 0 CFG=2
M  V30 24 C 40.407560 32.730690 61.867074 0 CFG=1
M  V30 25 C 38.448307 30.812369 57.762090 0
M  V30 26 C 40.267517 30.186930 61.290983 0 CFG=1
M  V30 27 C 37.867398 26.415239 56.887335 0
M  V30 28 C 39.109610 33.160919 61.162058 0 CFG=1
M  V30 29 C 40.308308 28.327496 56.133212 0
M  V30 30 C 39.625446 30.500442 52.997564 0
M  V30 31 C 38.982583 34.516811 60.514237 0 CFG=2
M  V30 32 C 41.759315 29.497727 63.042972 0 CFG=2
M  V30 33 C 41.704062 28.764258 64.377908 0
M  V30 34 C 38.438315 32.960199 56.508569 0
M  V30 35 O 38.775945 30.112819 54.065946 0
M  V30 36 H 39.867859 33.707704 63.738267 0
M  V30 37 H 41.563179 33.286190 63.642721 0
M  V30 38 H 37.042172 32.330696 59.558459 0
M  V30 39 H 37.121842 33.817758 58.659549 0
M  V30 40 H 37.641407 35.897477 60.281796 0
M  V30 41 H 41.237930 35.498606 63.410961 0
M  V30 42 H 40.055725 31.021860 55.432299 0
M  V30 43 H 37.385137 29.771392 56.208419 0
M  V30 44 H 40.048473 28.847694 67.369197 0
M  V30 45 H 40.730517 27.004793 68.549257 0
M  V30 46 H 41.156573 28.179047 61.381127 0
M  V30 47 H 39.900736 28.508275 62.567728 0
M  V30 48 H 43.431588 27.667330 62.838309 0
M  V30 49 H 40.180546 30.059153 65.206110 0
M  V30 50 H 39.062349 27.353401 58.401462 0
M  V30 51 H 37.540060 28.159166 58.085357 0
M  V30 52 H 43.073292 26.089095 66.024425 0
M  V30 53 H 38.555013 30.850262 60.712617 0
M  V30 54 H 37.215647 32.027754 54.981454 0
M  V30 55 H 38.660931 32.792578 54.377424 0
M  V30 56 H 39.469062 31.149649 63.044505 0
M  V30 57 H 39.867399 33.221426 59.031711 0
M  V30 58 H 41.229812 32.804393 61.154753 0
M  V30 59 H 39.467398 30.875527 58.132321 0
M  V30 60 H 37.865823 30.287218 58.516880 0
M  V30 61 H 40.944204 30.421751 60.469057 0
M  V30 62 H 37.503063 25.619033 57.537215 0
M  V30 63 H 38.220791 32.837485 61.702612 0
M  V30 64 H 40.773117 27.370085 56.321576 0
M  V30 65 H 40.826377 29.016821 55.487976 0
M  V30 66 H 39.448430 29.859472 52.134107 0
M  V30 67 H 39.466849 31.532011 52.686146 0
M  V30 68 H 40.667385 30.393675 53.283613 0
M  V30 69 H 39.818695 35.209620 60.449615 0
M  V30 70 H 42.769807 29.422454 62.653502 0
M  V30 71 H 37.918311 33.916302 56.431126 0
M  V30 72 H 39.489735 33.176019 56.695605 0
M  V30 73 H 36.897942 32.014345 57.314699 0
M  V30 END ATOM
M  V30 BEGIN BOND
M  V30 1 1 3 2
M  V30 2 1 6 1
M  V30 3 1 8 7
M  V30 4 1 12 11
M  V30 5 2 14 9
M  V30 6 1 16 12
M  V30 7 1 18 7
M  V30 8 1 20 8
M  V30 9 1 20 15
M  V30 10 1 21 9
M  V30 11 2 21 16
M  V30 12 1 21 19
M  V30 13 1 22 4
M  V30 14 1 23 2
M  V30 15 1 24 1
M  V30 16 1 24 22
M  V30 17 1 25 3
M  V30 18 1 25 8
M  V30 19 1 26 10
M  V30 20 1 26 17
M  V30 21 1 26 22
M  V30 22 2 27 13
M  V30 23 1 27 15
M  V30 24 1 28 23
M  V30 25 1 28 24
M  V30 26 2 29 20
M  V30 27 1 31 5
M  V30 28 1 31 23
M  V30 29 1 31 28
M  V30 30 1 32 4
M  V30 31 1 32 10
M  V30 32 2 33 12
M  V30 33 1 33 14
M  V30 34 1 33 32
M  V30 35 1 34 3
M  V30 36 1 34 18
M  V30 37 1 35 7
M  V30 38 1 35 30
M  V30 39 1 36 1
M  V30 40 1 37 1
M  V30 41 1 38 2
M  V30 42 1 39 2
M  V30 43 1 40 5
M  V30 44 1 41 6
M  V30 45 1 7 42 CFG=1
M  V30 46 1 8 43 CFG=3
M  V30 47 1 44 9
M  V30 48 1 45 19
M  V30 49 1 46 10
M  V30 50 1 47 10
M  V30 51 1 48 11
M  V30 52 1 49 14
M  V30 53 1 50 15
M  V30 54 1 51 15
M  V30 55 1 52 16
M  V30 56 1 53 17
M  V30 57 1 54 18
M  V30 58 1 55 18
M  V30 59 1 22 56 CFG=1
M  V30 60 1 23 57 CFG=3
M  V30 61 1 24 58 CFG=3
M  V30 62 1 59 25
M  V30 63 1 60 25
M  V30 64 1 26 61 CFG=3
M  V30 65 1 62 27
M  V30 66 1 28 63 CFG=1
M  V30 67 1 64 29
M  V30 68 1 65 29
M  V30 69 1 66 30
M  V30 70 1 67 30
M  V30 71 1 68 30
M  V30 72 1 31 69 CFG=3
M  V30 73 1 32 70 CFG=3
M  V30 74 1 71 34
M  V30 75 1 72 34
M  V30 76 1 3 73 CFG=3
M  V30 END BOND
M  V30 END CTAB
M  END
>  <i_epik_Tot_Q>  (1) 
1

>  <i_epik_Tot_abs_Q>  (1) 
1

>  <i_i_glide_confnum>  (1) 
254

>  <i_i_glide_lignum>  (1) 
211

>  <i_i_glide_posenum>  (1) 
297

>  <i_i_glide_rotatable_bonds>  (1) 
15

>  <i_lp_mmshare_version>  (1) 
72125

>  <i_m_source_file_index>  (1) 
81

>  <i_f3d_flags>  (1) 
0

>  <num_sample>  (1) 
100

>  <b_lp_Chiralities_Consistent>  (1) 
1

>  <r_epik_Charging_Adjusted_Penalty>  (1) 
0.034071705691259377

>  <r_epik_Ionization_Penalty>  (1) 
0.043305258844254187

>  <r_epik_Ionization_Penalty_Charging>  (1) 
0.034071705691259377

>  <r_epik_Ionization_Penalty_Neutral>  (1) 
0.009233553152994808

>  <r_epik_State_Penalty>  (1) 
-0

>  <r_glide_ring_energy>  (1) 
0

>  <r_i_docking_score>  (1) 
-7.1848022064062071

>  <r_i_glide_ecoul>  (1) 
-12.719148457686257

>  <r_i_glide_eff_state_penalty>  (1) 
-0

>  <r_i_glide_einternal>  (1) 
12.312770773919031

>  <r_i_glide_emodel>  (1) 
-68.994291876791024

>  <r_i_glide_emodel_strain>  (1) 
1.9387913379076025

>  <r_i_glide_energy>  (1) 
-53.645618581766314

>  <r_i_glide_erotb>  (1) 
0.67144220787932085

>  <r_i_glide_esite>  (1) 
-0.10000000000000001

>  <r_i_glide_evdw>  (1) 
-40.926470124080055

>  <r_i_glide_gscore>  (1) 
-7.1848022064062071

>  <r_i_glide_gscore_strain>  (1) 
0

>  <r_i_glide_hbond>  (1) 
-0.80800000000000005

>  <r_i_glide_ligand_efficiency>  (1) 
-0.20528006304017735

>  <r_i_glide_ligand_efficiency_ln>  (1) 
-1.5772235423997589

>  <r_i_glide_ligand_efficiency_sa>  (1) 
-0.67148469836411406

>  <r_i_glide_lipo>  (1) 
-2.0432396901952252

>  <r_i_glide_metal>  (1) 
-0

>  <r_i_glide_rewards>  (1) 
-0.95080894923336168

>  <r_lp_Energy>  (1) 
32.799517000000002

>  <r_lp_tautomer_probability>  (1) 
1

>  <s_epik_cmdline>  (1) 
J2VwaWtfcHl0aG9uJywgJy1waHQnLCAnMS4wJywgJy1waCcsICc3LjQnLCAnLXRuJywgJzgnLCAnLW1hJywgJzUwMCcsICctaW1hZScsICc8aW5maWxlLm1hZT4nLCAnLW9tYWUnLCAnPG91dGZpbGUubWFlPic=

>  <s_epik_input>  (1) 
Tz1bQ0hdW0NIMl1DKD1bQ0gyXSlbQ0BASF0oW0NASF0oW0NIMl1bQ0gyXTEpT1tDSDNdKVtDSDJdTjFbQ0gyXVtDQEBIXTJbQ0BASF0oW0NAQEhdMltPSF0pW0NAQEhdKFtDSDJdW09IXSlbQ0BASF0zT1tDQEhdKFtDSDJdW0NASF0zW09IXSlDND1bQ0hdW0NIMl1DKD1PKVtDSF09QzRbT0hd

>  <s_glide_docking_method>  (1) 
confgen

>  <s_i_glide_gridfile>  (1) 
gpcr_5ht2c_6bqh_protein_autoprepared_prepared

>  <s_lp_Force_Field>  (1) 
S-OPLS

>  <s_lp_Variant>  (1) 
DiffSBDD_80_num_sample_100-7

>  <s_m_source_file>  (1) 
generated__ligand_DiffSBDD_2026-05-06_prepared.sdf

>  <GenAI_Model>  (1) 
DiffSBDD

>  <Protein>  (1) 
GPCR_5HT2C

$$$$
DiffSBDD_64_num_sample_100
     RDKit          3D

  0  0  0  0  0  0  0  0  0  0999 V3000
M  V30 BEGIN CTAB
M  V30 COUNTS 67 69 0 0 1
M  V30 BEGIN ATOM
M  V30 1 C 38.702439 27.822855 52.018370 0
M  V30 2 C 39.467475 29.835307 53.744749 0
M  V30 3 C 41.292635 33.156365 63.235971 0
M  V30 4 C 37.867404 30.947276 56.943868 0
M  V30 5 C 37.686556 33.019302 58.298025 0
M  V30 6 O 39.867400 37.879376 62.653511 0
M  V30 7 N 38.668368 28.787907 54.247204 0
M  V30 8 C 39.836067 35.525015 62.664671 0
M  V30 9 O 39.867424 28.888092 50.310301 0
M  V30 10 C 41.070683 35.571892 63.370970 0
M  V30 11 C 39.336206 34.242553 62.206435 0
M  V30 12 C 36.521693 34.580093 59.857612 0
M  V30 13 O 37.536656 26.828698 53.869195 0
M  V30 14 C 40.086813 33.069690 62.523974 0
M  V30 15 C 38.239893 27.740964 53.436025 0
M  V30 16 C 37.539552 30.141957 55.958518 0
M  V30 17 C 39.855484 29.875505 52.481060 0
M  V30 18 C 40.364820 27.367829 56.452460 0
M  V30 19 C 41.598987 27.492612 57.365036 0
M  V30 20 C 37.662916 35.228243 60.636191 0
M  V30 21 C 39.491395 28.617469 56.635331 0
M  V30 22 N 38.104743 34.110396 61.453485 0
M  V30 23 C 37.882361 32.811336 60.843839 0
M  V30 24 C 41.782977 34.397515 63.650922 0
M  V30 25 C 37.953565 36.821420 63.346941 0
M  V30 26 C 38.276982 31.665918 57.960476 0
M  V30 27 C 38.280301 28.832444 55.677391 0 CFG=2
M  V30 28 C 35.702857 32.184403 59.720427 0
M  V30 29 C 39.609393 26.060420 56.735481 0
M  V30 30 C 39.469733 28.845504 51.587595 0
M  V30 31 N 39.106436 36.725037 62.451679 0
M  V30 32 C 36.937392 33.105615 59.655441 0 CFG=2
M  V30 33 H 38.413843 27.044886 51.326154 0
M  V30 34 H 40.332122 29.700658 50.181873 0
M  V30 35 H 39.728234 30.587658 54.474909 0
M  V30 36 H 41.846171 32.257346 63.464023 0
M  V30 37 H 38.522113 33.717860 58.301278 0
M  V30 38 H 37.046129 33.350221 57.480963 0
M  V30 39 H 40.203196 37.827166 63.539263 0
M  V30 40 H 41.463768 36.509465 63.716758 0
M  V30 41 H 36.299725 35.105750 58.927962 0
M  V30 42 H 35.617442 34.624555 60.466724 0
M  V30 43 H 39.737048 32.097635 62.220942 0
M  V30 44 H 36.721191 30.384899 55.295596 0
M  V30 45 H 40.467108 30.695287 52.131861 0
M  V30 46 H 40.708276 27.341303 55.421770 0
M  V30 47 H 41.352127 27.286220 58.406748 0
M  V30 48 H 42.393838 26.821436 57.062607 0
M  V30 49 H 42.039823 28.484383 57.327062 0
M  V30 50 H 37.215159 36.078033 61.136842 0
M  V30 51 H 38.461025 35.566110 59.976107 0
M  V30 52 H 40.147002 29.484533 56.548546 0
M  V30 53 H 39.134946 28.618151 57.666959 0
M  V30 54 H 37.437701 32.131503 61.571680 0
M  V30 55 H 38.799388 32.368913 60.462038 0
M  V30 56 H 42.712325 34.451918 64.197778 0
M  V30 57 H 37.234558 36.021433 63.212285 0
M  V30 58 H 38.263941 36.822423 64.393026 0
M  V30 59 H 37.405147 37.741766 63.154666 0
M  V30 60 H 39.067376 31.312141 58.600974 0
M  V30 61 H 37.554932 28.056203 55.914533 0
M  V30 62 H 35.271661 32.171545 60.721904 0
M  V30 63 H 34.915274 32.529163 59.053511 0
M  V30 64 H 35.946082 31.155998 59.453183 0
M  V30 65 H 39.223119 26.036482 57.754975 0
M  V30 66 H 38.766543 25.929375 56.058273 0
M  V30 67 H 40.265978 25.199279 56.607638 0
M  V30 END ATOM
M  V30 BEGIN BOND
M  V30 1 1 7 2
M  V30 2 2 10 8
M  V30 3 1 11 8
M  V30 4 1 14 3
M  V30 5 2 14 11
M  V30 6 1 15 1
M  V30 7 1 15 7
M  V30 8 2 15 13
M  V30 9 2 16 4
M  V30 10 2 17 2
M  V30 11 1 19 18
M  V30 12 1 20 12
M  V30 13 1 21 18
M  V30 14 1 22 11
M  V30 15 1 22 20
M  V30 16 1 23 22
M  V30 17 2 24 3
M  V30 18 1 24 10
M  V30 19 2 26 4
M  V30 20 1 26 5
M  V30 21 1 27 7
M  V30 22 1 27 16
M  V30 23 1 27 21
M  V30 24 1 29 18
M  V30 25 2 30 1
M  V30 26 1 30 9
M  V30 27 1 30 17
M  V30 28 1 31 6
M  V30 29 1 31 8
M  V30 30 1 31 25
M  V30 31 1 32 5 CFG=3
M  V30 32 1 32 12
M  V30 33 1 32 23
M  V30 34 1 32 28
M  V30 35 1 33 1
M  V30 36 1 34 9
M  V30 37 1 35 2
M  V30 38 1 36 3
M  V30 39 1 37 5
M  V30 40 1 38 5
M  V30 41 1 39 6
M  V30 42 1 40 10
M  V30 43 1 41 12
M  V30 44 1 42 12
M  V30 45 1 43 14
M  V30 46 1 44 16
M  V30 47 1 45 17
M  V30 48 1 46 18
M  V30 49 1 47 19
M  V30 50 1 48 19
M  V30 51 1 49 19
M  V30 52 1 50 20
M  V30 53 1 51 20
M  V30 54 1 52 21
M  V30 55 1 53 21
M  V30 56 1 54 23
M  V30 57 1 55 23
M  V30 58 1 56 24
M  V30 59 1 57 25
M  V30 60 1 58 25
M  V30 61 1 59 25
M  V30 62 1 60 26
M  V30 63 1 27 61 CFG=3
M  V30 64 1 62 28
M  V30 65 1 63 28
M  V30 66 1 64 28
M  V30 67 1 65 29
M  V30 68 1 66 29
M  V30 69 1 67 29
M  V30 END BOND
M  V30 END CTAB
M  END
>  <i_epik_Tot_Q>  (1) 
0

>  <i_epik_Tot_abs_Q>  (1) 
0

>  <i_i_glide_confnum>  (1) 
249

>  <i_i_glide_lignum>  (1) 
162

>  <i_i_glide_posenum>  (1) 
119

>  <i_i_glide_rotatable_bonds>  (1) 
10

>  <i_lp_mmshare_version>  (1) 
72125

>  <i_m_source_file_index>  (1) 
65

>  <i_f3d_flags>  (1) 
0

>  <num_sample>  (1) 
100

>  <b_lp_Chiralities_Consistent>  (1) 
1

>  <r_epik_Charging_Adjusted_Penalty>  (1) 
0.62675424586451389

>  <r_epik_Ionization_Penalty>  (1) 
0.6271712436186877

>  <r_epik_Ionization_Penalty_Charging>  (1) 
1.6245979767145579e-07

>  <r_epik_Ionization_Penalty_Neutral>  (1) 
0.62717108115888998

>  <r_epik_State_Penalty>  (1) 
0.62675408340471617

>  <r_glide_ring_energy>  (1) 
0

>  <r_i_docking_score>  (1) 
-7.183161228160114

>  <r_i_glide_ecoul>  (1) 
-3.3344793098126106

>  <r_i_glide_eff_state_penalty>  (1) 
0.62675408340471617

>  <r_i_glide_einternal>  (1) 
15.213444139627466

>  <r_i_glide_emodel>  (1) 
-59.819336659734695

>  <r_i_glide_emodel_strain>  (1) 
0.44555557733418993

>  <r_i_glide_energy>  (1) 
-48.99335196591251

>  <r_i_glide_erotb>  (1) 
0.72903887146802748

>  <r_i_glide_esite>  (1) 
0

>  <r_i_glide_evdw>  (1) 
-45.658872656099902

>  <r_i_glide_gscore>  (1) 
-7.8099153115648301

>  <r_i_glide_gscore_strain>  (1) 
0

>  <r_i_glide_hbond>  (1) 
0

>  <r_i_glide_ligand_efficiency>  (1) 
-0.22447378838000356

>  <r_i_glide_ligand_efficiency_ln>  (1) 
-1.6085056045649133

>  <r_i_glide_ligand_efficiency_sa>  (1) 
-0.71265985562740941

>  <r_i_glide_lipo>  (1) 
-3.938955719481998

>  <r_i_glide_metal>  (1) 
-0

>  <r_i_glide_rewards>  (1) 
-1.816882934273973

>  <r_lp_Energy>  (1) 
25.450896

>  <r_lp_tautomer_probability>  (1) 
0.99998436711719629

>  <s_epik_Chemistry_Notes>  (1) 
This compound has a N-S or N-O group and may undergo hydrolysis at high or low pH.

>  <s_epik_cmdline>  (1) 
J2VwaWtfcHl0aG9uJywgJy1waHQnLCAnMS4wJywgJy1waCcsICc3LjQnLCAnLXRuJywgJzgnLCAnLW1hJywgJzUwMCcsICctaW1hZScsICc8aW5maWxlLm1hZT4nLCAnLW9tYWUnLCAnPG91dGZpbGUubWFlPic=

>  <s_epik_input>  (1) 
Tz1DMVtDSDJdQyg9TylbQ0hdPVtDSF1OMVtDQEBIXShbQ0gyXVtDSF0oW0NIM10pW0NIM10pW0NIXT1DPVtDSF1bQ0gyXVtDQF0yKFtDSDNdKVtDSDJdW0NIMl1OKFtDSDJdMiljM1tjSF1bY0hdW2NIXVtjSF1jM04oW09IXSlbQ0gzXQ==

>  <s_glide_docking_method>  (1) 
confgen

>  <s_i_glide_gridfile>  (1) 
gpcr_5ht2c_6bqh_protein_autoprepared_prepared

>  <s_lp_Force_Field>  (1) 
S-OPLS

>  <s_lp_Variant>  (1) 
DiffSBDD_64_num_sample_100-2

>  <s_m_source_file>  (1) 
generated__ligand_DiffSBDD_2026-05-06_prepared.sdf

>  <GenAI_Model>  (1) 
DiffSBDD

>  <Protein>  (1) 
GPCR_5HT2C

$$$$
DiffSBDD_64_num_sample_100
     RDKit          3D

  0  0  0  0  0  0  0  0  0  0999 V3000
M  V30 BEGIN CTAB
M  V30 COUNTS 66 68 0 0 1
M  V30 BEGIN ATOM
M  V30 1 C 40.104504 30.340808 52.241296 0
M  V30 2 C 38.327347 28.378750 52.663274 0
M  V30 3 C 41.343704 32.901154 64.550176 0
M  V30 4 C 37.867330 30.574262 56.912418 0
M  V30 5 C 37.925661 32.334721 58.669026 0
M  V30 6 O 40.667346 29.941998 60.656478 0
M  V30 7 N 38.664523 29.187739 53.739222 0
M  V30 8 C 40.541985 30.777228 62.845543 0
M  V30 9 O 40.267387 29.679417 50.017217 0 CHG=-1
M  V30 10 C 41.321914 30.530896 64.013505 0
M  V30 11 C 40.115262 32.135832 62.555849 0
M  V30 12 C 37.409175 33.705581 60.694786 0
M  V30 13 O 39.905269 30.912097 54.545041 0
M  V30 14 C 40.560551 33.183470 63.419500 0
M  V30 15 C 39.567307 30.197381 53.602007 0
M  V30 16 C 37.462457 30.142904 55.737381 0
M  V30 17 C 38.839171 28.517745 51.432686 0
M  V30 18 C 38.334121 27.234042 57.078064 0
M  V30 19 C 37.614123 25.971943 56.571368 0
M  V30 20 C 38.811692 33.837277 61.320320 0
M  V30 21 C 39.002805 28.020856 55.921643 0
M  V30 22 N 39.263946 32.451255 61.419066 0
M  V30 23 C 38.205868 31.490683 61.107547 0
M  V30 24 C 41.709340 31.585600 64.851619 0
M  V30 25 C 40.740709 28.400053 62.363839 0
M  V30 26 C 38.356144 31.015637 58.046799 0
M  V30 27 C 38.039340 28.891335 55.057200 0 CFG=2
M  V30 28 C 35.894317 31.735917 60.071821 0
M  V30 29 C 39.355031 26.863712 58.168200 0
M  V30 30 C 39.768502 29.521559 51.153566 0
M  V30 31 N 40.221863 29.704612 61.965204 0
M  V30 32 C 37.334631 32.279376 60.108398 0 CFG=2
M  V30 33 H 40.816354 31.135785 52.078137 0
M  V30 34 H 37.609195 27.610094 52.907763 0
M  V30 35 H 41.661129 33.706509 65.196199 0
M  V30 36 H 37.218053 32.840681 58.008877 0
M  V30 37 H 38.818534 32.960574 58.659845 0
M  V30 38 H 40.161180 30.690275 60.364468 0
M  V30 39 H 41.641636 29.532636 64.259057 0
M  V30 40 H 36.662235 33.813359 61.482986 0
M  V30 41 H 37.205966 34.484910 59.958639 0
M  V30 42 H 40.296158 34.206229 63.225480 0
M  V30 43 H 36.695207 30.672394 55.191482 0
M  V30 44 H 38.525631 27.842474 50.653456 0
M  V30 45 H 37.586708 27.869777 57.552175 0
M  V30 46 H 38.316902 25.269541 56.121266 0
M  V30 47 H 37.106414 25.456104 57.387108 0
M  V30 48 H 36.861621 26.207759 55.820052 0
M  V30 49 H 38.654514 34.372802 62.252482 0
M  V30 50 H 39.485896 34.407074 60.679412 0
M  V30 51 H 39.518945 27.305108 55.279459 0
M  V30 52 H 39.795492 28.659450 56.314128 0
M  V30 53 H 38.438218 30.543378 60.643093 0
M  V30 54 H 37.649185 31.275599 62.020294 0
M  V30 55 H 42.307404 31.382167 65.728310 0
M  V30 56 H 40.325469 28.084505 63.321581 0
M  V30 57 H 40.437339 27.650725 61.631682 0
M  V30 58 H 41.831184 28.385560 62.407921 0
M  V30 59 H 39.102079 30.450804 58.579926 0
M  V30 60 H 37.154835 28.289218 54.857395 0
M  V30 61 H 35.451242 31.697269 61.067258 0
M  V30 62 H 35.252396 32.362986 59.451910 0
M  V30 63 H 35.865726 30.728558 59.655505 0
M  V30 64 H 40.133187 26.204520 57.780285 0
M  V30 65 H 39.841638 27.753507 58.569676 0
M  V30 66 H 38.873924 26.356794 59.006124 0
M  V30 END ATOM
M  V30 BEGIN BOND
M  V30 1 1 7 2
M  V30 2 2 10 8
M  V30 3 1 11 8
M  V30 4 1 14 3
M  V30 5 2 14 11
M  V30 6 1 15 1
M  V30 7 1 15 7
M  V30 8 2 15 13
M  V30 9 2 16 4
M  V30 10 2 17 2
M  V30 11 1 19 18
M  V30 12 1 20 12
M  V30 13 1 21 18
M  V30 14 1 22 11
M  V30 15 1 22 20
M  V30 16 1 23 22
M  V30 17 2 24 3
M  V30 18 1 24 10
M  V30 19 2 26 4
M  V30 20 1 26 5
M  V30 21 1 27 7
M  V30 22 1 27 16
M  V30 23 1 27 21
M  V30 24 1 29 18
M  V30 25 2 30 1
M  V30 26 1 30 9
M  V30 27 1 30 17
M  V30 28 1 31 6
M  V30 29 1 31 8
M  V30 30 1 31 25
M  V30 31 1 32 5 CFG=3
M  V30 32 1 32 12
M  V30 33 1 32 23
M  V30 34 1 32 28
M  V30 35 1 33 1
M  V30 36 1 34 2
M  V30 37 1 35 3
M  V30 38 1 36 5
M  V30 39 1 37 5
M  V30 40 1 38 6
M  V30 41 1 39 10
M  V30 42 1 40 12
M  V30 43 1 41 12
M  V30 44 1 42 14
M  V30 45 1 43 16
M  V30 46 1 44 17
M  V30 47 1 45 18
M  V30 48 1 46 19
M  V30 49 1 47 19
M  V30 50 1 48 19
M  V30 51 1 49 20
M  V30 52 1 50 20
M  V30 53 1 51 21
M  V30 54 1 52 21
M  V30 55 1 53 23
M  V30 56 1 54 23
M  V30 57 1 55 24
M  V30 58 1 56 25
M  V30 59 1 57 25
M  V30 60 1 58 25
M  V30 61 1 59 26
M  V30 62 1 27 60 CFG=3
M  V30 63 1 61 28
M  V30 64 1 62 28
M  V30 65 1 63 28
M  V30 66 1 64 29
M  V30 67 1 65 29
M  V30 68 1 66 29
M  V30 END BOND
M  V30 END CTAB
M  END
>  <i_epik_Tot_Q>  (1) 
-1

>  <i_epik_Tot_abs_Q>  (1) 
1

>  <i_i_glide_confnum>  (1) 
326

>  <i_i_glide_lignum>  (1) 
161

>  <i_i_glide_posenum>  (1) 
271

>  <i_i_glide_rotatable_bonds>  (1) 
9

>  <i_lp_mmshare_version>  (1) 
72125

>  <i_m_source_file_index>  (1) 
65

>  <i_f3d_flags>  (1) 
0

>  <num_sample>  (1) 
100

>  <b_lp_Chiralities_Consistent>  (1) 
1

>  <r_epik_Charging_Adjusted_Penalty>  (1) 
0.52418754829992387

>  <r_epik_Ionization_Penalty>  (1) 
0.2719134954630722

>  <r_epik_Ionization_Penalty_Charging>  (1) 
0.27149649770889844

>  <r_epik_Ionization_Penalty_Neutral>  (1) 
0.00041699775417375828

>  <r_epik_State_Penalty>  (1) 
0.25269105059102542

>  <r_glide_ring_energy>  (1) 
0

>  <r_i_docking_score>  (1) 
-7.1820029150621405

>  <r_i_glide_ecoul>  (1) 
-1.4176075909621781

>  <r_i_glide_eff_state_penalty>  (1) 
0.25269105059102542

>  <r_i_glide_einternal>  (1) 
7.4673587856692194

>  <r_i_glide_emodel>  (1) 
-60.273591784537807

>  <r_i_glide_emodel_strain>  (1) 
1.1275836220012536

>  <r_i_glide_energy>  (1) 
-46.962747220471307

>  <r_i_glide_erotb>  (1) 
0.62750977655133311

>  <r_i_glide_esite>  (1) 
-0.00018878968430162575

>  <r_i_glide_evdw>  (1) 
-45.54513962950913

>  <r_i_glide_gscore>  (1) 
-7.4346939656531656

>  <r_i_glide_gscore_strain>  (1) 
0

>  <r_i_glide_hbond>  (1) 
-0.24776755895119884

>  <r_i_glide_ligand_efficiency>  (1) 
-0.22443759109569189

>  <r_i_glide_ligand_efficiency_ln>  (1) 
-1.6082462266878546

>  <r_i_glide_ligand_efficiency_sa>  (1) 
-0.71254493641301997

>  <r_i_glide_lipo>  (1) 
-3.7700650326869121

>  <r_i_glide_metal>  (1) 
-0

>  <r_i_glide_rewards>  (1) 
-1.5542842407623039

>  <r_lp_Energy>  (1) 
24.016719999999999

>  <r_lp_tautomer_probability>  (1) 
1

>  <s_epik_Chemistry_Notes>  (1) 
This compound has a N-S or N-O group and may undergo hydrolysis at high or low pH.

>  <s_epik_cmdline>  (1) 
J2VwaWtfcHl0aG9uJywgJy1waHQnLCAnMS4wJywgJy1waCcsICc3LjQnLCAnLXRuJywgJzgnLCAnLW1hJywgJzUwMCcsICctaW1hZScsICc8aW5maWxlLm1hZT4nLCAnLW9tYWUnLCAnPG91dGZpbGUubWFlPic=

>  <s_epik_input>  (1) 
Tz1DMVtDSDJdQyg9TylbQ0hdPVtDSF1OMVtDQEBIXShbQ0gyXVtDSF0oW0NIM10pW0NIM10pW0NIXT1DPVtDSF1bQ0gyXVtDQF0yKFtDSDNdKVtDSDJdW0NIMl1OKFtDSDJdMiljM1tjSF1bY0hdW2NIXVtjSF1jM04oW09IXSlbQ0gzXQ==

>  <s_glide_docking_method>  (1) 
confgen

>  <s_i_glide_gridfile>  (1) 
gpcr_5ht2c_6bqh_protein_autoprepared_prepared

>  <s_lp_Force_Field>  (1) 
S-OPLS

>  <s_lp_Variant>  (1) 
DiffSBDD_64_num_sample_100-1

>  <s_m_source_file>  (1) 
generated__ligand_DiffSBDD_2026-05-06_prepared.sdf

>  <GenAI_Model>  (1) 
DiffSBDD

>  <Protein>  (1) 
GPCR_5HT2C

$$$$
DiffSBDD_65_num_sample_100
     RDKit          3D

  0  0  0  0  0  0  0  0  0  0999 V3000
M  V30 BEGIN CTAB
M  V30 COUNTS 35 36 0 0 1
M  V30 BEGIN ATOM
M  V30 1 C 38.857209 27.058266 56.313744 0 CFG=2
M  V30 2 C 38.376598 28.234337 57.145430 0
M  V30 3 C 38.815647 29.489473 56.981417 0
M  V30 4 N 39.867399 30.768119 52.521823 0
M  V30 5 C 38.090744 26.925328 54.983141 0 CFG=2
M  V30 6 C 39.264675 30.134542 54.567572 0 CFG=1
M  V30 7 F 38.709214 25.919326 56.995411 0
M  V30 8 O 40.268653 30.822066 53.879245 0
M  V30 9 F 38.768635 26.060135 54.232288 0
M  V30 10 C 39.354304 27.325476 51.048800 0
M  V30 11 C 39.189860 29.483465 52.400381 0 CFG=2
M  V30 12 C 37.835133 28.235520 54.187463 0 CFG=1
M  V30 13 N 39.068107 28.933179 53.762254 0
M  V30 14 C 40.324890 29.451380 50.108912 0
M  V30 15 C 39.843431 29.899545 55.957365 0
M  V30 16 C 40.034157 28.651110 51.403609 0
M  V30 17 O 37.067404 27.910350 53.053939 0
M  V30 18 F 37.468278 28.007476 58.097475 0
M  V30 19 H 39.927078 27.140212 56.122306 0
M  V30 20 H 38.420854 30.276041 57.609075 0
M  V30 21 H 39.208515 31.527389 52.420441 0
M  V30 22 H 37.129099 26.449740 55.186922 0
M  V30 23 H 38.367180 30.759683 54.600326 0
M  V30 24 H 38.332660 27.479237 50.701579 0
M  V30 25 H 39.329057 26.651813 51.903703 0
M  V30 26 H 39.896182 26.821388 50.253866 0
M  V30 27 H 38.213213 29.621460 51.955683 0
M  V30 28 H 37.200682 28.902124 54.773894 0
M  V30 29 H 39.467530 30.038901 49.793145 0
M  V30 30 H 40.605979 28.821515 49.267151 0
M  V30 31 H 41.144800 30.152558 50.266839 0
M  V30 32 H 40.267403 30.839840 56.303572 0
M  V30 33 H 40.667664 29.190311 55.908722 0
M  V30 34 H 40.999786 28.424285 51.853367 0
M  V30 35 H 37.263341 27.017788 52.800915 0
M  V30 END ATOM
M  V30 BEGIN BOND
M  V30 1 1 2 1
M  V30 2 2 3 2
M  V30 3 1 5 1
M  V30 4 1 7 1
M  V30 5 1 8 4
M  V30 6 1 8 6
M  V30 7 1 9 5
M  V30 8 1 11 4
M  V30 9 1 12 5
M  V30 10 1 13 6
M  V30 11 1 13 11
M  V30 12 1 13 12
M  V30 13 1 15 3
M  V30 14 1 15 6
M  V30 15 1 16 10
M  V30 16 1 16 11
M  V30 17 1 16 14
M  V30 18 1 17 12
M  V30 19 1 18 2
M  V30 20 1 1 19 CFG=3
M  V30 21 1 20 3
M  V30 22 1 21 4
M  V30 23 1 5 22 CFG=1
M  V30 24 1 6 23 CFG=1
M  V30 25 1 24 10
M  V30 26 1 25 10
M  V30 27 1 26 10
M  V30 28 1 11 27 CFG=3
M  V30 29 1 12 28 CFG=1
M  V30 30 1 29 14
M  V30 31 1 30 14
M  V30 32 1 31 14
M  V30 33 1 32 15
M  V30 34 1 33 15
M  V30 35 1 34 16
M  V30 36 1 35 17
M  V30 END BOND
M  V30 END CTAB
M  END
>  <i_epik_Tot_Q>  (1) 
0

>  <i_epik_Tot_abs_Q>  (1) 
0

>  <i_i_glide_confnum>  (1) 
1

>  <i_i_glide_lignum>  (1) 
163

>  <i_i_glide_posenum>  (1) 
180

>  <i_i_glide_rotatable_bonds>  (1) 
2

>  <i_lp_mmshare_version>  (1) 
72125

>  <i_m_source_file_index>  (1) 
66

>  <i_f3d_flags>  (1) 
0

>  <num_sample>  (1) 
100

>  <b_lp_Chiralities_Consistent>  (1) 
1

>  <r_epik_Charging_Adjusted_Penalty>  (1) 
0

>  <r_epik_Ionization_Penalty>  (1) 
3.2857673984672069e-05

>  <r_epik_Ionization_Penalty_Charging>  (1) 
0

>  <r_epik_Ionization_Penalty_Neutral>  (1) 
3.2857673984672069e-05

>  <r_epik_State_Penalty>  (1) 
-0

>  <r_glide_ring_energy>  (1) 
0

>  <r_i_docking_score>  (1) 
-7.1805239933524776

>  <r_i_glide_ecoul>  (1) 
-1.789569389454178

>  <r_i_glide_eff_state_penalty>  (1) 
-0

>  <r_i_glide_einternal>  (1) 
0.99669503225453848

>  <r_i_glide_emodel>  (1) 
-34.994347441796677

>  <r_i_glide_emodel_strain>  (1) 
0.10093228619864192

>  <r_i_glide_energy>  (1) 
-24.685160076553551

>  <r_i_glide_erotb>  (1) 
0

>  <r_i_glide_esite>  (1) 
0

>  <r_i_glide_evdw>  (1) 
-22.895590687099372

>  <r_i_glide_gscore>  (1) 
-7.1805239933524776

>  <r_i_glide_gscore_strain>  (1) 
0

>  <r_i_glide_hbond>  (1) 
-0.012873404132856273

>  <r_i_glide_ligand_efficiency>  (1) 
-0.39891799963069319

>  <r_i_glide_ligand_efficiency_ln>  (1) 
-1.8457166667371556

>  <r_i_glide_ligand_efficiency_sa>  (1) 
-1.0454609145271672

>  <r_i_glide_lipo>  (1) 
-1.6968735491620879

>  <r_i_glide_metal>  (1) 
-0

>  <r_i_glide_rewards>  (1) 
-4.0575620972844373

>  <r_lp_Energy>  (1) 
7.9581929999999996

>  <r_lp_tautomer_probability>  (1) 
1

>  <s_epik_Chemistry_Notes>  (1) 
This compound contains an acetal/aminal-like group ( X-CH(R)-Y where X, Y are N, S, or O) that may be acid/base labile, releasing an aldehyde. This compound has a N-S or N-O group and may undergo hydrolysis at high or low pH.

>  <s_epik_cmdline>  (1) 
J2VwaWtfcHl0aG9uJywgJy1waHQnLCAnMS4wJywgJy1waCcsICc3LjQnLCAnLXRuJywgJzgnLCAnLW1hJywgJzUwMCcsICctaW1hZScsICc8aW5maWxlLm1hZT4nLCAnLW9tYWUnLCAnPG91dGZpbGUubWFlPic=

>  <s_epik_input>  (1) 
W0NIMl0xL1tDSF09QyhGKVxbQ0BASF0oRilbQ0BIXShGKVtDQEhdKFtPSF0pTihbQ0BASF0xMilbQ0BASF0oW05IXU8yKVtDSF0oW0NIM10pW0NIM10=

>  <s_glide_docking_method>  (1) 
confgen

>  <s_i_glide_gridfile>  (1) 
gpcr_5ht2c_6bqh_protein_autoprepared_prepared

>  <s_lp_Force_Field>  (1) 
S-OPLS

>  <s_lp_Variant>  (1) 
DiffSBDD_65_num_sample_100-1

>  <s_m_source_file>  (1) 
generated__ligand_DiffSBDD_2026-05-06_prepared.sdf

>  <GenAI_Model>  (1) 
DiffSBDD

>  <Protein>  (1) 
GPCR_5HT2C

$$$$
DiffSBDD_59_num_sample_100
     RDKit          3D

  0  0  0  0  0  0  0  0  0  0999 V3000
M  V30 BEGIN CTAB
M  V30 COUNTS 54 55 0 0 1
M  V30 BEGIN ATOM
M  V30 1 O 39.467402 31.087852 49.853539 0
M  V30 2 N 37.564523 31.892895 58.503848 0 CFG=1 CHG=1
M  V30 3 C 38.377688 34.563483 60.485264 0
M  V30 4 C 38.440448 30.694322 58.679584 0
M  V30 5 C 40.346069 29.505187 51.506413 0
M  V30 6 C 39.893913 33.122659 62.373469 0
M  V30 7 C 38.911857 32.454434 61.614371 0
M  V30 8 C 38.142591 33.179623 60.652474 0
M  V30 9 C 38.448627 29.342710 54.147772 0
M  V30 10 C 37.827310 29.253053 56.652242 0
M  V30 11 Cl 38.664308 30.766714 61.866412 0
M  V30 12 C 38.935100 30.020101 57.380256 0
M  V30 13 O 38.305580 30.661369 53.853669 0
M  V30 14 N 38.811077 28.445205 53.181560 0
M  V30 15 N 38.914819 27.196735 53.692393 0
M  V30 16 C 40.476843 30.128159 50.101116 0
M  V30 17 C 38.265769 28.696571 55.323908 0
M  V30 18 C 37.059609 32.489320 59.782958 0 CFG=2
M  V30 19 C 38.138793 32.917805 57.594079 0
M  V30 20 C 39.063293 28.678954 51.752556 0 CFG=2
M  V30 21 C 39.363101 35.216948 61.249363 0
M  V30 22 C 38.573934 27.337765 54.983912 0
M  V30 23 C 39.037662 27.386746 50.918492 0
M  V30 24 C 35.988206 31.629048 60.487129 0
M  V30 25 C 40.119950 34.498154 62.189861 0
M  V30 26 H 38.739257 30.653866 49.416974 0
M  V30 27 H 37.801370 35.124309 59.764681 0
M  V30 28 H 37.914987 29.945032 59.271539 0
M  V30 29 H 39.317423 30.981471 59.255017 0
M  V30 30 H 40.431742 30.305853 52.241229 0
M  V30 31 H 41.203914 28.854725 51.670665 0
M  V30 32 H 40.476991 32.574897 63.099969 0
M  V30 33 H 36.974334 29.917114 56.502682 0
M  V30 34 H 37.467357 28.454348 57.301083 0
M  V30 35 H 39.723223 29.311078 57.637659 0
M  V30 36 H 39.412868 30.737270 56.714185 0
M  V30 37 H 41.442993 30.628327 50.018175 0
M  V30 38 H 40.452563 29.368107 49.320133 0
M  V30 39 H 38.676040 30.812026 52.997947 0
M  V30 40 H 36.443598 33.325727 59.447489 0
M  V30 41 H 39.137397 33.216536 57.915893 0
M  V30 42 H 38.195164 32.546201 56.571667 0
M  V30 43 H 37.509285 33.807450 57.548878 0
M  V30 44 H 38.207033 29.246468 51.405760 0
M  V30 45 H 39.538441 36.274045 61.111982 0
M  V30 46 H 38.557056 26.463092 55.618037 0
M  V30 47 H 39.067749 27.601071 49.854629 0
M  V30 48 H 39.867375 26.729045 51.153866 0
M  V30 49 H 38.127595 26.821456 51.100267 0
M  V30 50 H 35.598860 32.131889 61.373147 0
M  V30 51 H 35.143983 31.470014 59.814229 0
M  V30 52 H 36.327031 30.639257 60.778331 0
M  V30 53 H 40.875480 35.003555 62.774661 0
M  V30 54 H 36.726079 31.596781 58.003475 0
M  V30 END ATOM
M  V30 BEGIN BOND
M  V30 1 1 4 2
M  V30 2 2 7 6
M  V30 3 2 8 3
M  V30 4 1 8 7
M  V30 5 1 11 7
M  V30 6 1 12 4
M  V30 7 1 12 10
M  V30 8 1 13 9
M  V30 9 1 14 9
M  V30 10 1 15 14
M  V30 11 1 16 1
M  V30 12 1 16 5
M  V30 13 2 17 9
M  V30 14 1 17 10
M  V30 15 1 18 2
M  V30 16 1 18 8
M  V30 17 1 19 2
M  V30 18 1 20 5
M  V30 19 1 20 14
M  V30 20 1 21 3
M  V30 21 2 22 15
M  V30 22 1 22 17
M  V30 23 1 23 20
M  V30 24 1 24 18
M  V30 25 1 25 6
M  V30 26 2 25 21
M  V30 27 1 26 1
M  V30 28 1 27 3
M  V30 29 1 28 4
M  V30 30 1 29 4
M  V30 31 1 30 5
M  V30 32 1 31 5
M  V30 33 1 32 6
M  V30 34 1 33 10
M  V30 35 1 34 10
M  V30 36 1 35 12
M  V30 37 1 36 12
M  V30 38 1 37 16
M  V30 39 1 38 16
M  V30 40 1 39 13
M  V30 41 1 18 40 CFG=3
M  V30 42 1 41 19
M  V30 43 1 42 19
M  V30 44 1 43 19
M  V30 45 1 20 44 CFG=3
M  V30 46 1 45 21
M  V30 47 1 46 22
M  V30 48 1 47 23
M  V30 49 1 48 23
M  V30 50 1 49 23
M  V30 51 1 50 24
M  V30 52 1 51 24
M  V30 53 1 52 24
M  V30 54 1 53 25
M  V30 55 1 2 54 CFG=3
M  V30 END BOND
M  V30 END CTAB
M  END
>  <i_epik_Tot_Q>  (1) 
1

>  <i_epik_Tot_abs_Q>  (1) 
1

>  <i_i_glide_confnum>  (1) 
134

>  <i_i_glide_lignum>  (1) 
148

>  <i_i_glide_posenum>  (1) 
235

>  <i_i_glide_rotatable_bonds>  (1) 
11

>  <i_lp_mmshare_version>  (1) 
72125

>  <i_m_source_file_index>  (1) 
60

>  <i_f3d_flags>  (1) 
0

>  <num_sample>  (1) 
100

>  <b_lp_Chiralities_Consistent>  (1) 
1

>  <r_epik_Charging_Adjusted_Penalty>  (1) 
0.34288875783321848

>  <r_epik_Ionization_Penalty>  (1) 
0.16299728195075516

>  <r_epik_Ionization_Penalty_Charging>  (1) 
0.10603582337888565

>  <r_epik_Ionization_Penalty_Neutral>  (1) 
0.05696145857186951

>  <r_epik_State_Penalty>  (1) 
0.23685293445433284

>  <r_glide_ring_energy>  (1) 
0

>  <r_i_docking_score>  (1) 
-7.18004319607721

>  <r_i_glide_ecoul>  (1) 
-6.4145515804707909

>  <r_i_glide_eff_state_penalty>  (1) 
0.23685293445433284

>  <r_i_glide_einternal>  (1) 
9.9637568243556522

>  <r_i_glide_emodel>  (1) 
-65.27613307320766

>  <r_i_glide_emodel_strain>  (1) 
0.57334128702267861

>  <r_i_glide_energy>  (1) 
-45.858278471016277

>  <r_i_glide_erotb>  (1) 
1.1440711446639862

>  <r_i_glide_esite>  (1) 
-0.091383480761546898

>  <r_i_glide_evdw>  (1) 
-39.443726890545484

>  <r_i_glide_gscore>  (1) 
-7.4168961305315424

>  <r_i_glide_gscore_strain>  (1) 
0

>  <r_i_glide_hbond>  (1) 
-0.52000000000000002

>  <r_i_glide_ligand_efficiency>  (1) 
-0.28720172784308839

>  <r_i_glide_ligand_efficiency_ln>  (1) 
-1.7018854060018505

>  <r_i_glide_ligand_efficiency_sa>  (1) 
-0.83978294665857456

>  <r_i_glide_lipo>  (1) 
-3.1228487533527138

>  <r_i_glide_metal>  (1) 
-0

>  <r_i_glide_rewards>  (1) 
-1.8923659594833739

>  <r_lp_Energy>  (1) 
25.902715000000001

>  <r_lp_tautomer_probability>  (1) 
0.67048000943507491

>  <s_epik_cmdline>  (1) 
J2VwaWtfcHl0aG9uJywgJy1waHQnLCAnMS4wJywgJy1waCcsICc3LjQnLCAnLXRuJywgJzgnLCAnLW1hJywgJzUwMCcsICctaW1hZScsICc8aW5maWxlLm1hZT4nLCAnLW9tYWUnLCAnPG91dGZpbGUubWFlPic=

>  <s_epik_input>  (1) 
W09IXVtDSDJdW0NIMl1bQ0BASF0oW0NIM10pTihDMT1PKU49W0NIXVtDQEBIXTFbQ0gyXVtDSDJdW0NIMl1OKFtDSDNdKVtDQEBIXShbQ0gzXSljMltjSF1bY0hdW2NIXVtjSF1jMkNs

>  <s_glide_docking_method>  (1) 
confgen

>  <s_i_glide_gridfile>  (1) 
gpcr_5ht2c_6bqh_protein_autoprepared_prepared

>  <s_lp_Force_Field>  (1) 
S-OPLS

>  <s_lp_Variant>  (1) 
DiffSBDD_59_num_sample_100-1

>  <s_m_source_file>  (1) 
generated__ligand_DiffSBDD_2026-05-06_prepared.sdf

>  <GenAI_Model>  (1) 
DiffSBDD

>  <Protein>  (1) 
GPCR_5HT2C

$$$$
DiffSBDD_29_num_sample_100
     RDKit          3D

  0  0  0  0  0  0  0  0  0  0999 V3000
M  V30 BEGIN CTAB
M  V30 COUNTS 86 90 0 0 1
M  V30 BEGIN ATOM
M  V30 1 F 38.683958 37.157971 62.433403 0
M  V30 2 C 35.670427 33.047772 59.846345 0
M  V30 3 C 40.121968 35.178184 60.828052 0
M  V30 4 C 38.920014 28.116673 57.246716 0 CFG=2
M  V30 5 C 39.167127 30.713841 53.540160 0
M  V30 6 C 40.210908 27.587120 57.923913 0
M  V30 7 C 39.887913 36.366659 64.230484 0
M  V30 8 N 37.126458 32.869387 59.785259 0
M  V30 9 C 37.658643 26.151992 55.893615 0 CFG=1
M  V30 10 C 39.983851 28.543265 51.512337 0
M  V30 11 C 38.659805 30.820504 60.204925 0
M  V30 12 C 39.467367 28.176938 52.904531 0 CFG=2
M  V30 13 C 39.575199 36.307663 62.972464 0
M  V30 14 C 37.511068 30.401546 59.326288 0 CFG=2
M  V30 15 C 36.043994 35.503243 59.602628 0
M  V30 16 C 37.661656 24.815044 58.161726 0
M  V30 17 C 38.603183 27.439501 55.827828 0 CFG=1
M  V30 18 C 37.744103 30.457845 57.791947 0 CFG=1
M  V30 19 C 41.126108 34.482777 63.044243 0
M  V30 20 N 37.467399 35.190780 59.559924 0 CHG=1
M  V30 21 N 40.201246 35.344669 62.268868 0
M  V30 22 F 39.362988 37.246725 65.096435 0
M  V30 23 S 37.687428 28.023029 53.066087 0
M  V30 24 C 37.837679 34.015785 60.380938 0 CFG=2
M  V30 25 C 35.260933 34.302849 59.076442 0
M  V30 26 C 39.569390 24.532443 56.507225 0
M  V30 27 O 37.867402 31.765009 57.267859 0
M  V30 28 C 38.202121 28.531056 54.756004 0 CFG=2
M  V30 29 C 39.001929 29.684254 57.317810 0
M  V30 30 C 39.679724 29.986211 51.086864 0
M  V30 31 C 39.867406 31.039855 52.201536 0
M  V30 32 C 39.383909 33.897033 60.377000 0
M  V30 33 O 37.468893 25.579216 54.620426 0
M  V30 34 C 39.370452 29.266507 54.009945 0 CFG=2
M  V30 35 C 37.353635 31.545028 60.338372 0 CFG=2
M  V30 36 C 38.103047 24.893351 56.699775 0
M  V30 37 O 37.898157 27.754375 58.133099 0
M  V30 38 S 41.067408 35.221434 64.805260 0
M  V30 39 H 35.163285 32.184491 59.411415 0
M  V30 40 H 35.344628 33.120442 60.886042 0
M  V30 41 H 41.140934 35.221417 60.448334 0
M  V30 42 H 39.648239 36.045572 60.388892 0
M  V30 43 H 39.522117 31.407843 54.301884 0
M  V30 44 H 38.103321 30.925194 53.453527 0
M  V30 45 H 41.054479 27.573334 57.233272 0
M  V30 46 H 40.512181 28.192542 58.780296 0
M  V30 47 H 40.094129 26.600378 58.359323 0
M  V30 48 H 36.667408 26.421415 56.234792 0
M  V30 49 H 41.066966 28.421725 51.492080 0
M  V30 50 H 39.600173 27.846393 50.765510 0
M  V30 51 H 38.951076 30.140471 61.002614 0
M  V30 52 H 39.467401 31.332110 59.707533 0
M  V30 53 H 39.878376 27.230334 53.257117 0
M  V30 54 H 36.981232 29.504413 59.634707 0
M  V30 55 H 35.829030 36.416137 59.047810 0
M  V30 56 H 35.867402 35.682029 60.653488 0
M  V30 57 H 38.268500 25.406952 58.840403 0
M  V30 58 H 36.617072 25.111620 58.253505 0
M  V30 59 H 37.739855 23.784879 58.507279 0
M  V30 60 H 39.560467 27.049750 55.485327 0
M  V30 61 H 36.865008 30.023829 57.312383 0
M  V30 62 H 40.778577 33.449540 63.061314 0
M  V30 63 H 42.137450 34.507783 62.653550 0
M  V30 64 H 37.718901 35.001799 58.598822 0
M  V30 65 H 37.501227 34.164299 61.408249 0
M  V30 66 H 35.470417 34.159588 58.018525 0
M  V30 67 H 34.186017 34.457843 59.163683 0
M  V30 68 H 40.268794 25.276207 56.846147 0
M  V30 69 H 39.803642 23.621445 57.053515 0
M  V30 70 H 39.784389 24.421431 55.445260 0
M  V30 71 H 36.961271 32.021443 57.053606 0
M  V30 72 H 37.455243 29.228689 55.134120 0
M  V30 73 H 39.817584 29.995812 57.964560 0
M  V30 74 H 39.341119 30.102843 56.380168 0
M  V30 75 H 40.302931 30.250710 50.231590 0
M  V30 76 H 38.667413 30.016660 50.696845 0
M  V30 77 H 40.927645 31.216443 52.372420 0
M  V30 78 H 39.476130 31.989573 51.838123 0
M  V30 79 H 39.706752 33.076324 61.013805 0
M  V30 80 H 39.707091 33.654761 59.362977 0
M  V30 81 H 36.729266 24.992248 54.654577 0
M  V30 82 H 40.266804 29.221491 54.632178 0
M  V30 83 H 36.833069 31.292513 61.260990 0
M  V30 84 H 37.557653 24.039847 56.288382 0
M  V30 85 H 37.883456 26.811375 58.201634 0
M  V30 86 H 37.976107 35.996406 59.892429 0
M  V30 END ATOM
M  V30 BEGIN BOND
M  V30 1 1 6 4
M  V30 2 1 8 2
M  V30 3 1 12 10
M  V30 4 1 13 1
M  V30 5 2 13 7
M  V30 6 1 14 11
M  V30 7 1 17 4
M  V30 8 1 17 9
M  V30 9 1 18 14
M  V30 10 1 20 15
M  V30 11 1 21 3
M  V30 12 1 21 13
M  V30 13 1 21 19
M  V30 14 1 22 7
M  V30 15 1 23 12
M  V30 16 1 24 8
M  V30 17 1 24 20
M  V30 18 1 25 2
M  V30 19 1 25 15
M  V30 20 1 27 18
M  V30 21 1 28 17
M  V30 22 1 28 23
M  V30 23 1 29 4
M  V30 24 1 29 18
M  V30 25 1 30 10
M  V30 26 1 31 5
M  V30 27 1 31 30
M  V30 28 1 32 3
M  V30 29 1 32 24
M  V30 30 1 33 9
M  V30 31 1 34 5
M  V30 32 1 34 12
M  V30 33 1 34 28
M  V30 34 1 35 8
M  V30 35 1 35 11
M  V30 36 1 35 14
M  V30 37 1 36 9
M  V30 38 1 36 16
M  V30 39 1 36 26
M  V30 40 1 4 37 CFG=1
M  V30 41 1 38 7
M  V30 42 1 38 19
M  V30 43 1 39 2
M  V30 44 1 40 2
M  V30 45 1 41 3
M  V30 46 1 42 3
M  V30 47 1 43 5
M  V30 48 1 44 5
M  V30 49 1 45 6
M  V30 50 1 46 6
M  V30 51 1 47 6
M  V30 52 1 9 48 CFG=1
M  V30 53 1 49 10
M  V30 54 1 50 10
M  V30 55 1 51 11
M  V30 56 1 52 11
M  V30 57 1 12 53 CFG=1
M  V30 58 1 14 54 CFG=1
M  V30 59 1 55 15
M  V30 60 1 56 15
M  V30 61 1 57 16
M  V30 62 1 58 16
M  V30 63 1 59 16
M  V30 64 1 17 60 CFG=3
M  V30 65 1 18 61 CFG=3
M  V30 66 1 62 19
M  V30 67 1 63 19
M  V30 68 1 64 20
M  V30 69 1 24 65 CFG=1
M  V30 70 1 66 25
M  V30 71 1 67 25
M  V30 72 1 68 26
M  V30 73 1 69 26
M  V30 74 1 70 26
M  V30 75 1 71 27
M  V30 76 1 28 72 CFG=1
M  V30 77 1 73 29
M  V30 78 1 74 29
M  V30 79 1 75 30
M  V30 80 1 76 30
M  V30 81 1 77 31
M  V30 82 1 78 31
M  V30 83 1 79 32
M  V30 84 1 80 32
M  V30 85 1 81 33
M  V30 86 1 34 82 CFG=1
M  V30 87 1 35 83 CFG=1
M  V30 88 1 84 36
M  V30 89 1 85 37
M  V30 90 1 86 20
M  V30 END BOND
M  V30 END CTAB
M  END
>  <i_epik_Tot_Q>  (1) 
1

>  <i_epik_Tot_abs_Q>  (1) 
1

>  <i_i_glide_confnum>  (1) 
52

>  <i_i_glide_lignum>  (1) 
71

>  <i_i_glide_posenum>  (1) 
183

>  <i_i_glide_rotatable_bonds>  (1) 
14

>  <i_lp_mmshare_version>  (1) 
72125

>  <i_m_source_file_index>  (1) 
30

>  <i_f3d_flags>  (1) 
0

>  <num_sample>  (1) 
100

>  <b_lp_Chiralities_Consistent>  (1) 
1

>  <r_epik_Charging_Adjusted_Penalty>  (1) 
0.43533657855592212

>  <r_epik_Ionization_Penalty>  (1) 
0.17417288321429925

>  <r_epik_Ionization_Penalty_Charging>  (1) 
0.17415579174197784

>  <r_epik_Ionization_Penalty_Neutral>  (1) 
1.7091472321405907e-05

>  <r_epik_State_Penalty>  (1) 
0.2611807868139443

>  <r_glide_ring_energy>  (1) 
0.53215094814157604

>  <r_i_docking_score>  (1) 
-7.1734871532533591

>  <r_i_glide_ecoul>  (1) 
-3.7468735155243929

>  <r_i_glide_eff_state_penalty>  (1) 
0.2611807868139443

>  <r_i_glide_einternal>  (1) 
23.929216000552881

>  <r_i_glide_emodel>  (1) 
-32.511458383650599

>  <r_i_glide_emodel_strain>  (1) 
9.0455140795988314

>  <r_i_glide_energy>  (1) 
-47.5163381575207

>  <r_i_glide_erotb>  (1) 
0.46833353265868582

>  <r_i_glide_esite>  (1) 
0

>  <r_i_glide_evdw>  (1) 
-43.769464641996308

>  <r_i_glide_gscore>  (1) 
-7.4346679400673032

>  <r_i_glide_gscore_strain>  (1) 
1.2613785198997078

>  <r_i_glide_hbond>  (1) 
-0.16

>  <r_i_glide_ligand_efficiency>  (1) 
-0.18877597771719365

>  <r_i_glide_ligand_efficiency_ln>  (1) 
-1.5468148528536643

>  <r_i_glide_ligand_efficiency_sa>  (1) 
-0.63466019447963429

>  <r_i_glide_lipo>  (1) 
-4.5855929893541942

>  <r_i_glide_metal>  (1) 
-0

>  <r_i_glide_rewards>  (1) 
-1.6682827438430285

>  <r_lp_Energy>  (1) 
40.958697000000001

>  <s_epik_Chemistry_Notes>  (1) 
This compound has an imine and may undergo hydrolysis. This compound contains an acetal/aminal-like group ( X-CH(R)-Y where X, Y are N, S, or O) that may be acid/base labile, releasing an aldehyde.

>  <s_epik_cmdline>  (1) 
J2VwaWtfcHl0aG9uJywgJy1waHQnLCAnMS4wJywgJy1waCcsICc3LjQnLCAnLXRuJywgJzgnLCAnLW1hJywgJzUwMCcsICctaW1hZScsICc8aW5maWxlLm1hZT4nLCAnLW9tYWUnLCAnPG91dGZpbGUubWFlPic=

>  <s_epik_input>  (1) 
RkMxPUMoRilOKFtDSDJdUzEpW0NIMl1bQ0gyXVtDQEhdMltOSF1bQ0gyXVtDSDJdW0NIMl1OMltDQEBIXTNbQ0gyXVtDQEBIXTNbQ0BASF0oW09IXSlbQ0gyXVtDQEBdKFtDSDNdKShbT0hdKVtDQEBIXShbQ0BASF0oW09IXSlbQ0hdKFtDSDNdKVtDSDNdKVtDQEhdKFM0KVtDQEBIXShbQ0BASF00NSlbQ0gyXVtDSDJdW0NIMl1bQ0gyXTU=

>  <s_glide_docking_method>  (1) 
confgen

>  <s_i_glide_gridfile>  (1) 
gpcr_5ht2c_6bqh_protein_autoprepared_prepared

>  <s_lp_Force_Field>  (1) 
S-OPLS

>  <s_lp_Variant>  (1) 
DiffSBDD_29_num_sample_100-1

>  <s_m_source_file>  (1) 
generated__ligand_DiffSBDD_2026-05-06_prepared.sdf

>  <GenAI_Model>  (1) 
DiffSBDD

>  <Protein>  (1) 
GPCR_5HT2C

$$$$
DiffSBDD_85_num_sample_100
     RDKit          3D

  0  0  0  0  0  0  0  0  0  0999 V3000
M  V30 BEGIN CTAB
M  V30 COUNTS 83 87 0 0 1
M  V30 BEGIN ATOM
M  V30 1 C 36.586480 33.709380 58.857173 0
M  V30 2 N 38.346628 28.337026 53.360472 0 CHG=1
M  V30 3 C 39.676899 29.121114 49.853503 0
M  V30 4 Cl 35.067415 33.100474 61.453501 0
M  V30 5 C 37.960534 34.164679 61.001911 0 CFG=1
M  V30 6 C 37.492411 26.473446 57.282482 0
M  V30 7 C 39.368972 28.631111 52.340524 0
M  V30 8 C 40.203750 30.508155 50.151298 0
M  V30 9 O 39.966251 31.885573 63.164502 0
M  V30 10 S 39.109223 29.691073 58.031211 0
M  V30 11 C 40.925343 30.395629 51.453513 0
M  V30 12 O 41.383408 32.021792 61.453452 0 CHG=-1
M  V30 13 C 38.733759 28.590542 50.955108 0
M  V30 14 C 39.772827 29.608016 59.716127 0 CFG=1
M  V30 15 C 40.643501 27.534562 58.669755 0 CFG=1
M  V30 16 C 39.525298 27.502127 56.248921 0 CFG=1
M  V30 17 C 37.825346 34.376240 59.478528 0
M  V30 18 N 38.207693 26.920094 53.661915 0
M  V30 19 C 37.817790 32.656974 61.394008 0 CFG=2
M  V30 20 C 37.832988 25.123783 56.669953 0 CFG=1
M  V30 21 C 39.983509 30.017598 52.601908 0
M  V30 22 C 39.206074 34.881573 61.549746 0
M  V30 23 C 37.432959 26.742267 54.881330 0 CFG=2
M  V30 24 C 40.140008 26.096157 56.031907 0
M  V30 25 C 37.974812 27.421000 56.175508 0 CFG=1
M  V30 26 C 36.390386 32.260983 59.336887 0
M  V30 27 C 40.238446 31.907509 61.944572 0
M  V30 28 C 39.057904 31.774382 60.954682 0 CFG=1
M  V30 29 C 37.309319 25.244154 55.231593 0
M  V30 30 O 42.058812 27.621412 58.653510 0
M  V30 31 C 38.816442 30.248103 60.748893 0
M  V30 32 C 40.045089 28.139137 59.960037 0 CFG=1
M  V30 33 C 36.453014 32.155939 60.849479 0 CFG=2
M  V30 34 C 39.358530 24.937669 56.703302 0
M  V30 35 C 40.132624 28.312644 57.436040 0 CFG=1
M  V30 36 O 40.935331 28.021452 61.044809 0
M  V30 37 H 35.700360 34.299209 59.090669 0
M  V30 38 H 36.667631 33.724230 57.770584 0
M  V30 39 H 37.440353 28.676005 53.071781 0
M  V30 40 H 40.491640 28.420730 49.733954 0
M  V30 41 H 39.236694 29.221430 48.881804 0
M  V30 42 H 37.129719 34.698841 61.460089 0
M  V30 43 H 36.421867 26.541968 57.453508 0
M  V30 44 H 37.975511 26.641367 58.244280 0
M  V30 45 H 40.152613 27.872865 52.362571 0
M  V30 46 H 40.914533 30.835035 49.396612 0
M  V30 47 H 39.405253 31.249719 50.191765 0
M  V30 48 H 41.679945 29.621013 51.321173 0
M  V30 49 H 41.428492 31.322595 51.666086 0
M  V30 50 H 38.387181 27.584808 50.713166 0
M  V30 51 H 37.867407 29.221441 51.053507 0
M  V30 52 H 40.755073 30.066846 59.748803 0
M  V30 53 H 40.385664 26.484758 58.653453 0
M  V30 54 H 39.853638 28.092283 55.396921 0
M  V30 55 H 37.764862 35.445345 59.288419 0
M  V30 56 H 38.718513 34.016373 58.970574 0
M  V30 57 H 37.668965 26.615249 52.860292 0
M  V30 58 H 37.726941 32.606562 62.478107 0
M  V30 59 H 37.348962 24.304501 57.202844 0
M  V30 60 H 39.211615 30.779789 52.705545 0
M  V30 61 H 40.529235 30.021920 53.544897 0
M  V30 62 H 40.114256 34.563400 61.037064 0
M  V30 63 H 39.122084 35.960380 61.413681 0
M  V30 64 H 39.334478 34.695433 62.616827 0
M  V30 65 H 36.459434 27.171206 54.653454 0
M  V30 66 H 40.193683 25.885927 54.964651 0
M  V30 67 H 41.172025 26.102071 56.344319 0
M  V30 68 H 37.528197 28.408845 56.279133 0
M  V30 69 H 35.408940 31.886399 59.053503 0
M  V30 70 H 37.124785 31.615051 58.861057 0
M  V30 71 H 39.401514 32.159010 59.995106 0
M  V30 72 H 37.857875 24.592367 54.551123 0
M  V30 73 H 36.267437 24.929844 55.194230 0
M  V30 74 H 42.398250 27.023983 58.001842 0
M  V30 75 H 37.812475 30.009012 60.418414 0
M  V30 76 H 38.913965 29.737444 61.709366 0
M  V30 77 H 39.106076 27.640236 60.200883 0
M  V30 78 H 36.243504 31.138697 61.170694 0
M  V30 79 H 39.590092 24.021435 56.187531 0
M  V30 80 H 39.684405 24.767622 57.726932 0
M  V30 81 H 40.998078 28.821420 57.010193 0
M  V30 82 H 41.812087 28.021445 60.675970 0
M  V30 83 H 38.608658 28.774096 54.233400 0
M  V30 END ATOM
M  V30 BEGIN BOND
M  V30 1 1 7 2
M  V30 2 1 8 3
M  V30 3 1 11 8
M  V30 4 1 13 3
M  V30 5 1 13 7
M  V30 6 1 14 10
M  V30 7 1 17 1
M  V30 8 1 17 5
M  V30 9 1 18 2
M  V30 10 1 19 5
M  V30 11 1 20 6
M  V30 12 1 21 7
M  V30 13 1 21 11
M  V30 14 1 22 5
M  V30 15 1 23 18
M  V30 16 1 24 16
M  V30 17 1 25 6
M  V30 18 1 25 16
M  V30 19 1 25 23
M  V30 20 1 26 1
M  V30 21 2 27 9
M  V30 22 1 27 12
M  V30 23 1 28 19
M  V30 24 1 28 27
M  V30 25 1 29 20
M  V30 26 1 29 23
M  V30 27 1 30 15
M  V30 28 1 31 14
M  V30 29 1 31 28
M  V30 30 1 32 14
M  V30 31 1 32 15
M  V30 32 1 33 4
M  V30 33 1 33 19
M  V30 34 1 33 26
M  V30 35 1 34 20
M  V30 36 1 34 24
M  V30 37 1 35 10
M  V30 38 1 35 15
M  V30 39 1 35 16
M  V30 40 1 36 32
M  V30 41 1 37 1
M  V30 42 1 38 1
M  V30 43 1 39 2
M  V30 44 1 40 3
M  V30 45 1 41 3
M  V30 46 1 5 42 CFG=1
M  V30 47 1 43 6
M  V30 48 1 44 6
M  V30 49 1 45 7
M  V30 50 1 46 8
M  V30 51 1 47 8
M  V30 52 1 48 11
M  V30 53 1 49 11
M  V30 54 1 50 13
M  V30 55 1 51 13
M  V30 56 1 14 52 CFG=3
M  V30 57 1 15 53 CFG=3
M  V30 58 1 16 54 CFG=3
M  V30 59 1 55 17
M  V30 60 1 56 17
M  V30 61 1 57 18
M  V30 62 1 19 58 CFG=1
M  V30 63 1 20 59 CFG=1
M  V30 64 1 60 21
M  V30 65 1 61 21
M  V30 66 1 62 22
M  V30 67 1 63 22
M  V30 68 1 64 22
M  V30 69 1 23 65 CFG=3
M  V30 70 1 66 24
M  V30 71 1 67 24
M  V30 72 1 25 68 CFG=1
M  V30 73 1 69 26
M  V30 74 1 70 26
M  V30 75 1 28 71 CFG=3
M  V30 76 1 72 29
M  V30 77 1 73 29
M  V30 78 1 74 30
M  V30 79 1 75 31
M  V30 80 1 76 31
M  V30 81 1 32 77 CFG=1
M  V30 82 1 33 78 CFG=3
M  V30 83 1 79 34
M  V30 84 1 80 34
M  V30 85 1 35 81 CFG=3
M  V30 86 1 82 36
M  V30 87 1 83 2
M  V30 END BOND
M  V30 END CTAB
M  END
>  <i_epik_Tot_Q>  (1) 
0

>  <i_epik_Tot_abs_Q>  (1) 
2

>  <i_i_glide_confnum>  (1) 
1575

>  <i_i_glide_lignum>  (1) 
222

>  <i_i_glide_posenum>  (1) 
85

>  <i_i_glide_rotatable_bonds>  (1) 
10

>  <i_lp_mmshare_version>  (1) 
72125

>  <i_m_source_file_index>  (1) 
86

>  <i_f3d_flags>  (1) 
0

>  <num_sample>  (1) 
100

>  <b_lp_Chiralities_Consistent>  (1) 
1

>  <r_epik_Charging_Adjusted_Penalty>  (1) 
0.73371446279801333

>  <r_epik_Ionization_Penalty>  (1) 
0.028997413797582132

>  <r_epik_Ionization_Penalty_Charging>  (1) 
0.028997299906531444

>  <r_epik_Ionization_Penalty_Neutral>  (1) 
1.138910506862436e-07

>  <r_epik_State_Penalty>  (1) 
0.7047171628914819

>  <r_glide_ring_energy>  (1) 
2.2711301210520229

>  <r_i_docking_score>  (1) 
-7.1700652606576298

>  <r_i_glide_ecoul>  (1) 
-1.542157764223008

>  <r_i_glide_eff_state_penalty>  (1) 
0.7047171628914819

>  <r_i_glide_einternal>  (1) 
16.159049054300329

>  <r_i_glide_emodel>  (1) 
-26.493135580696524

>  <r_i_glide_emodel_strain>  (1) 
4.1393041969924838

>  <r_i_glide_energy>  (1) 
-30.264900675510496

>  <r_i_glide_erotb>  (1) 
0.49083612240102314

>  <r_i_glide_esite>  (1) 
0

>  <r_i_glide_evdw>  (1) 
-28.722742911287487

>  <r_i_glide_gscore>  (1) 
-7.874782423549112

>  <r_i_glide_gscore_strain>  (1) 
0.034826049248120938

>  <r_i_glide_hbond>  (1) 
-0.2171112838390615

>  <r_i_glide_ligand_efficiency>  (1) 
-0.19916847946271193

>  <r_i_glide_ligand_efficiency_ln>  (1) 
-1.5643145270984218

>  <r_i_glide_ligand_efficiency_sa>  (1) 
-0.65763982945883848

>  <r_i_glide_lipo>  (1) 
-5.4809016204075638

>  <r_i_glide_metal>  (1) 
-0

>  <r_i_glide_rewards>  (1) 
-1.0349708807538049

>  <r_lp_Energy>  (1) 
61.998908

>  <s_epik_cmdline>  (1) 
J2VwaWtfcHl0aG9uJywgJy1waHQnLCAnMS4wJywgJy1waCcsICc3LjQnLCAnLXRuJywgJzgnLCAnLW1hJywgJzUwMCcsICctaW1hZScsICc8aW5maWxlLm1hZT4nLCAnLW9tYWUnLCAnPG91dGZpbGUubWFlPic=

>  <s_epik_input>  (1) 
W0NIM11bQ0BIXTFbQ0gyXVtDSDJdW0NIMl1bQ0BIXShDbClbQ0BIXTFbQ0BASF0oQyg9TylbT0hdKVtDSDJdW0NAQEhdMlNbQ0BASF0oW0NAQEhdKFtPSF0pW0NASF0yW09IXSlbQ0BASF0oW0NIMl1bQ0gyXTMpW0NASF0oW0NIMl1bQ0BIXTM0KVtDQEhdKFtDSDJdNClbTkhdW05IXVtDSF01W0NIMl1bQ0gyXVtDSDJdW0NIMl1bQ0gyXTU=

>  <s_glide_docking_method>  (1) 
confgen

>  <s_i_glide_gridfile>  (1) 
gpcr_5ht2c_6bqh_protein_autoprepared_prepared

>  <s_lp_Force_Field>  (1) 
S-OPLS

>  <s_lp_Variant>  (1) 
DiffSBDD_85_num_sample_100-3

>  <s_m_source_file>  (1) 
generated__ligand_DiffSBDD_2026-05-06_prepared.sdf

>  <GenAI_Model>  (1) 
DiffSBDD

>  <Protein>  (1) 
GPCR_5HT2C

$$$$
DiffSBDD_5_num_sample_100
     RDKit          3D

  0  0  0  0  0  0  0  0  0  0999 V3000
M  V30 BEGIN CTAB
M  V30 COUNTS 50 52 0 0 1
M  V30 BEGIN ATOM
M  V30 1 C 37.945439 32.359103 60.950247 0
M  V30 2 O 35.745769 30.948445 59.420675 0
M  V30 3 C 37.127346 30.255189 55.071516 0
M  V30 4 C 38.992652 28.248792 51.051798 0
M  V30 5 C 37.849215 28.961634 54.635652 0 CFG=1
M  V30 6 C 40.439886 29.663715 49.528446 0
M  V30 7 C 39.465056 30.112529 53.010080 0
M  V30 8 C 36.812448 33.384764 60.778327 0
M  V30 9 C 38.150681 29.249259 57.996931 0
M  V30 10 C 38.961951 26.962791 55.661659 0
M  V30 11 N 40.095948 30.266514 51.832184 0
M  V30 12 N 37.903020 30.312580 58.657821 0
M  V30 13 S 38.229806 31.581319 55.638921 0
M  V30 14 C 37.506264 30.877746 61.010248 0
M  V30 15 C 38.572486 29.053822 53.287878 0
M  V30 16 C 38.350238 28.089932 52.289827 0
M  V30 17 C 39.202206 29.183385 56.877904 0 CFG=1
M  V30 18 C 40.478353 27.033783 57.537684 0
M  V30 19 C 36.929660 30.261082 59.721447 0 CFG=1
M  V30 20 C 39.787898 26.320883 56.646967 0
M  V30 21 C 38.686395 28.282720 55.714563 0
M  V30 22 C 39.562676 30.608999 56.382927 0
M  V30 23 C 39.828116 29.369278 50.866738 0
M  V30 24 C 40.468431 28.550013 57.560273 0
M  V30 25 H 38.448980 32.589127 61.888953 0
M  V30 26 H 38.688690 32.503518 60.167626 0
M  V30 27 H 35.766516 31.221562 58.496127 0
M  V30 28 H 36.493122 30.641639 54.276138 0
M  V30 29 H 36.455363 30.024065 55.895870 0
M  V30 30 H 38.822219 27.549924 50.248335 0
M  V30 31 H 37.034855 28.257322 54.450933 0
M  V30 32 H 40.407266 28.819884 48.858034 0
M  V30 33 H 41.462471 30.040307 49.608257 0
M  V30 34 H 39.824646 30.454153 49.092810 0
M  V30 35 H 39.674992 30.867345 53.733796 0
M  V30 36 H 37.171668 34.390599 60.997656 0
M  V30 37 H 35.972034 33.172322 61.441406 0
M  V30 38 H 36.434982 33.405269 59.753804 0
M  V30 39 H 37.632012 28.308484 58.198777 0
M  V30 40 H 38.563622 26.374455 54.848132 0
M  V30 41 H 38.358587 30.272702 61.325344 0
M  V30 42 H 36.764612 30.781714 61.796538 0
M  V30 43 H 37.676735 27.258520 52.459233 0
M  V30 44 H 41.105646 26.535515 58.259062 0
M  V30 45 H 36.622802 29.236104 59.910450 0
M  V30 46 H 39.863293 25.242505 56.654889 0
M  V30 47 H 39.863915 31.231283 57.216174 0
M  V30 48 H 40.385788 30.561703 55.673066 0
M  V30 49 H 41.365169 28.812231 57.006392 0
M  V30 50 H 40.628788 28.920699 58.574193 0
M  V30 END ATOM
M  V30 BEGIN BOND
M  V30 1 1 5 3
M  V30 2 1 8 1
M  V30 3 1 11 7
M  V30 4 2 12 9
M  V30 5 1 13 3
M  V30 6 1 14 1
M  V30 7 1 15 5
M  V30 8 2 15 7
M  V30 9 2 16 4
M  V30 10 1 16 15
M  V30 11 1 17 9 CFG=1
M  V30 12 1 19 2
M  V30 13 1 19 12
M  V30 14 1 19 14
M  V30 15 1 20 10
M  V30 16 2 20 18
M  V30 17 1 21 5
M  V30 18 2 21 10
M  V30 19 1 21 17
M  V30 20 1 22 13
M  V30 21 1 22 17
M  V30 22 1 23 4
M  V30 23 1 23 6
M  V30 24 2 23 11
M  V30 25 1 24 17
M  V30 26 1 24 18
M  V30 27 1 25 1
M  V30 28 1 26 1
M  V30 29 1 27 2
M  V30 30 1 28 3
M  V30 31 1 29 3
M  V30 32 1 30 4
M  V30 33 1 5 31 CFG=3
M  V30 34 1 32 6
M  V30 35 1 33 6
M  V30 36 1 34 6
M  V30 37 1 35 7
M  V30 38 1 36 8
M  V30 39 1 37 8
M  V30 40 1 38 8
M  V30 41 1 39 9
M  V30 42 1 40 10
M  V30 43 1 41 14
M  V30 44 1 42 14
M  V30 45 1 43 16
M  V30 46 1 44 18
M  V30 47 1 19 45 CFG=1
M  V30 48 1 46 20
M  V30 49 1 47 22
M  V30 50 1 48 22
M  V30 51 1 49 24
M  V30 52 1 50 24
M  V30 END BOND
M  V30 END CTAB
M  END
>  <i_epik_Tot_Q>  (1) 
0

>  <i_epik_Tot_abs_Q>  (1) 
0

>  <i_i_glide_confnum>  (1) 
16

>  <i_i_glide_lignum>  (1) 
23

>  <i_i_glide_posenum>  (1) 
71

>  <i_i_glide_rotatable_bonds>  (1) 
6

>  <i_lp_mmshare_version>  (1) 
72125

>  <i_m_source_file_index>  (1) 
6

>  <i_f3d_flags>  (1) 
0

>  <num_sample>  (1) 
100

>  <b_lp_Chiralities_Consistent>  (1) 
1

>  <r_epik_Charging_Adjusted_Penalty>  (1) 
0.0081103479682914613

>  <r_epik_Ionization_Penalty>  (1) 
0.0085425111303935736

>  <r_epik_Ionization_Penalty_Charging>  (1) 
0

>  <r_epik_Ionization_Penalty_Neutral>  (1) 
0.0085425111303935736

>  <r_epik_State_Penalty>  (1) 
0.0081103479682914613

>  <r_glide_ring_energy>  (1) 
0

>  <r_i_docking_score>  (1) 
-7.1680008855942736

>  <r_i_glide_ecoul>  (1) 
-3.3909689803931156

>  <r_i_glide_eff_state_penalty>  (1) 
0.0081103479682914613

>  <r_i_glide_einternal>  (1) 
6.6976241347653023

>  <r_i_glide_emodel>  (1) 
-50.80254089326943

>  <r_i_glide_emodel_strain>  (1) 
1.005128081088472

>  <r_i_glide_energy>  (1) 
-40.561226605541201

>  <r_i_glide_erotb>  (1) 
0.64660109196089122

>  <r_i_glide_esite>  (1) 
-0.058716215258292119

>  <r_i_glide_evdw>  (1) 
-37.170257625148082

>  <r_i_glide_gscore>  (1) 
-7.1761112335625654

>  <r_i_glide_gscore_strain>  (1) 
0

>  <r_i_glide_hbond>  (1) 
-0.16

>  <r_i_glide_ligand_efficiency>  (1) 
-0.29866670356642805

>  <r_i_glide_ligand_efficiency_ln>  (1) 
-1.7156315300507576

>  <r_i_glide_ligand_efficiency_sa>  (1) 
-0.86150384976762195

>  <r_i_glide_lipo>  (1) 
-3.2630221092215193

>  <r_i_glide_metal>  (1) 
-0

>  <r_i_glide_rewards>  (1) 
-1.9738157727272734

>  <r_lp_Energy>  (1) 
35.538015999999999

>  <s_epik_Chemistry_Notes>  (1) 
This compound has an imine and may undergo hydrolysis. This compound contains an acetal/aminal-like group ( X-CH(R)-Y where X, Y are N, S, or O) that may be acid/base labile, releasing an aldehyde.

>  <s_epik_cmdline>  (1) 
J2VwaWtfcHl0aG9uJywgJy1waHQnLCAnMS4wJywgJy1waCcsICc3LjQnLCAnLXRuJywgJzgnLCAnLW1hJywgJzUwMCcsICctaW1hZScsICc8aW5maWxlLm1hZT4nLCAnLW9tYWUnLCAnPG91dGZpbGUubWFlPic=

>  <s_epik_input>  (1) 
W0NIM11bQ0gyXVtDSDJdW0NAQEhdKFtPSF0pXE49W0NIXVxbQ0BAXTEyQyg9W0NIXVtDSF09W0NIXVtDSDJdMilbQ0BASF0oW0NIMl1TW0NIMl0xKWMzW2NIXW5jKFtDSDNdKVtjSF1bY0hdMw==

>  <s_glide_docking_method>  (1) 
confgen

>  <s_i_glide_gridfile>  (1) 
gpcr_5ht2c_6bqh_protein_autoprepared_prepared

>  <s_lp_Force_Field>  (1) 
S-OPLS

>  <s_lp_Variant>  (1) 
DiffSBDD_5_num_sample_100-1

>  <s_m_source_file>  (1) 
generated__ligand_DiffSBDD_2026-05-06_prepared.sdf

>  <GenAI_Model>  (1) 
DiffSBDD

>  <Protein>  (1) 
GPCR_5HT2C

$$$$
DiffSBDD_19_num_sample_100
     RDKit          3D

  0  0  0  0  0  0  0  0  0  0999 V3000
M  V30 BEGIN CTAB
M  V30 COUNTS 71 72 0 0 1
M  V30 BEGIN ATOM
M  V30 1 C 38.541210 30.390846 57.255963 0
M  V30 2 C 39.318668 29.186512 61.629458 0
M  V30 3 C 39.604705 29.814392 54.976910 0
M  V30 4 C 39.003749 27.065106 53.828926 0
M  V30 5 O 38.713658 31.031842 60.235168 0
M  V30 6 C 37.188318 25.514885 57.500175 0
M  V30 7 C 38.688112 28.334695 53.018576 0 CFG=2
M  V30 8 C 41.237586 31.672395 65.113835 0
M  V30 9 C 40.448765 30.944152 64.084454 0
M  V30 10 C 40.045687 30.421632 52.582658 0
M  V30 11 C 41.722858 32.911649 65.027992 0
M  V30 12 C 38.839499 27.991714 51.500501 0
M  V30 13 C 39.467402 29.080709 50.653506 0
M  V30 14 O 37.867402 32.299001 54.253501 0
M  V30 15 O 39.067393 32.794628 56.054107 0 CHG=-1
M  V30 16 O 41.347074 30.936274 66.228573 0
M  V30 17 C 40.009373 30.186009 51.164691 0
M  V30 18 N 38.895045 29.032259 57.747665 0 CFG=2 CHG=1
M  V30 19 C 38.761693 29.618383 60.253583 0 CFG=1
M  V30 20 C 41.645944 33.784166 63.858085 0
M  V30 21 C 40.773354 29.614847 61.927308 0 CFG=1
M  V30 22 C 41.456666 33.421324 62.555819 0
M  V30 23 C 37.804887 28.032914 57.593279 0
M  V30 24 C 38.438666 30.512843 55.711437 0 CFG=2
M  V30 25 C 38.453677 31.999246 55.306939 0
M  V30 26 C 39.588369 29.052325 59.067942 0
M  V30 27 C 39.467409 29.589886 53.467865 0
M  V30 28 C 41.290477 32.065854 61.999720 0
M  V30 29 C 37.066975 25.199219 56.007113 0
M  V30 30 C 40.887846 30.957125 62.653450 0
M  V30 31 C 38.248805 26.574979 57.854912 0
M  V30 32 O 41.426581 28.597728 62.656182 0
M  V30 33 H 37.610345 30.729217 57.715188 0
M  V30 34 H 39.324637 31.054040 57.619487 0
M  V30 35 H 39.241817 28.099134 61.684248 0
M  V30 36 H 38.667404 29.565330 62.416233 0
M  V30 37 H 40.495744 30.430169 55.115792 0
M  V30 38 H 39.895962 28.879944 55.444160 0
M  V30 39 H 38.747783 27.169037 54.878874 0
M  V30 40 H 38.423463 26.221774 53.453635 0
M  V30 41 H 40.057142 26.795439 53.760828 0
M  V30 42 H 38.105139 31.325686 59.571635 0
M  V30 43 H 37.435597 24.589120 58.021247 0
M  V30 44 H 36.212539 25.820787 57.869725 0
M  V30 45 H 37.639917 28.581352 53.194278 0
M  V30 46 H 40.264336 29.921877 64.415528 0
M  V30 47 H 39.467404 31.400703 64.071357 0
M  V30 48 H 40.582368 31.281445 52.951055 0
M  V30 49 H 42.211647 33.310359 65.905343 0
M  V30 50 H 37.867401 27.736034 51.081649 0
M  V30 51 H 39.463665 27.107206 51.364616 0
M  V30 52 H 39.467385 28.928765 49.584056 0
M  V30 53 H 40.880969 30.126892 66.086266 0
M  V30 54 H 40.447193 30.915438 50.498525 0
M  V30 55 H 37.737472 29.256880 60.185429 0
M  V30 56 H 41.806969 34.837583 64.039330 0
M  V30 57 H 41.317779 29.679589 60.990357 0
M  V30 58 H 41.488091 34.225502 61.834929 0
M  V30 59 H 36.952697 28.304812 58.215923 0
M  V30 60 H 37.467407 28.094389 56.562712 0
M  V30 61 H 37.492217 30.079733 55.384837 0
M  V30 62 H 40.509315 29.621434 58.947909 0
M  V30 63 H 39.931178 28.046597 59.306424 0
M  V30 64 H 41.510552 31.952570 60.949301 0
M  V30 65 H 36.343755 24.399679 55.841616 0
M  V30 66 H 36.721506 26.065820 55.446220 0
M  V30 67 H 38.019701 24.870255 55.591040 0
M  V30 68 H 39.172112 26.355355 57.316703 0
M  V30 69 H 38.477845 26.455805 58.913606 0
M  V30 70 H 40.928432 28.419898 63.440186 0
M  V30 71 H 39.610721 28.725814 57.104948 0
M  V30 END ATOM
M  V30 BEGIN BOND
M  V30 1 1 7 4
M  V30 2 1 9 8
M  V30 3 2 11 8
M  V30 4 1 12 7
M  V30 5 1 13 12
M  V30 6 1 16 8
M  V30 7 1 17 10
M  V30 8 2 17 13
M  V30 9 1 18 1
M  V30 10 1 19 2
M  V30 11 1 19 5
M  V30 12 1 20 11
M  V30 13 1 21 2
M  V30 14 2 22 20
M  V30 15 1 23 18
M  V30 16 1 24 1
M  V30 17 1 24 3
M  V30 18 2 25 14
M  V30 19 1 25 15
M  V30 20 1 25 24
M  V30 21 1 26 18
M  V30 22 1 26 19
M  V30 23 1 27 3
M  V30 24 1 27 7
M  V30 25 2 27 10
M  V30 26 1 28 22
M  V30 27 1 29 6
M  V30 28 1 30 9
M  V30 29 1 30 21
M  V30 30 2 30 28
M  V30 31 1 31 6
M  V30 32 1 31 23
M  V30 33 1 32 21
M  V30 34 1 33 1
M  V30 35 1 34 1
M  V30 36 1 35 2
M  V30 37 1 36 2
M  V30 38 1 37 3
M  V30 39 1 38 3
M  V30 40 1 39 4
M  V30 41 1 40 4
M  V30 42 1 41 4
M  V30 43 1 42 5
M  V30 44 1 43 6
M  V30 45 1 44 6
M  V30 46 1 7 45 CFG=3
M  V30 47 1 46 9
M  V30 48 1 47 9
M  V30 49 1 48 10
M  V30 50 1 49 11
M  V30 51 1 50 12
M  V30 52 1 51 12
M  V30 53 1 52 13
M  V30 54 1 53 16
M  V30 55 1 54 17
M  V30 56 1 19 55 CFG=3
M  V30 57 1 56 20
M  V30 58 1 21 57 CFG=3
M  V30 59 1 58 22
M  V30 60 1 59 23
M  V30 61 1 60 23
M  V30 62 1 24 61 CFG=3
M  V30 63 1 62 26
M  V30 64 1 63 26
M  V30 65 1 64 28
M  V30 66 1 65 29
M  V30 67 1 66 29
M  V30 68 1 67 29
M  V30 69 1 68 31
M  V30 70 1 69 31
M  V30 71 1 70 32
M  V30 72 1 18 71 CFG=3
M  V30 END BOND
M  V30 END CTAB
M  END
>  <i_epik_Tot_Q>  (1) 
0

>  <i_epik_Tot_abs_Q>  (1) 
2

>  <i_i_glide_confnum>  (1) 
1151

>  <i_i_glide_lignum>  (1) 
51

>  <i_i_glide_posenum>  (1) 
342

>  <i_i_glide_rotatable_bonds>  (1) 
16

>  <i_lp_mmshare_version>  (1) 
72125

>  <i_m_source_file_index>  (1) 
20

>  <i_f3d_flags>  (1) 
0

>  <num_sample>  (1) 
100

>  <b_lp_Chiralities_Consistent>  (1) 
1

>  <r_epik_Charging_Adjusted_Penalty>  (1) 
0.015037487925518506

>  <r_epik_Ionization_Penalty>  (1) 
0.015045499532085388

>  <r_epik_Ionization_Penalty_Charging>  (1) 
0.0012943130925640431

>  <r_epik_Ionization_Penalty_Neutral>  (1) 
0.013751186439521345

>  <r_epik_State_Penalty>  (1) 
0.013743174832954463

>  <r_glide_ring_energy>  (1) 
0

>  <r_i_docking_score>  (1) 
-7.1668108588511581

>  <r_i_glide_ecoul>  (1) 
-1.2245102690779281

>  <r_i_glide_eff_state_penalty>  (1) 
0.013743174832954463

>  <r_i_glide_einternal>  (1) 
18.528814750818007

>  <r_i_glide_emodel>  (1) 
-63.53252151474797

>  <r_i_glide_emodel_strain>  (1) 
1.046600232547064

>  <r_i_glide_energy>  (1) 
-44.748230076870222

>  <r_i_glide_erotb>  (1) 
1.1084889849388277

>  <r_i_glide_esite>  (1) 
-0.033260749255983497

>  <r_i_glide_evdw>  (1) 
-43.523719807792297

>  <r_i_glide_gscore>  (1) 
-7.1805540336841123

>  <r_i_glide_gscore_strain>  (1) 
0

>  <r_i_glide_hbond>  (1) 
-0.011121126029636942

>  <r_i_glide_ligand_efficiency>  (1) 
-0.22396283933909869

>  <r_i_glide_ligand_efficiency_ln>  (1) 
-1.6048443111824038

>  <r_i_glide_ligand_efficiency_sa>  (1) 
-0.71103769353734037

>  <r_i_glide_lipo>  (1) 
-4.67286112599633

>  <r_i_glide_metal>  (1) 
-0

>  <r_i_glide_rewards>  (1) 
-1.2119374865896859

>  <r_lp_Energy>  (1) 
24.107240999999998

>  <s_epik_cmdline>  (1) 
J2VwaWtfcHl0aG9uJywgJy1waHQnLCAnMS4wJywgJy1waCcsICc3LjQnLCAnLXRuJywgJzgnLCAnLW1hJywgJzUwMCcsICctaW1hZScsICc8aW5maWxlLm1hZT4nLCAnLW9tYWUnLCAnPG91dGZpbGUubWFlPic=

>  <s_epik_input>  (1) 
W0NIM11bQ0BIXTFbQ0gyXVtDSF09W0NIXVtDSF09QzFbQ0gyXVtDQEhdKEMoPU8pW09IXSlbQ0gyXU4oW0NIMl1bQ0gyXVtDSDJdW0NIM10pW0NIMl1bQ0BIXShbT0hdKVtDSDJdW0NASF0oW09IXSlDKFtDSDJdMik9W0NIXVtDSF09W0NIXVtDSF09QzJbT0hd

>  <s_glide_docking_method>  (1) 
confgen

>  <s_i_glide_gridfile>  (1) 
gpcr_5ht2c_6bqh_protein_autoprepared_prepared

>  <s_lp_Force_Field>  (1) 
S-OPLS

>  <s_lp_Variant>  (1) 
DiffSBDD_19_num_sample_100-3

>  <s_m_source_file>  (1) 
generated__ligand_DiffSBDD_2026-05-06_prepared.sdf

>  <GenAI_Model>  (1) 
DiffSBDD

>  <Protein>  (1) 
GPCR_5HT2C

$$$$
DiffSBDD_84_num_sample_100
     RDKit          3D

  0  0  0  0  0  0  0  0  0  0999 V3000
M  V30 BEGIN CTAB
M  V30 COUNTS 48 50 0 0 1
M  V30 BEGIN ATOM
M  V30 1 C 39.554700 29.802860 52.491203 0
M  V30 2 C 40.140771 28.372851 60.634686 0
M  V30 3 C 40.181541 29.872687 60.959039 0 CFG=2
M  V30 4 C 39.404211 29.391254 55.641354 0
M  V30 5 C 38.144525 29.495299 59.708933 0 CFG=1
M  V30 6 C 39.602923 31.011849 53.266067 0
M  V30 7 C 39.867417 28.146622 50.799000 0
M  V30 8 N 38.974240 29.559863 56.824877 0
M  V30 9 Cl 40.869770 30.630234 50.258773 0
M  V30 10 C 38.875393 28.141793 59.790634 0
M  V30 11 C 37.961548 26.757346 53.865733 0
M  V30 12 O 39.878647 31.559569 62.663663 0
M  V30 13 C 38.653500 29.814069 54.385826 0 CFG=1
M  V30 14 C 38.952558 29.016655 53.226828 0
M  V30 15 C 40.053705 29.480437 51.235413 0
M  V30 16 C 38.699825 27.679918 52.915025 0
M  V30 17 C 39.728617 30.181546 62.399331 0
M  V30 18 C 39.187901 27.221383 51.655921 0
M  V30 19 C 37.714787 30.198017 57.152757 0 CFG=1
M  V30 20 C 39.287942 30.478369 59.876189 0
M  V30 21 C 37.171379 29.693626 58.511551 0
M  V30 22 N 37.867406 31.665186 57.147345 0 CHG=1
M  V30 23 H 41.019998 28.093653 60.050813 0
M  V30 24 H 40.148104 27.757285 61.535310 0
M  V30 25 H 41.193469 30.249842 60.840060 0
M  V30 26 H 40.370930 28.916145 55.453437 0
M  V30 27 H 37.536539 29.621487 60.598909 0
M  V30 28 H 39.067450 31.852126 52.831487 0
M  V30 29 H 40.625417 31.221870 53.578342 0
M  V30 30 H 40.248286 27.828764 49.853510 0
M  V30 31 H 39.159030 27.784346 58.800383 0
M  V30 32 H 38.267404 27.366010 60.237461 0
M  V30 33 H 37.191635 26.202402 53.328603 0
M  V30 34 H 38.651793 26.041600 54.310901 0
M  V30 35 H 37.468905 27.307555 54.667698 0
M  V30 36 H 39.699221 31.708529 63.579912 0
M  V30 37 H 37.585307 30.002648 54.458652 0
M  V30 38 H 40.341598 29.625737 63.110032 0
M  V30 39 H 38.694597 29.885869 62.572965 0
M  V30 40 H 39.067403 26.200766 51.349868 0
M  V30 41 H 36.937407 29.962430 56.427499 0
M  V30 42 H 38.978093 31.505699 60.068676 0
M  V30 43 H 39.867464 30.421432 58.963144 0
M  V30 44 H 36.658173 28.748699 58.335441 0
M  V30 45 H 36.375274 30.371641 58.823929 0
M  V30 46 H 36.901412 32.021344 57.125812 0
M  V30 47 H 38.346614 31.982976 57.975155 0
M  V30 48 H 38.343284 31.977187 56.315912 0
M  V30 END ATOM
M  V30 BEGIN BOND
M  V30 1 1 3 2
M  V30 2 1 6 1
M  V30 3 2 8 4
M  V30 4 1 10 2
M  V30 5 1 10 5
M  V30 6 1 13 4
M  V30 7 1 13 6
M  V30 8 1 14 1
M  V30 9 1 14 13
M  V30 10 2 15 1
M  V30 11 1 15 7
M  V30 12 1 15 9
M  V30 13 1 16 11
M  V30 14 2 16 14
M  V30 15 1 17 3
M  V30 16 1 17 12
M  V30 17 2 18 7
M  V30 18 1 18 16
M  V30 19 1 19 8
M  V30 20 1 20 3
M  V30 21 1 20 5
M  V30 22 1 21 5
M  V30 23 1 21 19
M  V30 24 1 22 19
M  V30 25 1 23 2
M  V30 26 1 24 2
M  V30 27 1 3 25 CFG=3
M  V30 28 1 26 4
M  V30 29 1 5 27 CFG=1
M  V30 30 1 28 6
M  V30 31 1 29 6
M  V30 32 1 30 7
M  V30 33 1 31 10
M  V30 34 1 32 10
M  V30 35 1 33 11
M  V30 36 1 34 11
M  V30 37 1 35 11
M  V30 38 1 36 12
M  V30 39 1 13 37 CFG=1
M  V30 40 1 38 17
M  V30 41 1 39 17
M  V30 42 1 40 18
M  V30 43 1 19 41 CFG=3
M  V30 44 1 42 20
M  V30 45 1 43 20
M  V30 46 1 44 21
M  V30 47 1 45 21
M  V30 48 1 46 22
M  V30 49 1 47 22
M  V30 50 1 48 22
M  V30 END BOND
M  V30 END CTAB
M  END
>  <i_epik_Tot_Q>  (1) 
1

>  <i_epik_Tot_abs_Q>  (1) 
1

>  <i_i_glide_confnum>  (1) 
278

>  <i_i_glide_lignum>  (1) 
219

>  <i_i_glide_posenum>  (1) 
89

>  <i_i_glide_rotatable_bonds>  (1) 
6

>  <i_lp_mmshare_version>  (1) 
72125

>  <i_m_source_file_index>  (1) 
85

>  <i_f3d_flags>  (1) 
0

>  <num_sample>  (1) 
100

>  <b_lp_Chiralities_Consistent>  (1) 
1

>  <r_epik_Charging_Adjusted_Penalty>  (1) 
0.46451758934955678

>  <r_epik_Ionization_Penalty>  (1) 
0.053840736014893024

>  <r_epik_Ionization_Penalty_Charging>  (1) 
0.053837750396952835

>  <r_epik_Ionization_Penalty_Neutral>  (1) 
2.9856179401856363e-06

>  <r_epik_State_Penalty>  (1) 
0.41067983895260396

>  <r_glide_ring_energy>  (1) 
0.79554456132168294

>  <r_i_docking_score>  (1) 
-7.1667129663226445

>  <r_i_glide_ecoul>  (1) 
-6.5488444420097558

>  <r_i_glide_eff_state_penalty>  (1) 
0.41067983895260396

>  <r_i_glide_einternal>  (1) 
5.5055379993047469

>  <r_i_glide_emodel>  (1) 
-55.956529193383915

>  <r_i_glide_emodel_strain>  (1) 
0.63289240484544962

>  <r_i_glide_energy>  (1) 
-35.556593126617287

>  <r_i_glide_erotb>  (1) 
0.90212786361762021

>  <r_i_glide_esite>  (1) 
-0.18642664014895105

>  <r_i_glide_evdw>  (1) 
-29.007748684607535

>  <r_i_glide_gscore>  (1) 
-7.5773928052752488

>  <r_i_glide_gscore_strain>  (1) 
0

>  <r_i_glide_hbond>  (1) 
-0.20000000000000001

>  <r_i_glide_ligand_efficiency>  (1) 
-0.32575968028739294

>  <r_i_glide_ligand_efficiency_ln>  (1) 
-1.7518060611762964

>  <r_i_glide_ligand_efficiency_sa>  (1) 
-0.91279143650699945

>  <r_i_glide_lipo>  (1) 
-3.697308368359038

>  <r_i_glide_metal>  (1) 
-0

>  <r_i_glide_rewards>  (1) 
-1.9630715598530384

>  <r_lp_Energy>  (1) 
15.401159

>  <r_lp_tautomer_probability>  (1) 
0.49999300000000002

>  <s_epik_Chemistry_Notes>  (1) 
This compound has an imine and may undergo hydrolysis. This compound contains an acetal/aminal-like group ( X-CH(R)-Y where X, Y are N, S, or O) that may be acid/base labile, releasing an aldehyde.

>  <s_epik_cmdline>  (1) 
J2VwaWtfcHl0aG9uJywgJy1waHQnLCAnMS4wJywgJy1waCcsICc3LjQnLCAnLXRuJywgJzgnLCAnLW1hJywgJzUwMCcsICctaW1hZScsICc8aW5maWxlLm1hZT4nLCAnLW9tYWUnLCAnPG91dGZpbGUubWFlPic=

>  <s_epik_input>  (1) 
Q2xjMVtjSF1bY0hdYyhbQ0gzXSljKGMxMilbQ0BIXShbQ0gyXTIpL1tDSF09TlxbQ0BIXShbTkgyXSlbQ0gyXVtDQEhdKFtDSDJdMylbQ0gyXVtDSDJdW0NAQEhdM1tDSDJdW09IXQ==

>  <s_glide_docking_method>  (1) 
confgen

>  <s_i_glide_gridfile>  (1) 
gpcr_5ht2c_6bqh_protein_autoprepared_prepared

>  <s_lp_Force_Field>  (1) 
S-OPLS

>  <s_lp_Variant>  (1) 
DiffSBDD_84_num_sample_100-2

>  <s_m_source_file>  (1) 
generated__ligand_DiffSBDD_2026-05-06_prepared.sdf

>  <GenAI_Model>  (1) 
DiffSBDD

>  <Protein>  (1) 
GPCR_5HT2C

$$$$
DiffSBDD_51_num_sample_100
     RDKit          3D

  0  0  0  0  0  0  0  0  0  0999 V3000
M  V30 BEGIN CTAB
M  V30 COUNTS 64 65 0 0 1
M  V30 BEGIN ATOM
M  V30 1 C 38.041108 26.364326 56.622583 0 CFG=1
M  V30 2 O 38.495023 28.235829 52.526193 0
M  V30 3 C 37.462535 24.745876 54.787196 0
M  V30 4 N 37.939307 27.277855 54.541129 0
M  V30 5 C 38.963839 29.856975 58.194933 0
M  V30 6 C 40.802941 28.220170 57.506981 0 CFG=2
M  V30 7 C 36.849820 23.812699 55.834541 0
M  V30 8 C 37.311773 26.189964 55.268182 0 CFG=2
M  V30 9 N 38.200133 31.409438 59.792535 0
M  V30 10 O 39.069367 29.215156 54.948813 0
M  V30 11 N 38.562292 30.111553 59.440396 0
M  V30 12 C 38.258247 27.907444 56.813126 0 CFG=2
M  V30 13 N 41.082444 26.821427 57.187609 0 CHG=1
M  V30 14 C 37.860337 31.680504 61.053925 0
M  V30 15 C 39.504086 34.247201 60.270257 0
M  V30 16 C 35.023450 32.906109 60.513591 0
M  V30 17 C 37.498106 24.021938 57.223456 0
M  V30 18 C 40.388694 34.570167 63.128661 0
M  V30 19 C 37.971374 27.330843 53.179907 0
M  V30 20 O 37.867403 30.829771 61.940451 0
M  V30 21 C 38.467040 28.211385 55.331100 0
M  V30 22 C 41.748807 28.603952 58.653385 0
M  V30 23 C 36.351732 33.672142 60.420935 0
M  V30 24 C 39.301713 28.396378 57.860205 0 CFG=2
M  V30 25 C 38.657414 34.086553 61.540209 0 CFG=1
M  V30 26 O 39.067272 30.731735 57.338254 0
M  V30 27 C 37.449167 33.127176 61.369103 0 CFG=2
M  V30 28 C 37.391394 25.491863 57.700516 0
M  V30 29 O 39.467536 33.618668 62.615487 0
M  V30 30 H 39.010321 25.905164 56.466147 0
M  V30 31 H 38.514188 24.488935 54.653502 0
M  V30 32 H 36.929478 24.602664 53.853513 0
M  V30 33 H 41.054504 28.816103 56.628515 0
M  V30 34 H 35.775595 23.987919 55.887258 0
M  V30 35 H 36.961821 22.787668 55.490742 0
M  V30 36 H 36.267500 26.421430 55.453491 0
M  V30 37 H 38.228261 32.053162 59.012297 0
M  V30 38 H 38.469051 29.455502 60.203515 0
M  V30 39 H 37.290908 28.334470 57.077762 0
M  V30 40 H 40.779770 26.234203 57.950535 0
M  V30 41 H 42.074005 26.663120 57.050982 0
M  V30 42 H 38.858190 34.421355 59.416760 0
M  V30 43 H 40.090095 33.351556 60.072442 0
M  V30 44 H 40.189515 35.091004 60.336444 0
M  V30 45 H 34.255065 33.387624 59.907701 0
M  V30 46 H 34.667010 32.876610 61.543613 0
M  V30 47 H 35.119766 31.879260 60.159641 0
M  V30 48 H 37.067387 23.336470 57.941776 0
M  V30 49 H 38.551174 23.740047 57.177012 0
M  V30 50 H 40.900034 34.144780 63.992206 0
M  V30 51 H 39.882568 35.479664 63.455444 0
M  V30 52 H 41.150211 34.834547 62.395262 0
M  V30 53 H 37.467421 26.459775 52.739485 0
M  V30 54 H 41.594072 29.621450 58.993708 0
M  V30 55 H 42.789491 28.523961 58.336292 0
M  V30 56 H 41.613647 27.957971 59.522514 0
M  V30 57 H 36.688370 33.676587 59.384225 0
M  V30 58 H 36.154504 34.715410 60.668881 0
M  V30 59 H 39.117784 27.814979 58.765112 0
M  V30 60 H 38.255004 35.062859 61.815293 0
M  V30 61 H 36.968144 33.067480 62.338292 0
M  V30 62 H 37.906101 25.615973 58.653245 0
M  V30 63 H 36.349634 25.775806 57.853524 0
M  V30 64 H 40.596866 26.555886 56.344358 0
M  V30 END ATOM
M  V30 BEGIN BOND
M  V30 1 1 7 3
M  V30 2 1 8 1
M  V30 3 1 8 3
M  V30 4 1 8 4
M  V30 5 1 11 5
M  V30 6 1 11 9
M  V30 7 1 12 1
M  V30 8 1 13 6
M  V30 9 1 14 9
M  V30 10 1 17 7
M  V30 11 2 19 2
M  V30 12 1 19 4
M  V30 13 2 20 14
M  V30 14 1 21 4
M  V30 15 2 21 10
M  V30 16 1 21 12
M  V30 17 1 22 6
M  V30 18 1 23 16
M  V30 19 1 24 5
M  V30 20 1 24 6
M  V30 21 1 24 12
M  V30 22 1 25 15
M  V30 23 2 26 5
M  V30 24 1 27 14
M  V30 25 1 27 23
M  V30 26 1 27 25
M  V30 27 1 28 1
M  V30 28 1 28 17
M  V30 29 1 29 18
M  V30 30 1 29 25
M  V30 31 1 1 30 CFG=3
M  V30 32 1 31 3
M  V30 33 1 32 3
M  V30 34 1 6 33 CFG=3
M  V30 35 1 34 7
M  V30 36 1 35 7
M  V30 37 1 8 36 CFG=1
M  V30 38 1 37 9
M  V30 39 1 38 11
M  V30 40 1 12 39 CFG=1
M  V30 41 1 40 13
M  V30 42 1 41 13
M  V30 43 1 42 15
M  V30 44 1 43 15
M  V30 45 1 44 15
M  V30 46 1 45 16
M  V30 47 1 46 16
M  V30 48 1 47 16
M  V30 49 1 48 17
M  V30 50 1 49 17
M  V30 51 1 50 18
M  V30 52 1 51 18
M  V30 53 1 52 18
M  V30 54 1 53 19
M  V30 55 1 54 22
M  V30 56 1 55 22
M  V30 57 1 56 22
M  V30 58 1 57 23
M  V30 59 1 58 23
M  V30 60 1 24 59 CFG=1
M  V30 61 1 25 60 CFG=1
M  V30 62 1 27 61 CFG=1
M  V30 63 1 62 28
M  V30 64 1 63 28
M  V30 65 1 64 13
M  V30 END BOND
M  V30 END CTAB
M  END
>  <i_epik_Tot_Q>  (1) 
1

>  <i_epik_Tot_abs_Q>  (1) 
1

>  <i_i_glide_confnum>  (1) 
61

>  <i_i_glide_lignum>  (1) 
137

>  <i_i_glide_posenum>  (1) 
74

>  <i_i_glide_rotatable_bonds>  (1) 
11

>  <i_lp_mmshare_version>  (1) 
72125

>  <i_m_source_file_index>  (1) 
52

>  <i_f3d_flags>  (1) 
0

>  <num_sample>  (1) 
100

>  <b_lp_Chiralities_Consistent>  (1) 
1

>  <r_epik_Charging_Adjusted_Penalty>  (1) 
0.019458142528331109

>  <r_epik_Ionization_Penalty>  (1) 
0.0099781937774174462

>  <r_epik_Ionization_Penalty_Charging>  (1) 
0.0097290712641655529

>  <r_epik_Ionization_Penalty_Neutral>  (1) 
0.00024912251325189406

>  <r_epik_State_Penalty>  (1) 
0.0097290712641655563

>  <r_glide_ring_energy>  (1) 
0

>  <r_i_docking_score>  (1) 
-7.1641687573591426

>  <r_i_glide_ecoul>  (1) 
-4.6199520651381505

>  <r_i_glide_eff_state_penalty>  (1) 
0.0097290712641655563

>  <r_i_glide_einternal>  (1) 
32.157511193475607

>  <r_i_glide_emodel>  (1) 
-51.106851879684498

>  <r_i_glide_emodel_strain>  (1) 
0.16068844974863339

>  <r_i_glide_energy>  (1) 
-43.864267952510815

>  <r_i_glide_erotb>  (1) 
0.81470354957181534

>  <r_i_glide_esite>  (1) 
-0.019785233722430295

>  <r_i_glide_evdw>  (1) 
-39.244315887372665

>  <r_i_glide_gscore>  (1) 
-7.1738978286233079

>  <r_i_glide_gscore_strain>  (1) 
0

>  <r_i_glide_hbond>  (1) 
-0.22709069935495754

>  <r_i_glide_ligand_efficiency>  (1) 
-0.24704030197790147

>  <r_i_glide_ligand_efficiency_ln>  (1) 
-1.6404129777902703

>  <r_i_glide_ligand_efficiency_sa>  (1) 
-0.75898607638921944

>  <r_i_glide_lipo>  (1) 
-3.0503602451904914

>  <r_i_glide_metal>  (1) 
-0

>  <r_i_glide_rewards>  (1) 
-2.0361565957878875

>  <r_lp_Energy>  (1) 
32.699864999999996

>  <r_lp_tautomer_probability>  (1) 
0.99995000000000001

>  <s_epik_cmdline>  (1) 
J2VwaWtfcHl0aG9uJywgJy1waHQnLCAnMS4wJywgJy1waCcsICc3LjQnLCAnLXRuJywgJzgnLCAnLW1hJywgJzUwMCcsICctaW1hZScsICc8aW5maWxlLm1hZT4nLCAnLW9tYWUnLCAnPG91dGZpbGUubWFlPic=

>  <s_epik_input>  (1) 
W0NIMl0xW0NIMl1bQ0gyXVtDSDJdW0NAQEhdKFtDQEhdMTIpTihbQ0hdPU8pQyg9TylbQ0BASF0yW0NAQEhdKFtDQEhdKFtOSDJdKVtDSDNdKUMoPU8pW05IXVtOSF1DKD1PKVtDQEhdKFtDSDJdW0NIM10pW0NASF0oW0NIM10pT1tDSDNd

>  <s_glide_docking_method>  (1) 
confgen

>  <s_i_glide_gridfile>  (1) 
gpcr_5ht2c_6bqh_protein_autoprepared_prepared

>  <s_lp_Force_Field>  (1) 
S-OPLS

>  <s_lp_Variant>  (1) 
DiffSBDD_51_num_sample_100-2

>  <s_m_source_file>  (1) 
generated__ligand_DiffSBDD_2026-05-06_prepared.sdf

>  <GenAI_Model>  (1) 
DiffSBDD

>  <Protein>  (1) 
GPCR_5HT2C

$$$$
DiffSBDD_56_num_sample_100
     RDKit          3D

  0  0  0  0  0  0  0  0  0  0999 V3000
M  V30 BEGIN CTAB
M  V30 COUNTS 59 62 0 0 1
M  V30 BEGIN ATOM
M  V30 1 N 39.510390 29.790611 58.994397 0
M  V30 2 O 38.667403 27.621424 59.854673 0
M  V30 3 O 41.467386 35.992452 63.024557 0
M  V30 4 C 38.573886 27.327268 54.528617 0
M  V30 5 C 38.877714 25.139998 57.745850 0
M  V30 6 S 40.667418 28.421430 56.304899 0
M  V30 7 O 41.561682 34.558808 64.857679 0
M  V30 8 C 40.659131 29.567602 59.897850 0
M  V30 9 C 38.218512 26.231597 55.548872 0
M  V30 10 C 38.455288 28.800855 54.855971 0
M  V30 11 S 38.626444 28.377706 58.608477 0
M  V30 12 N 36.916370 24.204088 56.000140 0
M  V30 13 O 37.751753 31.756958 62.229341 0
M  V30 14 C 39.409678 29.397474 55.661343 0
M  V30 15 C 40.671262 31.162339 63.307157 0
M  V30 16 O 41.849445 33.516145 61.853504 0
M  V30 17 N 38.912510 26.269656 56.819313 0
M  V30 18 C 40.913760 34.851760 63.642971 0
M  V30 19 C 38.280706 31.540937 55.467452 0
M  V30 20 C 38.746505 30.956442 59.503729 0
M  V30 21 O 37.350826 28.782909 58.001977 0
M  V30 22 C 38.955541 32.345556 61.786268 0 CFG=1
M  V30 23 C 39.639393 27.445801 57.375972 0 CFG=1
M  V30 24 C 39.338804 30.769262 55.971405 0
M  V30 25 C 39.961264 32.501055 62.966450 0 CFG=2
M  V30 26 C 37.309028 30.938088 54.653480 0
M  V30 27 C 37.402882 29.567049 54.337868 0
M  V30 28 O 41.229916 30.533596 62.149295 0
M  V30 29 C 37.327262 25.259206 55.210238 0
M  V30 30 C 40.991629 33.615508 62.729195 0
M  V30 31 C 39.587463 31.497548 60.672127 0 CFG=1
M  V30 32 C 40.217332 30.226309 61.204688 0 CFG=1
M  V30 33 H 41.422530 36.716907 63.636061 0
M  V30 34 H 37.949857 27.165140 53.648895 0
M  V30 35 H 39.576793 27.121547 54.154285 0
M  V30 36 H 39.100162 24.203011 57.233696 0
M  V30 37 H 37.910585 25.077823 58.245812 0
M  V30 38 H 39.635595 25.233231 58.522910 0
M  V30 39 H 42.468120 34.372198 64.664434 0
M  V30 40 H 40.903894 28.513629 60.030617 0
M  V30 41 H 41.538349 30.021428 59.453550 0
M  V30 42 H 36.202161 23.558148 55.693292 0
M  V30 43 H 37.152501 31.746405 61.496373 0
M  V30 44 H 39.967726 30.484240 63.793099 0
M  V30 45 H 41.472499 31.327719 64.030008 0
M  V30 46 H 39.867354 35.071095 63.852559 0
M  V30 47 H 38.209770 32.592282 55.707191 0
M  V30 48 H 38.599514 31.695396 58.716477 0
M  V30 49 H 37.763709 30.624143 59.839876 0
M  V30 50 H 38.694023 33.326357 61.384522 0
M  V30 51 H 40.430966 27.026099 57.994285 0
M  V30 52 H 40.082268 31.223136 56.603682 0
M  V30 53 H 39.421626 32.821347 63.853391 0
M  V30 54 H 36.492375 31.527695 54.264606 0
M  V30 55 H 36.667405 29.107188 53.702218 0
M  V30 56 H 36.853795 25.259294 54.238873 0
M  V30 57 H 40.372330 32.121080 60.253502 0
M  V30 58 H 39.459722 29.594478 61.677355 0
M  V30 59 H 37.218228 24.111488 56.958359 0
M  V30 END ATOM
M  V30 BEGIN BOND
M  V30 1 1 8 1
M  V30 2 1 9 4
M  V30 3 1 10 4
M  V30 4 1 11 1
M  V30 5 2 11 2
M  V30 6 1 14 6
M  V30 7 1 14 10
M  V30 8 1 17 5
M  V30 9 1 17 9
M  V30 10 1 18 3
M  V30 11 1 18 7
M  V30 12 1 20 1
M  V30 13 2 21 11
M  V30 14 1 22 13
M  V30 15 1 23 6
M  V30 16 1 23 11
M  V30 17 1 23 17
M  V30 18 2 24 14
M  V30 19 1 24 19
M  V30 20 1 25 15
M  V30 21 1 25 22
M  V30 22 2 26 19
M  V30 23 2 27 10
M  V30 24 1 27 26
M  V30 25 1 28 15
M  V30 26 2 29 9
M  V30 27 1 29 12
M  V30 28 2 30 16
M  V30 29 1 30 18
M  V30 30 1 30 25
M  V30 31 1 31 20
M  V30 32 1 31 22
M  V30 33 1 32 8
M  V30 34 1 32 28
M  V30 35 1 32 31
M  V30 36 1 33 3
M  V30 37 1 34 4
M  V30 38 1 35 4
M  V30 39 1 36 5
M  V30 40 1 37 5
M  V30 41 1 38 5
M  V30 42 1 39 7
M  V30 43 1 40 8
M  V30 44 1 41 8
M  V30 45 1 42 12
M  V30 46 1 43 13
M  V30 47 1 44 15
M  V30 48 1 45 15
M  V30 49 1 46 18
M  V30 50 1 47 19
M  V30 51 1 48 20
M  V30 52 1 49 20
M  V30 53 1 22 50 CFG=3
M  V30 54 1 23 51 CFG=1
M  V30 55 1 52 24
M  V30 56 1 25 53 CFG=1
M  V30 57 1 54 26
M  V30 58 1 55 27
M  V30 59 1 56 29
M  V30 60 1 31 57 CFG=3
M  V30 61 1 32 58 CFG=1
M  V30 62 1 59 12
M  V30 END BOND
M  V30 END CTAB
M  END
>  <i_epik_Tot_Q>  (1) 
0

>  <i_epik_Tot_abs_Q>  (1) 
0

>  <i_i_glide_confnum>  (1) 
16

>  <i_i_glide_lignum>  (1) 
145

>  <i_i_glide_posenum>  (1) 
249

>  <i_i_glide_rotatable_bonds>  (1) 
7

>  <i_lp_mmshare_version>  (1) 
72125

>  <i_m_source_file_index>  (1) 
57

>  <i_f3d_flags>  (1) 
0

>  <num_sample>  (1) 
100

>  <b_lp_Chiralities_Consistent>  (1) 
1

>  <r_epik_Charging_Adjusted_Penalty>  (1) 
0.0073760756096081168

>  <r_epik_Ionization_Penalty>  (1) 
0.10489428414322399

>  <r_epik_Ionization_Penalty_Charging>  (1) 
0.0073760756096081168

>  <r_epik_Ionization_Penalty_Neutral>  (1) 
0.097518208533615869

>  <r_epik_State_Penalty>  (1) 
-0

>  <r_glide_ring_energy>  (1) 
0

>  <r_i_docking_score>  (1) 
-7.1556434784865299

>  <r_i_glide_ecoul>  (1) 
-5.6292675443871616

>  <r_i_glide_eff_state_penalty>  (1) 
-0

>  <r_i_glide_einternal>  (1) 
4.4811536828559886

>  <r_i_glide_emodel>  (1) 
-44.716306779674944

>  <r_i_glide_emodel_strain>  (1) 
0.20924848428040832

>  <r_i_glide_energy>  (1) 
-39.188374600107835

>  <r_i_glide_erotb>  (1) 
0.34464789498163795

>  <r_i_glide_esite>  (1) 
-0.019167269065569599

>  <r_i_glide_evdw>  (1) 
-33.559107055720673

>  <r_i_glide_gscore>  (1) 
-7.1556434784865299

>  <r_i_glide_gscore_strain>  (1) 
0

>  <r_i_glide_hbond>  (1) 
-0.73646174646190832

>  <r_i_glide_ligand_efficiency>  (1) 
-0.22361385870270406

>  <r_i_glide_ligand_efficiency_ln>  (1) 
-1.6023436303074718

>  <r_i_glide_ligand_efficiency_sa>  (1) 
-0.70992974907868156

>  <r_i_glide_lipo>  (1) 
-2.6161937032065321

>  <r_i_glide_metal>  (1) 
-0

>  <r_i_glide_rewards>  (1) 
-1.6061231702900503

>  <r_lp_Energy>  (1) 
30.746641

>  <r_lp_tautomer_probability>  (1) 
1

>  <s_epik_Chemistry_Notes>  (1) 
This compound has an imine and may undergo hydrolysis. This compound contains an acetal/aminal-like group ( X-CH(R)-Y where X, Y are N, S, or O) that may be acid/base labile, releasing an aldehyde.

>  <s_epik_cmdline>  (1) 
J2VwaWtfcHl0aG9uJywgJy1waHQnLCAnMS4wJywgJy1waCcsICc3LjQnLCAnLXRuJywgJzgnLCAnLW1hJywgJzUwMCcsICctaW1hZScsICc8aW5maWxlLm1hZT4nLCAnLW9tYWUnLCAnPG91dGZpbGUubWFlPic=

>  <s_epik_input>  (1) 
W2NIXTFbY0hdW2NIXVtjSF1jKGMxMilTW0NASF0oTihbQ0gzXSlbQ0BIXShbQ0gyXTIpXFtDSF09TlxbSF0pUyg9TykoPU8pTihbQ0gyXTMpW0NIMl1bQ0BIXShbQ0BASF0zNClPW0NIMl1bQ0BIXShbQ0BASF00W09IXSlDKD1PKVtDSF0oW09IXSlbT0hd

>  <s_glide_docking_method>  (1) 
confgen

>  <s_i_glide_gridfile>  (1) 
gpcr_5ht2c_6bqh_protein_autoprepared_prepared

>  <s_lp_Force_Field>  (1) 
S-OPLS

>  <s_lp_Variant>  (1) 
DiffSBDD_56_num_sample_100-1

>  <s_m_source_file>  (1) 
generated__ligand_DiffSBDD_2026-05-06_prepared.sdf

>  <GenAI_Model>  (1) 
DiffSBDD

>  <Protein>  (1) 
GPCR_5HT2C

$$$$
DiffSBDD_46_num_sample_100
     RDKit          3D

  0  0  0  0  0  0  0  0  0  0999 V3000
M  V30 BEGIN CTAB
M  V30 COUNTS 67 70 0 0 1
M  V30 BEGIN ATOM
M  V30 1 N 38.509434 34.193301 60.906391 0 CHG=-1
M  V30 2 N 38.834969 30.249960 54.516738 0
M  V30 3 C 37.680121 33.620551 57.920140 0
M  V30 4 C 41.516072 26.349126 65.053980 0
M  V30 5 C 38.928671 31.406416 57.182491 0
M  V30 6 O 40.752684 32.299969 61.299412 0
M  V30 7 O 41.451046 35.627198 62.642528 0
M  V30 8 C 41.141471 28.745380 65.033452 0
M  V30 9 N 41.406305 27.468795 65.524586 0
M  V30 10 F 41.043070 29.602155 67.276964 0
M  V30 11 C 38.534877 32.411883 58.267816 0 CFG=2
M  V30 12 N 40.286048 32.583251 63.540620 0
M  V30 13 C 37.955354 30.258751 56.823229 0 CFG=2
M  V30 14 C 40.679104 31.093052 65.443575 0
M  V30 15 C 40.525626 35.383589 61.598129 0
M  V30 16 C 39.198021 27.569335 57.266503 0
M  V30 17 C 39.738443 28.459326 50.796673 0
M  V30 18 C 39.119551 29.636820 53.281301 0
M  V30 19 C 40.957045 29.812397 65.941179 0
M  V30 20 C 37.427342 33.389914 61.014518 0
M  V30 21 C 40.788493 30.147020 63.212124 0
M  V30 22 C 40.590976 31.273482 64.055615 0
M  V30 23 N 41.067683 28.910205 63.685181 0
M  V30 24 C 39.603220 28.448361 56.076196 0
M  V30 25 C 40.176890 29.762186 51.083633 0
M  V30 26 C 39.526257 34.259321 61.953166 0 CFG=2
M  V30 27 C 37.586109 29.356947 58.030792 0
M  V30 28 C 39.867401 30.350835 52.321758 0
M  V30 29 C 36.731113 32.601328 60.105333 0
M  V30 30 C 38.985178 27.742584 51.740919 0
M  V30 31 C 38.736761 28.428536 58.448934 0
M  V30 32 C 40.236953 32.914977 62.231767 0
M  V30 33 C 38.672084 28.323357 52.982051 0
M  V30 34 O 41.566184 25.221450 64.720543 0
M  V30 35 C 38.447099 29.384872 55.634221 0 CFG=2
M  V30 36 N 37.127950 32.500568 58.653503 0 CFG=1 CHG=1
M  V30 37 H 39.272685 31.133931 54.728619 0
M  V30 38 H 37.202514 33.668766 56.944908 0
M  V30 39 H 37.654922 34.523203 58.519303 0
M  V30 40 H 39.153997 32.006900 56.302148 0
M  V30 41 H 39.867407 30.943799 57.453493 0
M  V30 42 H 41.006845 36.076122 63.346689 0
M  V30 43 H 39.190645 32.453600 59.130160 0
M  V30 44 H 40.067958 33.300203 64.216097 0
M  V30 45 H 37.067406 30.750817 56.459321 0
M  V30 46 H 40.530226 31.923773 66.118041 0
M  V30 47 H 39.992716 36.316129 61.406808 0
M  V30 48 H 41.069716 35.145733 60.684612 0
M  V30 49 H 40.034673 26.937940 57.566907 0
M  V30 50 H 38.393370 26.896193 56.966121 0
M  V30 51 H 39.978808 28.009858 49.853516 0
M  V30 52 H 37.014369 33.358653 62.044709 0
M  V30 53 H 40.713400 30.224417 62.144457 0
M  V30 54 H 40.484821 29.032037 56.339842 0
M  V30 55 H 39.920522 27.796860 55.264128 0
M  V30 56 H 40.753526 30.311234 50.353585 0
M  V30 57 H 39.067401 34.575765 62.889215 0
M  V30 58 H 37.273133 29.940777 58.892758 0
M  V30 59 H 36.720132 28.748063 57.773642 0
M  V30 60 H 40.209670 31.351430 52.540223 0
M  V30 61 H 35.866659 32.009519 60.365369 0
M  V30 62 H 38.647361 26.745192 51.512643 0
M  V30 63 H 39.573803 29.015923 58.829339 0
M  V30 64 H 38.416545 27.786323 59.269777 0
M  V30 65 H 38.094344 27.761237 53.695987 0
M  V30 66 H 37.583289 28.786745 55.347757 0
M  V30 67 H 36.454616 32.021503 58.043401 0
M  V30 END ATOM
M  V30 BEGIN BOND
M  V30 1 2 9 4
M  V30 2 1 9 8
M  V30 3 1 11 3
M  V30 4 1 11 5
M  V30 5 1 13 5
M  V30 6 1 15 7
M  V30 7 1 18 2
M  V30 8 2 19 8
M  V30 9 1 19 10
M  V30 10 1 19 14
M  V30 11 1 20 1
M  V30 12 1 22 12
M  V30 13 2 22 14
M  V30 14 1 22 21
M  V30 15 1 23 8
M  V30 16 2 23 21
M  V30 17 1 24 16
M  V30 18 2 25 17
M  V30 19 1 26 1
M  V30 20 1 26 15
M  V30 21 1 27 13
M  V30 22 2 28 18
M  V30 23 1 28 25
M  V30 24 2 29 20
M  V30 25 1 30 17
M  V30 26 1 31 16
M  V30 27 1 31 27
M  V30 28 2 32 6
M  V30 29 1 32 12
M  V30 30 1 32 26
M  V30 31 1 33 18
M  V30 32 2 33 30
M  V30 33 2 34 4
M  V30 34 1 35 2
M  V30 35 1 35 13
M  V30 36 1 35 24
M  V30 37 1 36 3
M  V30 38 1 36 11
M  V30 39 1 36 29
M  V30 40 1 37 2
M  V30 41 1 38 3
M  V30 42 1 39 3
M  V30 43 1 40 5
M  V30 44 1 41 5
M  V30 45 1 42 7
M  V30 46 1 11 43 CFG=1
M  V30 47 1 44 12
M  V30 48 1 13 45 CFG=3
M  V30 49 1 46 14
M  V30 50 1 47 15
M  V30 51 1 48 15
M  V30 52 1 49 16
M  V30 53 1 50 16
M  V30 54 1 51 17
M  V30 55 1 52 20
M  V30 56 1 53 21
M  V30 57 1 54 24
M  V30 58 1 55 24
M  V30 59 1 56 25
M  V30 60 1 26 57 CFG=1
M  V30 61 1 58 27
M  V30 62 1 59 27
M  V30 63 1 60 28
M  V30 64 1 61 29
M  V30 65 1 62 30
M  V30 66 1 63 31
M  V30 67 1 64 31
M  V30 68 1 65 33
M  V30 69 1 35 66 CFG=3
M  V30 70 1 36 67 CFG=3
M  V30 END BOND
M  V30 END CTAB
M  END
>  <i_epik_Tot_Q>  (1) 
0

>  <i_epik_Tot_abs_Q>  (1) 
2

>  <i_i_glide_confnum>  (1) 
2186

>  <i_i_glide_lignum>  (1) 
126

>  <i_i_glide_posenum>  (1) 
122

>  <i_i_glide_rotatable_bonds>  (1) 
13

>  <i_lp_mmshare_version>  (1) 
72125

>  <i_m_source_file_index>  (1) 
47

>  <i_f3d_flags>  (1) 
0

>  <num_sample>  (1) 
100

>  <b_lp_Chiralities_Consistent>  (1) 
1

>  <r_epik_Charging_Adjusted_Penalty>  (1) 
0.33342598172051213

>  <r_epik_Ionization_Penalty>  (1) 
0.027696632267336825

>  <r_epik_Ionization_Penalty_Charging>  (1) 
0.022930597766060493

>  <r_epik_Ionization_Penalty_Neutral>  (1) 
0.0047660345012763301

>  <r_epik_State_Penalty>  (1) 
0.31049538395445164

>  <r_glide_ring_energy>  (1) 
0.011984252057721455

>  <r_i_docking_score>  (1) 
-7.1550919037386489

>  <r_i_glide_ecoul>  (1) 
-6.6230434970347103

>  <r_i_glide_eff_state_penalty>  (1) 
0.31049538395445164

>  <r_i_glide_einternal>  (1) 
11.818964309890635

>  <r_i_glide_emodel>  (1) 
-81.329583342499262

>  <r_i_glide_emodel_strain>  (1) 
0.10133839170978831

>  <r_i_glide_energy>  (1) 
-58.870867478672253

>  <r_i_glide_erotb>  (1) 
0.99979395072351473

>  <r_i_glide_esite>  (1) 
-0.10000000000000001

>  <r_i_glide_evdw>  (1) 
-52.247823981637545

>  <r_i_glide_gscore>  (1) 
-7.4655872876931006

>  <r_i_glide_gscore_strain>  (1) 
0

>  <r_i_glide_hbond>  (1) 
-0.20000000000000001

>  <r_i_glide_ligand_efficiency>  (1) 
-0.19875255288162913

>  <r_i_glide_ligand_efficiency_ln>  (1) 
-1.5610477451520546

>  <r_i_glide_ligand_efficiency_sa>  (1) 
-0.65626647014722161

>  <r_i_glide_lipo>  (1) 
-3.2774057311101608

>  <r_i_glide_metal>  (1) 
-0

>  <r_i_glide_rewards>  (1) 
-1.2821277836693712

>  <r_lp_Energy>  (1) 
55.985365999999999

>  <s_epik_Chemistry_Notes>  (1) 
This compound has an imine and may undergo hydrolysis.

>  <s_epik_cmdline>  (1) 
J2VwaWtfcHl0aG9uJywgJy1waHQnLCAnMS4wJywgJy1waCcsICc3LjQnLCAnLXRuJywgJzgnLCAnLW1hJywgJzUwMCcsICctaW1hZScsICc8aW5maWxlLm1hZT4nLCAnLW9tYWUnLCAnPG91dGZpbGUubWFlPic=

>  <s_epik_input>  (1) 
Tz1DPU5jMWMoRilbY0hdYyhbY0hdbjEpW05IXUMoPU8pW0NAQEhdKFtDSDJdW09IXSkvTj1bQ0hdL1tDSDJdTjJbQ0gyXVtDQEBIXTJbQ0gyXVtDQEBIXTNbQ0gyXVtDSDJdW0NIMl1bQ0gyXVtDQEBIXTNbTkhdYzRbY0hdW2NIXVtjSF1bY0hdW2NIXTQ=

>  <s_glide_docking_method>  (1) 
confgen

>  <s_i_glide_gridfile>  (1) 
gpcr_5ht2c_6bqh_protein_autoprepared_prepared

>  <s_lp_Force_Field>  (1) 
S-OPLS

>  <s_lp_Variant>  (1) 
DiffSBDD_46_num_sample_100-2

>  <s_m_source_file>  (1) 
generated__ligand_DiffSBDD_2026-05-06_prepared.sdf

>  <GenAI_Model>  (1) 
DiffSBDD

>  <Protein>  (1) 
GPCR_5HT2C

$$$$
DiffSBDD_81_num_sample_100
     RDKit          3D

  0  0  0  0  0  0  0  0  0  0999 V3000
M  V30 BEGIN CTAB
M  V30 COUNTS 56 57 0 0 1
M  V30 BEGIN ATOM
M  V30 1 N 37.867399 32.031353 57.990677 0 CHG=1
M  V30 2 C 38.975869 28.021523 59.451042 0
M  V30 3 C 39.387719 32.352784 55.986488 0
M  V30 4 C 38.555422 30.842625 54.150471 0
M  V30 5 S 38.229986 28.524471 52.652222 0
M  V30 6 C 40.085629 30.303260 52.237629 0
M  V30 7 C 39.235242 29.814381 56.402102 0
M  V30 8 C 39.067404 29.991217 53.013711 0
M  V30 9 C 39.228519 26.411463 57.619332 0 CFG=2
M  V30 10 O 37.867413 34.012845 56.931667 0
M  V30 11 O 39.467439 27.221934 50.653493 0
M  V30 12 C 38.187317 25.444322 58.206775 0
M  V30 13 C 39.507557 30.935416 55.365408 0 CFG=2
M  V30 14 C 40.480965 29.385927 51.121492 0
M  V30 15 C 38.076679 24.108935 57.454123 0
M  V30 16 O 39.825896 27.205861 58.651099 0
M  V30 17 O 37.904954 24.215381 56.050847 0
M  V30 18 C 38.041245 32.648035 56.654674 0 CFG=2
M  V30 19 C 39.450879 28.242237 51.328891 0
M  V30 20 C 39.622931 28.372433 56.008264 0
M  V30 21 C 38.615522 27.291981 56.506562 0 CFG=1
M  V30 22 C 38.046479 26.488441 55.311201 0
M  V30 23 C 38.472551 32.679236 59.176921 0
M  V30 24 C 37.121622 25.296958 55.595447 0
M  V30 25 H 36.856850 32.011069 58.106581 0
M  V30 26 H 39.585054 28.579494 60.161665 0
M  V30 27 H 38.415099 28.747808 58.867298 0
M  V30 28 H 38.267428 27.435370 60.029603 0
M  V30 29 H 39.467451 33.079908 55.180903 0
M  V30 30 H 40.216640 32.571047 56.653494 0
M  V30 31 H 37.566936 30.494757 54.454952 0
M  V30 32 H 38.386263 31.828480 53.715508 0
M  V30 33 H 40.649980 31.214223 52.381860 0
M  V30 34 H 39.753114 30.047637 57.332908 0
M  V30 35 H 38.170629 29.839038 56.626890 0
M  V30 36 H 40.048637 25.829661 57.196079 0
M  V30 37 H 37.467414 34.420774 56.178112 0
M  V30 38 H 37.214479 25.931568 58.253382 0
M  V30 39 H 38.433490 25.221433 59.235729 0
M  V30 40 H 40.537506 30.841568 55.016612 0
M  V30 41 H 40.373040 29.860593 50.146001 0
M  V30 42 H 41.492339 29.021085 51.262574 0
M  V30 43 H 37.244106 23.532172 57.853691 0
M  V30 44 H 38.976790 23.519484 57.626661 0
M  V30 45 H 37.247807 32.329741 55.983835 0
M  V30 46 H 39.742899 28.297810 54.934186 0
M  V30 47 H 40.625994 28.162715 56.382442 0
M  V30 48 H 37.745921 27.782127 56.942554 0
M  V30 49 H 37.432943 27.177808 54.742664 0
M  V30 50 H 38.853518 26.155024 54.656806 0
M  V30 51 H 38.457965 31.992082 60.023249 0
M  V30 52 H 39.500116 32.973565 58.984709 0
M  V30 53 H 37.911761 33.569657 59.464892 0
M  V30 54 H 36.286633 25.541277 56.252823 0
M  V30 55 H 36.677111 24.976741 54.652762 0
M  V30 56 H 38.185116 31.076956 57.926392 0
M  V30 END ATOM
M  V30 BEGIN BOND
M  V30 1 1 8 4
M  V30 2 1 8 5
M  V30 3 2 8 6
M  V30 4 1 12 9
M  V30 5 1 13 3
M  V30 6 1 13 4
M  V30 7 1 13 7
M  V30 8 1 14 6
M  V30 9 1 15 12
M  V30 10 1 16 2
M  V30 11 1 16 9
M  V30 12 1 17 15
M  V30 13 1 18 1
M  V30 14 1 18 3
M  V30 15 1 18 10
M  V30 16 1 19 5
M  V30 17 2 19 11
M  V30 18 1 19 14
M  V30 19 1 20 7
M  V30 20 1 21 9
M  V30 21 1 21 20
M  V30 22 1 22 21
M  V30 23 1 23 1
M  V30 24 1 24 17
M  V30 25 1 24 22
M  V30 26 1 25 1
M  V30 27 1 26 2
M  V30 28 1 27 2
M  V30 29 1 28 2
M  V30 30 1 29 3
M  V30 31 1 30 3
M  V30 32 1 31 4
M  V30 33 1 32 4
M  V30 34 1 33 6
M  V30 35 1 34 7
M  V30 36 1 35 7
M  V30 37 1 9 36 CFG=3
M  V30 38 1 37 10
M  V30 39 1 38 12
M  V30 40 1 39 12
M  V30 41 1 13 40 CFG=3
M  V30 42 1 41 14
M  V30 43 1 42 14
M  V30 44 1 43 15
M  V30 45 1 44 15
M  V30 46 1 18 45 CFG=3
M  V30 47 1 46 20
M  V30 48 1 47 20
M  V30 49 1 21 48 CFG=1
M  V30 50 1 49 22
M  V30 51 1 50 22
M  V30 52 1 51 23
M  V30 53 1 52 23
M  V30 54 1 53 23
M  V30 55 1 54 24
M  V30 56 1 55 24
M  V30 57 1 56 1
M  V30 END BOND
M  V30 END CTAB
M  END
>  <i_epik_Tot_Q>  (1) 
1

>  <i_epik_Tot_abs_Q>  (1) 
1

>  <i_i_glide_confnum>  (1) 
378

>  <i_i_glide_lignum>  (1) 
213

>  <i_i_glide_posenum>  (1) 
115

>  <i_i_glide_rotatable_bonds>  (1) 
10

>  <i_lp_mmshare_version>  (1) 
72125

>  <i_m_source_file_index>  (1) 
82

>  <i_f3d_flags>  (1) 
0

>  <num_sample>  (1) 
100

>  <b_lp_Chiralities_Consistent>  (1) 
1

>  <r_epik_Charging_Adjusted_Penalty>  (1) 
0.12825581378160511

>  <r_epik_Ionization_Penalty>  (1) 
0.099187303221023815

>  <r_epik_Ionization_Penalty_Charging>  (1) 
0.032441492902706343

>  <r_epik_Ionization_Penalty_Neutral>  (1) 
0.066745810318317472

>  <r_epik_State_Penalty>  (1) 
0.095814320878898754

>  <r_glide_ring_energy>  (1) 
0

>  <r_i_docking_score>  (1) 
-7.1543871644738655

>  <r_i_glide_ecoul>  (1) 
-2.8323560138252475

>  <r_i_glide_eff_state_penalty>  (1) 
0.095814320878898754

>  <r_i_glide_einternal>  (1) 
13.307229300301918

>  <r_i_glide_emodel>  (1) 
-45.255450756506164

>  <r_i_glide_emodel_strain>  (1) 
2.0134354193534705

>  <r_i_glide_energy>  (1) 
-34.839447188832999

>  <r_i_glide_erotb>  (1) 
0.89420468902182859

>  <r_i_glide_esite>  (1) 
-0.20000000000000001

>  <r_i_glide_evdw>  (1) 
-32.007091175007751

>  <r_i_glide_gscore>  (1) 
-7.2502014853527639

>  <r_i_glide_gscore_strain>  (1) 
0

>  <r_i_glide_hbond>  (1) 
-0.27493519419741846

>  <r_i_glide_ligand_efficiency>  (1) 
-0.29809946518641106

>  <r_i_glide_ligand_efficiency_ln>  (1) 
-1.7123731418936872

>  <r_i_glide_ligand_efficiency_sa>  (1) 
-0.85986765114793917

>  <r_i_glide_lipo>  (1) 
-3.5851293101001409

>  <r_i_glide_metal>  (1) 
-0

>  <r_i_glide_rewards>  (1) 
-2.0591337092528583

>  <r_lp_Energy>  (1) 
15.540376999999999

>  <s_epik_Chemistry_Notes>  (1) 
This compound contains an acetal/aminal-like group ( X-CH(R)-Y where X, Y are N, S, or O) that may be acid/base labile, releasing an aldehyde.

>  <s_epik_cmdline>  (1) 
J2VwaWtfcHl0aG9uJywgJy1waHQnLCAnMS4wJywgJy1waCcsICc3LjQnLCAnLXRuJywgJzgnLCAnLW1hJywgJzUwMCcsICctaW1hZScsICc8aW5maWxlLm1hZT4nLCAnLW9tYWUnLCAnPG91dGZpbGUubWFlPic=

>  <s_epik_input>  (1) 
UzFDKD1PKVtDSDJdW0NIXT1DMVtDSDJdW0NAQEhdKFtDSDJdW0NASF0oW09IXSlbTkhdW0NIM10pW0NIMl1bQ0gyXVtDQEhdMltDSDJdW0NIMl1PW0NIMl1bQ0gyXVtDQEBIXTJPW0NIM10=

>  <s_glide_docking_method>  (1) 
confgen

>  <s_i_glide_gridfile>  (1) 
gpcr_5ht2c_6bqh_protein_autoprepared_prepared

>  <s_lp_Force_Field>  (1) 
S-OPLS

>  <s_lp_Variant>  (1) 
DiffSBDD_81_num_sample_100-1

>  <s_m_source_file>  (1) 
generated__ligand_DiffSBDD_2026-05-06_prepared.sdf

>  <GenAI_Model>  (1) 
DiffSBDD

>  <Protein>  (1) 
GPCR_5HT2C

$$$$
DiffSBDD_29_num_sample_100
     RDKit          3D

  0  0  0  0  0  0  0  0  0  0999 V3000
M  V30 BEGIN CTAB
M  V30 COUNTS 85 89 0 0 1
M  V30 BEGIN ATOM
M  V30 1 F 38.267966 27.434901 52.131507 0
M  V30 2 C 40.304144 28.694672 58.041519 0
M  V30 3 C 38.431428 29.126917 54.503088 0
M  V30 4 C 38.525215 33.285706 60.563184 0 CFG=2
M  V30 5 C 39.868189 36.330916 64.223717 0
M  V30 6 C 37.914692 32.459565 61.714608 0
M  V30 7 C 39.477747 29.061383 51.052510 0
M  V30 8 N 38.924701 28.796463 57.559963 0
M  V30 9 C 37.121852 35.504164 60.786455 0 CFG=1
M  V30 10 C 42.102417 34.268302 64.068783 0
M  V30 11 C 36.585320 29.452427 58.259231 0
M  V30 12 C 41.025228 34.294082 62.991101 0 CFG=2
M  V30 13 C 38.914328 28.611539 52.126203 0
M  V30 14 C 37.507432 30.345166 59.055351 0 CFG=2
M  V30 15 C 40.266259 26.243101 57.479417 0
M  V30 16 C 37.347562 37.621462 59.369187 0
M  V30 17 C 38.558671 34.867688 60.771261 0 CFG=1
M  V30 18 C 38.183155 31.595930 58.486557 0 CFG=1
M  V30 19 C 39.774595 30.662786 53.010074 0
M  V30 20 N 38.861217 26.396526 57.134040 0
M  V30 21 N 39.026626 29.400460 53.208688 0
M  V30 22 F 39.471812 28.421340 49.880350 0
M  V30 23 S 41.329911 35.221681 61.466646 0
M  V30 24 C 38.547815 27.731668 56.620079 0 CFG=2
M  V30 25 C 40.619276 27.284714 58.544848 0
M  V30 26 C 37.377956 37.917501 61.888752 0
M  V30 27 O 37.867445 31.774060 57.123931 0
M  V30 28 C 39.576657 35.555934 61.728717 0 CFG=2
M  V30 29 C 37.842511 32.935673 59.195279 0
M  V30 30 C 42.152792 35.537536 64.934071 0
M  V30 31 C 40.757746 35.969046 65.414253 0
M  V30 32 C 39.164710 27.993430 55.234363 0
M  V30 33 O 36.351931 35.018920 61.853495 0
M  V30 34 C 39.798976 35.196461 63.200345 0 CFG=2
M  V30 35 C 37.956672 28.945818 58.640615 0 CFG=2
M  V30 36 C 36.935079 37.047605 60.707213 0
M  V30 37 O 39.845083 32.821113 60.459468 0
M  V30 38 S 40.267478 30.586682 51.159727 0
M  V30 39 H 40.983198 28.903798 57.219239 0
M  V30 40 H 40.502152 29.435652 58.815227 0
M  V30 41 H 37.382531 28.865889 54.361677 0
M  V30 42 H 38.446304 30.034989 55.106795 0
M  V30 43 H 38.870808 36.595206 64.570053 0
M  V30 44 H 40.266444 37.228325 63.749213 0
M  V30 45 H 36.826014 32.497693 61.709730 0
M  V30 46 H 38.207701 31.412354 61.662268 0
M  V30 47 H 38.251524 32.785889 62.685323 0
M  V30 48 H 36.600229 35.132161 59.905083 0
M  V30 49 H 41.880481 33.437810 64.739497 0
M  V30 50 H 43.067381 34.022504 63.648320 0
M  V30 51 H 35.729250 29.030295 58.781186 0
M  V30 52 H 36.408345 29.681707 57.209702 0
M  V30 53 H 40.736796 33.279208 62.722538 0
M  V30 54 H 37.219377 30.433668 60.095171 0
M  V30 55 H 40.889022 26.360939 56.591053 0
M  V30 56 H 40.431786 25.234723 57.861011 0
M  V30 57 H 38.267425 37.220962 58.992088 0
M  V30 58 H 36.570399 37.379470 58.653402 0
M  V30 59 H 37.468365 38.699024 59.426843 0
M  V30 60 H 38.968634 35.222459 59.853468 0
M  V30 61 H 39.247584 31.417049 58.501542 0
M  V30 62 H 39.153329 31.536033 53.215971 0
M  V30 63 H 40.659282 30.695914 53.646365 0
M  V30 64 H 38.596391 25.707936 56.444266 0
M  V30 65 H 37.467935 27.745478 56.485206 0
M  V30 66 H 41.682860 27.222239 58.781433 0
M  V30 67 H 40.070764 27.081789 59.462381 0
M  V30 68 H 38.375541 38.330103 61.751953 0
M  V30 69 H 36.708298 38.772307 61.982710 0
M  V30 70 H 37.344210 37.376416 62.833308 0
M  V30 71 H 36.904707 31.828704 57.051916 0
M  V30 72 H 39.528425 36.626994 61.615010 0
M  V30 73 H 36.758677 33.017652 59.280060 0
M  V30 74 H 38.127248 33.718828 58.490948 0
M  V30 75 H 42.767913 35.356888 65.811207 0
M  V30 76 H 42.632168 36.342009 64.372722 0
M  V30 77 H 40.299128 35.165224 65.991485 0
M  V30 78 H 40.834201 36.820963 66.090739 0
M  V30 79 H 40.225443 28.228645 55.307534 0
M  V30 80 H 39.096821 27.087955 54.630088 0
M  V30 81 H 36.644572 35.437953 62.648707 0
M  V30 82 H 39.067401 34.482793 63.453471 0
M  V30 83 H 37.972510 28.212273 59.441506 0
M  V30 84 H 35.867389 37.216543 60.685026 0
M  V30 85 H 40.323550 33.423741 59.911797 0
M  V30 END ATOM
M  V30 BEGIN BOND
M  V30 1 1 6 4
M  V30 2 1 8 2
M  V30 3 1 12 10
M  V30 4 1 13 1
M  V30 5 2 13 7
M  V30 6 1 14 11
M  V30 7 1 17 4
M  V30 8 1 17 9
M  V30 9 1 18 14
M  V30 10 1 20 15
M  V30 11 1 21 3
M  V30 12 1 21 13
M  V30 13 1 21 19
M  V30 14 1 22 7
M  V30 15 1 23 12
M  V30 16 1 24 8
M  V30 17 1 24 20
M  V30 18 1 25 2
M  V30 19 1 25 15
M  V30 20 1 27 18
M  V30 21 1 28 17
M  V30 22 1 28 23
M  V30 23 1 29 4
M  V30 24 1 29 18
M  V30 25 1 30 10
M  V30 26 1 31 5
M  V30 27 1 31 30
M  V30 28 1 32 3
M  V30 29 1 32 24
M  V30 30 1 33 9
M  V30 31 1 34 5
M  V30 32 1 34 12
M  V30 33 1 34 28
M  V30 34 1 35 8
M  V30 35 1 35 11
M  V30 36 1 35 14
M  V30 37 1 36 9
M  V30 38 1 36 16
M  V30 39 1 36 26
M  V30 40 1 4 37 CFG=3
M  V30 41 1 38 7
M  V30 42 1 38 19
M  V30 43 1 39 2
M  V30 44 1 40 2
M  V30 45 1 41 3
M  V30 46 1 42 3
M  V30 47 1 43 5
M  V30 48 1 44 5
M  V30 49 1 45 6
M  V30 50 1 46 6
M  V30 51 1 47 6
M  V30 52 1 9 48 CFG=3
M  V30 53 1 49 10
M  V30 54 1 50 10
M  V30 55 1 51 11
M  V30 56 1 52 11
M  V30 57 1 12 53 CFG=3
M  V30 58 1 14 54 CFG=1
M  V30 59 1 55 15
M  V30 60 1 56 15
M  V30 61 1 57 16
M  V30 62 1 58 16
M  V30 63 1 59 16
M  V30 64 1 17 60 CFG=3
M  V30 65 1 18 61 CFG=3
M  V30 66 1 62 19
M  V30 67 1 63 19
M  V30 68 1 64 20
M  V30 69 1 24 65 CFG=3
M  V30 70 1 66 25
M  V30 71 1 67 25
M  V30 72 1 68 26
M  V30 73 1 69 26
M  V30 74 1 70 26
M  V30 75 1 71 27
M  V30 76 1 28 72 CFG=1
M  V30 77 1 73 29
M  V30 78 1 74 29
M  V30 79 1 75 30
M  V30 80 1 76 30
M  V30 81 1 77 31
M  V30 82 1 78 31
M  V30 83 1 79 32
M  V30 84 1 80 32
M  V30 85 1 81 33
M  V30 86 1 34 82 CFG=1
M  V30 87 1 35 83 CFG=1
M  V30 88 1 84 36
M  V30 89 1 85 37
M  V30 END BOND
M  V30 END CTAB
M  END
>  <i_epik_Tot_Q>  (1) 
0

>  <i_epik_Tot_abs_Q>  (1) 
0

>  <i_i_glide_confnum>  (1) 
2397

>  <i_i_glide_lignum>  (1) 
73

>  <i_i_glide_posenum>  (1) 
381

>  <i_i_glide_rotatable_bonds>  (1) 
14

>  <i_lp_mmshare_version>  (1) 
72125

>  <i_m_source_file_index>  (1) 
30

>  <i_f3d_flags>  (1) 
0

>  <num_sample>  (1) 
100

>  <b_lp_Chiralities_Consistent>  (1) 
1

>  <r_epik_Charging_Adjusted_Penalty>  (1) 
0.89739717629826321

>  <r_epik_Ionization_Penalty>  (1) 
1.0966562263345743

>  <r_epik_Ionization_Penalty_Charging>  (1) 
8.0809776118824917e-09

>  <r_epik_Ionization_Penalty_Neutral>  (1) 
1.0966562182535966

>  <r_epik_State_Penalty>  (1) 
0.89739716821728555

>  <r_glide_ring_energy>  (1) 
1.6720993256359071

>  <r_i_docking_score>  (1) 
-7.1533681982222568

>  <r_i_glide_ecoul>  (1) 
-5.010382106602786

>  <r_i_glide_eff_state_penalty>  (1) 
0.89739716821728555

>  <r_i_glide_einternal>  (1) 
31.869559724749944

>  <r_i_glide_emodel>  (1) 
-35.420125042741397

>  <r_i_glide_emodel_strain>  (1) 
2.0707149823394246

>  <r_i_glide_energy>  (1) 
-39.828011556369802

>  <r_i_glide_erotb>  (1) 
0.47112220270256994

>  <r_i_glide_esite>  (1) 
0

>  <r_i_glide_evdw>  (1) 
-34.817629449767018

>  <r_i_glide_gscore>  (1) 
-8.050765366439542

>  <r_i_glide_gscore_strain>  (1) 
0

>  <r_i_glide_hbond>  (1) 
-0.16

>  <r_i_glide_ligand_efficiency>  (1) 
-0.18824653153216464

>  <r_i_glide_ligand_efficiency_ln>  (1) 
-1.5424766143092639

>  <r_i_glide_ligand_efficiency_sa>  (1) 
-0.63288020942634327

>  <r_i_glide_lipo>  (1) 
-4.3245381407868146

>  <r_i_glide_metal>  (1) 
-0

>  <r_i_glide_rewards>  (1) 
-1.5449106398765278

>  <r_lp_Energy>  (1) 
28.047854999999998

>  <s_epik_Chemistry_Notes>  (1) 
This compound has an imine and may undergo hydrolysis. This compound contains an acetal/aminal-like group ( X-CH(R)-Y where X, Y are N, S, or O) that may be acid/base labile, releasing an aldehyde.

>  <s_epik_cmdline>  (1) 
J2VwaWtfcHl0aG9uJywgJy1waHQnLCAnMS4wJywgJy1waCcsICc3LjQnLCAnLXRuJywgJzgnLCAnLW1hJywgJzUwMCcsICctaW1hZScsICc8aW5maWxlLm1hZT4nLCAnLW9tYWUnLCAnPG91dGZpbGUubWFlPic=

>  <s_epik_input>  (1) 
RkMxPUMoRilOKFtDSDJdUzEpW0NIMl1bQ0gyXVtDQEhdMltOSF1bQ0gyXVtDSDJdW0NIMl1OMltDQEBIXTNbQ0gyXVtDQEBIXTNbQ0BASF0oW09IXSlbQ0gyXVtDQEBdKFtDSDNdKShbT0hdKVtDQEBIXShbQ0BASF0oW09IXSlbQ0hdKFtDSDNdKVtDSDNdKVtDQEhdKFM0KVtDQEBIXShbQ0BASF00NSlbQ0gyXVtDSDJdW0NIMl1bQ0gyXTU=

>  <s_glide_docking_method>  (1) 
confgen

>  <s_i_glide_gridfile>  (1) 
gpcr_5ht2c_6bqh_protein_autoprepared_prepared

>  <s_lp_Force_Field>  (1) 
S-OPLS

>  <s_lp_Variant>  (1) 
DiffSBDD_29_num_sample_100-3

>  <s_m_source_file>  (1) 
generated__ligand_DiffSBDD_2026-05-06_prepared.sdf

>  <GenAI_Model>  (1) 
DiffSBDD

>  <Protein>  (1) 
GPCR_5HT2C

$$$$
DiffSBDD_0_num_sample_100
     RDKit          3D

  0  0  0  0  0  0  0  0  0  0999 V3000
M  V30 BEGIN CTAB
M  V30 COUNTS 59 61 0 0 1
M  V30 BEGIN ATOM
M  V30 1 C 38.644955 27.234324 56.767480 0
M  V30 2 C 39.541836 29.963953 54.062721 0 CFG=1
M  V30 3 C 40.444330 32.583826 61.554760 0
M  V30 4 C 39.014488 32.985102 58.330816 0
M  V30 5 C 39.249351 26.008488 56.323172 0
M  V30 6 C 38.972346 26.870784 53.911563 0
M  V30 7 C 39.143203 34.588562 61.046942 0
M  V30 8 C 41.149410 33.294480 62.546815 0
M  V30 9 C 39.440849 33.229284 60.801271 0
M  V30 10 C 40.166993 29.504388 51.576404 0 CFG=2
M  V30 11 N 38.686077 32.173996 54.825731 0
M  V30 12 C 38.652355 33.220593 55.840358 0
M  V30 13 C 38.318050 32.688417 57.225105 0
M  V30 14 C 40.852348 34.650656 62.789613 0
M  V30 15 F 39.565394 36.602365 62.272982 0
M  V30 16 C 39.849332 35.297807 62.040056 0
M  V30 17 C 38.684976 32.462943 59.722687 0 CFG=1
M  V30 18 C 39.410922 25.813370 54.986107 0
M  V30 19 N 36.115127 32.315119 60.277680 0
M  V30 20 C 39.764705 31.186442 54.977317 0
M  V30 21 C 38.143901 28.062529 55.873139 0
M  V30 22 C 38.142208 29.329695 54.242368 0 CFG=1
M  V30 23 N 39.867398 30.421446 52.693836 0
M  V30 24 O 41.537588 35.337009 63.750808 0
M  V30 25 C 40.803095 30.326815 50.435486 0
M  V30 26 C 38.947284 28.712421 51.076786 0
M  V30 27 C 39.867284 31.385490 49.853371 0
M  V30 28 N 38.091130 27.870958 54.539739 0
M  V30 29 S 37.467420 29.620656 55.979662 0
M  V30 30 C 37.242970 32.382428 60.025292 0
M  V30 31 Cl 39.774651 24.821786 57.453416 0
M  V30 32 H 38.636173 27.490546 57.816743 0
M  V30 33 H 40.267398 29.244718 54.408379 0
M  V30 34 H 40.675086 31.545839 61.370839 0
M  V30 35 H 39.867471 33.629494 58.253919 0
M  V30 36 H 39.860193 27.310973 53.466651 0
M  V30 37 H 38.411088 26.365353 53.126564 0
M  V30 38 H 38.376209 35.086012 60.472297 0
M  V30 39 H 41.919792 32.800134 63.121356 0
M  V30 40 H 40.931658 28.782321 51.853508 0
M  V30 41 H 38.701674 32.565169 53.888039 0
M  V30 42 H 37.893024 33.958089 55.579229 0
M  V30 43 H 39.609573 33.728071 55.853443 0
M  V30 44 H 37.467378 32.039319 57.296846 0
M  V30 45 H 39.036754 31.431821 59.748882 0
M  V30 46 H 39.867422 24.905414 54.624925 0
M  V30 47 H 40.738288 31.621525 54.762051 0
M  V30 48 H 39.834550 30.852436 56.012804 0
M  V30 49 H 37.403875 29.628531 53.500334 0
M  V30 50 H 40.575885 31.147975 52.735090 0
M  V30 51 H 41.267367 36.241363 63.838134 0
M  V30 52 H 41.718500 30.809973 50.778973 0
M  V30 53 H 41.094574 29.653804 49.630764 0
M  V30 54 H 38.990277 28.559757 49.998407 0
M  V30 55 H 38.896895 27.714527 51.497106 0
M  V30 56 H 38.018171 29.221430 51.313307 0
M  V30 57 H 40.343911 32.021221 49.114669 0
M  V30 58 H 39.067415 30.898633 49.328937 0
M  V30 59 H 39.440653 32.021339 50.625122 0
M  V30 END ATOM
M  V30 BEGIN BOND
M  V30 1 1 5 1
M  V30 2 2 8 3
M  V30 3 1 9 3
M  V30 4 2 9 7
M  V30 5 1 12 11
M  V30 6 2 13 4
M  V30 7 1 13 12
M  V30 8 1 14 8
M  V30 9 1 16 7
M  V30 10 2 16 14
M  V30 11 1 16 15
M  V30 12 1 17 4
M  V30 13 1 17 9
M  V30 14 2 18 5
M  V30 15 1 18 6
M  V30 16 1 20 2
M  V30 17 1 20 11
M  V30 18 2 21 1
M  V30 19 1 22 2
M  V30 20 1 23 2
M  V30 21 1 23 10
M  V30 22 1 24 14
M  V30 23 1 25 10
M  V30 24 1 26 10
M  V30 25 1 27 25
M  V30 26 1 28 6
M  V30 27 1 28 21
M  V30 28 1 28 22
M  V30 29 1 29 21
M  V30 30 1 29 22
M  V30 31 1 30 17
M  V30 32 3 30 19
M  V30 33 1 31 5
M  V30 34 1 32 1
M  V30 35 1 2 33 CFG=1
M  V30 36 1 34 3
M  V30 37 1 35 4
M  V30 38 1 36 6
M  V30 39 1 37 6
M  V30 40 1 38 7
M  V30 41 1 39 8
M  V30 42 1 10 40 CFG=1
M  V30 43 1 41 11
M  V30 44 1 42 12
M  V30 45 1 43 12
M  V30 46 1 44 13
M  V30 47 1 17 45 CFG=3
M  V30 48 1 46 18
M  V30 49 1 47 20
M  V30 50 1 48 20
M  V30 51 1 22 49 CFG=3
M  V30 52 1 50 23
M  V30 53 1 51 24
M  V30 54 1 52 25
M  V30 55 1 53 25
M  V30 56 1 54 26
M  V30 57 1 55 26
M  V30 58 1 56 26
M  V30 59 1 57 27
M  V30 60 1 58 27
M  V30 61 1 59 27
M  V30 END BOND
M  V30 END CTAB
M  END
>  <i_epik_Tot_Q>  (1) 
0

>  <i_epik_Tot_abs_Q>  (1) 
0

>  <i_i_glide_confnum>  (1) 
108

>  <i_i_glide_lignum>  (1) 
1

>  <i_i_glide_posenum>  (1) 
114

>  <i_i_glide_rotatable_bonds>  (1) 
11

>  <i_lp_mmshare_version>  (1) 
72125

>  <i_m_source_file_index>  (1) 
1

>  <i_f3d_flags>  (1) 
0

>  <num_sample>  (1) 
100

>  <b_lp_Chiralities_Consistent>  (1) 
1

>  <r_epik_Charging_Adjusted_Penalty>  (1) 
0.47819495767320574

>  <r_epik_Ionization_Penalty>  (1) 
0.67182721305937398

>  <r_epik_Ionization_Penalty_Charging>  (1) 
0

>  <r_epik_Ionization_Penalty_Neutral>  (1) 
0.67182721305937398

>  <r_epik_State_Penalty>  (1) 
0.47819495767320574

>  <r_glide_ring_energy>  (1) 
0

>  <r_i_docking_score>  (1) 
-7.1513149364456083

>  <r_i_glide_ecoul>  (1) 
-1.5792218835896079

>  <r_i_glide_eff_state_penalty>  (1) 
0.47819495767320574

>  <r_i_glide_einternal>  (1) 
14.506350559787535

>  <r_i_glide_emodel>  (1) 
-58.941625529972342

>  <r_i_glide_emodel_strain>  (1) 
0.36640771173016162

>  <r_i_glide_energy>  (1) 
-44.575996981702964

>  <r_i_glide_erotb>  (1) 
0.75184865993743433

>  <r_i_glide_esite>  (1) 
-0.035648387648014583

>  <r_i_glide_evdw>  (1) 
-42.996775098113353

>  <r_i_glide_gscore>  (1) 
-7.6295098941188142

>  <r_i_glide_gscore_strain>  (1) 
0

>  <r_i_glide_hbond>  (1) 
0

>  <r_i_glide_ligand_efficiency>  (1) 
-0.23068757859501962

>  <r_i_glide_ligand_efficiency_ln>  (1) 
-1.6128406796509882

>  <r_i_glide_ligand_efficiency_sa>  (1) 
-0.72467749614541366

>  <r_i_glide_lipo>  (1) 
-4.6127722610230295

>  <r_i_glide_metal>  (1) 
-0

>  <r_i_glide_rewards>  (1) 
-1.346215867941096

>  <r_lp_Energy>  (1) 
39.698704999999997

>  <r_lp_tautomer_probability>  (1) 
0.99999999999736477

>  <s_epik_Chemistry_Notes>  (1) 
This compound contains an acetal/aminal-like group ( X-CH(R)-Y where X, Y are N, S, or O) that may be acid/base labile, releasing an aldehyde.

>  <s_epik_cmdline>  (1) 
J2VwaWtfcHl0aG9uJywgJy1waHQnLCAnMS4wJywgJy1waCcsICc3LjQnLCAnLXRuJywgJzgnLCAnLW1hJywgJzUwMCcsICctaW1hZScsICc8aW5maWxlLm1hZT4nLCAnLW9tYWUnLCAnPG91dGZpbGUubWFlPic=

>  <s_epik_input>  (1) 
W0NIXT0xQyhDbCk9W0NIXVtDSDJdTihDMTIpW0NAQEhdKFMyKVtDQEBIXShbTkhdW0NAQEhdKFtDSDNdKVtDSDJdW0NIM10pW0NIMl1bTkhdW0NIMl1cW0NIXT1bQ0hdXFtDQEhdKEMjTiljM1tjSF1bY0hdYyhbT0hdKWMoRilbY0hdMw==

>  <s_glide_docking_method>  (1) 
confgen

>  <s_i_glide_gridfile>  (1) 
gpcr_5ht2c_6bqh_protein_autoprepared_prepared

>  <s_lp_Force_Field>  (1) 
S-OPLS

>  <s_lp_Variant>  (1) 
DiffSBDD_0_num_sample_100-1

>  <s_m_source_file>  (1) 
generated__ligand_DiffSBDD_2026-05-06_prepared.sdf

>  <GenAI_Model>  (1) 
DiffSBDD

>  <Protein>  (1) 
GPCR_5HT2C

$$$$
DiffSBDD_80_num_sample_100
     RDKit          3D

  0  0  0  0  0  0  0  0  0  0999 V3000
M  V30 BEGIN CTAB
M  V30 COUNTS 73 76 0 0 1
M  V30 BEGIN ATOM
M  V30 1 C 40.763197 33.613988 63.185309 0
M  V30 2 C 37.681426 32.865819 59.060725 0
M  V30 3 N 37.867389 32.123519 57.786316 0 CFG=2 CHG=1
M  V30 4 O 41.594749 30.865921 63.163682 0
M  V30 5 O 37.688803 35.015315 60.994389 0
M  V30 6 O 41.120071 34.920338 62.780732 0
M  V30 7 C 39.026951 30.757425 55.465161 0 CFG=2
M  V30 8 C 38.407558 29.942388 56.633283 0 CFG=1
M  V30 9 C 41.064581 28.553202 66.699164 0
M  V30 10 C 40.836358 28.912629 62.085689 0
M  V30 11 O 43.485685 27.127791 63.594706 0
M  V30 12 C 42.692762 27.601208 64.603384 0
M  V30 13 O 38.287959 25.241317 57.462786 0
M  V30 14 C 41.067703 29.217842 65.459091 0
M  V30 15 C 38.217589 27.621802 57.773998 0
M  V30 16 C 42.685471 26.941943 65.847679 0
M  V30 17 O 38.988597 29.933988 60.954926 0
M  V30 18 C 38.360450 32.143321 55.373388 0
M  V30 19 O 41.867380 26.773653 68.096936 0
M  V30 20 C 39.032805 28.560135 56.891153 0
M  V30 21 C 41.872861 27.416483 66.893942 0
M  V30 22 C 40.399971 31.218701 62.467294 0 CFG=1
M  V30 23 C 38.968693 33.261719 59.790775 0 CFG=2
M  V30 24 C 40.448703 32.694710 61.981558 0 CFG=1
M  V30 25 C 38.433170 30.762263 57.943831 0
M  V30 26 C 40.314302 30.150701 61.375826 0 CFG=1
M  V30 27 C 37.867464 26.321030 57.050910 0
M  V30 28 C 39.131515 33.109541 61.309832 0 CFG=1
M  V30 29 C 40.226593 28.194825 56.381252 0
M  V30 30 C 39.613033 30.456975 53.167895 0
M  V30 31 C 38.960564 34.475266 60.693928 0 CFG=2
M  V30 32 C 41.873613 29.468639 63.064429 0 CFG=2
M  V30 33 C 41.879986 28.747773 64.406253 0
M  V30 34 C 38.491795 32.903375 56.696768 0
M  V30 35 O 38.808329 30.035367 54.258238 0
M  V30 36 H 39.905544 33.656977 63.853498 0
M  V30 37 H 41.599524 33.229473 63.769212 0
M  V30 38 H 37.055608 32.277500 59.733069 0
M  V30 39 H 37.107890 33.763707 58.827618 0
M  V30 40 H 37.585964 35.831830 60.528663 0
M  V30 41 H 41.287797 35.445719 63.550624 0
M  V30 42 H 40.093758 30.902719 55.640304 0
M  V30 43 H 37.362507 29.765806 56.370683 0
M  V30 44 H 40.439354 28.915850 67.501878 0
M  V30 45 H 41.154003 27.059754 68.653478 0
M  V30 46 H 41.242664 28.158107 61.410741 0
M  V30 47 H 40.025593 28.444814 62.648499 0
M  V30 48 H 43.478744 27.621096 62.783678 0
M  V30 49 H 40.444536 30.087915 65.314204 0
M  V30 50 H 38.779696 27.397714 58.681220 0
M  V30 51 H 37.289427 28.103723 58.079281 0
M  V30 52 H 43.304095 26.069445 65.998911 0
M  V30 53 H 38.497447 29.614026 61.697537 0
M  V30 54 H 37.308554 32.028562 55.108224 0
M  V30 55 H 38.810975 32.744532 54.588233 0
M  V30 56 H 39.574836 31.086625 63.170534 0
M  V30 57 H 39.867398 33.218691 59.182972 0
M  V30 58 H 41.257010 32.793787 61.256381 0
M  V30 59 H 39.452218 30.821428 58.322064 0
M  V30 60 H 37.839956 30.244747 58.696466 0
M  V30 61 H 40.951429 30.405427 60.528738 0
M  V30 62 H 37.231586 26.425304 56.171717 0
M  V30 63 H 38.259727 32.742613 61.850126 0
M  V30 64 H 40.640834 27.216970 56.583801 0
M  V30 65 H 40.800850 28.861626 55.760866 0
M  V30 66 H 39.455406 29.792922 52.317906 0
M  V30 67 H 39.377738 31.470157 52.845086 0
M  V30 68 H 40.667402 30.421440 53.430119 0
M  V30 69 H 39.777414 35.191562 60.638097 0
M  V30 70 H 42.875261 29.399314 62.653529 0
M  V30 71 H 37.998064 33.872454 56.608387 0
M  V30 72 H 39.541725 33.093442 56.916533 0
M  V30 73 H 36.906197 31.982165 57.453552 0
M  V30 END ATOM
M  V30 BEGIN BOND
M  V30 1 1 3 2
M  V30 2 1 6 1
M  V30 3 1 8 7
M  V30 4 1 12 11
M  V30 5 2 14 9
M  V30 6 1 16 12
M  V30 7 1 18 7
M  V30 8 1 20 8
M  V30 9 1 20 15
M  V30 10 1 21 9
M  V30 11 2 21 16
M  V30 12 1 21 19
M  V30 13 1 22 4
M  V30 14 1 23 2
M  V30 15 1 24 1
M  V30 16 1 24 22
M  V30 17 1 25 3
M  V30 18 1 25 8
M  V30 19 1 26 10
M  V30 20 1 26 17
M  V30 21 1 26 22
M  V30 22 2 27 13
M  V30 23 1 27 15
M  V30 24 1 28 23
M  V30 25 1 28 24
M  V30 26 2 29 20
M  V30 27 1 31 5
M  V30 28 1 31 23
M  V30 29 1 31 28
M  V30 30 1 32 4
M  V30 31 1 32 10
M  V30 32 2 33 12
M  V30 33 1 33 14
M  V30 34 1 33 32
M  V30 35 1 34 3
M  V30 36 1 34 18
M  V30 37 1 35 7
M  V30 38 1 35 30
M  V30 39 1 36 1
M  V30 40 1 37 1
M  V30 41 1 38 2
M  V30 42 1 39 2
M  V30 43 1 40 5
M  V30 44 1 41 6
M  V30 45 1 7 42 CFG=1
M  V30 46 1 8 43 CFG=3
M  V30 47 1 44 9
M  V30 48 1 45 19
M  V30 49 1 46 10
M  V30 50 1 47 10
M  V30 51 1 48 11
M  V30 52 1 49 14
M  V30 53 1 50 15
M  V30 54 1 51 15
M  V30 55 1 52 16
M  V30 56 1 53 17
M  V30 57 1 54 18
M  V30 58 1 55 18
M  V30 59 1 22 56 CFG=1
M  V30 60 1 23 57 CFG=3
M  V30 61 1 24 58 CFG=3
M  V30 62 1 59 25
M  V30 63 1 60 25
M  V30 64 1 26 61 CFG=3
M  V30 65 1 62 27
M  V30 66 1 28 63 CFG=1
M  V30 67 1 64 29
M  V30 68 1 65 29
M  V30 69 1 66 30
M  V30 70 1 67 30
M  V30 71 1 68 30
M  V30 72 1 31 69 CFG=3
M  V30 73 1 32 70 CFG=3
M  V30 74 1 71 34
M  V30 75 1 72 34
M  V30 76 1 3 73 CFG=3
M  V30 END BOND
M  V30 END CTAB
M  END
>  <i_epik_Tot_Q>  (1) 
1

>  <i_epik_Tot_abs_Q>  (1) 
1

>  <i_i_glide_confnum>  (1) 
254

>  <i_i_glide_lignum>  (1) 
211

>  <i_i_glide_posenum>  (1) 
297

>  <i_i_glide_rotatable_bonds>  (1) 
15

>  <i_lp_mmshare_version>  (1) 
72125

>  <i_m_source_file_index>  (1) 
81

>  <i_f3d_flags>  (1) 
0

>  <num_sample>  (1) 
100

>  <b_lp_Chiralities_Consistent>  (1) 
1

>  <r_epik_Charging_Adjusted_Penalty>  (1) 
0.034071705691259377

>  <r_epik_Ionization_Penalty>  (1) 
0.043305258844254187

>  <r_epik_Ionization_Penalty_Charging>  (1) 
0.034071705691259377

>  <r_epik_Ionization_Penalty_Neutral>  (1) 
0.009233553152994808

>  <r_epik_State_Penalty>  (1) 
-0

>  <r_glide_ring_energy>  (1) 
0

>  <r_i_docking_score>  (1) 
-7.1512395919533924

>  <r_i_glide_ecoul>  (1) 
-11.402440315706443

>  <r_i_glide_eff_state_penalty>  (1) 
-0

>  <r_i_glide_einternal>  (1) 
13.062654021302805

>  <r_i_glide_emodel>  (1) 
-69.303687222947701

>  <r_i_glide_emodel_strain>  (1) 
2.0381760539148317

>  <r_i_glide_energy>  (1) 
-54.538854333131908

>  <r_i_glide_erotb>  (1) 
0.67144220787932085

>  <r_i_glide_esite>  (1) 
-0.10000000000000001

>  <r_i_glide_evdw>  (1) 
-43.136414017425466

>  <r_i_glide_gscore>  (1) 
-7.1512395919533924

>  <r_i_glide_gscore_strain>  (1) 
0

>  <r_i_glide_hbond>  (1) 
-0.78365244716148874

>  <r_i_glide_ligand_efficiency>  (1) 
-0.20432113119866835

>  <r_i_glide_ligand_efficiency_ln>  (1) 
-1.5698558036452714

>  <r_i_glide_ligand_efficiency_sa>  (1) 
-0.66834796872358693

>  <r_i_glide_lipo>  (1) 
-2.1600585607919904

>  <r_i_glide_metal>  (1) 
-0

>  <r_i_glide_rewards>  (1) 
-0.91178404365199406

>  <r_lp_Energy>  (1) 
32.799517000000002

>  <r_lp_tautomer_probability>  (1) 
1

>  <s_epik_cmdline>  (1) 
J2VwaWtfcHl0aG9uJywgJy1waHQnLCAnMS4wJywgJy1waCcsICc3LjQnLCAnLXRuJywgJzgnLCAnLW1hJywgJzUwMCcsICctaW1hZScsICc8aW5maWxlLm1hZT4nLCAnLW9tYWUnLCAnPG91dGZpbGUubWFlPic=

>  <s_epik_input>  (1) 
Tz1bQ0hdW0NIMl1DKD1bQ0gyXSlbQ0BASF0oW0NASF0oW0NIMl1bQ0gyXTEpT1tDSDNdKVtDSDJdTjFbQ0gyXVtDQEBIXTJbQ0BASF0oW0NAQEhdMltPSF0pW0NAQEhdKFtDSDJdW09IXSlbQ0BASF0zT1tDQEhdKFtDSDJdW0NASF0zW09IXSlDND1bQ0hdW0NIMl1DKD1PKVtDSF09QzRbT0hd

>  <s_glide_docking_method>  (1) 
confgen

>  <s_i_glide_gridfile>  (1) 
gpcr_5ht2c_6bqh_protein_autoprepared_prepared

>  <s_lp_Force_Field>  (1) 
S-OPLS

>  <s_lp_Variant>  (1) 
DiffSBDD_80_num_sample_100-7

>  <s_m_source_file>  (1) 
generated__ligand_DiffSBDD_2026-05-06_prepared.sdf

>  <GenAI_Model>  (1) 
DiffSBDD

>  <Protein>  (1) 
GPCR_5HT2C

$$$$
DiffSBDD_62_num_sample_100
     RDKit          3D

  0  0  0  0  0  0  0  0  0  0999 V3000
M  V30 BEGIN CTAB
M  V30 COUNTS 81 82 0 0 1
M  V30 BEGIN ATOM
M  V30 1 O 37.867389 23.622024 58.243910 0
M  V30 2 O 40.846387 29.525308 62.257432 0
M  V30 3 C 37.867394 26.976090 52.241547 0
M  V30 4 C 39.516243 33.041908 62.930889 0
M  V30 5 C 39.118957 26.813412 55.936932 0
M  V30 6 C 37.893479 24.731908 56.157687 0
M  V30 7 C 39.881573 31.125223 60.801753 0
M  V30 8 C 38.269450 24.662680 57.496225 0
M  V30 9 C 38.025027 31.311908 57.941557 0
M  V30 10 C 37.344735 28.369057 52.576034 0
M  V30 11 F 37.113824 23.761679 55.616981 0
M  V30 12 C 38.318638 25.800192 55.378744 0
M  V30 13 C 39.485213 29.845368 52.526705 0 CFG=2
M  V30 14 C 39.717144 33.566121 61.503554 0 CFG=1
M  V30 15 C 38.426034 28.953651 54.836901 0 CFG=1
M  V30 16 C 39.563253 27.960099 55.090624 0
M  V30 17 C 40.332729 30.852570 53.289790 0
M  V30 18 O 41.090282 31.187535 65.412465 0
M  V30 19 N 37.542410 31.289321 59.190753 0
M  V30 20 C 39.067195 25.674320 58.065187 0
M  V30 21 O 37.755087 35.055545 61.457458 0
M  V30 22 C 38.526724 30.189010 55.755627 0
M  V30 23 C 39.298989 32.495140 60.465361 0 CFG=2
M  V30 24 C 40.310322 30.778311 62.032342 0
M  V30 25 C 37.786080 32.375467 60.134023 0
M  V30 26 C 38.256771 29.332484 53.346484 0 CFG=2
M  V30 27 C 40.340129 28.852383 51.706399 0
M  V30 28 C 39.861396 28.670573 50.265499 0
M  V30 29 C 40.676466 31.430108 64.338125 0
M  V30 30 C 40.255630 29.827552 49.355081 0
M  V30 31 C 40.810494 28.547956 61.223215 0
M  V30 32 C 40.215984 31.707467 63.138649 0
M  V30 33 C 39.144755 34.980619 61.216790 0 CFG=1
M  V30 34 C 39.835830 36.093426 62.015444 0
M  V30 35 O 38.666907 32.262831 57.489187 0
M  V30 36 C 39.492510 26.750403 57.282955 0
M  V30 37 C 37.759192 30.078708 57.080224 0
M  V30 38 H 37.356005 22.989549 57.760130 0
M  V30 39 H 37.869906 26.821817 51.164064 0
M  V30 40 H 38.835935 26.680852 52.610864 0
M  V30 41 H 37.141863 26.276194 52.653607 0
M  V30 42 H 38.451283 32.864476 63.053485 0
M  V30 43 H 39.868421 33.768850 63.661996 0
M  V30 44 H 39.952497 30.426844 59.983263 0
M  V30 45 H 36.398884 28.256765 53.103991 0
M  V30 46 H 37.069264 28.827032 51.641569 0
M  V30 47 H 38.032803 25.845096 54.362610 0
M  V30 48 H 39.067464 30.437428 51.735108 0
M  V30 49 H 40.797000 33.669092 61.387410 0
M  V30 50 H 37.483278 28.473024 55.102675 0
M  V30 51 H 40.453082 28.433644 55.502502 0
M  V30 52 H 39.867314 27.496522 54.170369 0
M  V30 53 H 40.891932 30.420279 54.116550 0
M  V30 54 H 41.048827 31.302498 52.605690 0
M  V30 55 H 39.710526 31.651114 53.685061 0
M  V30 56 H 37.015594 30.488415 59.505948 0
M  V30 57 H 39.353829 25.621549 59.098264 0
M  V30 58 H 37.434532 35.888663 61.147445 0
M  V30 59 H 39.573327 30.415254 55.959605 0
M  V30 60 H 38.133025 31.075929 55.257365 0
M  V30 61 H 39.806221 32.821623 59.560889 0
M  V30 62 H 37.406618 33.294791 59.689970 0
M  V30 63 H 37.202831 32.200854 61.037437 0
M  V30 64 H 37.615418 30.204503 53.450955 0
M  V30 65 H 41.370985 29.195428 51.649029 0
M  V30 66 H 40.400537 27.885679 52.178806 0
M  V30 67 H 40.267433 27.739968 49.881336 0
M  V30 68 H 38.782634 28.565330 50.223754 0
M  V30 69 H 39.867247 29.621169 48.361352 0
M  V30 70 H 39.813338 30.771803 49.668319 0
M  V30 71 H 41.333037 29.978640 49.289748 0
M  V30 72 H 41.196952 27.621935 61.632788 0
M  V30 73 H 39.794417 28.351255 60.875763 0
M  V30 74 H 41.444316 28.820636 60.377364 0
M  V30 75 H 39.294682 35.194446 60.159656 0
M  V30 76 H 40.910599 36.099265 61.833459 0
M  V30 77 H 39.451852 37.075122 61.738898 0
M  V30 78 H 39.679039 35.977597 63.087125 0
M  V30 79 H 40.104599 27.527732 57.715464 0
M  V30 80 H 36.686474 30.000527 56.894579 0
M  V30 81 H 38.055915 29.186761 57.630442 0
M  V30 END ATOM
M  V30 BEGIN BOND
M  V30 1 1 8 1
M  V30 2 2 8 6
M  V30 3 1 10 3
M  V30 4 1 11 6
M  V30 5 2 12 5
M  V30 6 1 12 6
M  V30 7 1 14 4
M  V30 8 1 16 5
M  V30 9 1 16 15
M  V30 10 1 17 13
M  V30 11 1 19 9
M  V30 12 1 20 8
M  V30 13 1 22 15
M  V30 14 1 23 7
M  V30 15 1 23 14
M  V30 16 1 24 2
M  V30 17 2 24 7
M  V30 18 1 25 19
M  V30 19 1 25 23
M  V30 20 1 26 10
M  V30 21 1 26 13
M  V30 22 1 26 15
M  V30 23 1 27 13
M  V30 24 1 28 27
M  V30 25 2 29 18
M  V30 26 1 30 28
M  V30 27 1 31 2
M  V30 28 1 32 4
M  V30 29 1 32 24
M  V30 30 2 32 29
M  V30 31 1 33 14
M  V30 32 1 33 21
M  V30 33 1 34 33
M  V30 34 2 35 9
M  V30 35 1 36 5
M  V30 36 2 36 20
M  V30 37 1 37 9
M  V30 38 1 37 22
M  V30 39 1 38 1
M  V30 40 1 39 3
M  V30 41 1 40 3
M  V30 42 1 41 3
M  V30 43 1 42 4
M  V30 44 1 43 4
M  V30 45 1 44 7
M  V30 46 1 45 10
M  V30 47 1 46 10
M  V30 48 1 47 12
M  V30 49 1 13 48 CFG=3
M  V30 50 1 14 49 CFG=3
M  V30 51 1 15 50 CFG=1
M  V30 52 1 51 16
M  V30 53 1 52 16
M  V30 54 1 53 17
M  V30 55 1 54 17
M  V30 56 1 55 17
M  V30 57 1 56 19
M  V30 58 1 57 20
M  V30 59 1 58 21
M  V30 60 1 59 22
M  V30 61 1 60 22
M  V30 62 1 23 61 CFG=3
M  V30 63 1 62 25
M  V30 64 1 63 25
M  V30 65 1 26 64 CFG=1
M  V30 66 1 65 27
M  V30 67 1 66 27
M  V30 68 1 67 28
M  V30 69 1 68 28
M  V30 70 1 69 30
M  V30 71 1 70 30
M  V30 72 1 71 30
M  V30 73 1 72 31
M  V30 74 1 73 31
M  V30 75 1 74 31
M  V30 76 1 33 75 CFG=3
M  V30 77 1 76 34
M  V30 78 1 77 34
M  V30 79 1 78 34
M  V30 80 1 79 36
M  V30 81 1 80 37
M  V30 82 1 81 37
M  V30 END BOND
M  V30 END CTAB
M  END
>  <i_epik_Tot_Q>  (1) 
0

>  <i_epik_Tot_abs_Q>  (1) 
0

>  <i_i_glide_confnum>  (1) 
3271

>  <i_i_glide_lignum>  (1) 
157

>  <i_i_glide_posenum>  (1) 
243

>  <i_i_glide_rotatable_bonds>  (1) 
17

>  <i_lp_mmshare_version>  (1) 
72125

>  <i_m_source_file_index>  (1) 
63

>  <i_f3d_flags>  (1) 
0

>  <num_sample>  (1) 
100

>  <b_lp_Chiralities_Consistent>  (1) 
1

>  <r_epik_Charging_Adjusted_Penalty>  (1) 
0.018006221857045448

>  <r_epik_Ionization_Penalty>  (1) 
0.018006279539151737

>  <r_epik_Ionization_Penalty_Charging>  (1) 
0

>  <r_epik_Ionization_Penalty_Neutral>  (1) 
0.018006279539151737

>  <r_epik_State_Penalty>  (1) 
0.018006221857045448

>  <r_glide_ring_energy>  (1) 
0

>  <r_i_docking_score>  (1) 
-7.1497994574432262

>  <r_i_glide_ecoul>  (1) 
-0.24212758402421927

>  <r_i_glide_eff_state_penalty>  (1) 
0.018006221857045448

>  <r_i_glide_einternal>  (1) 
11.395233584536768

>  <r_i_glide_emodel>  (1) 
-44.238353388589005

>  <r_i_glide_emodel_strain>  (1) 
1.0517718890718015

>  <r_i_glide_energy>  (1) 
-30.62613523552886

>  <r_i_glide_erotb>  (1) 
0.91941413916602621

>  <r_i_glide_esite>  (1) 
-0.16400744984984494

>  <r_i_glide_evdw>  (1) 
-30.384007651504639

>  <r_i_glide_gscore>  (1) 
-7.1678056793002716

>  <r_i_glide_gscore_strain>  (1) 
0

>  <r_i_glide_hbond>  (1) 
-0.18104652285037134

>  <r_i_glide_ligand_efficiency>  (1) 
-0.19323782317414126

>  <r_i_glide_ligand_efficiency_ln>  (1) 
-1.5506238872387623

>  <r_i_glide_ligand_efficiency_sa>  (1) 
-0.6439112969453703

>  <r_i_glide_lipo>  (1) 
-5.0626929007937207

>  <r_i_glide_metal>  (1) 
-0

>  <r_i_glide_rewards>  (1) 
-1.1239534247934955

>  <r_lp_Energy>  (1) 
35.726849999999999

>  <r_lp_tautomer_probability>  (1) 
0.99999999999736477

>  <s_epik_cmdline>  (1) 
J2VwaWtfcHl0aG9uJywgJy1waHQnLCAnMS4wJywgJy1waCcsICc3LjQnLCAnLXRuJywgJzgnLCAnLW1hJywgJzUwMCcsICctaW1hZScsICc8aW5maWxlLm1hZT4nLCAnLW9tYWUnLCAnPG91dGZpbGUubWFlPic=

>  <s_epik_input>  (1) 
W2NIXTFbY0hdYyhbT0hdKWMoRilbY0hdYzFbQ0gyXVtDQEhdKFtDQEhdKFtDSDJdW0NIM10pW0NAQEhdKFtDSDNdKVtDSDJdW0NIMl1bQ0gzXSlbQ0gyXVtDSDJdQyg9TylbTkhdW0NIMl1bQ0BASF0yW0NIXT1DKE9bQ0gzXSlDKD1DPU8pW0NIMl1bQ0BASF0yW0NAQEhdKFtPSF0pW0NIM10=

>  <s_glide_docking_method>  (1) 
confgen

>  <s_i_glide_gridfile>  (1) 
gpcr_5ht2c_6bqh_protein_autoprepared_prepared

>  <s_lp_Force_Field>  (1) 
S-OPLS

>  <s_lp_Variant>  (1) 
DiffSBDD_62_num_sample_100-1

>  <s_m_source_file>  (1) 
generated__ligand_DiffSBDD_2026-05-06_prepared.sdf

>  <GenAI_Model>  (1) 
DiffSBDD

>  <Protein>  (1) 
GPCR_5HT2C

$$$$
DiffSBDD_80_num_sample_100
     RDKit          3D

  0  0  0  0  0  0  0  0  0  0999 V3000
M  V30 BEGIN CTAB
M  V30 COUNTS 73 76 0 0 1
M  V30 BEGIN ATOM
M  V30 1 C 37.470448 29.309508 58.897332 0
M  V30 2 C 38.321771 34.128866 60.475189 0
M  V30 3 N 39.139280 34.921070 61.432324 0 CFG=1 CHG=1
M  V30 4 O 38.980700 30.017961 56.370501 0
M  V30 5 O 37.098440 31.813794 61.830246 0
M  V30 6 O 36.087825 29.621878 58.935802 0
M  V30 7 C 41.168840 35.977549 63.265202 0 CFG=2
M  V30 8 C 39.907010 35.339851 63.786801 0 CFG=1
M  V30 9 C 39.846666 29.753108 51.501593 0
M  V30 10 C 38.867238 32.050311 55.200492 0
M  V30 11 O 38.078942 28.137882 54.929845 0
M  V30 12 C 38.655662 28.672003 53.816725 0
M  V30 13 O 39.751022 35.443627 67.054509 0
M  V30 14 C 39.937689 30.441920 52.721496 0
M  V30 15 C 39.307394 37.245178 65.507930 0
M  V30 16 C 38.560957 27.990064 52.589128 0
M  V30 17 O 37.867404 33.370787 56.943898 0
M  V30 18 C 40.948632 36.520020 61.841857 0
M  V30 19 O 39.067658 27.868342 50.254157 0
M  V30 20 C 38.890881 36.421464 64.279890 0
M  V30 21 C 39.158306 28.529488 51.435377 0
M  V30 22 C 38.224308 30.943299 57.143487 0 CFG=1
M  V30 23 C 38.807384 32.703439 60.241738 0 CFG=2
M  V30 24 C 38.317920 30.571665 58.636914 0 CFG=1
M  V30 25 C 39.463322 34.277825 62.725758 0
M  V30 26 C 38.749161 32.307817 56.685734 0 CFG=1
M  V30 27 C 40.093211 36.545048 66.630324 0
M  V30 28 C 37.889095 31.686452 59.583803 0 CFG=1
M  V30 29 C 37.704350 36.630030 63.673252 0
M  V30 30 C 42.778556 35.027074 64.773864 0
M  V30 31 C 38.238197 31.544473 61.042380 0 CFG=2
M  V30 32 C 39.496020 30.662294 55.205674 0 CFG=2
M  V30 33 C 39.353769 29.907686 53.885877 0
M  V30 34 C 40.357631 35.507058 60.863507 0
M  V30 35 O 42.240273 35.064627 63.453399 0
M  V30 36 H 37.641103 28.555895 58.127854 0
M  V30 37 H 37.758075 28.852754 59.844125 0
M  V30 38 H 38.266413 34.641143 59.513745 0
M  V30 39 H 37.295552 34.116730 60.842051 0
M  V30 40 H 36.349609 31.842355 61.250566 0
M  V30 41 H 35.863788 30.173191 58.191969 0
M  V30 42 H 41.407713 36.821428 63.854453 0
M  V30 43 H 40.267351 34.764251 64.636775 0
M  V30 44 H 40.303891 30.167075 50.614177 0
M  V30 45 H 39.284969 28.406341 49.508177 0
M  V30 46 H 39.457103 32.788431 54.664311 0
M  V30 47 H 37.873739 32.018743 54.746148 0
M  V30 48 H 38.260130 28.695654 55.680878 0
M  V30 49 H 40.468108 31.379973 52.767560 0
M  V30 50 H 39.865686 38.117054 65.175752 0
M  V30 51 H 38.396705 37.621860 65.971809 0
M  V30 52 H 38.031081 27.049432 52.532705 0
M  V30 53 H 36.995194 33.109081 56.654299 0
M  V30 54 H 41.867262 36.908236 61.453054 0
M  V30 55 H 40.272419 37.374710 61.897141 0
M  V30 56 H 37.198307 30.821965 56.801204 0
M  V30 57 H 39.853612 32.640704 59.951053 0
M  V30 58 H 39.357075 30.319215 58.855732 0
M  V30 59 H 38.667824 33.623140 63.052875 0
M  V30 60 H 40.285030 33.577667 62.567151 0
M  V30 61 H 39.725307 32.534534 57.107842 0
M  V30 62 H 40.953720 37.094535 67.012512 0
M  V30 63 H 36.897389 32.072167 59.344825 0
M  V30 64 H 37.020867 37.382301 64.036573 0
M  V30 65 H 37.398988 36.056512 62.816561 0
M  V30 66 H 43.676518 34.421520 64.772020 0
M  V30 67 H 43.054974 36.020605 65.125312 0
M  V30 68 H 42.122664 34.570815 65.512598 0
M  V30 69 H 38.889777 30.746854 61.394837 0
M  V30 70 H 40.566520 30.779304 55.375158 0
M  V30 71 H 41.067404 34.718202 60.667077 0
M  V30 72 H 40.127853 35.983734 59.918760 0
M  V30 73 H 38.555317 35.711364 61.662655 0
M  V30 END ATOM
M  V30 BEGIN BOND
M  V30 1 1 3 2
M  V30 2 1 6 1
M  V30 3 1 8 7
M  V30 4 1 12 11
M  V30 5 2 14 9
M  V30 6 1 16 12
M  V30 7 1 18 7
M  V30 8 1 20 8
M  V30 9 1 20 15
M  V30 10 1 21 9
M  V30 11 2 21 16
M  V30 12 1 21 19
M  V30 13 1 22 4
M  V30 14 1 23 2
M  V30 15 1 24 1
M  V30 16 1 24 22
M  V30 17 1 25 3
M  V30 18 1 25 8
M  V30 19 1 26 10
M  V30 20 1 26 17
M  V30 21 1 26 22
M  V30 22 2 27 13
M  V30 23 1 27 15
M  V30 24 1 28 23
M  V30 25 1 28 24
M  V30 26 2 29 20
M  V30 27 1 31 5
M  V30 28 1 31 23
M  V30 29 1 31 28
M  V30 30 1 32 4
M  V30 31 1 32 10
M  V30 32 2 33 12
M  V30 33 1 33 14
M  V30 34 1 33 32
M  V30 35 1 34 3
M  V30 36 1 34 18
M  V30 37 1 35 7
M  V30 38 1 35 30
M  V30 39 1 36 1
M  V30 40 1 37 1
M  V30 41 1 38 2
M  V30 42 1 39 2
M  V30 43 1 40 5
M  V30 44 1 41 6
M  V30 45 1 7 42 CFG=1
M  V30 46 1 8 43 CFG=1
M  V30 47 1 44 9
M  V30 48 1 45 19
M  V30 49 1 46 10
M  V30 50 1 47 10
M  V30 51 1 48 11
M  V30 52 1 49 14
M  V30 53 1 50 15
M  V30 54 1 51 15
M  V30 55 1 52 16
M  V30 56 1 53 17
M  V30 57 1 54 18
M  V30 58 1 55 18
M  V30 59 1 22 56 CFG=3
M  V30 60 1 23 57 CFG=3
M  V30 61 1 24 58 CFG=1
M  V30 62 1 59 25
M  V30 63 1 60 25
M  V30 64 1 26 61 CFG=1
M  V30 65 1 62 27
M  V30 66 1 28 63 CFG=1
M  V30 67 1 64 29
M  V30 68 1 65 29
M  V30 69 1 66 30
M  V30 70 1 67 30
M  V30 71 1 68 30
M  V30 72 1 31 69 CFG=3
M  V30 73 1 32 70 CFG=1
M  V30 74 1 71 34
M  V30 75 1 72 34
M  V30 76 1 3 73 CFG=1
M  V30 END BOND
M  V30 END CTAB
M  END
>  <i_epik_Tot_Q>  (1) 
1

>  <i_epik_Tot_abs_Q>  (1) 
1

>  <i_i_glide_confnum>  (1) 
841

>  <i_i_glide_lignum>  (1) 
212

>  <i_i_glide_posenum>  (1) 
13

>  <i_i_glide_rotatable_bonds>  (1) 
15

>  <i_lp_mmshare_version>  (1) 
72125

>  <i_m_source_file_index>  (1) 
81

>  <i_f3d_flags>  (1) 
0

>  <num_sample>  (1) 
100

>  <b_lp_Chiralities_Consistent>  (1) 
1

>  <r_epik_Charging_Adjusted_Penalty>  (1) 
0.034071705691259377

>  <r_epik_Ionization_Penalty>  (1) 
0.043305258844254187

>  <r_epik_Ionization_Penalty_Charging>  (1) 
0.034071705691259377

>  <r_epik_Ionization_Penalty_Neutral>  (1) 
0.009233553152994808

>  <r_epik_State_Penalty>  (1) 
-0

>  <r_glide_ring_energy>  (1) 
0

>  <r_i_docking_score>  (1) 
-7.1403921851543473

>  <r_i_glide_ecoul>  (1) 
-9.5756388969286235

>  <r_i_glide_eff_state_penalty>  (1) 
-0

>  <r_i_glide_einternal>  (1) 
12.784427073811734

>  <r_i_glide_emodel>  (1) 
-48.485372539881396

>  <r_i_glide_emodel_strain>  (1) 
4.2876170276343828

>  <r_i_glide_energy>  (1) 
-36.965623609344128

>  <r_i_glide_erotb>  (1) 
0.67144220787932085

>  <r_i_glide_esite>  (1) 
0

>  <r_i_glide_evdw>  (1) 
-27.389984712415504

>  <r_i_glide_gscore>  (1) 
-7.1403921851543473

>  <r_i_glide_gscore_strain>  (1) 
0.071904256908595698

>  <r_i_glide_hbond>  (1) 
-0.61022034972335415

>  <r_i_glide_ligand_efficiency>  (1) 
-0.2040112052901242

>  <r_i_glide_ligand_efficiency_ln>  (1) 
-1.5674745571076583

>  <r_i_glide_ligand_efficiency_sa>  (1) 
-0.66733418052549354

>  <r_i_glide_lipo>  (1) 
-3.73878761961952

>  <r_i_glide_metal>  (1) 
-0

>  <r_i_glide_rewards>  (1) 
-0.7288856104393201

>  <r_lp_Energy>  (1) 
34.886631000000001

>  <r_lp_tautomer_probability>  (1) 
1

>  <s_epik_cmdline>  (1) 
J2VwaWtfcHl0aG9uJywgJy1waHQnLCAnMS4wJywgJy1waCcsICc3LjQnLCAnLXRuJywgJzgnLCAnLW1hJywgJzUwMCcsICctaW1hZScsICc8aW5maWxlLm1hZT4nLCAnLW9tYWUnLCAnPG91dGZpbGUubWFlPic=

>  <s_epik_input>  (1) 
Tz1bQ0hdW0NIMl1DKD1bQ0gyXSlbQ0BASF0oW0NASF0oW0NIMl1bQ0gyXTEpT1tDSDNdKVtDSDJdTjFbQ0gyXVtDQEBIXTJbQ0BASF0oW0NAQEhdMltPSF0pW0NAQEhdKFtDSDJdW09IXSlbQ0BASF0zT1tDQEhdKFtDSDJdW0NASF0zW09IXSlDND1bQ0hdW0NIMl1DKD1PKVtDSF09QzRbT0hd

>  <s_glide_docking_method>  (1) 
confgen

>  <s_i_glide_gridfile>  (1) 
gpcr_5ht2c_6bqh_protein_autoprepared_prepared

>  <s_lp_Force_Field>  (1) 
S-OPLS

>  <s_lp_Variant>  (1) 
DiffSBDD_80_num_sample_100-8

>  <s_m_source_file>  (1) 
generated__ligand_DiffSBDD_2026-05-06_prepared.sdf

>  <GenAI_Model>  (1) 
DiffSBDD

>  <Protein>  (1) 
GPCR_5HT2C

$$$$
DiffSBDD_66_num_sample_100
     RDKit          3D

  0  0  0  0  0  0  0  0  0  0999 V3000
M  V30 BEGIN CTAB
M  V30 COUNTS 112 116 0 0 1
M  V30 BEGIN ATOM
M  V30 1 C 38.700724 27.245029 56.578082 0
M  V30 2 C 41.930395 31.423628 63.066293 0
M  V30 3 C 34.667565 34.037323 59.158932 0
M  V30 4 C 40.022159 36.030246 66.691716 0
M  V30 5 C 44.829018 24.679827 69.569189 0
M  V30 6 C 46.922440 26.193455 69.770071 0
M  V30 7 C 35.730930 32.368496 60.567299 0
M  V30 8 S 41.370639 34.542353 63.048459 0
M  V30 9 C 40.937341 31.980853 62.071048 0 CFG=1
M  V30 10 C 38.859178 27.168915 58.049852 0
M  V30 11 C 38.950858 30.183785 57.447292 0
M  V30 12 C 38.660040 29.638393 58.646721 0
M  V30 13 C 43.163307 26.681777 69.124702 0
M  V30 14 C 38.177264 26.662402 54.523612 0
M  V30 15 C 42.694051 31.603186 66.525815 0 CFG=2
M  V30 16 C 39.584021 29.484607 56.293764 0
M  V30 17 C 38.050072 30.528222 59.718726 0
M  V30 18 O 41.467054 27.459104 70.650588 0
M  V30 19 C 38.150319 32.603055 61.304992 0 CFG=1
M  V30 20 N 38.244089 26.253685 55.832426 0 CHG=1
M  V30 21 C 34.612453 32.822481 59.853675 0
M  V30 22 C 36.923470 33.122895 60.565602 0
M  V30 23 C 43.853560 25.746044 70.118122 0
M  V30 24 C 38.824172 28.929686 53.356421 0
M  V30 25 C 38.853329 28.201885 58.943344 0
M  V30 26 C 42.516391 33.120060 66.181516 0
M  V30 27 C 46.120603 25.208396 68.908221 0 CFG=1
M  V30 28 C 41.736801 31.182103 67.686329 0
M  V30 29 C 38.951575 31.530128 60.505042 0 CFG=1
M  V30 30 C 40.013471 30.878994 61.443162 0 CFG=2
M  V30 31 C 42.371190 36.021194 65.900728 0
M  V30 32 C 42.308882 30.159704 68.656237 0
M  V30 33 N 38.970658 28.279051 55.803244 0
M  V30 34 C 36.974070 34.348776 59.867350 0
M  V30 35 C 38.645727 27.969764 54.489628 0
M  V30 36 C 44.181920 31.447017 66.950609 0
M  V30 37 O 46.951600 24.096924 68.653486 0
M  V30 38 C 42.516035 30.658241 65.303511 0
M  V30 39 C 41.098525 33.788126 66.167166 0
M  V30 40 C 41.017017 35.309946 65.749314 0
M  V30 41 C 40.189787 33.196357 62.691918 0 CFG=2
M  V30 42 N 41.576413 31.147224 64.281728 0 CHG=1
M  V30 43 C 41.875046 28.895012 68.770076 0
M  V30 44 C 40.546689 35.581117 64.288063 0
M  V30 45 C 35.844601 34.806337 59.176180 0
M  V30 46 C 39.378619 29.926627 62.481499 0
M  V30 47 C 43.172359 26.456895 67.794419 0
M  V30 48 C 42.461720 27.890711 69.750708 0 CFG=2
M  V30 49 C 39.108052 33.721230 61.753577 0
M  V30 50 H 42.964802 31.251325 62.790111 0
M  V30 51 H 33.802650 34.388151 58.617414 0
M  V30 52 H 39.024670 35.596444 66.653735 0
M  V30 53 H 39.911850 37.081847 66.423321 0
M  V30 54 H 40.355850 36.001872 67.729581 0
M  V30 55 H 45.116301 24.049079 70.411314 0
M  V30 56 H 44.304755 24.014179 68.881956 0
M  V30 57 H 46.376543 27.126410 69.916840 0
M  V30 58 H 47.867348 26.447563 69.288751 0
M  V30 59 H 47.144190 25.775195 70.753264 0
M  V30 60 H 35.683283 31.430961 61.099491 0
M  V30 61 H 38.936683 26.168247 58.450990 0
M  V30 62 H 38.758571 31.237714 57.299961 0
M  V30 63 H 37.818775 26.018026 53.733421 0
M  V30 64 H 39.652503 30.201819 55.478161 0
M  V30 65 H 40.607091 29.221487 56.560270 0
M  V30 66 H 37.326535 31.084773 59.129090 0
M  V30 67 H 37.441707 29.930951 60.391782 0
M  V30 68 H 40.668607 27.293519 70.158703 0
M  V30 69 H 37.744452 32.144696 62.206648 0
M  V30 70 H 33.710114 32.238889 59.840921 0
M  V30 71 H 43.065920 25.235479 70.673936 0
M  V30 72 H 44.372109 26.358108 70.856641 0
M  V30 73 H 38.541582 28.459473 52.414422 0
M  V30 74 H 39.860712 29.253398 53.277814 0
M  V30 75 H 38.193023 29.806025 53.502379 0
M  V30 76 H 38.922296 27.930393 59.987260 0
M  V30 77 H 43.077471 33.615418 66.968227 0
M  V30 78 H 43.044663 33.347380 65.255981 0
M  V30 79 H 45.894112 25.678042 67.951007 0
M  V30 80 H 41.519296 32.041376 68.320923 0
M  V30 81 H 40.773159 30.849693 67.295148 0
M  V30 82 H 39.467319 32.088671 59.728742 0
M  V30 83 H 40.643957 30.252230 60.810437 0
M  V30 84 H 42.959992 36.021229 64.983217 0
M  V30 85 H 42.990863 35.589152 66.653483 0
M  V30 86 H 42.260720 37.038491 66.253522 0
M  V30 87 H 43.118806 30.499723 69.287335 0
M  V30 88 H 37.876012 34.938230 59.859244 0
M  V30 89 H 44.855820 31.839457 66.186046 0
M  V30 90 H 44.460707 30.402316 67.104358 0
M  V30 91 H 44.403744 31.984979 67.873758 0
M  V30 92 H 47.751991 24.401424 68.252153 0
M  V30 93 H 43.474106 30.489114 64.807575 0
M  V30 94 H 42.158698 29.676271 65.617683 0
M  V30 95 H 40.395345 33.201895 65.586843 0
M  V30 96 H 40.710696 33.710624 67.181428 0
M  V30 97 H 39.688585 32.891188 63.605282 0
M  V30 98 H 41.066856 28.546884 68.143895 0
M  V30 99 H 39.467517 35.621313 64.158612 0
M  V30 100 H 40.819040 36.600803 64.021442 0
M  V30 101 H 35.880984 35.746799 58.653502 0
M  V30 102 H 38.853624 30.458561 63.272644 0
M  V30 103 H 40.129162 29.294145 62.956591 0
M  V30 104 H 38.669481 29.239255 62.031671 0
M  V30 105 H 42.679977 27.129000 67.109688 0
M  V30 106 H 43.671510 25.596822 67.377345 0
M  V30 107 H 43.215064 28.409317 70.344446 0
M  V30 108 H 38.552626 34.515282 62.253480 0
M  V30 109 H 39.594231 34.176614 60.889898 0
M  V30 110 H 37.965137 25.344462 56.179534 0
M  V30 111 H 41.530288 32.380728 61.246777 0
M  V30 112 H 40.612630 31.293691 64.565910 0
M  V30 END ATOM
M  V30 BEGIN BOND
M  V30 1 1 9 2
M  V30 2 1 10 1
M  V30 3 2 12 11
M  V30 4 1 16 11
M  V30 5 1 17 12
M  V30 6 2 20 1
M  V30 7 1 20 14
M  V30 8 2 21 3
M  V30 9 1 21 7
M  V30 10 2 22 7
M  V30 11 1 22 19
M  V30 12 1 23 5
M  V30 13 1 23 13
M  V30 14 2 25 10
M  V30 15 1 25 12
M  V30 16 1 26 15
M  V30 17 1 27 5
M  V30 18 1 27 6
M  V30 19 1 15 28 CFG=1
M  V30 20 1 29 17
M  V30 21 1 29 19
M  V30 22 1 30 9
M  V30 23 1 30 29
M  V30 24 1 32 28
M  V30 25 1 33 1
M  V30 26 1 33 16
M  V30 27 1 34 22
M  V30 28 2 35 14
M  V30 29 1 35 24
M  V30 30 1 35 33
M  V30 31 1 36 15
M  V30 32 1 37 27
M  V30 33 1 38 15
M  V30 34 1 39 26
M  V30 35 1 40 4
M  V30 36 1 40 31
M  V30 37 1 40 39
M  V30 38 1 41 8
M  V30 39 1 41 9
M  V30 40 2 42 2
M  V30 41 1 42 38
M  V30 42 2 43 32
M  V30 43 1 44 8
M  V30 44 1 44 40
M  V30 45 1 45 3
M  V30 46 2 45 34
M  V30 47 1 46 30
M  V30 48 2 47 13
M  V30 49 1 48 13
M  V30 50 1 48 18
M  V30 51 1 48 43
M  V30 52 1 49 19
M  V30 53 1 49 41
M  V30 54 1 50 2
M  V30 55 1 51 3
M  V30 56 1 52 4
M  V30 57 1 53 4
M  V30 58 1 54 4
M  V30 59 1 55 5
M  V30 60 1 56 5
M  V30 61 1 57 6
M  V30 62 1 58 6
M  V30 63 1 59 6
M  V30 64 1 60 7
M  V30 65 1 61 10
M  V30 66 1 62 11
M  V30 67 1 63 14
M  V30 68 1 64 16
M  V30 69 1 65 16
M  V30 70 1 66 17
M  V30 71 1 67 17
M  V30 72 1 68 18
M  V30 73 1 19 69 CFG=1
M  V30 74 1 70 21
M  V30 75 1 71 23
M  V30 76 1 72 23
M  V30 77 1 73 24
M  V30 78 1 74 24
M  V30 79 1 75 24
M  V30 80 1 76 25
M  V30 81 1 77 26
M  V30 82 1 78 26
M  V30 83 1 27 79 CFG=3
M  V30 84 1 80 28
M  V30 85 1 81 28
M  V30 86 1 29 82 CFG=3
M  V30 87 1 30 83 CFG=3
M  V30 88 1 84 31
M  V30 89 1 85 31
M  V30 90 1 86 31
M  V30 91 1 87 32
M  V30 92 1 88 34
M  V30 93 1 89 36
M  V30 94 1 90 36
M  V30 95 1 91 36
M  V30 96 1 92 37
M  V30 97 1 93 38
M  V30 98 1 94 38
M  V30 99 1 95 39
M  V30 100 1 96 39
M  V30 101 1 41 97 CFG=1
M  V30 102 1 98 43
M  V30 103 1 99 44
M  V30 104 1 100 44
M  V30 105 1 101 45
M  V30 106 1 102 46
M  V30 107 1 103 46
M  V30 108 1 104 46
M  V30 109 1 105 47
M  V30 110 1 106 47
M  V30 111 1 48 107 CFG=1
M  V30 112 1 108 49
M  V30 113 1 109 49
M  V30 114 1 110 20
M  V30 115 1 9 111 CFG=3
M  V30 116 1 112 42
M  V30 END BOND
M  V30 END CTAB
M  END
>  <i_epik_Tot_Q>  (1) 
2

>  <i_epik_Tot_abs_Q>  (1) 
2

>  <i_i_glide_confnum>  (1) 
271

>  <i_i_glide_lignum>  (1) 
166

>  <i_i_glide_posenum>  (1) 
176

>  <i_i_glide_rotatable_bonds>  (1) 
12

>  <i_lp_mmshare_version>  (1) 
72125

>  <i_m_source_file_index>  (1) 
67

>  <i_f3d_flags>  (1) 
0

>  <num_sample>  (1) 
100

>  <b_lp_Chiralities_Consistent>  (1) 
1

>  <r_epik_Charging_Adjusted_Penalty>  (1) 
0.52025287817150023

>  <r_epik_Ionization_Penalty>  (1) 
3.4472135568412989

>  <r_epik_Ionization_Penalty_Charging>  (1) 
0.14055655438482481

>  <r_epik_Ionization_Penalty_Neutral>  (1) 
3.3066570024564741

>  <r_epik_State_Penalty>  (1) 
0.37969632378667539

>  <r_glide_ring_energy>  (1) 
0

>  <r_i_docking_score>  (1) 
-7.1358381750516902

>  <r_i_glide_ecoul>  (1) 
-2.7459892448168639

>  <r_i_glide_eff_state_penalty>  (1) 
0.37969632378667539

>  <r_i_glide_einternal>  (1) 
11.754093273649227

>  <r_i_glide_emodel>  (1) 
-76.100862676490578

>  <r_i_glide_emodel_strain>  (1) 
5.3207003627459244

>  <r_i_glide_energy>  (1) 
-50.466956970064963

>  <r_i_glide_erotb>  (1) 
0.28524200512041686

>  <r_i_glide_esite>  (1) 
0

>  <r_i_glide_evdw>  (1) 
-47.720967725248101

>  <r_i_glide_gscore>  (1) 
-7.5155344988383659

>  <r_i_glide_gscore_strain>  (1) 
0.3301750906864811

>  <r_i_glide_hbond>  (1) 
-0.32000000000000001

>  <r_i_glide_ligand_efficiency>  (1) 
-0.14562935051125897

>  <r_i_glide_ligand_efficiency_ln>  (1) 
-1.4587286000280453

>  <r_i_glide_ligand_efficiency_sa>  (1) 
-0.53290231387278686

>  <r_i_glide_lipo>  (1) 
-4.1200609699103481

>  <r_i_glide_metal>  (1) 
-0

>  <r_i_glide_rewards>  (1) 
-0.89294385174998081

>  <r_lp_Energy>  (1) 
64.638955999999993

>  <s_epik_Chemistry_Notes>  (1) 
This compound has an imine and may undergo hydrolysis.

>  <s_epik_cmdline>  (1) 
J2VwaWtfcHl0aG9uJywgJy1waHQnLCAnMS4wJywgJy1waCcsICc3LjQnLCAnLXRuJywgJzgnLCAnLW1hJywgJzUwMCcsICctaW1hZScsICc8aW5maWxlLm1hZT4nLCAnLW9tYWUnLCAnPG91dGZpbGUubWFlPic=

>  <s_epik_input>  (1) 
bjFbY0hdYyhbQ0gzXSluKGMxMilbQ0gyXVtDSF09QyhbQ0hdPVtDSF0yKVtDSDJdW0NASF0oW0NAQEhdM1tDSDNdKVtDQEhdKGM0W2NIXVtjSF1bY0hdW2NIXVtjSF00KVtDSDJdW0NAQEhdKFtDQEhdMzUpU1tDSDJdQyhbQ0gzXSkoW0NIM10pW0NIMl1bQ0gyXVtDQF0oW0NIM10pKFtDSDJdXE49W0NIXVw1KVtDSDJdL1tDSF09W0NIXS9bQ0BASF0oW09IXSlDKD1bQ0gyXSlbQ0gyXVtDSDJdW0NAQEhdKFtDSDNdKVtPSF0=

>  <s_glide_docking_method>  (1) 
confgen

>  <s_i_glide_gridfile>  (1) 
gpcr_5ht2c_6bqh_protein_autoprepared_prepared

>  <s_lp_Force_Field>  (1) 
S-OPLS

>  <s_lp_Variant>  (1) 
DiffSBDD_66_num_sample_100-3

>  <s_m_source_file>  (1) 
generated__ligand_DiffSBDD_2026-05-06_prepared.sdf

>  <GenAI_Model>  (1) 
DiffSBDD

>  <Protein>  (1) 
GPCR_5HT2C

$$$$
DiffSBDD_29_num_sample_100
     RDKit          3D

  0  0  0  0  0  0  0  0  0  0999 V3000
M  V30 BEGIN CTAB
M  V30 COUNTS 85 89 0 0 1
M  V30 BEGIN ATOM
M  V30 1 F 38.156808 27.243830 53.000142 0
M  V30 2 C 40.109407 29.318781 59.032850 0
M  V30 3 C 38.222054 29.464995 54.886957 0
M  V30 4 C 38.536508 34.249747 60.603245 0 CFG=2
M  V30 5 C 39.092864 39.055656 61.194365 0
M  V30 6 C 39.580215 34.021465 59.511086 0
M  V30 7 C 39.451578 28.545652 51.616770 0
M  V30 8 N 38.764757 29.585258 58.512806 0
M  V30 9 C 40.611401 34.632279 62.205494 0 CFG=1
M  V30 10 C 36.121801 38.975165 61.762196 0
M  V30 11 C 36.315627 29.726069 59.203249 0
M  V30 12 C 36.889743 37.671322 61.548413 0 CFG=2
M  V30 13 C 38.815235 28.384325 52.733018 0
M  V30 14 C 37.038821 30.604811 60.185020 0 CFG=2
M  V30 15 C 40.031983 27.008436 58.041502 0
M  V30 16 C 42.306025 34.778022 64.186055 0
M  V30 17 C 39.134751 35.012336 61.853048 0 CFG=1
M  V30 18 C 37.307130 32.052220 59.812722 0 CFG=1
M  V30 19 C 39.667403 30.590781 53.129692 0
M  V30 20 N 38.686772 27.331450 57.575159 0
M  V30 21 N 38.871808 29.424409 53.586015 0
M  V30 22 F 39.513524 27.620082 50.650170 0
M  V30 23 S 37.340246 36.821432 63.060027 0
M  V30 24 C 38.473056 28.762797 57.324628 0 CFG=2
M  V30 25 C 40.340028 27.826441 59.299196 0
M  V30 26 C 40.464153 33.098808 64.226841 0
M  V30 27 O 36.073126 32.646983 59.453495 0
M  V30 28 C 38.853538 36.548509 62.105285 0 CFG=2
M  V30 29 C 37.942477 32.858140 60.982271 0
M  V30 30 C 36.887594 40.283352 61.453571 0
M  V30 31 C 38.186424 40.148671 60.665361 0
M  V30 32 C 39.204378 29.269316 56.056060 0
M  V30 33 O 41.467387 35.584295 61.607238 0
M  V30 34 C 38.376515 37.675103 61.107799 0 CFG=2
M  V30 35 C 37.753045 29.404029 59.556725 0 CFG=2
M  V30 36 C 40.864097 34.504067 63.736904 0
M  V30 37 O 37.461529 34.963887 60.044831 0
M  V30 38 S 40.267203 30.055873 51.385555 0
M  V30 39 H 40.842154 29.621408 58.288974 0
M  V30 40 H 40.289017 29.909507 59.931939 0
M  V30 41 H 37.465623 28.679638 54.907269 0
M  V30 42 H 37.680570 30.405388 55.000875 0
M  V30 43 H 40.021571 39.220060 60.653495 0
M  V30 44 H 39.467419 39.224556 62.199505 0
M  V30 45 H 40.180681 33.150217 59.756081 0
M  V30 46 H 39.143425 33.844851 58.528503 0
M  V30 47 H 40.267365 34.858109 59.453498 0
M  V30 48 H 40.880639 33.670250 61.770983 0
M  V30 49 H 35.249573 38.934580 61.115256 0
M  V30 50 H 35.712722 39.025053 62.771489 0
M  V30 51 H 35.521789 29.092706 59.584448 0
M  V30 52 H 36.100041 30.168286 58.239700 0
M  V30 53 H 36.303036 36.978070 60.947652 0
M  V30 54 H 36.714264 30.483960 61.214588 0
M  V30 55 H 40.771308 27.209607 57.265500 0
M  V30 56 H 40.090550 25.941019 58.257545 0
M  V30 57 H 42.984164 34.030432 63.777813 0
M  V30 58 H 42.651980 35.767154 63.885068 0
M  V30 59 H 42.390942 34.731548 65.271201 0
M  V30 60 H 38.616473 34.518727 62.653518 0
M  V30 61 H 37.942507 32.055569 58.930095 0
M  V30 62 H 39.066115 31.497536 53.069618 0
M  V30 63 H 40.515514 30.769610 53.790907 0
M  V30 64 H 38.478176 26.805688 56.737853 0
M  V30 65 H 37.411503 28.862493 57.112367 0
M  V30 66 H 41.380067 27.674407 59.589616 0
M  V30 67 H 39.741194 27.483243 60.140188 0
M  V30 68 H 41.155128 32.339258 63.858261 0
M  V30 69 H 40.469494 33.042253 65.316375 0
M  V30 70 H 39.469115 32.821332 63.879922 0
M  V30 71 H 35.829947 32.334027 58.576983 0
M  V30 72 H 39.645726 36.970934 62.723216 0
M  V30 73 H 38.737478 32.255657 61.424952 0
M  V30 74 H 37.199034 32.971265 61.772711 0
M  V30 75 H 36.267406 40.952153 60.874905 0
M  V30 76 H 37.067330 40.821417 62.375348 0
M  V30 77 H 37.951491 39.917217 59.627091 0
M  V30 78 H 38.723892 41.094834 60.659181 0
M  V30 79 H 39.698624 30.222734 56.248119 0
M  V30 80 H 39.996341 28.582089 55.760231 0
M  V30 81 H 41.329893 36.421407 62.024463 0
M  V30 82 H 38.267412 37.331446 60.079264 0
M  V30 83 H 37.867392 28.548155 60.216367 0
M  V30 84 H 40.250578 35.242673 64.249711 0
M  V30 85 H 36.866421 34.324470 59.661359 0
M  V30 END ATOM
M  V30 BEGIN BOND
M  V30 1 1 6 4
M  V30 2 1 8 2
M  V30 3 1 12 10
M  V30 4 1 13 1
M  V30 5 2 13 7
M  V30 6 1 14 11
M  V30 7 1 17 4
M  V30 8 1 17 9
M  V30 9 1 18 14
M  V30 10 1 20 15
M  V30 11 1 21 3
M  V30 12 1 21 13
M  V30 13 1 21 19
M  V30 14 1 22 7
M  V30 15 1 23 12
M  V30 16 1 24 8
M  V30 17 1 24 20
M  V30 18 1 25 2
M  V30 19 1 25 15
M  V30 20 1 27 18
M  V30 21 1 28 17
M  V30 22 1 28 23
M  V30 23 1 29 4
M  V30 24 1 29 18
M  V30 25 1 30 10
M  V30 26 1 31 5
M  V30 27 1 31 30
M  V30 28 1 32 3
M  V30 29 1 32 24
M  V30 30 1 33 9
M  V30 31 1 34 5
M  V30 32 1 34 12
M  V30 33 1 34 28
M  V30 34 1 35 8
M  V30 35 1 35 11
M  V30 36 1 35 14
M  V30 37 1 36 9
M  V30 38 1 36 16
M  V30 39 1 36 26
M  V30 40 1 4 37 CFG=3
M  V30 41 1 38 7
M  V30 42 1 38 19
M  V30 43 1 39 2
M  V30 44 1 40 2
M  V30 45 1 41 3
M  V30 46 1 42 3
M  V30 47 1 43 5
M  V30 48 1 44 5
M  V30 49 1 45 6
M  V30 50 1 46 6
M  V30 51 1 47 6
M  V30 52 1 9 48 CFG=3
M  V30 53 1 49 10
M  V30 54 1 50 10
M  V30 55 1 51 11
M  V30 56 1 52 11
M  V30 57 1 12 53 CFG=3
M  V30 58 1 14 54 CFG=1
M  V30 59 1 55 15
M  V30 60 1 56 15
M  V30 61 1 57 16
M  V30 62 1 58 16
M  V30 63 1 59 16
M  V30 64 1 17 60 CFG=1
M  V30 65 1 18 61 CFG=3
M  V30 66 1 62 19
M  V30 67 1 63 19
M  V30 68 1 64 20
M  V30 69 1 24 65 CFG=3
M  V30 70 1 66 25
M  V30 71 1 67 25
M  V30 72 1 68 26
M  V30 73 1 69 26
M  V30 74 1 70 26
M  V30 75 1 71 27
M  V30 76 1 28 72 CFG=1
M  V30 77 1 73 29
M  V30 78 1 74 29
M  V30 79 1 75 30
M  V30 80 1 76 30
M  V30 81 1 77 31
M  V30 82 1 78 31
M  V30 83 1 79 32
M  V30 84 1 80 32
M  V30 85 1 81 33
M  V30 86 1 34 82 CFG=3
M  V30 87 1 35 83 CFG=1
M  V30 88 1 84 36
M  V30 89 1 85 37
M  V30 END BOND
M  V30 END CTAB
M  END
>  <i_epik_Tot_Q>  (1) 
0

>  <i_epik_Tot_abs_Q>  (1) 
0

>  <i_i_glide_confnum>  (1) 
2053

>  <i_i_glide_lignum>  (1) 
73

>  <i_i_glide_posenum>  (1) 
189

>  <i_i_glide_rotatable_bonds>  (1) 
14

>  <i_lp_mmshare_version>  (1) 
72125

>  <i_m_source_file_index>  (1) 
30

>  <i_f3d_flags>  (1) 
0

>  <num_sample>  (1) 
100

>  <b_lp_Chiralities_Consistent>  (1) 
1

>  <r_epik_Charging_Adjusted_Penalty>  (1) 
0.89739717629826321

>  <r_epik_Ionization_Penalty>  (1) 
1.0966562263345743

>  <r_epik_Ionization_Penalty_Charging>  (1) 
8.0809776118824917e-09

>  <r_epik_Ionization_Penalty_Neutral>  (1) 
1.0966562182535966

>  <r_epik_State_Penalty>  (1) 
0.89739716821728555

>  <r_glide_ring_energy>  (1) 
1.6720993256359071

>  <r_i_docking_score>  (1) 
-7.133856829993686

>  <r_i_glide_ecoul>  (1) 
-3.3356138266211657

>  <r_i_glide_eff_state_penalty>  (1) 
0.89739716821728555

>  <r_i_glide_einternal>  (1) 
31.27724107652141

>  <r_i_glide_emodel>  (1) 
-36.132377532397655

>  <r_i_glide_emodel_strain>  (1) 
7.5507409829494065

>  <r_i_glide_energy>  (1) 
-45.757085097801628

>  <r_i_glide_erotb>  (1) 
0.47112220270256994

>  <r_i_glide_esite>  (1) 
0

>  <r_i_glide_evdw>  (1) 
-42.421471271180465

>  <r_i_glide_gscore>  (1) 
-8.0312539982109712

>  <r_i_glide_gscore_strain>  (1) 
0.88768524573735164

>  <r_i_glide_hbond>  (1) 
-0.16

>  <r_i_glide_ligand_efficiency>  (1) 
-0.18773307447351806

>  <r_i_glide_ligand_efficiency_ln>  (1) 
-1.5382693893528823

>  <r_i_glide_ligand_efficiency_sa>  (1) 
-0.63115397942272611

>  <r_i_glide_lipo>  (1) 
-4.7271922693153376

>  <r_i_glide_metal>  (1) 
-0

>  <r_i_glide_rewards>  (1) 
-1.8814535397833554

>  <r_lp_Energy>  (1) 
28.047854999999998

>  <s_epik_Chemistry_Notes>  (1) 
This compound has an imine and may undergo hydrolysis. This compound contains an acetal/aminal-like group ( X-CH(R)-Y where X, Y are N, S, or O) that may be acid/base labile, releasing an aldehyde.

>  <s_epik_cmdline>  (1) 
J2VwaWtfcHl0aG9uJywgJy1waHQnLCAnMS4wJywgJy1waCcsICc3LjQnLCAnLXRuJywgJzgnLCAnLW1hJywgJzUwMCcsICctaW1hZScsICc8aW5maWxlLm1hZT4nLCAnLW9tYWUnLCAnPG91dGZpbGUubWFlPic=

>  <s_epik_input>  (1) 
RkMxPUMoRilOKFtDSDJdUzEpW0NIMl1bQ0gyXVtDQEhdMltOSF1bQ0gyXVtDSDJdW0NIMl1OMltDQEBIXTNbQ0gyXVtDQEBIXTNbQ0BASF0oW09IXSlbQ0gyXVtDQEBdKFtDSDNdKShbT0hdKVtDQEBIXShbQ0BASF0oW09IXSlbQ0hdKFtDSDNdKVtDSDNdKVtDQEhdKFM0KVtDQEBIXShbQ0BASF00NSlbQ0gyXVtDSDJdW0NIMl1bQ0gyXTU=

>  <s_glide_docking_method>  (1) 
confgen

>  <s_i_glide_gridfile>  (1) 
gpcr_5ht2c_6bqh_protein_autoprepared_prepared

>  <s_lp_Force_Field>  (1) 
S-OPLS

>  <s_lp_Variant>  (1) 
DiffSBDD_29_num_sample_100-3

>  <s_m_source_file>  (1) 
generated__ligand_DiffSBDD_2026-05-06_prepared.sdf

>  <GenAI_Model>  (1) 
DiffSBDD

>  <Protein>  (1) 
GPCR_5HT2C

$$$$
DiffSBDD_85_num_sample_100
     RDKit          3D

  0  0  0  0  0  0  0  0  0  0999 V3000
M  V30 BEGIN CTAB
M  V30 COUNTS 83 87 0 0 1
M  V30 BEGIN ATOM
M  V30 1 C 41.692740 33.302364 65.615709 0
M  V30 2 N 37.976492 27.857414 53.644046 0
M  V30 3 C 39.847359 30.435352 51.456528 0
M  V30 4 Cl 40.810899 34.436834 61.795644 0
M  V30 5 C 41.136482 31.162193 64.344856 0 CFG=1
M  V30 6 C 38.512320 26.239547 57.879931 0
M  V30 7 C 38.436063 28.528667 52.431116 0
M  V30 8 C 40.687129 29.413218 50.709186 0
M  V30 9 O 39.356681 29.233864 62.257346 0
M  V30 10 S 38.391000 29.223765 59.614614 0
M  V30 11 C 39.849328 28.188597 50.329452 0
M  V30 12 O 41.467257 29.059013 61.673279 0 CHG=-1
M  V30 13 C 39.250372 29.813384 52.738118 0
M  V30 14 C 38.132285 30.911646 60.276708 0 CFG=1
M  V30 15 C 37.764085 30.996049 57.787636 0 CFG=2
M  V30 16 C 38.699262 28.637837 56.952894 0 CFG=1
M  V30 17 C 40.940224 31.960800 65.645127 0
M  V30 18 N 39.123346 27.329877 54.404970 0 CHG=1
M  V30 19 C 40.596076 31.987152 63.116264 0 CFG=2
M  V30 20 C 40.008815 26.065864 57.649275 0 CFG=1
M  V30 21 C 39.209615 27.530031 51.548310 0
M  V30 22 C 42.603258 30.664944 64.256582 0
M  V30 23 C 38.817120 26.455122 55.547322 0 CFG=2
M  V30 24 C 40.238518 28.603635 57.238407 0
M  V30 25 C 38.146732 27.185534 56.730011 0 CFG=1
M  V30 26 C 41.318443 34.125560 64.377324 0
M  V30 27 C 40.438466 29.709045 61.904986 0
M  V30 28 C 40.507662 31.229232 61.726768 0 CFG=1
M  V30 29 C 40.091765 25.811498 56.135973 0
M  V30 30 O 38.989673 31.547117 57.349154 0
M  V30 31 C 39.386743 31.746614 60.732919 0
M  V30 32 C 37.347508 31.624128 59.164461 0 CFG=1
M  V30 33 C 41.398458 33.326168 63.060337 0 CFG=2
M  V30 34 C 40.731552 27.371548 58.045220 0
M  V30 35 C 37.850860 29.470914 57.957330 0 CFG=1
M  V30 36 O 35.974610 31.413095 59.452936 0
M  V30 37 H 41.467613 33.867862 66.520758 0
M  V30 38 H 42.770497 33.140514 65.632158 0
M  V30 39 H 37.615760 28.535466 54.301357 0
M  V30 40 H 39.078580 30.763628 50.752945 0
M  V30 41 H 40.446689 31.310883 51.710390 0
M  V30 42 H 40.512954 30.276001 64.467750 0
M  V30 43 H 37.996947 25.282792 57.771851 0
M  V30 44 H 38.272247 26.609811 58.872993 0
M  V30 45 H 37.544327 28.832043 51.883109 0
M  V30 46 H 41.105487 29.873011 49.813452 0
M  V30 47 H 41.517139 29.109483 51.342291 0
M  V30 48 H 39.077673 28.470220 49.613483 0
M  V30 49 H 40.483339 27.443696 49.854156 0
M  V30 50 H 38.625612 30.541573 53.255035 0
M  V30 51 H 40.070749 29.621481 53.426593 0
M  V30 52 H 37.508269 30.807818 61.165021 0
M  V30 53 H 37.067657 31.198663 56.982788 0
M  V30 54 H 38.562277 29.194950 56.027924 0
M  V30 55 H 39.870775 32.134570 65.786055 0
M  V30 56 H 41.269075 31.368941 66.501941 0
M  V30 57 H 39.638890 28.131397 54.739981 0
M  V30 58 H 39.568352 32.244869 63.371671 0
M  V30 59 H 40.405966 25.225763 58.223324 0
M  V30 60 H 40.000560 27.040325 52.107248 0
M  V30 61 H 38.539479 26.743957 51.210026 0
M  V30 62 H 43.328836 31.470463 64.316857 0
M  V30 63 H 42.819210 29.980633 65.076776 0
M  V30 64 H 42.828613 30.120850 63.345238 0
M  V30 65 H 38.158553 25.655636 55.202268 0
M  V30 66 H 40.771752 28.619828 56.287378 0
M  V30 67 H 40.559796 29.505874 57.758226 0
M  V30 68 H 37.067404 27.193831 56.611097 0
M  V30 69 H 40.304955 34.508558 64.495772 0
M  V30 70 H 41.963587 35.004240 64.318147 0
M  V30 71 H 41.458256 31.419064 61.226556 0
M  V30 72 H 41.017883 26.208763 55.716374 0
M  V30 73 H 40.087975 24.741096 55.932502 0
M  V30 74 H 38.859053 32.471055 57.193332 0
M  V30 75 H 39.867169 32.156449 59.854685 0
M  V30 76 H 38.947989 32.631657 61.188932 0
M  V30 77 H 37.505775 32.703504 59.168064 0
M  V30 78 H 42.440623 33.112956 62.821925 0
M  V30 79 H 41.809646 27.258044 57.918097 0
M  V30 80 H 40.590022 27.541856 59.114202 0
M  V30 81 H 36.820748 29.114007 57.932979 0
M  V30 82 H 35.541280 31.499408 58.592207 0
M  V30 83 H 39.685870 26.817847 53.739254 0
M  V30 END ATOM
M  V30 BEGIN BOND
M  V30 1 1 7 2
M  V30 2 1 8 3
M  V30 3 1 11 8
M  V30 4 1 13 3
M  V30 5 1 13 7
M  V30 6 1 14 10
M  V30 7 1 17 1
M  V30 8 1 17 5
M  V30 9 1 18 2
M  V30 10 1 19 5
M  V30 11 1 20 6
M  V30 12 1 21 7
M  V30 13 1 21 11
M  V30 14 1 22 5
M  V30 15 1 23 18
M  V30 16 1 24 16
M  V30 17 1 25 6
M  V30 18 1 25 16
M  V30 19 1 25 23
M  V30 20 1 26 1
M  V30 21 2 27 9
M  V30 22 1 27 12
M  V30 23 1 28 19
M  V30 24 1 28 27
M  V30 25 1 29 20
M  V30 26 1 29 23
M  V30 27 1 30 15
M  V30 28 1 31 14
M  V30 29 1 31 28
M  V30 30 1 32 14
M  V30 31 1 32 15
M  V30 32 1 33 4
M  V30 33 1 33 19
M  V30 34 1 33 26
M  V30 35 1 34 20
M  V30 36 1 34 24
M  V30 37 1 35 10
M  V30 38 1 35 15
M  V30 39 1 35 16
M  V30 40 1 36 32
M  V30 41 1 37 1
M  V30 42 1 38 1
M  V30 43 1 39 2
M  V30 44 1 40 3
M  V30 45 1 41 3
M  V30 46 1 5 42 CFG=1
M  V30 47 1 43 6
M  V30 48 1 44 6
M  V30 49 1 45 7
M  V30 50 1 46 8
M  V30 51 1 47 8
M  V30 52 1 48 11
M  V30 53 1 49 11
M  V30 54 1 50 13
M  V30 55 1 51 13
M  V30 56 1 14 52 CFG=1
M  V30 57 1 15 53 CFG=3
M  V30 58 1 16 54 CFG=3
M  V30 59 1 55 17
M  V30 60 1 56 17
M  V30 61 1 57 18
M  V30 62 1 19 58 CFG=1
M  V30 63 1 20 59 CFG=1
M  V30 64 1 60 21
M  V30 65 1 61 21
M  V30 66 1 62 22
M  V30 67 1 63 22
M  V30 68 1 64 22
M  V30 69 1 23 65 CFG=3
M  V30 70 1 66 24
M  V30 71 1 67 24
M  V30 72 1 25 68 CFG=3
M  V30 73 1 69 26
M  V30 74 1 70 26
M  V30 75 1 28 71 CFG=3
M  V30 76 1 72 29
M  V30 77 1 73 29
M  V30 78 1 74 30
M  V30 79 1 75 31
M  V30 80 1 76 31
M  V30 81 1 32 77 CFG=3
M  V30 82 1 33 78 CFG=3
M  V30 83 1 79 34
M  V30 84 1 80 34
M  V30 85 1 35 81 CFG=1
M  V30 86 1 82 36
M  V30 87 1 83 18
M  V30 END BOND
M  V30 END CTAB
M  END
>  <i_epik_Tot_Q>  (1) 
0

>  <i_epik_Tot_abs_Q>  (1) 
2

>  <i_i_glide_confnum>  (1) 
765

>  <i_i_glide_lignum>  (1) 
221

>  <i_i_glide_posenum>  (1) 
14

>  <i_i_glide_rotatable_bonds>  (1) 
10

>  <i_lp_mmshare_version>  (1) 
72125

>  <i_m_source_file_index>  (1) 
86

>  <i_f3d_flags>  (1) 
0

>  <num_sample>  (1) 
100

>  <b_lp_Chiralities_Consistent>  (1) 
1

>  <r_epik_Charging_Adjusted_Penalty>  (1) 
0.24139881983135253

>  <r_epik_Ionization_Penalty>  (1) 
0.013577590547947769

>  <r_epik_Ionization_Penalty_Charging>  (1) 
0.013577468157686226

>  <r_epik_Ionization_Penalty_Neutral>  (1) 
1.223902615442005e-07

>  <r_epik_State_Penalty>  (1) 
0.22782135167366629

>  <r_glide_ring_energy>  (1) 
0.99272498419856225

>  <r_i_docking_score>  (1) 
-7.1283060403389165

>  <r_i_glide_ecoul>  (1) 
-5.5707500621655068

>  <r_i_glide_eff_state_penalty>  (1) 
0.22782135167366629

>  <r_i_glide_einternal>  (1) 
11.253904467647043

>  <r_i_glide_emodel>  (1) 
-34.464309357365359

>  <r_i_glide_emodel_strain>  (1) 
6.8251679308290818

>  <r_i_glide_energy>  (1) 
-39.740038983751901

>  <r_i_glide_erotb>  (1) 
0.49083612240102314

>  <r_i_glide_esite>  (1) 
-0.01521908226928121

>  <r_i_glide_evdw>  (1) 
-34.169288921586393

>  <r_i_glide_gscore>  (1) 
-7.3561273920125831

>  <r_i_glide_gscore_strain>  (1) 
0.70629198270727045

>  <r_i_glide_hbond>  (1) 
-0.32000000000000001

>  <r_i_glide_ligand_efficiency>  (1) 
-0.19800850112052545

>  <r_i_glide_ligand_efficiency_ln>  (1) 
-1.5552037934286316

>  <r_i_glide_ligand_efficiency_sa>  (1) 
-0.6538096653626454

>  <r_i_glide_lipo>  (1) 
-5.1750981201490491

>  <r_i_glide_metal>  (1) 
-0

>  <r_i_glide_rewards>  (1) 
-0.49886133929840093

>  <r_lp_Energy>  (1) 
69.175754999999995

>  <s_epik_cmdline>  (1) 
J2VwaWtfcHl0aG9uJywgJy1waHQnLCAnMS4wJywgJy1waCcsICc3LjQnLCAnLXRuJywgJzgnLCAnLW1hJywgJzUwMCcsICctaW1hZScsICc8aW5maWxlLm1hZT4nLCAnLW9tYWUnLCAnPG91dGZpbGUubWFlPic=

>  <s_epik_input>  (1) 
W0NIM11bQ0BIXTFbQ0gyXVtDSDJdW0NIMl1bQ0BIXShDbClbQ0BIXTFbQ0BASF0oQyg9TylbT0hdKVtDSDJdW0NAQEhdMlNbQ0BASF0oW0NAQEhdKFtPSF0pW0NASF0yW09IXSlbQ0BASF0oW0NIMl1bQ0gyXTMpW0NASF0oW0NIMl1bQ0BIXTM0KVtDQEhdKFtDSDJdNClbTkhdW05IXVtDSF01W0NIMl1bQ0gyXVtDSDJdW0NIMl1bQ0gyXTU=

>  <s_glide_docking_method>  (1) 
confgen

>  <s_i_glide_gridfile>  (1) 
gpcr_5ht2c_6bqh_protein_autoprepared_prepared

>  <s_lp_Force_Field>  (1) 
S-OPLS

>  <s_lp_Variant>  (1) 
DiffSBDD_85_num_sample_100-2

>  <s_m_source_file>  (1) 
generated__ligand_DiffSBDD_2026-05-06_prepared.sdf

>  <GenAI_Model>  (1) 
DiffSBDD

>  <Protein>  (1) 
GPCR_5HT2C

$$$$
DiffSBDD_0_num_sample_100
     RDKit          3D

  0  0  0  0  0  0  0  0  0  0999 V3000
M  V30 BEGIN CTAB
M  V30 COUNTS 60 62 0 0 1
M  V30 BEGIN ATOM
M  V30 1 C 38.807177 26.903993 58.280091 0
M  V30 2 C 38.992975 28.358865 54.563663 0 CFG=1
M  V30 3 C 39.447301 32.478335 60.908982 0
M  V30 4 C 37.912736 33.340229 57.796272 0
M  V30 5 C 39.758046 27.687124 59.026482 0
M  V30 6 C 41.102590 27.941463 56.839576 0
M  V30 7 C 38.497620 34.705447 60.577847 0
M  V30 8 C 40.310452 32.995940 61.895695 0
M  V30 9 C 38.540005 33.332063 60.246079 0
M  V30 10 C 39.440440 28.288921 52.107772 0 CFG=2
M  V30 11 N 38.136591 30.544581 55.377391 0
M  V30 12 C 38.330496 31.086175 56.715431 0
M  V30 13 C 38.233297 32.598274 56.715656 0
M  V30 14 C 40.269058 34.365683 62.221483 0
M  V30 15 F 39.321158 36.536798 61.879319 0
M  V30 16 C 39.362683 35.220122 61.563035 0
M  V30 17 C 37.607504 32.773971 59.177061 0 CFG=1
M  V30 18 C 40.843727 28.186925 58.370100 0
M  V30 19 N 35.110341 33.218267 59.877072 0
M  V30 20 C 37.950897 29.098836 55.432655 0
M  V30 21 C 39.073169 26.589512 57.028972 0
M  V30 22 C 39.474618 26.961118 55.057002 0 CFG=1
M  V30 23 N 38.438055 28.241833 53.194492 0 CHG=1
M  V30 24 O 41.105900 34.865158 63.176063 0
M  V30 25 C 39.916745 29.737096 51.863969 0
M  V30 26 C 38.864693 27.687566 50.834848 0
M  V30 27 C 40.975474 29.874139 50.771195 0
M  V30 28 N 40.195391 26.888039 56.349483 0
M  V30 29 S 38.154196 25.843467 55.786788 0
M  V30 30 C 36.206283 33.021430 59.560831 0
M  V30 31 Cl 39.510306 28.021431 60.701367 0
M  V30 32 H 37.868272 26.628039 58.718638 0
M  V30 33 H 39.869719 28.998942 54.510719 0
M  V30 34 H 39.481453 31.427019 60.659899 0
M  V30 35 H 37.860367 34.414077 57.699919 0
M  V30 36 H 41.006809 28.861023 56.277401 0
M  V30 37 H 42.128291 27.596116 56.726775 0
M  V30 38 H 37.803311 35.362829 60.074271 0
M  V30 39 H 41.004577 32.342205 62.403494 0
M  V30 40 H 40.267236 27.643092 52.382928 0
M  V30 41 H 38.917933 30.806611 54.793993 0
M  V30 42 H 39.305775 30.779449 57.101966 0
M  V30 43 H 37.555697 30.691203 57.371620 0
M  V30 44 H 38.435741 33.091921 55.776807 0
M  V30 45 H 37.721355 31.691478 59.172905 0
M  V30 46 H 41.568082 28.789807 58.900031 0
M  V30 47 H 37.957866 28.765445 56.467249 0
M  V30 48 H 36.952834 28.885606 55.053307 0
M  V30 49 H 40.059082 26.413488 54.315916 0
M  V30 50 H 37.907907 27.379817 53.132242 0
M  V30 51 H 40.973158 35.791665 63.317299 0
M  V30 52 H 39.067871 30.343460 51.576755 0
M  V30 53 H 40.307593 30.189420 52.774459 0
M  V30 54 H 39.671379 27.349123 50.188245 0
M  V30 55 H 38.249803 26.820859 51.048973 0
M  V30 56 H 38.267317 28.420608 50.295715 0
M  V30 57 H 41.268698 30.913492 50.639521 0
M  V30 58 H 41.867692 29.322490 51.053459 0
M  V30 59 H 40.617318 29.517676 49.805191 0
M  V30 60 H 37.798803 29.010845 53.052445 0
M  V30 END ATOM
M  V30 BEGIN BOND
M  V30 1 1 5 1
M  V30 2 2 8 3
M  V30 3 1 9 3
M  V30 4 2 9 7
M  V30 5 1 12 11
M  V30 6 2 13 4
M  V30 7 1 13 12
M  V30 8 1 14 8
M  V30 9 1 16 7
M  V30 10 2 16 14
M  V30 11 1 16 15
M  V30 12 1 17 4
M  V30 13 1 17 9
M  V30 14 2 18 5
M  V30 15 1 18 6
M  V30 16 1 20 2
M  V30 17 1 20 11
M  V30 18 2 21 1
M  V30 19 1 22 2
M  V30 20 1 23 2
M  V30 21 1 23 10
M  V30 22 1 24 14
M  V30 23 1 25 10
M  V30 24 1 26 10
M  V30 25 1 27 25
M  V30 26 1 28 6
M  V30 27 1 28 21
M  V30 28 1 28 22
M  V30 29 1 29 21
M  V30 30 1 29 22
M  V30 31 1 30 17
M  V30 32 3 30 19
M  V30 33 1 31 5
M  V30 34 1 32 1
M  V30 35 1 2 33 CFG=3
M  V30 36 1 34 3
M  V30 37 1 35 4
M  V30 38 1 36 6
M  V30 39 1 37 6
M  V30 40 1 38 7
M  V30 41 1 39 8
M  V30 42 1 10 40 CFG=1
M  V30 43 1 41 11
M  V30 44 1 42 12
M  V30 45 1 43 12
M  V30 46 1 44 13
M  V30 47 1 17 45 CFG=3
M  V30 48 1 46 18
M  V30 49 1 47 20
M  V30 50 1 48 20
M  V30 51 1 22 49 CFG=3
M  V30 52 1 50 23
M  V30 53 1 51 24
M  V30 54 1 52 25
M  V30 55 1 53 25
M  V30 56 1 54 26
M  V30 57 1 55 26
M  V30 58 1 56 26
M  V30 59 1 57 27
M  V30 60 1 58 27
M  V30 61 1 59 27
M  V30 62 1 60 23
M  V30 END BOND
M  V30 END CTAB
M  END
>  <i_epik_Tot_Q>  (1) 
1

>  <i_epik_Tot_abs_Q>  (1) 
1

>  <i_i_glide_confnum>  (1) 
13

>  <i_i_glide_lignum>  (1) 
4

>  <i_i_glide_posenum>  (1) 
52

>  <i_i_glide_rotatable_bonds>  (1) 
11

>  <i_lp_mmshare_version>  (1) 
72125

>  <i_m_source_file_index>  (1) 
1

>  <i_f3d_flags>  (1) 
0

>  <num_sample>  (1) 
100

>  <b_lp_Chiralities_Consistent>  (1) 
1

>  <r_epik_Charging_Adjusted_Penalty>  (1) 
1.026714880071514

>  <r_epik_Ionization_Penalty>  (1) 
0.57488375576365369

>  <r_epik_Ionization_Penalty_Charging>  (1) 
0.45778339447339428

>  <r_epik_Ionization_Penalty_Neutral>  (1) 
0.11710036129025943

>  <r_epik_State_Penalty>  (1) 
0.56893148559811979

>  <r_glide_ring_energy>  (1) 
0

>  <r_i_docking_score>  (1) 
-7.1279487582320575

>  <r_i_glide_ecoul>  (1) 
-0.263909159109321

>  <r_i_glide_eff_state_penalty>  (1) 
0.56893148559811979

>  <r_i_glide_einternal>  (1) 
4.7704028838368586

>  <r_i_glide_emodel>  (1) 
-66.766299686110074

>  <r_i_glide_emodel_strain>  (1) 
0.21342539150680295

>  <r_i_glide_energy>  (1) 
-44.544372874579082

>  <r_i_glide_erotb>  (1) 
0.74887478347211667

>  <r_i_glide_esite>  (1) 
-0.079213450384176987

>  <r_i_glide_evdw>  (1) 
-44.280463715469764

>  <r_i_glide_gscore>  (1) 
-7.6968802438301775

>  <r_i_glide_gscore_strain>  (1) 
0

>  <r_i_glide_hbond>  (1) 
0

>  <r_i_glide_ligand_efficiency>  (1) 
-0.22993383091071154

>  <r_i_glide_ligand_efficiency_ln>  (1) 
-1.6075708903764689

>  <r_i_glide_ligand_efficiency_sa>  (1) 
-0.72230968775314341

>  <r_i_glide_lipo>  (1) 
-4.5189288837182282

>  <r_i_glide_metal>  (1) 
-0

>  <r_i_glide_rewards>  (1) 
-1.594003133560002

>  <r_lp_Energy>  (1) 
38.461821999999998

>  <r_lp_tautomer_probability>  (1) 
0.99999999999736477

>  <s_epik_Chemistry_Notes>  (1) 
This compound contains an acetal/aminal-like group ( X-CH(R)-Y where X, Y are N, S, or O) that may be acid/base labile, releasing an aldehyde.

>  <s_epik_cmdline>  (1) 
J2VwaWtfcHl0aG9uJywgJy1waHQnLCAnMS4wJywgJy1waCcsICc3LjQnLCAnLXRuJywgJzgnLCAnLW1hJywgJzUwMCcsICctaW1hZScsICc8aW5maWxlLm1hZT4nLCAnLW9tYWUnLCAnPG91dGZpbGUubWFlPic=

>  <s_epik_input>  (1) 
W0NIXT0xQyhDbCk9W0NIXVtDSDJdTihDMTIpW0NAQEhdKFMyKVtDQEBIXShbTkhdW0NAQEhdKFtDSDNdKVtDSDJdW0NIM10pW0NIMl1bTkhdW0NIMl0vW0NIXT1bQ0hdXFtDQEhdKEMjTiljM1tjSF1bY0hdYyhbT0hdKWMoRilbY0hdMw==

>  <s_glide_docking_method>  (1) 
confgen

>  <s_i_glide_gridfile>  (1) 
gpcr_5ht2c_6bqh_protein_autoprepared_prepared

>  <s_lp_Force_Field>  (1) 
S-OPLS

>  <s_lp_Variant>  (1) 
DiffSBDD_0_num_sample_100-4

>  <s_m_source_file>  (1) 
generated__ligand_DiffSBDD_2026-05-06_prepared.sdf

>  <GenAI_Model>  (1) 
DiffSBDD

>  <Protein>  (1) 
GPCR_5HT2C

$$$$
DiffSBDD_53_num_sample_100
     RDKit          3D

  0  0  0  0  0  0  0  0  0  0999 V3000
M  V30 BEGIN CTAB
M  V30 COUNTS 69 72 0 0 1
M  V30 BEGIN ATOM
M  V30 1 C 41.120503 33.125304 62.742002 0
M  V30 2 C 40.900264 29.763338 66.262604 0
M  V30 3 C 41.384659 32.458603 65.208940 0
M  V30 4 O 41.789913 28.196236 62.976611 0
M  V30 5 N 42.134884 27.558074 66.035664 0 CFG=2 CHG=1
M  V30 6 C 39.220187 27.826074 56.749319 0
M  V30 7 C 38.955482 26.104928 54.840678 0
M  V30 8 N 38.409083 28.821190 57.451208 0
M  V30 9 C 38.820709 29.449416 58.563115 0
M  V30 10 C 41.512970 34.823084 64.584771 0
M  V30 11 C 38.115812 30.908501 60.611371 0 CFG=1
M  V30 12 C 42.230166 26.326042 65.260128 0
M  V30 13 C 40.823770 28.255957 65.962939 0
M  V30 14 C 43.107712 27.514403 64.943011 0 CFG=1
M  V30 15 O 39.379879 31.573318 60.729093 0
M  V30 16 C 39.223021 32.970310 60.969525 0 CFG=1
M  V30 17 C 37.104878 31.934672 61.158249 0 CFG=1
M  V30 18 C 37.737319 33.242675 60.730317 0
M  V30 19 C 42.917295 28.472445 63.771702 0 CFG=2
M  V30 20 C 41.350795 33.472651 64.210020 0
M  V30 21 O 39.903747 29.221103 59.104945 0
M  V30 22 C 41.701180 35.164227 65.936382 0
M  V30 23 C 37.784482 25.683587 57.050706 0
M  V30 24 O 38.279977 25.647502 58.199300 0
M  V30 25 S 43.086591 30.202347 64.253678 0
M  V30 26 C 41.727869 34.158819 66.921868 0
M  V30 27 C 38.331971 26.744469 56.072975 0 CFG=1
M  V30 28 C 40.275930 26.021428 54.616454 0
M  V30 29 O 36.881585 24.931817 56.621096 0 CHG=-1
M  V30 30 C 37.865394 30.500531 59.139030 0
M  V30 31 S 41.199093 30.746306 64.762000 0 CHG=1
M  V30 32 C 41.573298 32.811429 66.561315 0
M  V30 33 C 35.632588 31.784748 60.743136 0
M  V30 34 C 39.627624 33.276101 62.420837 0
M  V30 35 H 41.693470 33.818609 62.124780 0
M  V30 36 H 41.485397 32.136229 62.470819 0
M  V30 37 H 41.668341 29.947971 67.012558 0
M  V30 38 H 39.950892 30.098382 66.682703 0
M  V30 39 H 42.090783 27.821554 62.156679 0
M  V30 40 H 39.777819 28.376330 55.990761 0
M  V30 41 H 39.968507 27.365234 57.397371 0
M  V30 42 H 38.267066 25.699014 54.113391 0
M  V30 43 H 37.508444 29.056548 57.059463 0
M  V30 44 H 41.486845 35.599762 63.833803 0
M  V30 45 H 38.128734 30.021429 61.242356 0
M  V30 46 H 42.615283 25.521230 65.882608 0
M  V30 47 H 41.340256 26.122701 64.666936 0
M  V30 48 H 40.252461 27.794655 66.764042 0
M  V30 49 H 40.267404 28.061397 65.046537 0
M  V30 50 H 44.104983 27.527043 65.380087 0
M  V30 51 H 39.839492 33.545763 60.277777 0
M  V30 52 H 37.134698 31.881860 62.246406 0
M  V30 53 H 37.357252 34.102645 61.282684 0
M  V30 54 H 37.554574 33.423735 59.670019 0
M  V30 55 H 43.770582 28.292518 63.119652 0
M  V30 56 H 41.822152 36.201242 66.218587 0
M  V30 57 H 41.867928 34.421448 67.958242 0
M  V30 58 H 37.467396 27.266406 55.669500 0
M  V30 59 H 40.659048 25.560271 53.719213 0
M  V30 60 H 40.988067 26.412489 55.326251 0
M  V30 61 H 36.858480 30.093197 59.043532 0
M  V30 62 H 37.902733 31.375920 58.490298 0
M  V30 63 H 41.599945 32.053237 67.324906 0
M  V30 64 H 35.496010 31.879900 59.664527 0
M  V30 65 H 35.232131 30.821576 61.053811 0
M  V30 66 H 35.023324 32.557276 61.212983 0
M  V30 67 H 39.067527 32.632703 63.095329 0
M  V30 68 H 39.324608 34.297790 62.654518 0
M  V30 69 H 42.544662 27.460875 66.954840 0
M  V30 END ATOM
M  V30 BEGIN BOND
M  V30 1 1 8 6
M  V30 2 1 9 8
M  V30 3 1 12 5
M  V30 4 1 13 2
M  V30 5 1 13 5
M  V30 6 1 14 5
M  V30 7 1 14 12
M  V30 8 1 15 11
M  V30 9 1 16 15
M  V30 10 1 17 11
M  V30 11 1 18 16
M  V30 12 1 18 17
M  V30 13 1 19 4
M  V30 14 1 19 14
M  V30 15 1 20 1
M  V30 16 1 20 3
M  V30 17 2 20 10
M  V30 18 2 21 9
M  V30 19 1 22 10
M  V30 20 2 24 23
M  V30 21 1 25 19
M  V30 22 2 26 22
M  V30 23 1 27 6
M  V30 24 1 27 7
M  V30 25 1 27 23
M  V30 26 2 28 7
M  V30 27 1 29 23
M  V30 28 1 30 9
M  V30 29 1 30 11
M  V30 30 1 31 2
M  V30 31 1 31 3 CFG=1
M  V30 32 1 31 25
M  V30 33 2 32 3
M  V30 34 1 32 26
M  V30 35 1 33 17
M  V30 36 1 34 1
M  V30 37 1 34 16
M  V30 38 1 35 1
M  V30 39 1 36 1
M  V30 40 1 37 2
M  V30 41 1 38 2
M  V30 42 1 39 4
M  V30 43 1 40 6
M  V30 44 1 41 6
M  V30 45 1 42 7
M  V30 46 1 43 8
M  V30 47 1 44 10
M  V30 48 1 11 45 CFG=1
M  V30 49 1 46 12
M  V30 50 1 47 12
M  V30 51 1 48 13
M  V30 52 1 49 13
M  V30 53 1 14 50 CFG=1
M  V30 54 1 16 51 CFG=3
M  V30 55 1 17 52 CFG=1
M  V30 56 1 53 18
M  V30 57 1 54 18
M  V30 58 1 19 55 CFG=3
M  V30 59 1 56 22
M  V30 60 1 57 26
M  V30 61 1 27 58 CFG=3
M  V30 62 1 59 28
M  V30 63 1 60 28
M  V30 64 1 61 30
M  V30 65 1 62 30
M  V30 66 1 63 32
M  V30 67 1 64 33
M  V30 68 1 65 33
M  V30 69 1 66 33
M  V30 70 1 67 34
M  V30 71 1 68 34
M  V30 72 1 5 69 CFG=1
M  V30 END BOND
M  V30 END CTAB
M  END
>  <i_epik_Tot_Q>  (1) 
1

>  <i_epik_Tot_abs_Q>  (1) 
3

>  <i_i_glide_confnum>  (1) 
1066

>  <i_i_glide_lignum>  (1) 
140

>  <i_i_glide_posenum>  (1) 
173

>  <i_i_glide_rotatable_bonds>  (1) 
12

>  <i_lp_mmshare_version>  (1) 
72125

>  <i_m_source_file_index>  (1) 
54

>  <i_f3d_flags>  (1) 
0

>  <num_sample>  (1) 
100

>  <b_lp_Chiralities_Consistent>  (1) 
1

>  <r_epik_Charging_Adjusted_Penalty>  (1) 
0.046453037766825911

>  <r_epik_Ionization_Penalty>  (1) 
0.023481310305084564

>  <r_epik_Ionization_Penalty_Charging>  (1) 
0.023340632071334463

>  <r_epik_Ionization_Penalty_Neutral>  (1) 
0.0001406782337501018

>  <r_epik_State_Penalty>  (1) 
0.023112405695491445

>  <r_glide_ring_energy>  (1) 
0.17236391819081889

>  <r_i_docking_score>  (1) 
-7.1179971797261636

>  <r_i_glide_ecoul>  (1) 
-8.1854741923307675

>  <r_i_glide_eff_state_penalty>  (1) 
0.023112405695491445

>  <r_i_glide_einternal>  (1) 
19.758108994478611

>  <r_i_glide_emodel>  (1) 
-67.457805732925124

>  <r_i_glide_emodel_strain>  (1) 
0.44231824918671947

>  <r_i_glide_energy>  (1) 
-51.502394756385016

>  <r_i_glide_erotb>  (1) 
0.79410111881252765

>  <r_i_glide_esite>  (1) 
0

>  <r_i_glide_evdw>  (1) 
-43.31692056405425

>  <r_i_glide_gscore>  (1) 
-7.1411095854216553

>  <r_i_glide_gscore_strain>  (1) 
0

>  <r_i_glide_hbond>  (1) 
-0.11236972275352189

>  <r_i_glide_ligand_efficiency>  (1) 
-0.20935285822724012

>  <r_i_glide_ligand_efficiency_ln>  (1) 
-1.5725652300597011

>  <r_i_glide_ligand_efficiency_sa>  (1) 
-0.67822199014413898

>  <r_i_glide_lipo>  (1) 
-3.5813134445329693

>  <r_i_glide_metal>  (1) 
-0

>  <r_i_glide_rewards>  (1) 
-0.84786037989536267

>  <r_lp_Energy>  (1) 
3.4646329999999996

>  <s_epik_Chemistry_Notes>  (1) 
This compound contains an acetal/aminal-like group ( X-CH(R)-Y where X, Y are N, S, or O) that may be acid/base labile, releasing an aldehyde.

>  <s_epik_cmdline>  (1) 
J2VwaWtfcHl0aG9uJywgJy1waHQnLCAnMS4wJywgJy1waCcsICc3LjQnLCAnLXRuJywgJzgnLCAnLW1hJywgJzUwMCcsICctaW1hZScsICc8aW5maWxlLm1hZT4nLCAnLW9tYWUnLCAnPG91dGZpbGUubWFlPic=

>  <s_epik_input>  (1) 
TjEyW0NAQEhdKFtDSDJdMSlbQ0BASF0oW09IXSlTW1MrXShbQ0gyXVtDSDJdMiljM2MoW2NIXVtjSF1bY0hdW2NIXTMpW0NIMl1bQ0gyXVtDQEhdKFtDSDJdW0NASF00W0NIM10pT1tDQEBIXTRbQ0gyXUMoPU8pW05IXVtDSDJdW0NAQEhdKFtDSF09W0NIMl0pQyg9TylbT0hd

>  <s_glide_docking_method>  (1) 
confgen

>  <s_i_glide_gridfile>  (1) 
gpcr_5ht2c_6bqh_protein_autoprepared_prepared

>  <s_lp_Force_Field>  (1) 
S-OPLS

>  <s_lp_Variant>  (1) 
DiffSBDD_53_num_sample_100-1

>  <s_m_source_file>  (1) 
generated__ligand_DiffSBDD_2026-05-06_prepared.sdf

>  <GenAI_Model>  (1) 
DiffSBDD

>  <Protein>  (1) 
GPCR_5HT2C

$$$$
DiffSBDD_90_num_sample_100
     RDKit          3D

  0  0  0  0  0  0  0  0  0  0999 V3000
M  V30 BEGIN CTAB
M  V30 COUNTS 84 87 0 0 1
M  V30 BEGIN ATOM
M  V30 1 C 40.851805 28.470171 60.670411 0
M  V30 2 O 37.932763 31.466189 55.183141 0
M  V30 3 F 42.886993 32.836042 65.948029 0
M  V30 4 C 38.274356 33.441801 60.777902 0 CFG=1
M  V30 5 C 38.045736 28.190014 53.293426 0 CFG=2
M  V30 6 C 38.557711 27.244544 55.486079 0 CFG=1
M  V30 7 C 34.800025 32.947288 59.452996 0
M  V30 8 C 38.074206 26.773905 57.940220 0
M  V30 9 C 36.831182 33.950205 60.451907 0
M  V30 10 N 37.467466 30.450876 54.253779 0
M  V30 11 C 41.765044 31.102383 64.856736 0
M  V30 12 C 36.114311 34.363794 61.748445 0
M  V30 13 C 37.712877 27.035454 54.240819 0
M  V30 14 C 38.669144 28.772470 55.585939 0
M  V30 15 O 39.359738 28.587729 51.338725 0
M  V30 16 N 39.606939 29.204184 60.478033 0
M  V30 17 C 37.867206 26.530923 56.637771 0
M  V30 18 F 40.726011 32.851524 66.022668 0
M  V30 19 C 40.571181 33.177652 63.082521 0 CFG=2
M  V30 20 N 39.163515 29.888522 61.621692 0
M  V30 21 C 40.584148 30.776206 63.934052 0
M  V30 22 C 38.576073 28.376507 59.852594 0
M  V30 23 O 36.160896 32.826674 59.864036 0
M  V30 24 C 36.841203 35.113029 59.434240 0
M  V30 25 C 41.426301 28.021772 59.322002 0
M  V30 26 C 41.752255 33.494596 64.012396 0
M  V30 27 C 39.043585 27.802585 58.503980 0 CFG=1
M  V30 28 C 38.460495 29.380074 54.202624 0 CFG=1
M  V30 29 C 39.168737 34.545580 61.403481 0
M  V30 30 O 39.867120 26.821565 52.596700 0 CHG=-1
M  V30 31 C 39.509325 31.310245 61.615721 0 CFG=1
M  V30 32 C 40.416021 27.145492 58.577395 0
M  V30 33 O 36.862742 28.421399 52.581113 0
M  V30 34 C 38.228475 32.154286 61.647287 0
M  V30 35 C 40.586981 31.679930 62.674084 0 CFG=1
M  V30 36 C 40.571116 34.121934 61.865377 0
M  V30 37 C 41.779409 32.585010 65.249870 0
M  V30 38 C 39.186660 27.832684 52.322697 0
M  V30 39 H 41.550368 29.109655 61.196879 0
M  V30 40 H 40.666964 27.619647 61.324155 0
M  V30 41 H 37.168526 31.595685 55.740282 0
M  V30 42 H 38.724177 33.167636 59.822461 0
M  V30 43 H 39.542962 26.806949 55.324498 0
M  V30 44 H 34.466442 31.989175 59.054551 0
M  V30 45 H 34.108938 33.200537 60.252418 0
M  V30 46 H 34.681409 33.672407 58.652898 0
M  V30 47 H 37.525427 26.198066 58.653434 0
M  V30 48 H 37.448401 30.964406 53.383288 0
M  V30 49 H 42.695405 30.855196 64.340793 0
M  V30 50 H 41.729192 30.470809 65.745184 0
M  V30 51 H 36.468150 35.319174 62.137254 0
M  V30 52 H 35.049487 34.422452 61.622120 0
M  V30 53 H 36.239843 33.621456 62.517889 0
M  V30 54 H 37.844672 26.046623 53.800101 0
M  V30 55 H 36.667428 27.097354 54.523881 0
M  V30 56 H 39.650721 29.077759 55.947362 0
M  V30 57 H 37.899139 29.141758 56.265259 0
M  V30 58 H 37.155654 25.765580 56.362245 0
M  V30 59 H 39.674318 33.363764 63.665497 0
M  V30 60 H 39.492116 29.421185 62.464410 0
M  V30 61 H 40.668617 29.724947 63.664438 0
M  V30 62 H 39.643186 30.877077 64.474558 0
M  V30 63 H 37.689261 28.991585 59.688122 0
M  V30 64 H 38.287577 27.595517 60.550229 0
M  V30 65 H 37.378092 35.986587 59.805579 0
M  V30 66 H 37.305219 34.806033 58.496225 0
M  V30 67 H 35.834994 35.464380 59.204228 0
M  V30 68 H 41.672885 28.896096 58.716112 0
M  V30 69 H 42.348199 27.461308 59.452207 0
M  V30 70 H 42.667555 33.372911 63.441463 0
M  V30 71 H 41.717637 34.537261 64.330594 0
M  V30 72 H 39.150186 28.692041 57.912026 0
M  V30 73 H 39.396600 29.819322 53.851338 0
M  V30 74 H 39.306218 35.343184 60.674211 0
M  V30 75 H 38.668159 35.005531 62.253306 0
M  V30 76 H 39.963278 31.518661 60.646089 0
M  V30 77 H 40.267067 26.180095 59.053464 0
M  V30 78 H 40.787997 26.932299 57.574918 0
M  V30 79 H 36.239023 28.764720 53.198592 0
M  V30 80 H 37.425940 31.513322 61.284986 0
M  V30 81 H 37.950450 32.371129 62.671684 0
M  V30 82 H 41.543466 31.495346 62.181147 0
M  V30 83 H 41.129794 33.672679 61.053509 0
M  V30 84 H 41.108258 35.037093 62.118337 0
M  V30 END ATOM
M  V30 BEGIN BOND
M  V30 1 1 9 4
M  V30 2 1 10 2
M  V30 3 1 12 9
M  V30 4 1 13 5
M  V30 5 1 13 6
M  V30 6 1 14 6
M  V30 7 1 16 1
M  V30 8 1 17 6
M  V30 9 2 17 8
M  V30 10 1 20 16
M  V30 11 1 21 11
M  V30 12 1 22 16
M  V30 13 1 23 7
M  V30 14 1 23 9
M  V30 15 1 24 9
M  V30 16 1 25 1
M  V30 17 1 26 19
M  V30 18 1 27 8
M  V30 19 1 27 22
M  V30 20 1 28 5
M  V30 21 1 28 10
M  V30 22 1 28 14
M  V30 23 1 29 4
M  V30 24 1 31 20
M  V30 25 1 32 25
M  V30 26 1 32 27
M  V30 27 1 5 33 CFG=3
M  V30 28 1 34 4
M  V30 29 1 34 31
M  V30 30 1 35 19
M  V30 31 1 35 21
M  V30 32 1 35 31
M  V30 33 1 36 19
M  V30 34 1 36 29
M  V30 35 1 37 3
M  V30 36 1 37 11
M  V30 37 1 37 18
M  V30 38 1 37 26
M  V30 39 1 38 5
M  V30 40 2 38 15
M  V30 41 1 38 30
M  V30 42 1 39 1
M  V30 43 1 40 1
M  V30 44 1 41 2
M  V30 45 1 4 42 CFG=3
M  V30 46 1 6 43 CFG=3
M  V30 47 1 44 7
M  V30 48 1 45 7
M  V30 49 1 46 7
M  V30 50 1 47 8
M  V30 51 1 48 10
M  V30 52 1 49 11
M  V30 53 1 50 11
M  V30 54 1 51 12
M  V30 55 1 52 12
M  V30 56 1 53 12
M  V30 57 1 54 13
M  V30 58 1 55 13
M  V30 59 1 56 14
M  V30 60 1 57 14
M  V30 61 1 58 17
M  V30 62 1 19 59 CFG=1
M  V30 63 1 60 20
M  V30 64 1 61 21
M  V30 65 1 62 21
M  V30 66 1 63 22
M  V30 67 1 64 22
M  V30 68 1 65 24
M  V30 69 1 66 24
M  V30 70 1 67 24
M  V30 71 1 68 25
M  V30 72 1 69 25
M  V30 73 1 70 26
M  V30 74 1 71 26
M  V30 75 1 27 72 CFG=3
M  V30 76 1 28 73 CFG=3
M  V30 77 1 74 29
M  V30 78 1 75 29
M  V30 79 1 31 76 CFG=3
M  V30 80 1 77 32
M  V30 81 1 78 32
M  V30 82 1 79 33
M  V30 83 1 80 34
M  V30 84 1 81 34
M  V30 85 1 35 82 CFG=3
M  V30 86 1 83 36
M  V30 87 1 84 36
M  V30 END BOND
M  V30 END CTAB
M  END
>  <i_epik_Tot_Q>  (1) 
-1

>  <i_epik_Tot_abs_Q>  (1) 
1

>  <i_i_glide_confnum>  (1) 
68

>  <i_i_glide_lignum>  (1) 
229

>  <i_i_glide_posenum>  (1) 
151

>  <i_i_glide_rotatable_bonds>  (1) 
10

>  <i_lp_mmshare_version>  (1) 
72125

>  <i_m_source_file_index>  (1) 
91

>  <i_f3d_flags>  (1) 
0

>  <num_sample>  (1) 
100

>  <b_lp_Chiralities_Consistent>  (1) 
1

>  <r_epik_Charging_Adjusted_Penalty>  (1) 
0.43821527866000726

>  <r_epik_Ionization_Penalty>  (1) 
0.52002734918543769

>  <r_epik_Ionization_Penalty_Charging>  (1) 
0.00012691742049533285

>  <r_epik_Ionization_Penalty_Neutral>  (1) 
0.51990043176494238

>  <r_epik_State_Penalty>  (1) 
0.43808836123951195

>  <r_glide_ring_energy>  (1) 
0.52270073413307983

>  <r_i_docking_score>  (1) 
-7.1137825420530492

>  <r_i_glide_ecoul>  (1) 
-0.40925577335099783

>  <r_i_glide_eff_state_penalty>  (1) 
0.43808836123951195

>  <r_i_glide_einternal>  (1) 
18.069193529280682

>  <r_i_glide_emodel>  (1) 
-39.058674302403659

>  <r_i_glide_emodel_strain>  (1) 
4.5439913398646183

>  <r_i_glide_energy>  (1) 
-37.7659628435079

>  <r_i_glide_erotb>  (1) 
0.42146348941000378

>  <r_i_glide_esite>  (1) 
-0.090309356854315945

>  <r_i_glide_evdw>  (1) 
-37.356707070156901

>  <r_i_glide_gscore>  (1) 
-7.5518709032925608

>  <r_i_glide_gscore_strain>  (1) 
0.13599783496615458

>  <r_i_glide_hbond>  (1) 
-0.11070238329658423

>  <r_i_glide_ligand_efficiency>  (1) 
-0.18720480373823814

>  <r_i_glide_ligand_efficiency_ln>  (1) 
-1.5339407823471591

>  <r_i_glide_ligand_efficiency_sa>  (1) 
-0.62937794620258336

>  <r_i_glide_lipo>  (1) 
-4.445164172287412

>  <r_i_glide_metal>  (1) 
-0

>  <r_i_glide_rewards>  (1) 
-1.5339325957199119

>  <r_lp_Energy>  (1) 
50.148589000000001

>  <s_epik_Chemistry_Notes>  (1) 
This compound has a N-S or N-O group and may undergo hydrolysis at high or low pH.

>  <s_epik_cmdline>  (1) 
J2VwaWtfcHl0aG9uJywgJy1waHQnLCAnMS4wJywgJy1waCcsICc3LjQnLCAnLXRuJywgJzgnLCAnLW1hJywgJzUwMCcsICctaW1hZScsICc8aW5maWxlLm1hZT4nLCAnLW9tYWUnLCAnPG91dGZpbGUubWFlPic=

>  <s_epik_input>  (1) 
RkMoRikoW0NIMl0xKVtDSDJdW0NIMl1bQ0BIXShbQ0BASF0xMilbQ0BIXShbQ0gyXVtDQEhdKFtDSDJdW0NIMl0yKUMoW0NIM10pKFtDSDNdKU9bQ0gzXSlbTkhdTjNbQ0gyXVtDSDJdW0NIMl1bQ0BIXShbQ0gyXTMpL1tDSF09W0NIXVxbQ0BASF0oW0NIMl1bQ0BdNChbT0hdKUMoPU8pW09IXSlbQ0gyXVtDQEBIXTRbTkhdW09IXQ==

>  <s_glide_docking_method>  (1) 
confgen

>  <s_i_glide_gridfile>  (1) 
gpcr_5ht2c_6bqh_protein_autoprepared_prepared

>  <s_lp_Force_Field>  (1) 
S-OPLS

>  <s_lp_Variant>  (1) 
DiffSBDD_90_num_sample_100-1

>  <s_m_source_file>  (1) 
generated__ligand_DiffSBDD_2026-05-06_prepared.sdf

>  <GenAI_Model>  (1) 
DiffSBDD

>  <Protein>  (1) 
GPCR_5HT2C

$$$$
DiffSBDD_66_num_sample_100
     RDKit          3D

  0  0  0  0  0  0  0  0  0  0999 V3000
M  V30 BEGIN CTAB
M  V30 COUNTS 111 115 0 0 1
M  V30 BEGIN ATOM
M  V30 1 C 41.120493 27.439570 66.556602 0
M  V30 2 C 40.103175 31.088930 61.536935 0
M  V30 3 C 40.267443 36.475989 68.059453 0
M  V30 4 C 36.816096 35.422726 59.848398 0
M  V30 5 C 38.921697 26.253983 55.104237 0
M  V30 6 C 38.022772 25.508929 57.416180 0
M  V30 7 C 41.568494 36.044341 66.036544 0
M  V30 8 S 39.696169 34.205874 61.027452 0
M  V30 9 C 40.326910 32.012853 62.737209 0 CFG=1
M  V30 10 C 40.243034 28.621625 66.619807 0
M  V30 11 C 43.036515 29.735709 67.187589 0
M  V30 12 C 41.983392 30.449682 66.745891 0
M  V30 13 C 38.297582 28.491429 53.993303 0
M  V30 14 C 41.817603 25.415428 66.092883 0
M  V30 15 C 37.868337 30.412081 58.899432 0 CFG=2
M  V30 16 C 42.978785 28.377383 67.794651 0
M  V30 17 C 42.220118 31.857257 66.246881 0
M  V30 18 O 39.172054 30.781033 53.901354 0
M  V30 19 C 41.534517 33.827794 64.825930 0 CFG=1
M  V30 20 N 40.779652 26.297784 65.991332 0 CHG=1
M  V30 21 C 41.126631 36.928072 67.053495 0
M  V30 22 C 41.120932 34.742414 66.000282 0
M  V30 23 C 37.835970 27.320083 54.848851 0
M  V30 24 C 44.170733 25.607435 67.235210 0
M  V30 25 C 40.612124 29.918393 66.723115 0
M  V30 26 C 36.880166 31.496268 59.476164 0
M  V30 27 C 38.479579 25.090179 56.011439 0 CFG=1
M  V30 28 C 38.678167 30.915335 57.657284 0
M  V30 29 C 41.293506 32.319743 65.078723 0 CFG=1
M  V30 30 C 41.283090 31.421892 63.807780 0 CFG=2
M  V30 31 C 35.497480 33.676643 61.030493 0
M  V30 32 C 39.708245 29.939640 57.078402 0
M  V30 33 N 42.339856 27.332475 67.045350 0
M  V30 34 C 40.258877 34.292725 67.016423 0
M  V30 35 C 42.827522 26.065075 66.787751 0
M  V30 36 C 36.976188 29.277580 58.345760 0
M  V30 37 O 37.440433 24.363107 55.392664 0
M  V30 38 C 38.784263 29.810981 60.036501 0
M  V30 39 C 37.232932 32.998657 59.280145 0
M  V30 40 C 36.887636 33.993428 60.427599 0
M  V30 41 C 40.749745 33.446375 62.328963 0 CFG=2
M  V30 42 N 38.954279 30.674600 61.196810 0
M  V30 43 C 39.705708 29.455739 55.818664 0
M  V30 44 C 37.955525 33.967211 61.558603 0
M  V30 45 C 39.838235 35.152281 68.044617 0
M  V30 46 C 42.670286 31.064287 63.266182 0
M  V30 47 C 38.370573 28.400339 52.650833 0
M  V30 48 C 38.666055 29.773926 54.756203 0 CFG=2
M  V30 49 C 40.854920 34.382264 63.544863 0
M  V30 50 H 41.006684 30.813414 60.986601 0
M  V30 51 H 39.939462 37.147277 68.839974 0
M  V30 52 H 37.775195 35.753522 59.454708 0
M  V30 53 H 36.509383 36.145671 60.604228 0
M  V30 54 H 36.092469 35.485915 59.034861 0
M  V30 55 H 39.257550 25.853563 54.148846 0
M  V30 56 H 39.803025 26.708089 55.551398 0
M  V30 57 H 38.791652 26.097267 57.918396 0
M  V30 58 H 37.818182 24.633796 58.034310 0
M  V30 59 H 37.108041 26.101460 57.386313 0
M  V30 60 H 42.232396 36.406563 65.266726 0
M  V30 61 H 39.190484 28.421699 66.532242 0
M  V30 62 H 44.016558 30.193098 67.168372 0
M  V30 63 H 41.764351 24.419686 65.694394 0
M  V30 64 H 44.005028 28.081231 68.004572 0
M  V30 65 H 42.478110 28.443176 68.761091 0
M  V30 66 H 42.118181 32.500266 67.118217 0
M  V30 67 H 43.262000 31.972873 65.946757 0
M  V30 68 H 38.841019 31.615788 54.197270 0
M  V30 69 H 42.609581 33.953694 64.680834 0
M  V30 70 H 41.466172 37.952260 67.057425 0
M  V30 71 H 36.986534 26.859013 54.348649 0
M  V30 72 H 37.467422 27.715111 55.791731 0
M  V30 73 H 44.267443 24.538288 67.051881 0
M  V30 74 H 44.296697 25.769608 68.306001 0
M  V30 75 H 44.950613 26.148844 66.701307 0
M  V30 76 H 39.812898 30.640623 66.705731 0
M  V30 77 H 35.884787 31.365716 59.053063 0
M  V30 78 H 36.685971 31.275590 60.522231 0
M  V30 79 H 39.331682 24.420689 56.120846 0
M  V30 80 H 37.989627 31.293446 56.904535 0
M  V30 81 H 39.284852 31.776411 57.909442 0
M  V30 82 H 40.255876 32.232103 65.379702 0
M  V30 83 H 40.842841 30.470436 64.108093 0
M  V30 84 H 35.466740 32.718024 61.546260 0
M  V30 85 H 34.726001 33.652650 60.259358 0
M  V30 86 H 35.204791 34.420757 61.769787 0
M  V30 87 H 40.498454 29.630564 57.745402 0
M  V30 88 H 39.868351 33.313647 66.989576 0
M  V30 89 H 36.208124 28.979110 59.054452 0
M  V30 90 H 37.555948 28.393861 58.079199 0
M  V30 91 H 36.440852 29.606415 57.453624 0
M  V30 92 H 36.704455 24.940947 55.260987 0
M  V30 93 H 38.314848 28.898379 60.399492 0
M  V30 94 H 39.740284 29.455311 59.660140 0
M  V30 95 H 38.281453 33.129460 59.055721 0
M  V30 96 H 36.732739 33.316929 58.363976 0
M  V30 97 H 41.738187 33.400152 61.875666 0
M  V30 98 H 40.495455 28.783915 55.519065 0
M  V30 99 H 37.751637 34.777669 62.253454 0
M  V30 100 H 37.847460 33.034222 62.103461 0
M  V30 101 H 39.164844 34.792381 68.808461 0
M  V30 102 H 43.067379 31.868044 62.654572 0
M  V30 103 H 42.608449 30.167605 62.653636 0
M  V30 104 H 43.391015 30.832641 64.047780 0
M  V30 105 H 38.696985 29.234306 52.049017 0
M  V30 106 H 38.102383 27.486153 52.140367 0
M  V30 107 H 37.736150 30.136034 55.189084 0
M  V30 108 H 41.360629 35.299551 63.239340 0
M  V30 109 H 39.859401 34.705639 63.806974 0
M  V30 110 H 39.893121 26.114418 65.539058 0
M  V30 111 H 39.367104 32.097167 63.240846 0
M  V30 END ATOM
M  V30 BEGIN BOND
M  V30 1 1 9 2
M  V30 2 1 10 1
M  V30 3 2 12 11
M  V30 4 1 16 11
M  V30 5 1 17 12
M  V30 6 2 20 1
M  V30 7 1 20 14
M  V30 8 2 21 3
M  V30 9 1 21 7
M  V30 10 2 22 7
M  V30 11 1 22 19
M  V30 12 1 23 5
M  V30 13 1 23 13
M  V30 14 2 25 10
M  V30 15 1 25 12
M  V30 16 1 26 15
M  V30 17 1 27 5
M  V30 18 1 27 6
M  V30 19 1 15 28 CFG=3
M  V30 20 1 29 17
M  V30 21 1 29 19
M  V30 22 1 30 9
M  V30 23 1 30 29
M  V30 24 1 32 28
M  V30 25 1 33 1
M  V30 26 1 33 16
M  V30 27 1 34 22
M  V30 28 2 35 14
M  V30 29 1 35 24
M  V30 30 1 35 33
M  V30 31 1 36 15
M  V30 32 1 37 27
M  V30 33 1 38 15
M  V30 34 1 39 26
M  V30 35 1 40 4
M  V30 36 1 40 31
M  V30 37 1 40 39
M  V30 38 1 41 8
M  V30 39 1 41 9
M  V30 40 2 42 2
M  V30 41 1 42 38
M  V30 42 2 43 32
M  V30 43 1 44 8
M  V30 44 1 44 40
M  V30 45 1 45 3
M  V30 46 2 45 34
M  V30 47 1 46 30
M  V30 48 2 47 13
M  V30 49 1 48 13
M  V30 50 1 48 18
M  V30 51 1 48 43
M  V30 52 1 49 19
M  V30 53 1 49 41
M  V30 54 1 50 2
M  V30 55 1 51 3
M  V30 56 1 52 4
M  V30 57 1 53 4
M  V30 58 1 54 4
M  V30 59 1 55 5
M  V30 60 1 56 5
M  V30 61 1 57 6
M  V30 62 1 58 6
M  V30 63 1 59 6
M  V30 64 1 60 7
M  V30 65 1 61 10
M  V30 66 1 62 11
M  V30 67 1 63 14
M  V30 68 1 64 16
M  V30 69 1 65 16
M  V30 70 1 66 17
M  V30 71 1 67 17
M  V30 72 1 68 18
M  V30 73 1 19 69 CFG=3
M  V30 74 1 70 21
M  V30 75 1 71 23
M  V30 76 1 72 23
M  V30 77 1 73 24
M  V30 78 1 74 24
M  V30 79 1 75 24
M  V30 80 1 76 25
M  V30 81 1 77 26
M  V30 82 1 78 26
M  V30 83 1 27 79 CFG=1
M  V30 84 1 80 28
M  V30 85 1 81 28
M  V30 86 1 29 82 CFG=1
M  V30 87 1 30 83 CFG=1
M  V30 88 1 84 31
M  V30 89 1 85 31
M  V30 90 1 86 31
M  V30 91 1 87 32
M  V30 92 1 88 34
M  V30 93 1 89 36
M  V30 94 1 90 36
M  V30 95 1 91 36
M  V30 96 1 92 37
M  V30 97 1 93 38
M  V30 98 1 94 38
M  V30 99 1 95 39
M  V30 100 1 96 39
M  V30 101 1 41 97 CFG=3
M  V30 102 1 98 43
M  V30 103 1 99 44
M  V30 104 1 100 44
M  V30 105 1 101 45
M  V30 106 1 102 46
M  V30 107 1 103 46
M  V30 108 1 104 46
M  V30 109 1 105 47
M  V30 110 1 106 47
M  V30 111 1 48 107 CFG=1
M  V30 112 1 108 49
M  V30 113 1 109 49
M  V30 114 1 110 20
M  V30 115 1 9 111 CFG=1
M  V30 END BOND
M  V30 END CTAB
M  END
>  <i_epik_Tot_Q>  (1) 
1

>  <i_epik_Tot_abs_Q>  (1) 
1

>  <i_i_glide_confnum>  (1) 
480

>  <i_i_glide_lignum>  (1) 
175

>  <i_i_glide_posenum>  (1) 
96

>  <i_i_glide_rotatable_bonds>  (1) 
12

>  <i_lp_mmshare_version>  (1) 
72125

>  <i_m_source_file_index>  (1) 
67

>  <i_f3d_flags>  (1) 
0

>  <num_sample>  (1) 
100

>  <b_lp_Chiralities_Consistent>  (1) 
1

>  <r_epik_Charging_Adjusted_Penalty>  (1) 
1.1641737349406356

>  <r_epik_Ionization_Penalty>  (1) 
1.1550326719201827

>  <r_epik_Ionization_Penalty_Charging>  (1) 
0

>  <r_epik_Ionization_Penalty_Neutral>  (1) 
1.1550326719201827

>  <r_epik_State_Penalty>  (1) 
1.1641737349406356

>  <r_glide_ring_energy>  (1) 
0

>  <r_i_docking_score>  (1) 
-7.1078675175941681

>  <r_i_glide_ecoul>  (1) 
-0.41471497645583666

>  <r_i_glide_eff_state_penalty>  (1) 
1.1641737349406356

>  <r_i_glide_einternal>  (1) 
8.8149972135788506

>  <r_i_glide_emodel>  (1) 
-66.361614773562579

>  <r_i_glide_emodel_strain>  (1) 
3.386130266779972

>  <r_i_glide_energy>  (1) 
-41.574743905096454

>  <r_i_glide_erotb>  (1) 
0.28694684240539414

>  <r_i_glide_esite>  (1) 
-0.00065303708382662357

>  <r_i_glide_evdw>  (1) 
-41.160028928640621

>  <r_i_glide_gscore>  (1) 
-8.2720412525348035

>  <r_i_glide_gscore_strain>  (1) 
0

>  <r_i_glide_hbond>  (1) 
0

>  <r_i_glide_ligand_efficiency>  (1) 
-0.14505852076722792

>  <r_i_glide_ligand_efficiency_ln>  (1) 
-1.453010757639533

>  <r_i_glide_ligand_efficiency_sa>  (1) 
-0.53081347333100304

>  <r_i_glide_lipo>  (1) 
-5.6753265612143

>  <r_i_glide_metal>  (1) 
-0

>  <r_i_glide_rewards>  (1) 
-0.7627998037416639

>  <r_lp_Energy>  (1) 
61.575507999999999

>  <s_epik_Chemistry_Notes>  (1) 
This compound has an imine and may undergo hydrolysis.

>  <s_epik_cmdline>  (1) 
J2VwaWtfcHl0aG9uJywgJy1waHQnLCAnMS4wJywgJy1waCcsICc3LjQnLCAnLXRuJywgJzgnLCAnLW1hJywgJzUwMCcsICctaW1hZScsICc8aW5maWxlLm1hZT4nLCAnLW9tYWUnLCAnPG91dGZpbGUubWFlPic=

>  <s_epik_input>  (1) 
bjFbY0hdYyhbQ0gzXSluKGMxMilbQ0gyXVtDSF09QyhbQ0hdPVtDSF0yKVtDSDJdW0NASF0oW0NAQEhdM1tDSDNdKVtDQEhdKGM0W2NIXVtjSF1bY0hdW2NIXVtjSF00KVtDSDJdW0NAQEhdKFtDQEhdMzUpU1tDSDJdQyhbQ0gzXSkoW0NIM10pW0NIMl1bQ0gyXVtDQF0oW0NIM10pKFtDSDJdXE49W0NIXVw1KVtDSDJdL1tDSF09W0NIXVxbQ0BASF0oW09IXSlDKD1bQ0gyXSlbQ0gyXVtDSDJdW0NAQEhdKFtDSDNdKVtPSF0=

>  <s_glide_docking_method>  (1) 
confgen

>  <s_i_glide_gridfile>  (1) 
gpcr_5ht2c_6bqh_protein_autoprepared_prepared

>  <s_lp_Force_Field>  (1) 
S-OPLS

>  <s_lp_Variant>  (1) 
DiffSBDD_66_num_sample_100-12

>  <s_m_source_file>  (1) 
generated__ligand_DiffSBDD_2026-05-06_prepared.sdf

>  <GenAI_Model>  (1) 
DiffSBDD

>  <Protein>  (1) 
GPCR_5HT2C

$$$$
DiffSBDD_0_num_sample_100
     RDKit          3D

  0  0  0  0  0  0  0  0  0  0999 V3000
M  V30 BEGIN CTAB
M  V30 COUNTS 59 61 0 0 1
M  V30 BEGIN ATOM
M  V30 1 C 39.772413 30.183362 52.186798 0
M  V30 2 C 37.867421 28.157574 55.596642 0 CFG=1
M  V30 3 C 40.560862 34.438297 61.635686 0
M  V30 4 C 38.376158 33.146177 59.012473 0
M  V30 5 C 39.528294 29.400384 51.008140 0
M  V30 6 C 38.725742 27.476038 52.570140 0
M  V30 7 C 38.201546 35.010269 61.363718 0
M  V30 8 C 40.758266 35.618297 62.372699 0
M  V30 9 C 39.281382 34.132244 61.128961 0
M  V30 10 C 38.189789 25.739337 56.321084 0 CFG=2
M  V30 11 N 37.772468 30.080515 57.123508 0
M  V30 12 C 37.979599 30.716037 58.410375 0
M  V30 13 C 37.906670 32.210423 58.173044 0
M  V30 14 C 39.678799 36.489313 62.604975 0
M  V30 15 F 37.366724 37.030111 62.328967 0
M  V30 16 C 38.402601 36.186903 62.100757 0
M  V30 17 C 39.063876 32.862969 60.338211 0 CFG=1
M  V30 18 C 39.040772 28.123769 51.155941 0
M  V30 19 N 37.841257 31.110021 61.853491 0
M  V30 20 C 37.833151 28.634833 57.071658 0
M  V30 21 C 39.702559 29.592233 53.349561 0
M  V30 22 C 39.260728 28.369280 55.011018 0 CFG=1
M  V30 23 N 37.506544 26.729360 55.474548 0
M  V30 24 O 39.867394 37.621433 63.319972 0
M  V30 25 C 38.225524 24.392082 55.594402 0
M  V30 26 C 37.552352 25.584275 57.717277 0
M  V30 27 C 36.857882 23.780243 55.249595 0
M  V30 28 N 39.462648 28.281548 53.547767 0
M  V30 29 S 39.867403 30.138544 54.953486 0
M  V30 30 C 38.375124 31.880906 61.182292 0
M  V30 31 Cl 39.867407 30.041609 49.453502 0
M  V30 32 H 39.995997 31.238332 52.114736 0
M  V30 33 H 37.145114 28.744264 55.025574 0
M  V30 34 H 41.389242 33.767415 61.459405 0
M  V30 35 H 38.267410 34.184546 58.743368 0
M  V30 36 H 37.651637 27.486447 52.755387 0
M  V30 37 H 39.081470 26.446174 52.596842 0
M  V30 38 H 37.219242 34.777417 60.978619 0
M  V30 39 H 41.737509 35.855685 62.763542 0
M  V30 40 H 39.231928 26.024365 56.463897 0
M  V30 41 H 38.430076 30.462880 56.449417 0
M  V30 42 H 38.944446 30.439811 58.836339 0
M  V30 43 H 37.193878 30.418551 59.105814 0
M  V30 44 H 37.438172 32.526001 57.253333 0
M  V30 45 H 40.039451 32.433144 60.129236 0
M  V30 46 H 38.853976 27.512999 50.284947 0
M  V30 47 H 38.720361 28.280040 57.596913 0
M  V30 48 H 36.966791 28.233475 57.594281 0
M  V30 49 H 40.025383 27.769124 55.505144 0
M  V30 50 H 37.618896 26.455418 54.504227 0
M  V30 51 H 39.052269 38.020666 63.582294 0
M  V30 52 H 38.823401 24.478299 54.686765 0
M  V30 53 H 38.753591 23.698933 56.246202 0
M  V30 54 H 37.854781 24.646848 58.184838 0
M  V30 55 H 37.867446 26.366733 58.403512 0
M  V30 56 H 36.462548 25.588667 57.667316 0
M  V30 57 H 36.986514 22.821424 54.745532 0
M  V30 58 H 36.267350 23.601553 56.147297 0
M  V30 59 H 36.280977 24.421419 54.584260 0
M  V30 END ATOM
M  V30 BEGIN BOND
M  V30 1 1 5 1
M  V30 2 2 8 3
M  V30 3 1 9 3
M  V30 4 2 9 7
M  V30 5 1 12 11
M  V30 6 2 13 4
M  V30 7 1 13 12
M  V30 8 1 14 8
M  V30 9 1 16 7
M  V30 10 2 16 14
M  V30 11 1 16 15
M  V30 12 1 17 4
M  V30 13 1 17 9
M  V30 14 2 18 5
M  V30 15 1 18 6
M  V30 16 1 20 2
M  V30 17 1 20 11
M  V30 18 2 21 1
M  V30 19 1 22 2
M  V30 20 1 23 2
M  V30 21 1 23 10
M  V30 22 1 24 14
M  V30 23 1 25 10
M  V30 24 1 26 10
M  V30 25 1 27 25
M  V30 26 1 28 6
M  V30 27 1 28 21
M  V30 28 1 28 22
M  V30 29 1 29 21
M  V30 30 1 29 22
M  V30 31 1 30 17
M  V30 32 3 30 19
M  V30 33 1 31 5
M  V30 34 1 32 1
M  V30 35 1 2 33 CFG=3
M  V30 36 1 34 3
M  V30 37 1 35 4
M  V30 38 1 36 6
M  V30 39 1 37 6
M  V30 40 1 38 7
M  V30 41 1 39 8
M  V30 42 1 10 40 CFG=1
M  V30 43 1 41 11
M  V30 44 1 42 12
M  V30 45 1 43 12
M  V30 46 1 44 13
M  V30 47 1 17 45 CFG=3
M  V30 48 1 46 18
M  V30 49 1 47 20
M  V30 50 1 48 20
M  V30 51 1 22 49 CFG=1
M  V30 52 1 50 23
M  V30 53 1 51 24
M  V30 54 1 52 25
M  V30 55 1 53 25
M  V30 56 1 54 26
M  V30 57 1 55 26
M  V30 58 1 56 26
M  V30 59 1 57 27
M  V30 60 1 58 27
M  V30 61 1 59 27
M  V30 END BOND
M  V30 END CTAB
M  END
>  <i_epik_Tot_Q>  (1) 
0

>  <i_epik_Tot_abs_Q>  (1) 
0

>  <i_i_glide_confnum>  (1) 
1136

>  <i_i_glide_lignum>  (1) 
2

>  <i_i_glide_posenum>  (1) 
57

>  <i_i_glide_rotatable_bonds>  (1) 
11

>  <i_lp_mmshare_version>  (1) 
72125

>  <i_m_source_file_index>  (1) 
1

>  <i_f3d_flags>  (1) 
0

>  <num_sample>  (1) 
100

>  <b_lp_Chiralities_Consistent>  (1) 
1

>  <r_epik_Charging_Adjusted_Penalty>  (1) 
0.47819495767320574

>  <r_epik_Ionization_Penalty>  (1) 
0.67182721305937398

>  <r_epik_Ionization_Penalty_Charging>  (1) 
0

>  <r_epik_Ionization_Penalty_Neutral>  (1) 
0.67182721305937398

>  <r_epik_State_Penalty>  (1) 
0.47819495767320574

>  <r_glide_ring_energy>  (1) 
0

>  <r_i_docking_score>  (1) 
-7.0964248868802269

>  <r_i_glide_ecoul>  (1) 
-0.04808173782867331

>  <r_i_glide_eff_state_penalty>  (1) 
0.47819495767320574

>  <r_i_glide_einternal>  (1) 
7.264753469998908

>  <r_i_glide_emodel>  (1) 
-48.74654848078373

>  <r_i_glide_emodel_strain>  (1) 
1.3040394323687252

>  <r_i_glide_energy>  (1) 
-33.721003383851418

>  <r_i_glide_erotb>  (1) 
0.75184865993743433

>  <r_i_glide_esite>  (1) 
0

>  <r_i_glide_evdw>  (1) 
-33.672921646022743

>  <r_i_glide_gscore>  (1) 
-7.5746198445534327

>  <r_i_glide_gscore_strain>  (1) 
0

>  <r_i_glide_hbond>  (1) 
-0.24091001506745141

>  <r_i_glide_ligand_efficiency>  (1) 
-0.22891693183484602

>  <r_i_glide_ligand_efficiency_ln>  (1) 
-1.6004612912959975

>  <r_i_glide_ligand_efficiency_sa>  (1) 
-0.71911522067078482

>  <r_i_glide_lipo>  (1) 
-4.7751919441527946

>  <r_i_glide_metal>  (1) 
-0

>  <r_i_glide_rewards>  (1) 
-1.6195082022951832

>  <r_lp_Energy>  (1) 
38.439779000000001

>  <r_lp_tautomer_probability>  (1) 
0.99999999999736477

>  <s_epik_Chemistry_Notes>  (1) 
This compound contains an acetal/aminal-like group ( X-CH(R)-Y where X, Y are N, S, or O) that may be acid/base labile, releasing an aldehyde.

>  <s_epik_cmdline>  (1) 
J2VwaWtfcHl0aG9uJywgJy1waHQnLCAnMS4wJywgJy1waCcsICc3LjQnLCAnLXRuJywgJzgnLCAnLW1hJywgJzUwMCcsICctaW1hZScsICc8aW5maWxlLm1hZT4nLCAnLW9tYWUnLCAnPG91dGZpbGUubWFlPic=

>  <s_epik_input>  (1) 
W0NIXT0xQyhDbCk9W0NIXVtDSDJdTihDMTIpW0NAQEhdKFMyKVtDQEBIXShbTkhdW0NAQEhdKFtDSDNdKVtDSDJdW0NIM10pW0NIMl1bTkhdW0NIMl0vW0NIXT1bQ0hdXFtDQEhdKEMjTiljM1tjSF1bY0hdYyhbT0hdKWMoRilbY0hdMw==

>  <s_glide_docking_method>  (1) 
confgen

>  <s_i_glide_gridfile>  (1) 
gpcr_5ht2c_6bqh_protein_autoprepared_prepared

>  <s_lp_Force_Field>  (1) 
S-OPLS

>  <s_lp_Variant>  (1) 
DiffSBDD_0_num_sample_100-2

>  <s_m_source_file>  (1) 
generated__ligand_DiffSBDD_2026-05-06_prepared.sdf

>  <GenAI_Model>  (1) 
DiffSBDD

>  <Protein>  (1) 
GPCR_5HT2C

$$$$
DiffSBDD_28_num_sample_100
     RDKit          3D

  0  0  0  0  0  0  0  0  0  0999 V3000
M  V30 BEGIN CTAB
M  V30 COUNTS 37 38 0 0 1
M  V30 BEGIN ATOM
M  V30 1 C 39.492621 28.528600 59.736410 0
M  V30 2 C 37.854373 27.180432 54.454669 0
M  V30 3 C 38.668131 31.247274 61.946141 0
M  V30 4 O 37.501841 31.612360 61.796169 0
M  V30 5 S 39.467405 28.362772 50.763869 0
M  V30 6 O 41.065862 30.421439 50.243583 0
M  V30 7 C 39.932850 30.528552 52.294063 0
M  V30 8 C 38.817029 27.285091 53.281386 0
M  V30 9 C 39.635386 26.742379 56.237794 0
M  V30 10 C 39.998470 27.721650 57.369428 0
M  V30 11 C 40.281459 29.935314 51.053501 0
M  V30 12 C 39.067403 29.812971 52.984560 0
M  V30 13 C 38.207960 26.942950 55.736356 0
M  V30 14 C 38.552409 28.507331 52.399638 0 CFG=1
M  V30 15 C 40.941058 28.535347 60.393217 0
M  V30 16 C 40.517665 29.732106 61.334642 0
M  V30 17 C 39.281763 30.154427 61.176684 0
M  V30 18 C 39.171206 27.518665 58.653501 0
M  V30 19 C 38.651464 29.435753 60.212287 0
M  V30 20 H 36.807901 27.306558 54.218239 0
M  V30 21 H 39.327797 31.719091 62.674811 0
M  V30 22 H 40.351437 31.469784 52.615100 0
M  V30 23 H 39.867395 27.227278 53.540802 0
M  V30 24 H 38.624219 26.421409 52.656801 0
M  V30 25 H 40.388287 26.824594 55.460781 0
M  V30 26 H 39.716739 25.719275 56.607296 0
M  V30 27 H 39.883513 28.746491 57.012620 0
M  V30 28 H 41.056477 27.599790 57.605475 0
M  V30 29 H 38.704826 30.131748 53.951285 0
M  V30 30 H 37.433507 26.884110 56.484345 0
M  V30 31 H 37.486687 28.604213 52.187514 0
M  V30 32 H 41.723901 28.792568 59.680173 0
M  V30 33 H 41.163681 27.621432 60.941839 0
M  V30 34 H 41.210800 30.149095 62.050778 0
M  V30 35 H 39.335507 26.517619 59.053080 0
M  V30 36 H 38.106982 27.596435 58.437341 0
M  V30 37 H 37.629861 29.577176 59.888373 0
M  V30 END ATOM
M  V30 BEGIN BOND
M  V30 1 2 4 3
M  V30 2 1 8 2
M  V30 3 1 10 9
M  V30 4 1 11 5
M  V30 5 2 11 6
M  V30 6 1 11 7
M  V30 7 2 12 7
M  V30 8 2 13 2
M  V30 9 1 13 9
M  V30 10 1 14 5
M  V30 11 1 14 8
M  V30 12 1 14 12
M  V30 13 1 15 1
M  V30 14 1 16 15
M  V30 15 1 17 3
M  V30 16 2 17 16
M  V30 17 1 18 1
M  V30 18 1 18 10
M  V30 19 2 19 1
M  V30 20 1 19 17
M  V30 21 1 20 2
M  V30 22 1 21 3
M  V30 23 1 22 7
M  V30 24 1 23 8
M  V30 25 1 24 8
M  V30 26 1 25 9
M  V30 27 1 26 9
M  V30 28 1 27 10
M  V30 29 1 28 10
M  V30 30 1 29 12
M  V30 31 1 30 13
M  V30 32 1 14 31 CFG=3
M  V30 33 1 32 15
M  V30 34 1 33 15
M  V30 35 1 34 16
M  V30 36 1 35 18
M  V30 37 1 36 18
M  V30 38 1 37 19
M  V30 END BOND
M  V30 END CTAB
M  END
>  <i_epik_Tot_Q>  (1) 
0

>  <i_epik_Tot_abs_Q>  (1) 
0

>  <i_i_glide_confnum>  (1) 
242

>  <i_i_glide_lignum>  (1) 
69

>  <i_i_glide_posenum>  (1) 
272

>  <i_i_glide_rotatable_bonds>  (1) 
7

>  <i_lp_mmshare_version>  (1) 
72125

>  <i_m_source_file_index>  (1) 
29

>  <i_f3d_flags>  (1) 
0

>  <num_sample>  (1) 
100

>  <b_lp_Chiralities_Consistent>  (1) 
1

>  <r_epik_Charging_Adjusted_Penalty>  (1) 
0

>  <r_epik_Ionization_Penalty>  (1) 
0

>  <r_epik_Ionization_Penalty_Charging>  (1) 
0

>  <r_epik_Ionization_Penalty_Neutral>  (1) 
0

>  <r_epik_State_Penalty>  (1) 
-0

>  <r_glide_ring_energy>  (1) 
0

>  <r_i_docking_score>  (1) 
-7.0945437963493552

>  <r_i_glide_ecoul>  (1) 
-0.9768119827603271

>  <r_i_glide_eff_state_penalty>  (1) 
-0

>  <r_i_glide_einternal>  (1) 
1.4313654959722559

>  <r_i_glide_emodel>  (1) 
-49.247105921162515

>  <r_i_glide_emodel_strain>  (1) 
0.00093636022245391359

>  <r_i_glide_energy>  (1) 
-35.330629662989445

>  <r_i_glide_erotb>  (1) 
1.1924995267514154

>  <r_i_glide_esite>  (1) 
0

>  <r_i_glide_evdw>  (1) 
-34.35381768022912

>  <r_i_glide_gscore>  (1) 
-7.0945437963493552

>  <r_i_glide_gscore_strain>  (1) 
0

>  <r_i_glide_hbond>  (1) 
-0.3083336536393898

>  <r_i_glide_ligand_efficiency>  (1) 
-0.37339704191312395

>  <r_i_glide_ligand_efficiency_ln>  (1) 
-1.7986192292036958

>  <r_i_glide_ligand_efficiency_sa>  (1) 
-0.99637328226887734

>  <r_i_glide_lipo>  (1) 
-3.410857839274152

>  <r_i_glide_metal>  (1) 
-0

>  <r_i_glide_rewards>  (1) 
-2.7036391487617233

>  <r_lp_Energy>  (1) 
-7.8212549999999998

>  <r_lp_tautomer_probability>  (1) 
1

>  <s_epik_cmdline>  (1) 
J2VwaWtfcHl0aG9uJywgJy1waHQnLCAnMS4wJywgJy1waCcsICc3LjQnLCAnLXRuJywgJzgnLCAnLW1hJywgJzUwMCcsICctaW1hZScsICc8aW5maWxlLm1hZT4nLCAnLW9tYWUnLCAnPG91dGZpbGUubWFlPic=

>  <s_epik_input>  (1) 
Tz1bQ0hdQyg9W0NIXVtDSDJdMSlbQ0hdPUMxW0NIMl1bQ0gyXVtDSDJdL1tDSF09W0NIXVxbQ0gyXVtDQEhdKFNDMj1PKVtDSF09W0NIXTI=

>  <s_glide_docking_method>  (1) 
confgen

>  <s_i_glide_gridfile>  (1) 
gpcr_5ht2c_6bqh_protein_autoprepared_prepared

>  <s_lp_Force_Field>  (1) 
S-OPLS

>  <s_lp_Variant>  (1) 
DiffSBDD_28_num_sample_100-1

>  <s_m_source_file>  (1) 
generated__ligand_DiffSBDD_2026-05-06_prepared.sdf

>  <GenAI_Model>  (1) 
DiffSBDD

>  <Protein>  (1) 
GPCR_5HT2C

$$$$
DiffSBDD_0_num_sample_100
     RDKit          3D

  0  0  0  0  0  0  0  0  0  0999 V3000
M  V30 BEGIN CTAB
M  V30 COUNTS 59 61 0 0 1
M  V30 BEGIN ATOM
M  V30 1 C 38.959227 26.705413 57.340964 0
M  V30 2 C 39.244714 29.654228 54.454993 0 CFG=1
M  V30 3 C 39.929192 32.821079 61.053619 0
M  V30 4 C 37.467447 33.538864 58.248769 0
M  V30 5 C 38.988653 25.452655 56.646335 0
M  V30 6 C 38.190527 26.718036 54.539088 0
M  V30 7 C 38.613213 34.844587 60.678840 0
M  V30 8 C 40.747333 33.523105 61.961652 0
M  V30 9 C 38.862586 33.479641 60.406374 0
M  V30 10 C 39.905620 29.513422 52.036200 0 CFG=2
M  V30 11 N 38.771019 31.974488 55.281301 0
M  V30 12 C 39.124229 32.624407 56.538987 0
M  V30 13 C 37.966844 33.497461 56.993598 0
M  V30 14 C 40.500203 34.883776 62.228265 0
M  V30 15 F 39.191316 36.851730 61.851414 0
M  V30 16 C 39.432118 35.543922 61.589398 0
M  V30 17 C 37.978317 32.712216 59.426152 0 CFG=1
M  V30 18 C 38.626508 25.427458 55.329312 0
M  V30 19 N 35.983771 31.621316 60.754896 0
M  V30 20 C 39.795921 31.066250 54.764492 0
M  V30 21 C 38.436595 27.748598 56.743222 0
M  V30 22 C 38.052494 29.225134 55.328583 0 CFG=1
M  V30 23 N 38.836822 29.591835 53.041826 0
M  V30 24 O 41.295194 35.562222 63.107354 0
M  V30 25 C 39.867358 30.671097 51.018114 0
M  V30 26 C 39.830912 28.151666 51.329748 0
M  V30 27 C 41.089395 30.745569 50.097496 0
M  V30 28 N 37.867406 27.764604 55.521630 0
M  V30 29 S 38.292710 29.384023 57.179506 0
M  V30 30 C 36.857535 32.101270 60.163467 0
M  V30 31 Cl 39.467335 24.021397 57.453424 0
M  V30 32 H 39.384621 26.795117 58.329626 0
M  V30 33 H 40.053690 28.954991 54.653078 0
M  V30 34 H 40.120856 31.776790 60.853254 0
M  V30 35 H 36.639905 34.200896 58.458277 0
M  V30 36 H 39.009568 27.015601 53.894331 0
M  V30 37 H 37.315707 26.504936 53.924274 0
M  V30 38 H 37.795587 35.354625 60.192663 0
M  V30 39 H 41.564643 33.016447 62.454345 0
M  V30 40 H 40.857113 29.621434 52.535328 0
M  V30 41 H 38.534051 32.665840 54.576653 0
M  V30 42 H 40.019984 33.221301 56.392936 0
M  V30 43 H 39.392770 31.883269 57.282207 0
M  V30 44 H 37.526101 34.124972 56.236312 0
M  V30 45 H 38.548007 31.859734 59.068696 0
M  V30 46 H 38.642555 24.496901 54.780392 0
M  V30 47 H 40.268156 31.505045 53.887750 0
M  V30 48 H 40.603156 30.955082 55.483608 0
M  V30 49 H 37.112454 29.704844 55.051117 0
M  V30 50 H 38.205354 28.806335 52.925231 0
M  V30 51 H 41.019585 36.457168 63.251864 0
M  V30 52 H 39.014012 30.567556 50.356405 0
M  V30 53 H 39.764113 31.621392 51.542456 0
M  V30 54 H 40.667253 28.021375 50.652848 0
M  V30 55 H 39.867961 27.318789 52.026214 0
M  V30 56 H 38.914266 28.051408 50.746223 0
M  V30 57 H 41.016763 31.619654 49.453109 0
M  V30 58 H 42.023515 30.811909 50.653400 0
M  V30 59 H 41.139058 29.883724 49.436063 0
M  V30 END ATOM
M  V30 BEGIN BOND
M  V30 1 1 5 1
M  V30 2 2 8 3
M  V30 3 1 9 3
M  V30 4 2 9 7
M  V30 5 1 12 11
M  V30 6 2 13 4
M  V30 7 1 13 12
M  V30 8 1 14 8
M  V30 9 1 16 7
M  V30 10 2 16 14
M  V30 11 1 16 15
M  V30 12 1 17 4
M  V30 13 1 17 9
M  V30 14 2 18 5
M  V30 15 1 18 6
M  V30 16 1 20 2
M  V30 17 1 20 11
M  V30 18 2 21 1
M  V30 19 1 22 2
M  V30 20 1 23 2
M  V30 21 1 23 10
M  V30 22 1 24 14
M  V30 23 1 25 10
M  V30 24 1 26 10
M  V30 25 1 27 25
M  V30 26 1 28 6
M  V30 27 1 28 21
M  V30 28 1 28 22
M  V30 29 1 29 21
M  V30 30 1 29 22
M  V30 31 1 30 17
M  V30 32 3 30 19
M  V30 33 1 31 5
M  V30 34 1 32 1
M  V30 35 1 2 33 CFG=3
M  V30 36 1 34 3
M  V30 37 1 35 4
M  V30 38 1 36 6
M  V30 39 1 37 6
M  V30 40 1 38 7
M  V30 41 1 39 8
M  V30 42 1 10 40 CFG=1
M  V30 43 1 41 11
M  V30 44 1 42 12
M  V30 45 1 43 12
M  V30 46 1 44 13
M  V30 47 1 17 45 CFG=3
M  V30 48 1 46 18
M  V30 49 1 47 20
M  V30 50 1 48 20
M  V30 51 1 22 49 CFG=3
M  V30 52 1 50 23
M  V30 53 1 51 24
M  V30 54 1 52 25
M  V30 55 1 53 25
M  V30 56 1 54 26
M  V30 57 1 55 26
M  V30 58 1 56 26
M  V30 59 1 57 27
M  V30 60 1 58 27
M  V30 61 1 59 27
M  V30 END BOND
M  V30 END CTAB
M  END
>  <i_epik_Tot_Q>  (1) 
0

>  <i_epik_Tot_abs_Q>  (1) 
0

>  <i_i_glide_confnum>  (1) 
1608

>  <i_i_glide_lignum>  (1) 
2

>  <i_i_glide_posenum>  (1) 
10

>  <i_i_glide_rotatable_bonds>  (1) 
11

>  <i_lp_mmshare_version>  (1) 
72125

>  <i_m_source_file_index>  (1) 
1

>  <i_f3d_flags>  (1) 
0

>  <num_sample>  (1) 
100

>  <b_lp_Chiralities_Consistent>  (1) 
1

>  <r_epik_Charging_Adjusted_Penalty>  (1) 
0.47819495767320574

>  <r_epik_Ionization_Penalty>  (1) 
0.67182721305937398

>  <r_epik_Ionization_Penalty_Charging>  (1) 
0

>  <r_epik_Ionization_Penalty_Neutral>  (1) 
0.67182721305937398

>  <r_epik_State_Penalty>  (1) 
0.47819495767320574

>  <r_glide_ring_energy>  (1) 
0

>  <r_i_docking_score>  (1) 
-7.0937125250762199

>  <r_i_glide_ecoul>  (1) 
-2.9901960311499676

>  <r_i_glide_eff_state_penalty>  (1) 
0.47819495767320574

>  <r_i_glide_einternal>  (1) 
11.864654288417487

>  <r_i_glide_emodel>  (1) 
-57.90636777499482

>  <r_i_glide_emodel_strain>  (1) 
3.4418539004914805

>  <r_i_glide_energy>  (1) 
-47.325735644985521

>  <r_i_glide_erotb>  (1) 
0.75184865993743433

>  <r_i_glide_esite>  (1) 
-0.05080226594502199

>  <r_i_glide_evdw>  (1) 
-44.33553961383555

>  <r_i_glide_gscore>  (1) 
-7.5719074827494257

>  <r_i_glide_gscore_strain>  (1) 
0

>  <r_i_glide_hbond>  (1) 
-0.026477823305099426

>  <r_i_glide_ligand_efficiency>  (1) 
-0.2288294362927813

>  <r_i_glide_ligand_efficiency_ln>  (1) 
-1.5998495705852873

>  <r_i_glide_ligand_efficiency_sa>  (1) 
-0.71884036386777206

>  <r_i_glide_lipo>  (1) 
-4.3858102705827013

>  <r_i_glide_metal>  (1) 
-0

>  <r_i_glide_rewards>  (1) 
-1.1953593974897665

>  <r_lp_Energy>  (1) 
38.439779000000001

>  <r_lp_tautomer_probability>  (1) 
0.99999999999736477

>  <s_epik_Chemistry_Notes>  (1) 
This compound contains an acetal/aminal-like group ( X-CH(R)-Y where X, Y are N, S, or O) that may be acid/base labile, releasing an aldehyde.

>  <s_epik_cmdline>  (1) 
J2VwaWtfcHl0aG9uJywgJy1waHQnLCAnMS4wJywgJy1waCcsICc3LjQnLCAnLXRuJywgJzgnLCAnLW1hJywgJzUwMCcsICctaW1hZScsICc8aW5maWxlLm1hZT4nLCAnLW9tYWUnLCAnPG91dGZpbGUubWFlPic=

>  <s_epik_input>  (1) 
W0NIXT0xQyhDbCk9W0NIXVtDSDJdTihDMTIpW0NAQEhdKFMyKVtDQEBIXShbTkhdW0NAQEhdKFtDSDNdKVtDSDJdW0NIM10pW0NIMl1bTkhdW0NIMl0vW0NIXT1bQ0hdXFtDQEhdKEMjTiljM1tjSF1bY0hdYyhbT0hdKWMoRilbY0hdMw==

>  <s_glide_docking_method>  (1) 
confgen

>  <s_i_glide_gridfile>  (1) 
gpcr_5ht2c_6bqh_protein_autoprepared_prepared

>  <s_lp_Force_Field>  (1) 
S-OPLS

>  <s_lp_Variant>  (1) 
DiffSBDD_0_num_sample_100-2

>  <s_m_source_file>  (1) 
generated__ligand_DiffSBDD_2026-05-06_prepared.sdf

>  <GenAI_Model>  (1) 
DiffSBDD

>  <Protein>  (1) 
GPCR_5HT2C

$$$$
DiffSBDD_80_num_sample_100
     RDKit          3D

  0  0  0  0  0  0  0  0  0  0999 V3000
M  V30 BEGIN CTAB
M  V30 COUNTS 73 76 0 0 1
M  V30 BEGIN ATOM
M  V30 1 C 37.448307 35.324968 61.606402 0
M  V30 2 C 38.015838 31.307919 58.409593 0
M  V30 3 N 37.867428 31.015042 56.955765 0 CFG=2 CHG=1
M  V30 4 O 39.498916 32.773077 62.376670 0
M  V30 5 O 35.444755 32.314753 59.453501 0
M  V30 6 O 37.260538 36.544237 60.913065 0
M  V30 7 C 38.872785 29.905724 54.377943 0 CFG=2
M  V30 8 C 37.801567 29.171056 55.213086 0 CFG=1
M  V30 9 C 41.685165 29.256014 63.371548 0
M  V30 10 C 41.414536 33.981270 63.028294 0
M  V30 11 O 41.882821 32.572916 65.919044 0
M  V30 12 C 41.815384 31.494134 65.081983 0
M  V30 13 O 40.101237 26.022404 54.256328 0
M  V30 14 C 41.056121 30.461485 62.999372 0
M  V30 15 C 38.509387 26.745667 55.898043 0
M  V30 16 C 42.443774 30.286730 65.448002 0
M  V30 17 O 41.219885 35.750290 61.391977 0
M  V30 18 C 38.721454 31.416519 54.625509 0
M  V30 19 O 42.987219 28.000159 64.949596 0
M  V30 20 C 37.756948 27.656303 54.925467 0
M  V30 21 C 42.377938 29.168754 64.593940 0
M  V30 22 C 39.654977 33.878525 61.484722 0 CFG=1
M  V30 23 C 37.777773 32.767468 58.786886 0 CFG=2
M  V30 24 C 38.356756 34.366697 60.787469 0 CFG=1
M  V30 25 C 37.939380 29.546666 56.710670 0
M  V30 26 C 40.501286 34.900131 62.247414 0 CFG=1
M  V30 27 C 39.914103 26.417789 55.404065 0
M  V30 28 C 37.581611 33.169106 60.240669 0 CFG=1
M  V30 29 C 37.086682 27.155491 53.871189 0
M  V30 30 C 39.694150 30.010534 52.110641 0
M  V30 31 C 36.440689 33.306421 59.264659 0 CFG=2
M  V30 32 C 40.437043 32.885002 63.451618 0 CFG=2
M  V30 33 C 41.117454 31.583740 63.852426 0
M  V30 34 C 38.841673 31.765383 56.113372 0
M  V30 35 O 38.665861 29.595907 53.004922 0
M  V30 36 H 36.470206 34.880106 61.786388 0
M  V30 37 H 37.849057 35.590667 62.581885 0
M  V30 38 H 39.020397 31.031551 58.735801 0
M  V30 39 H 37.330565 30.680578 58.979289 0
M  V30 40 H 35.196009 32.021023 58.567632 0
M  V30 41 H 38.083961 37.008178 60.881903 0
M  V30 42 H 39.859326 29.562092 54.686703 0
M  V30 43 H 36.829331 29.550620 54.889075 0
M  V30 44 H 41.639529 28.396998 62.715661 0
M  V30 45 H 43.442332 28.051612 65.776548 0
M  V30 46 H 41.916798 34.474624 63.860789 0
M  V30 47 H 42.178797 33.554226 62.377414 0
M  V30 48 H 41.405552 33.331446 65.621470 0
M  V30 49 H 40.526192 30.523994 62.060704 0
M  V30 50 H 38.551001 27.110949 56.920761 0
M  V30 51 H 37.971903 25.798216 55.941094 0
M  V30 52 H 42.975478 30.218802 66.387224 0
M  V30 53 H 41.875525 35.248641 60.932021 0
M  V30 54 H 37.761256 31.760500 54.240832 0
M  V30 55 H 39.476016 31.978879 54.079075 0
M  V30 56 H 40.277484 33.468390 60.690040 0
M  V30 57 H 38.402825 33.463218 58.235251 0
M  V30 58 H 38.697631 34.934827 59.920921 0
M  V30 59 H 38.901290 29.202112 57.088936 0
M  V30 60 H 37.166858 29.047855 57.299393 0
M  V30 61 H 39.921102 35.494077 62.949686 0
M  V30 62 H 40.713411 26.553411 56.131784 0
M  V30 63 H 37.467400 32.358033 60.958453 0
M  V30 64 H 37.064638 26.092529 53.680808 0
M  V30 65 H 36.556140 27.800354 53.185840 0
M  V30 66 H 39.464703 29.643569 51.109039 0
M  V30 67 H 39.776749 31.096786 52.052940 0
M  V30 68 H 40.667324 29.620834 52.392326 0
M  V30 69 H 36.098762 34.281721 58.915511 0
M  V30 70 H 39.867548 33.221788 64.310051 0
M  V30 71 H 38.688479 32.839616 56.209034 0
M  V30 72 H 39.857640 31.552525 56.453272 0
M  V30 73 H 36.919263 31.318277 56.702537 0
M  V30 END ATOM
M  V30 BEGIN BOND
M  V30 1 1 3 2
M  V30 2 1 6 1
M  V30 3 1 8 7
M  V30 4 1 12 11
M  V30 5 2 14 9
M  V30 6 1 16 12
M  V30 7 1 18 7
M  V30 8 1 20 8
M  V30 9 1 20 15
M  V30 10 1 21 9
M  V30 11 2 21 16
M  V30 12 1 21 19
M  V30 13 1 22 4
M  V30 14 1 23 2
M  V30 15 1 24 1
M  V30 16 1 24 22
M  V30 17 1 25 3
M  V30 18 1 25 8
M  V30 19 1 26 10
M  V30 20 1 26 17
M  V30 21 1 26 22
M  V30 22 2 27 13
M  V30 23 1 27 15
M  V30 24 1 28 23
M  V30 25 1 28 24
M  V30 26 2 29 20
M  V30 27 1 31 5
M  V30 28 1 31 23
M  V30 29 1 31 28
M  V30 30 1 32 4
M  V30 31 1 32 10
M  V30 32 2 33 12
M  V30 33 1 33 14
M  V30 34 1 33 32
M  V30 35 1 34 3
M  V30 36 1 34 18
M  V30 37 1 35 7
M  V30 38 1 35 30
M  V30 39 1 36 1
M  V30 40 1 37 1
M  V30 41 1 38 2
M  V30 42 1 39 2
M  V30 43 1 40 5
M  V30 44 1 41 6
M  V30 45 1 7 42 CFG=1
M  V30 46 1 8 43 CFG=3
M  V30 47 1 44 9
M  V30 48 1 45 19
M  V30 49 1 46 10
M  V30 50 1 47 10
M  V30 51 1 48 11
M  V30 52 1 49 14
M  V30 53 1 50 15
M  V30 54 1 51 15
M  V30 55 1 52 16
M  V30 56 1 53 17
M  V30 57 1 54 18
M  V30 58 1 55 18
M  V30 59 1 22 56 CFG=3
M  V30 60 1 23 57 CFG=3
M  V30 61 1 24 58 CFG=3
M  V30 62 1 59 25
M  V30 63 1 60 25
M  V30 64 1 26 61 CFG=1
M  V30 65 1 62 27
M  V30 66 1 28 63 CFG=1
M  V30 67 1 64 29
M  V30 68 1 65 29
M  V30 69 1 66 30
M  V30 70 1 67 30
M  V30 71 1 68 30
M  V30 72 1 31 69 CFG=3
M  V30 73 1 32 70 CFG=1
M  V30 74 1 71 34
M  V30 75 1 72 34
M  V30 76 1 3 73 CFG=3
M  V30 END BOND
M  V30 END CTAB
M  END
>  <i_epik_Tot_Q>  (1) 
1

>  <i_epik_Tot_abs_Q>  (1) 
1

>  <i_i_glide_confnum>  (1) 
2113

>  <i_i_glide_lignum>  (1) 
211

>  <i_i_glide_posenum>  (1) 
79

>  <i_i_glide_rotatable_bonds>  (1) 
15

>  <i_lp_mmshare_version>  (1) 
72125

>  <i_m_source_file_index>  (1) 
81

>  <i_f3d_flags>  (1) 
0

>  <num_sample>  (1) 
100

>  <b_lp_Chiralities_Consistent>  (1) 
1

>  <r_epik_Charging_Adjusted_Penalty>  (1) 
0.034071705691259377

>  <r_epik_Ionization_Penalty>  (1) 
0.043305258844254187

>  <r_epik_Ionization_Penalty_Charging>  (1) 
0.034071705691259377

>  <r_epik_Ionization_Penalty_Neutral>  (1) 
0.009233553152994808

>  <r_epik_State_Penalty>  (1) 
-0

>  <r_glide_ring_energy>  (1) 
0

>  <r_i_docking_score>  (1) 
-7.0831446794552582

>  <r_i_glide_ecoul>  (1) 
-9.7855021917894156

>  <r_i_glide_eff_state_penalty>  (1) 
-0

>  <r_i_glide_einternal>  (1) 
20.597868551401589

>  <r_i_glide_emodel>  (1) 
-62.813588718310818

>  <r_i_glide_emodel_strain>  (1) 
1.8067412055811545

>  <r_i_glide_energy>  (1) 
-51.807120432255275

>  <r_i_glide_erotb>  (1) 
0.67144220787932085

>  <r_i_glide_esite>  (1) 
-0.10000000000000001

>  <r_i_glide_evdw>  (1) 
-42.021618240465855

>  <r_i_glide_gscore>  (1) 
-7.0831446794552582

>  <r_i_glide_gscore_strain>  (1) 
0

>  <r_i_glide_hbond>  (1) 
-0.35999999999999999

>  <r_i_glide_ligand_efficiency>  (1) 
-0.20237556227015024

>  <r_i_glide_ligand_efficiency_ln>  (1) 
-1.554907459066774

>  <r_i_glide_ligand_efficiency_sa>  (1) 
-0.66198388374736161

>  <r_i_glide_lipo>  (1) 
-2.7473873379635179

>  <r_i_glide_metal>  (1) 
-0

>  <r_i_glide_rewards>  (1) 
-0.97829330857935559

>  <r_lp_Energy>  (1) 
32.799517000000002

>  <r_lp_tautomer_probability>  (1) 
1

>  <s_epik_cmdline>  (1) 
J2VwaWtfcHl0aG9uJywgJy1waHQnLCAnMS4wJywgJy1waCcsICc3LjQnLCAnLXRuJywgJzgnLCAnLW1hJywgJzUwMCcsICctaW1hZScsICc8aW5maWxlLm1hZT4nLCAnLW9tYWUnLCAnPG91dGZpbGUubWFlPic=

>  <s_epik_input>  (1) 
Tz1bQ0hdW0NIMl1DKD1bQ0gyXSlbQ0BASF0oW0NASF0oW0NIMl1bQ0gyXTEpT1tDSDNdKVtDSDJdTjFbQ0gyXVtDQEBIXTJbQ0BASF0oW0NAQEhdMltPSF0pW0NAQEhdKFtDSDJdW09IXSlbQ0BASF0zT1tDQEhdKFtDSDJdW0NASF0zW09IXSlDND1bQ0hdW0NIMl1DKD1PKVtDSF09QzRbT0hd

>  <s_glide_docking_method>  (1) 
confgen

>  <s_i_glide_gridfile>  (1) 
gpcr_5ht2c_6bqh_protein_autoprepared_prepared

>  <s_lp_Force_Field>  (1) 
S-OPLS

>  <s_lp_Variant>  (1) 
DiffSBDD_80_num_sample_100-7

>  <s_m_source_file>  (1) 
generated__ligand_DiffSBDD_2026-05-06_prepared.sdf

>  <GenAI_Model>  (1) 
DiffSBDD

>  <Protein>  (1) 
GPCR_5HT2C

$$$$
DiffSBDD_15_num_sample_100
     RDKit          3D

  0  0  0  0  0  0  0  0  0  0999 V3000
M  V30 BEGIN CTAB
M  V30 COUNTS 74 79 0 0 1
M  V30 BEGIN ATOM
M  V30 1 C 40.030505 28.387257 59.999838 0
M  V30 2 S 40.045108 31.181904 63.059111 0
M  V30 3 N 39.405159 30.639721 53.615708 0
M  V30 4 C 38.642525 37.292405 62.037108 0
M  V30 5 C 39.286557 32.936692 55.999574 0
M  V30 6 C 39.085410 27.123203 51.990066 0
M  V30 7 S 38.664148 27.342883 55.511760 0
M  V30 8 S 37.867532 32.368558 55.055219 0
M  V30 9 O 39.858923 26.659381 54.993307 0
M  V30 10 C 40.289404 35.005972 62.884543 0
M  V30 11 C 39.357470 34.733346 61.952734 0
M  V30 12 C 39.811493 30.503663 61.387676 0 CFG=1
M  V30 13 C 39.431751 28.596074 52.160030 0 CFG=1
M  V30 14 N 40.815944 33.831432 63.389229 0
M  V30 15 C 39.011675 32.852127 57.504415 0
M  V30 16 C 37.782591 33.647927 57.951649 0
M  V30 17 C 39.414440 29.167334 53.603481 0 CFG=2
M  V30 18 C 36.855040 30.056629 58.971681 0
M  V30 19 S 38.355068 35.798873 61.026595 0
M  V30 20 C 40.707938 36.350322 63.373210 0
M  V30 21 N 37.744961 29.783271 54.845538 0
M  V30 22 C 38.587220 28.590064 59.543773 0 CFG=2
M  V30 23 N 40.667963 28.867024 51.453080 0
M  V30 24 O 41.467371 28.833862 61.870057 0
M  V30 25 C 40.128844 37.470113 62.462934 0
M  V30 26 C 39.153924 28.224830 57.056170 0
M  V30 27 C 40.156808 28.995580 61.404393 0 CFG=2
M  V30 28 N 38.250874 28.625083 54.388655 0
M  V30 29 C 38.120468 28.060821 58.193459 0 CFG=2
M  V30 30 C 39.475451 29.500198 50.945744 0
M  V30 31 C 38.439941 30.836444 54.406341 0
M  V30 32 C 36.810726 28.863872 58.014102 0
M  V30 33 O 37.467541 26.544212 55.786426 0
M  V30 34 C 40.083683 32.910211 62.747582 0
M  V30 35 N 38.202309 30.010953 59.552063 0 CFG=2 CHG=1
M  V30 36 O 39.226363 33.393332 61.797437 0
M  V30 37 C 38.369052 30.698219 60.852117 0
M  V30 38 H 40.728630 28.866203 59.313437 0
M  V30 39 H 40.267894 27.323492 60.020026 0
M  V30 40 H 38.296828 38.152680 61.462620 0
M  V30 41 H 38.012711 37.217588 62.923808 0
M  V30 42 H 40.177661 32.357212 55.755679 0
M  V30 43 H 39.465092 33.961924 55.683794 0
M  V30 44 H 38.102057 26.902612 52.405876 0
M  V30 45 H 39.053151 26.845891 50.934542 0
M  V30 46 H 39.825504 26.492628 52.479691 0
M  V30 47 H 40.506093 31.023889 60.725581 0
M  V30 48 H 38.900510 31.808773 57.781668 0
M  V30 49 H 39.867499 33.229272 58.052952 0
M  V30 50 H 37.696338 33.683550 59.035283 0
M  V30 51 H 37.827217 34.666545 57.574691 0
M  V30 52 H 36.857346 33.223005 57.579170 0
M  V30 53 H 40.267395 28.996514 54.254052 0
M  V30 54 H 36.688989 31.002312 58.462149 0
M  V30 55 H 36.089492 29.949659 59.743075 0
M  V30 56 H 40.329686 36.490025 64.386311 0
M  V30 57 H 41.794100 36.428296 63.432607 0
M  V30 58 H 36.942215 29.823933 55.461624 0
M  V30 59 H 37.958972 28.074649 60.253518 0
M  V30 60 H 41.058303 28.112414 50.910303 0
M  V30 61 H 41.679129 27.914886 61.944089 0
M  V30 62 H 40.715300 37.523988 61.546757 0
M  V30 63 H 40.263596 38.421066 62.981389 0
M  V30 64 H 39.387177 29.261665 56.824246 0
M  V30 65 H 40.090350 27.749127 57.345770 0
M  V30 66 H 39.492390 28.476922 62.097960 0
M  V30 67 H 37.887899 26.999272 58.288284 0
M  V30 68 H 39.072944 29.124934 50.009624 0
M  V30 69 H 39.467144 30.581508 51.053799 0
M  V30 70 H 36.668764 29.224217 57.007980 0
M  V30 71 H 35.940644 28.253240 58.253288 0
M  V30 72 H 38.119916 31.739989 60.663522 0
M  V30 73 H 37.643445 30.350818 61.585499 0
M  V30 74 H 38.812746 30.466772 58.889608 0
M  V30 END ATOM
M  V30 BEGIN BOND
M  V30 1 1 8 5
M  V30 2 2 9 7
M  V30 3 2 11 10
M  V30 4 1 12 2
M  V30 5 1 13 6 CFG=3
M  V30 6 1 14 10
M  V30 7 1 15 5
M  V30 8 1 16 15
M  V30 9 1 17 3
M  V30 10 1 17 13
M  V30 11 1 19 4
M  V30 12 1 19 11
M  V30 13 1 20 10
M  V30 14 1 22 1
M  V30 15 1 23 13
M  V30 16 1 25 4
M  V30 17 1 25 20
M  V30 18 1 26 7
M  V30 19 1 27 1
M  V30 20 1 27 12
M  V30 21 1 27 24
M  V30 22 1 28 7
M  V30 23 1 28 17
M  V30 24 1 28 21
M  V30 25 1 29 22
M  V30 26 1 29 26
M  V30 27 1 30 13
M  V30 28 1 30 23
M  V30 29 2 31 3
M  V30 30 1 31 8
M  V30 31 1 31 21
M  V30 32 1 32 18
M  V30 33 1 32 29
M  V30 34 2 33 7
M  V30 35 1 34 2
M  V30 36 2 34 14
M  V30 37 1 35 18
M  V30 38 1 35 22
M  V30 39 1 36 11
M  V30 40 1 36 34
M  V30 41 1 37 12
M  V30 42 1 37 35
M  V30 43 1 38 1
M  V30 44 1 39 1
M  V30 45 1 40 4
M  V30 46 1 41 4
M  V30 47 1 42 5
M  V30 48 1 43 5
M  V30 49 1 44 6
M  V30 50 1 45 6
M  V30 51 1 46 6
M  V30 52 1 12 47 CFG=3
M  V30 53 1 48 15
M  V30 54 1 49 15
M  V30 55 1 50 16
M  V30 56 1 51 16
M  V30 57 1 52 16
M  V30 58 1 17 53 CFG=1
M  V30 59 1 54 18
M  V30 60 1 55 18
M  V30 61 1 56 20
M  V30 62 1 57 20
M  V30 63 1 58 21
M  V30 64 1 22 59 CFG=1
M  V30 65 1 60 23
M  V30 66 1 61 24
M  V30 67 1 62 25
M  V30 68 1 63 25
M  V30 69 1 64 26
M  V30 70 1 65 26
M  V30 71 1 27 66 CFG=1
M  V30 72 1 29 67 CFG=1
M  V30 73 1 68 30
M  V30 74 1 69 30
M  V30 75 1 70 32
M  V30 76 1 71 32
M  V30 77 1 72 37
M  V30 78 1 73 37
M  V30 79 1 35 74 CFG=3
M  V30 END BOND
M  V30 END CTAB
M  END
>  <i_epik_Tot_Q>  (1) 
1

>  <i_epik_Tot_abs_Q>  (1) 
1

>  <i_i_glide_confnum>  (1) 
379

>  <i_i_glide_lignum>  (1) 
35

>  <i_i_glide_posenum>  (1) 
25

>  <i_i_glide_rotatable_bonds>  (1) 
10

>  <i_lp_mmshare_version>  (1) 
72125

>  <i_m_source_file_index>  (1) 
16

>  <i_f3d_flags>  (1) 
0

>  <num_sample>  (1) 
100

>  <b_lp_Chiralities_Consistent>  (1) 
1

>  <r_epik_Charging_Adjusted_Penalty>  (1) 
0.0082019649409003706

>  <r_epik_Ionization_Penalty>  (1) 
0.015626865898487191

>  <r_epik_Ionization_Penalty_Charging>  (1) 
0.0082019649409003706

>  <r_epik_Ionization_Penalty_Neutral>  (1) 
0.0074249009575868222

>  <r_epik_State_Penalty>  (1) 
-0

>  <r_glide_ring_energy>  (1) 
0

>  <r_i_docking_score>  (1) 
-7.0756272103554947

>  <r_i_glide_ecoul>  (1) 
-3.9823838063595636

>  <r_i_glide_eff_state_penalty>  (1) 
-0

>  <r_i_glide_einternal>  (1) 
12.090165934744228

>  <r_i_glide_emodel>  (1) 
-38.579795516138461

>  <r_i_glide_emodel_strain>  (1) 
5.5614810534098922

>  <r_i_glide_energy>  (1) 
-43.118082166415007

>  <r_i_glide_erotb>  (1) 
0.37349522713264072

>  <r_i_glide_esite>  (1) 
0

>  <r_i_glide_evdw>  (1) 
-39.135698360055443

>  <r_i_glide_gscore>  (1) 
-7.0756272103554947

>  <r_i_glide_gscore_strain>  (1) 
0.39037026335247305

>  <r_i_glide_hbond>  (1) 
-0.30043778194508014

>  <r_i_glide_ligand_efficiency>  (1) 
-0.19123316784744579

>  <r_i_glide_ligand_efficiency_ln>  (1) 
-1.5345376656896139

>  <r_i_glide_ligand_efficiency_sa>  (1) 
-0.63723134066073728

>  <r_i_glide_lipo>  (1) 
-3.5044123002875542

>  <r_i_glide_metal>  (1) 
-0

>  <r_i_glide_rewards>  (1) 
-1.4805001296512674

>  <r_lp_Energy>  (1) 
14.877502999999999

>  <r_lp_tautomer_probability>  (1) 
1

>  <s_epik_Chemistry_Notes>  (1) 
This compound has an imine and may undergo hydrolysis. This compound contains an acetal/aminal-like group ( X-CH(R)-Y where X, Y are N, S, or O) that may be acid/base labile, releasing an aldehyde.

>  <s_epik_cmdline>  (1) 
J2VwaWtfcHl0aG9uJywgJy1waHQnLCAnMS4wJywgJy1waCcsICc3LjQnLCAnLXRuJywgJzgnLCAnLW1hJywgJzUwMCcsICctaW1hZScsICc8aW5maWxlLm1hZT4nLCAnLW9tYWUnLCAnPG91dGZpbGUubWFlPic=

>  <s_epik_input>  (1) 
W0NIMl0xW0NIMl1bQ0gyXVNjKGMxMilvYyhuMilTW0NAQEhdKFtDQEBIXShbQ0gyXTMpW09IXSlbQ0gyXU4oW0NASF0zNClbQ0gyXVtDSDJdW0NASF00W0NIMl1TKD1PKSg9TylONVtOSF1DKFNbQ0gyXVtDSDJdW0NIM10pPU5bQ0BASF01W0NAXTYoW0NIM10pW05IXVtDSDJdNg==

>  <s_glide_docking_method>  (1) 
confgen

>  <s_i_glide_gridfile>  (1) 
gpcr_5ht2c_6bqh_protein_autoprepared_prepared

>  <s_lp_Force_Field>  (1) 
S-OPLS

>  <s_lp_Variant>  (1) 
DiffSBDD_15_num_sample_100-2

>  <s_m_source_file>  (1) 
generated__ligand_DiffSBDD_2026-05-06_prepared.sdf

>  <GenAI_Model>  (1) 
DiffSBDD

>  <Protein>  (1) 
GPCR_5HT2C

$$$$
DiffSBDD_84_num_sample_100
     RDKit          3D

  0  0  0  0  0  0  0  0  0  0999 V3000
M  V30 BEGIN CTAB
M  V30 COUNTS 48 50 0 0 1
M  V30 BEGIN ATOM
M  V30 1 C 39.445411 29.863595 52.694387 0
M  V30 2 C 37.104789 32.806055 61.568030 0
M  V30 3 C 37.470101 33.671749 60.356911 0 CFG=2
M  V30 4 C 39.374871 29.377815 55.862734 0
M  V30 5 C 36.660735 31.559928 59.467285 0 CFG=1
M  V30 6 C 39.533833 31.021184 53.541591 0
M  V30 7 C 39.591086 28.342423 50.853866 0
M  V30 8 N 39.095816 29.797296 57.035945 0
M  V30 9 Cl 40.667404 30.821429 50.461661 0
M  V30 10 C 36.636959 31.451236 61.006366 0
M  V30 11 C 37.753476 26.802067 53.894023 0
M  V30 12 O 38.223029 35.669987 61.480929 0
M  V30 13 C 38.597769 29.768931 54.615138 0 CFG=1
M  V30 14 C 38.844407 29.044094 53.396472 0
M  V30 15 C 39.867411 29.624439 51.389888 0
M  V30 16 C 38.504945 27.757451 52.988462 0
M  V30 17 C 37.271429 35.181740 60.559914 0
M  V30 18 C 38.895230 27.387417 51.667107 0
M  V30 19 C 37.906931 30.582290 57.352035 0 CFG=1
M  V30 20 C 36.604527 33.084094 59.245331 0
M  V30 21 C 37.910737 30.856006 58.873856 0
M  V30 22 N 37.867404 31.846987 56.595313 0 CHG=1
M  V30 23 H 37.947500 32.701091 62.252414 0
M  V30 24 H 36.290096 33.269319 62.124856 0
M  V30 25 H 38.515434 33.493323 60.100808 0
M  V30 26 H 40.218390 28.705486 55.683068 0
M  V30 27 H 35.770194 31.084003 59.053505 0
M  V30 28 H 38.962612 31.878156 53.184677 0
M  V30 29 H 40.562283 31.221433 53.842851 0
M  V30 30 H 39.891028 28.092233 49.853501 0
M  V30 31 H 37.259702 30.636211 61.376007 0
M  V30 32 H 35.618858 31.251519 61.344124 0
M  V30 33 H 37.167028 26.093215 53.309038 0
M  V30 34 H 38.453352 26.239574 54.512138 0
M  V30 35 H 37.067418 27.338933 54.549029 0
M  V30 36 H 38.060173 36.589334 61.628605 0
M  V30 37 H 37.529354 29.946521 54.744155 0
M  V30 38 H 36.267402 35.399073 60.921381 0
M  V30 39 H 37.397338 35.711969 59.614922 0
M  V30 40 H 38.667405 26.421430 51.277857 0
M  V30 41 H 37.013204 30.008490 57.098641 0
M  V30 42 H 35.573249 33.419738 59.370365 0
M  V30 43 H 36.914627 33.428485 58.263334 0
M  V30 44 H 38.813890 31.398860 59.153549 0
M  V30 45 H 38.001168 29.883986 59.361918 0
M  V30 46 H 36.881005 32.132646 56.653498 0
M  V30 47 H 38.466167 32.541095 57.014686 0
M  V30 48 H 38.097105 31.706728 55.625325 0
M  V30 END ATOM
M  V30 BEGIN BOND
M  V30 1 1 3 2
M  V30 2 1 6 1
M  V30 3 2 8 4
M  V30 4 1 10 2
M  V30 5 1 10 5
M  V30 6 1 13 4
M  V30 7 1 13 6
M  V30 8 1 14 1
M  V30 9 1 14 13
M  V30 10 2 15 1
M  V30 11 1 15 7
M  V30 12 1 15 9
M  V30 13 1 16 11
M  V30 14 2 16 14
M  V30 15 1 17 3
M  V30 16 1 17 12
M  V30 17 2 18 7
M  V30 18 1 18 16
M  V30 19 1 19 8
M  V30 20 1 20 3
M  V30 21 1 20 5
M  V30 22 1 21 5
M  V30 23 1 21 19
M  V30 24 1 22 19
M  V30 25 1 23 2
M  V30 26 1 24 2
M  V30 27 1 3 25 CFG=3
M  V30 28 1 26 4
M  V30 29 1 5 27 CFG=3
M  V30 30 1 28 6
M  V30 31 1 29 6
M  V30 32 1 30 7
M  V30 33 1 31 10
M  V30 34 1 32 10
M  V30 35 1 33 11
M  V30 36 1 34 11
M  V30 37 1 35 11
M  V30 38 1 36 12
M  V30 39 1 13 37 CFG=1
M  V30 40 1 38 17
M  V30 41 1 39 17
M  V30 42 1 40 18
M  V30 43 1 19 41 CFG=1
M  V30 44 1 42 20
M  V30 45 1 43 20
M  V30 46 1 44 21
M  V30 47 1 45 21
M  V30 48 1 46 22
M  V30 49 1 47 22
M  V30 50 1 48 22
M  V30 END BOND
M  V30 END CTAB
M  END
>  <i_epik_Tot_Q>  (1) 
1

>  <i_epik_Tot_abs_Q>  (1) 
1

>  <i_i_glide_confnum>  (1) 
181

>  <i_i_glide_lignum>  (1) 
219

>  <i_i_glide_posenum>  (1) 
284

>  <i_i_glide_rotatable_bonds>  (1) 
6

>  <i_lp_mmshare_version>  (1) 
72125

>  <i_m_source_file_index>  (1) 
85

>  <i_f3d_flags>  (1) 
0

>  <num_sample>  (1) 
100

>  <b_lp_Chiralities_Consistent>  (1) 
1

>  <r_epik_Charging_Adjusted_Penalty>  (1) 
0.46451758934955678

>  <r_epik_Ionization_Penalty>  (1) 
0.053840736014893024

>  <r_epik_Ionization_Penalty_Charging>  (1) 
0.053837750396952835

>  <r_epik_Ionization_Penalty_Neutral>  (1) 
2.9856179401856363e-06

>  <r_epik_State_Penalty>  (1) 
0.41067983895260396

>  <r_glide_ring_energy>  (1) 
0.40696222322696024

>  <r_i_docking_score>  (1) 
-7.0666895899416176

>  <r_i_glide_ecoul>  (1) 
-6.093256769798792

>  <r_i_glide_eff_state_penalty>  (1) 
0.41067983895260396

>  <r_i_glide_einternal>  (1) 
3.7453589295471703

>  <r_i_glide_emodel>  (1) 
-61.464000688929858

>  <r_i_glide_emodel_strain>  (1) 
0.8415719351208395

>  <r_i_glide_energy>  (1) 
-40.706630127270721

>  <r_i_glide_erotb>  (1) 
0.90212786361762021

>  <r_i_glide_esite>  (1) 
-0.19174526412592061

>  <r_i_glide_evdw>  (1) 
-34.613373357471929

>  <r_i_glide_gscore>  (1) 
-7.4773694288942218

>  <r_i_glide_gscore_strain>  (1) 
0

>  <r_i_glide_hbond>  (1) 
-0.20770644334182051

>  <r_i_glide_ligand_efficiency>  (1) 
-0.32121316317916443

>  <r_i_glide_ligand_efficiency_ln>  (1) 
-1.727356699547473

>  <r_i_glide_ligand_efficiency_sa>  (1) 
-0.90005191675224561

>  <r_i_glide_lipo>  (1) 
-3.2054564519373208

>  <r_i_glide_metal>  (1) 
-0

>  <r_i_glide_rewards>  (1) 
-2.1299319497633644

>  <r_lp_Energy>  (1) 
15.401159

>  <r_lp_tautomer_probability>  (1) 
0.49999300000000002

>  <s_epik_Chemistry_Notes>  (1) 
This compound has an imine and may undergo hydrolysis. This compound contains an acetal/aminal-like group ( X-CH(R)-Y where X, Y are N, S, or O) that may be acid/base labile, releasing an aldehyde.

>  <s_epik_cmdline>  (1) 
J2VwaWtfcHl0aG9uJywgJy1waHQnLCAnMS4wJywgJy1waCcsICc3LjQnLCAnLXRuJywgJzgnLCAnLW1hJywgJzUwMCcsICctaW1hZScsICc8aW5maWxlLm1hZT4nLCAnLW9tYWUnLCAnPG91dGZpbGUubWFlPic=

>  <s_epik_input>  (1) 
Q2xjMVtjSF1bY0hdYyhbQ0gzXSljKGMxMilbQ0BIXShbQ0gyXTIpL1tDSF09TlxbQ0BIXShbTkgyXSlbQ0gyXVtDQEhdKFtDSDJdMylbQ0gyXVtDSDJdW0NAQEhdM1tDSDJdW09IXQ==

>  <s_glide_docking_method>  (1) 
confgen

>  <s_i_glide_gridfile>  (1) 
gpcr_5ht2c_6bqh_protein_autoprepared_prepared

>  <s_lp_Force_Field>  (1) 
S-OPLS

>  <s_lp_Variant>  (1) 
DiffSBDD_84_num_sample_100-2

>  <s_m_source_file>  (1) 
generated__ligand_DiffSBDD_2026-05-06_prepared.sdf

>  <GenAI_Model>  (1) 
DiffSBDD

>  <Protein>  (1) 
GPCR_5HT2C

$$$$
DiffSBDD_0_num_sample_100
     RDKit          3D

  0  0  0  0  0  0  0  0  0  0999 V3000
M  V30 BEGIN CTAB
M  V30 COUNTS 59 61 0 0 1
M  V30 BEGIN ATOM
M  V30 1 C 38.116306 27.423644 57.185613 0
M  V30 2 C 39.233770 29.751500 54.012375 0 CFG=1
M  V30 3 C 38.771471 34.725512 60.727226 0
M  V30 4 C 37.876207 33.179643 58.247282 0
M  V30 5 C 39.074821 27.738096 58.212873 0
M  V30 6 C 40.721224 28.346208 56.355162 0
M  V30 7 C 40.076843 32.725738 61.241193 0
M  V30 8 C 39.588184 35.480584 61.594782 0
M  V30 9 C 39.017252 33.345745 60.545210 0
M  V30 10 C 40.259619 29.479735 51.645365 0 CFG=2
M  V30 11 N 37.670033 30.414402 55.947207 0
M  V30 12 C 38.549835 31.156604 56.849490 0
M  V30 13 C 38.056500 32.582489 57.047121 0
M  V30 14 C 40.649409 34.859066 62.285400 0
M  V30 15 F 41.910748 32.879393 62.770474 0
M  V30 16 C 40.892101 33.479992 62.108365 0
M  V30 17 C 38.140426 32.521638 59.605052 0 CFG=1
M  V30 18 C 40.305716 28.165986 57.841893 0
M  V30 19 N 35.911045 31.855996 60.833566 0
M  V30 20 C 37.938240 30.471877 54.504152 0
M  V30 21 C 38.509922 27.424756 55.924152 0
M  V30 22 C 39.286207 28.187259 54.180413 0 CFG=1
M  V30 23 N 39.467360 30.213311 52.632754 0
M  V30 24 O 41.442699 35.590660 63.125966 0
M  V30 25 C 40.892615 30.496379 50.674446 0
M  V30 26 C 39.453078 28.400001 50.899817 0
M  V30 27 C 39.872771 31.216175 49.782743 0
M  V30 28 N 39.762940 27.651311 55.479453 0
M  V30 29 S 37.680197 27.255915 54.428966 0
M  V30 30 C 36.888461 32.150795 60.286259 0
M  V30 31 Cl 38.667409 27.621430 59.864975 0
M  V30 32 H 37.083154 27.240472 57.442602 0
M  V30 33 H 40.063992 30.199250 54.544261 0
M  V30 34 H 37.959011 35.204686 60.202600 0
M  V30 35 H 37.516007 34.198354 58.272835 0
M  V30 36 H 40.667623 29.409224 56.177766 0
M  V30 37 H 41.743845 27.989216 56.253452 0
M  V30 38 H 40.266628 31.671638 61.108713 0
M  V30 39 H 39.400335 36.535631 61.728964 0
M  V30 40 H 41.067029 28.984459 52.142443 0
M  V30 41 H 36.709993 30.716151 56.144290 0
M  V30 42 H 39.567729 31.192909 56.468053 0
M  V30 43 H 38.586925 30.613106 57.789159 0
M  V30 44 H 37.838811 33.139900 56.147811 0
M  V30 45 H 38.663952 31.581639 59.475105 0
M  V30 46 H 41.038834 28.426249 58.590047 0
M  V30 47 H 37.092539 30.035204 53.973144 0
M  V30 48 H 37.959786 31.517886 54.198609 0
M  V30 49 H 39.866606 27.671179 53.423491 0
M  V30 50 H 39.778799 31.180776 52.653916 0
M  V30 51 H 41.165517 36.481803 63.283790 0
M  V30 52 H 41.467845 31.221431 51.245867 0
M  V30 53 H 41.618112 30.017054 50.023828 0
M  V30 54 H 40.108554 27.844332 50.231321 0
M  V30 55 H 38.973733 27.675722 51.551152 0
M  V30 56 H 38.667592 28.829268 50.286854 0
M  V30 57 H 40.303876 32.020908 49.205864 0
M  V30 58 H 39.467528 30.519280 49.054200 0
M  V30 59 H 39.067270 31.661957 50.353906 0
M  V30 END ATOM
M  V30 BEGIN BOND
M  V30 1 1 5 1
M  V30 2 2 8 3
M  V30 3 1 9 3
M  V30 4 2 9 7
M  V30 5 1 12 11
M  V30 6 2 13 4
M  V30 7 1 13 12
M  V30 8 1 14 8
M  V30 9 1 16 7
M  V30 10 2 16 14
M  V30 11 1 16 15
M  V30 12 1 17 4
M  V30 13 1 17 9
M  V30 14 2 18 5
M  V30 15 1 18 6
M  V30 16 1 20 2
M  V30 17 1 20 11
M  V30 18 2 21 1
M  V30 19 1 22 2
M  V30 20 1 23 2
M  V30 21 1 23 10
M  V30 22 1 24 14
M  V30 23 1 25 10
M  V30 24 1 26 10
M  V30 25 1 27 25
M  V30 26 1 28 6
M  V30 27 1 28 21
M  V30 28 1 28 22
M  V30 29 1 29 21
M  V30 30 1 29 22
M  V30 31 1 30 17
M  V30 32 3 30 19
M  V30 33 1 31 5
M  V30 34 1 32 1
M  V30 35 1 2 33 CFG=1
M  V30 36 1 34 3
M  V30 37 1 35 4
M  V30 38 1 36 6
M  V30 39 1 37 6
M  V30 40 1 38 7
M  V30 41 1 39 8
M  V30 42 1 10 40 CFG=1
M  V30 43 1 41 11
M  V30 44 1 42 12
M  V30 45 1 43 12
M  V30 46 1 44 13
M  V30 47 1 17 45 CFG=3
M  V30 48 1 46 18
M  V30 49 1 47 20
M  V30 50 1 48 20
M  V30 51 1 22 49 CFG=3
M  V30 52 1 50 23
M  V30 53 1 51 24
M  V30 54 1 52 25
M  V30 55 1 53 25
M  V30 56 1 54 26
M  V30 57 1 55 26
M  V30 58 1 56 26
M  V30 59 1 57 27
M  V30 60 1 58 27
M  V30 61 1 59 27
M  V30 END BOND
M  V30 END CTAB
M  END
>  <i_epik_Tot_Q>  (1) 
0

>  <i_epik_Tot_abs_Q>  (1) 
0

>  <i_i_glide_confnum>  (1) 
1078

>  <i_i_glide_lignum>  (1) 
2

>  <i_i_glide_posenum>  (1) 
308

>  <i_i_glide_rotatable_bonds>  (1) 
11

>  <i_lp_mmshare_version>  (1) 
72125

>  <i_m_source_file_index>  (1) 
1

>  <i_f3d_flags>  (1) 
0

>  <num_sample>  (1) 
100

>  <b_lp_Chiralities_Consistent>  (1) 
1

>  <r_epik_Charging_Adjusted_Penalty>  (1) 
0.47819495767320574

>  <r_epik_Ionization_Penalty>  (1) 
0.67182721305937398

>  <r_epik_Ionization_Penalty_Charging>  (1) 
0

>  <r_epik_Ionization_Penalty_Neutral>  (1) 
0.67182721305937398

>  <r_epik_State_Penalty>  (1) 
0.47819495767320574

>  <r_glide_ring_energy>  (1) 
0

>  <r_i_docking_score>  (1) 
-7.0611628929717147

>  <r_i_glide_ecoul>  (1) 
-5.5609874068999812

>  <r_i_glide_eff_state_penalty>  (1) 
0.47819495767320574

>  <r_i_glide_einternal>  (1) 
27.805519596600774

>  <r_i_glide_emodel>  (1) 
-48.47943014234307

>  <r_i_glide_emodel_strain>  (1) 
2.5629279264418443

>  <r_i_glide_energy>  (1) 
-45.076085168303493

>  <r_i_glide_erotb>  (1) 
0.75184865993743433

>  <r_i_glide_esite>  (1) 
-0.044478694210265637

>  <r_i_glide_evdw>  (1) 
-39.51509776140351

>  <r_i_glide_gscore>  (1) 
-7.5393578506449206

>  <r_i_glide_gscore_strain>  (1) 
0

>  <r_i_glide_hbond>  (1) 
-0.16

>  <r_i_glide_ligand_efficiency>  (1) 
-0.2277794481603779

>  <r_i_glide_ligand_efficiency_ln>  (1) 
-1.5925086310192957

>  <r_i_glide_ligand_efficiency_sa>  (1) 
-0.71554195146339949

>  <r_i_glide_lipo>  (1) 
-4.1084441937490555

>  <r_i_glide_metal>  (1) 
-0

>  <r_i_glide_rewards>  (1) 
-1.1683806235178604

>  <r_lp_Energy>  (1) 
38.439779000000001

>  <r_lp_tautomer_probability>  (1) 
0.99999999999736477

>  <s_epik_Chemistry_Notes>  (1) 
This compound contains an acetal/aminal-like group ( X-CH(R)-Y where X, Y are N, S, or O) that may be acid/base labile, releasing an aldehyde.

>  <s_epik_cmdline>  (1) 
J2VwaWtfcHl0aG9uJywgJy1waHQnLCAnMS4wJywgJy1waCcsICc3LjQnLCAnLXRuJywgJzgnLCAnLW1hJywgJzUwMCcsICctaW1hZScsICc8aW5maWxlLm1hZT4nLCAnLW9tYWUnLCAnPG91dGZpbGUubWFlPic=

>  <s_epik_input>  (1) 
W0NIXT0xQyhDbCk9W0NIXVtDSDJdTihDMTIpW0NAQEhdKFMyKVtDQEBIXShbTkhdW0NAQEhdKFtDSDNdKVtDSDJdW0NIM10pW0NIMl1bTkhdW0NIMl0vW0NIXT1bQ0hdXFtDQEhdKEMjTiljM1tjSF1bY0hdYyhbT0hdKWMoRilbY0hdMw==

>  <s_glide_docking_method>  (1) 
confgen

>  <s_i_glide_gridfile>  (1) 
gpcr_5ht2c_6bqh_protein_autoprepared_prepared

>  <s_lp_Force_Field>  (1) 
S-OPLS

>  <s_lp_Variant>  (1) 
DiffSBDD_0_num_sample_100-2

>  <s_m_source_file>  (1) 
generated__ligand_DiffSBDD_2026-05-06_prepared.sdf

>  <GenAI_Model>  (1) 
DiffSBDD

>  <Protein>  (1) 
GPCR_5HT2C

$$$$
DiffSBDD_39_num_sample_100
     RDKit          3D

  0  0  0  0  0  0  0  0  0  0999 V3000
M  V30 BEGIN CTAB
M  V30 COUNTS 61 64 0 0 1
M  V30 BEGIN ATOM
M  V30 1 C 40.115889 33.504413 63.000621 0
M  V30 2 C 39.151124 29.246373 57.968212 0
M  V30 3 C 36.142753 32.087204 61.225878 0
M  V30 4 C 39.621391 29.291312 59.430007 0
M  V30 5 C 39.089300 31.515017 61.813830 0
M  V30 6 C 37.912785 27.442717 56.554898 0
M  V30 7 N 38.413896 27.208919 52.808318 0
M  V30 8 O 36.263236 33.168024 61.844411 0 CHG=-1
M  V30 9 C 38.284462 27.820191 55.140581 0
M  V30 10 C 39.489643 33.801598 60.640286 0
M  V30 11 O 35.267313 31.228415 61.452972 0
M  V30 12 C 39.942927 35.135335 60.715728 0
M  V30 13 C 40.476415 35.646397 61.905491 0
M  V30 14 N 38.382544 31.073076 60.731087 0
M  V30 15 C 41.153160 35.411221 64.327066 0
M  V30 16 C 37.487695 32.969693 59.296798 0
M  V30 17 C 39.358508 28.605931 51.026996 0
M  V30 18 C 38.494902 29.627394 60.428652 0
M  V30 19 C 42.033512 33.575586 65.924060 0
M  V30 20 C 38.805501 29.205562 54.750227 0
M  V30 21 C 37.173298 31.736140 60.151365 0 CFG=2
M  V30 22 C 39.868347 30.090919 50.975283 0
M  V30 23 O 42.776985 32.571496 65.948662 0 CHG=-1
M  V30 24 C 39.562200 32.968129 61.808157 0
M  V30 25 S 39.867646 30.821366 52.678501 0
M  V30 26 C 39.180770 29.390110 53.325868 0
M  V30 27 O 38.889706 30.132391 55.533196 0
M  V30 28 C 40.569127 34.836910 63.045266 0
M  V30 29 Cl 37.467515 25.349087 54.456763 0
M  V30 30 C 42.374995 34.666214 64.902093 0
M  V30 31 C 38.098958 26.926585 54.127270 0
M  V30 32 C 38.257233 28.040501 57.737657 0
M  V30 33 C 38.956186 33.284210 59.308255 0
M  V30 34 O 39.360938 30.788524 62.771842 0
M  V30 35 C 38.974287 28.415074 52.469264 0
M  V30 36 O 41.044772 33.772875 66.664076 0
M  V30 37 H 40.183453 32.888765 63.885323 0
M  V30 38 H 40.046536 29.182595 57.351579 0
M  V30 39 H 38.598917 30.171735 57.808126 0
M  V30 40 H 40.050650 28.320199 59.686733 0
M  V30 41 H 40.432235 30.008620 59.543356 0
M  V30 42 H 37.287692 26.570147 56.657522 0
M  V30 43 H 39.887207 35.767197 59.854926 0
M  V30 44 H 40.822534 36.669434 61.941046 0
M  V30 45 H 41.478808 36.421267 64.101186 0
M  V30 46 H 40.359792 35.535499 65.062687 0
M  V30 47 H 36.908043 33.855461 59.565489 0
M  V30 48 H 37.200333 32.750808 58.265887 0
M  V30 49 H 40.179378 27.946275 50.761387 0
M  V30 50 H 38.529901 28.420537 50.345293 0
M  V30 51 H 37.542663 29.222586 60.089947 0
M  V30 52 H 38.701935 29.046220 61.326919 0
M  V30 53 H 36.673093 31.044970 59.468828 0
M  V30 54 H 39.237324 30.693366 50.321830 0
M  V30 55 H 40.881526 30.133684 50.569223 0
M  V30 56 H 42.984439 34.260656 64.097075 0
M  V30 57 H 42.993434 35.392384 65.426279 0
M  V30 58 H 37.867311 27.600716 58.637386 0
M  V30 59 H 39.153719 34.021490 58.538528 0
M  V30 60 H 39.467074 32.404373 58.953565 0
M  V30 61 H 38.268975 26.504872 52.097420 0
M  V30 END ATOM
M  V30 BEGIN BOND
M  V30 1 1 4 2
M  V30 2 1 8 3
M  V30 3 1 9 6
M  V30 4 2 11 3
M  V30 5 1 12 10
M  V30 6 2 13 12
M  V30 7 1 14 5
M  V30 8 1 18 4
M  V30 9 1 18 14
M  V30 10 1 20 9
M  V30 11 1 21 3
M  V30 12 1 21 14
M  V30 13 1 21 16
M  V30 14 1 22 17
M  V30 15 1 23 19
M  V30 16 1 24 1
M  V30 17 1 24 5
M  V30 18 2 24 10
M  V30 19 1 25 22
M  V30 20 1 26 20
M  V30 21 1 26 25
M  V30 22 2 27 20
M  V30 23 2 28 1
M  V30 24 1 28 13
M  V30 25 1 28 15
M  V30 26 1 30 15
M  V30 27 1 30 19
M  V30 28 1 31 7
M  V30 29 2 31 9
M  V30 30 1 31 29
M  V30 31 1 32 2
M  V30 32 2 32 6
M  V30 33 1 33 10
M  V30 34 1 33 16
M  V30 35 2 34 5
M  V30 36 1 35 7
M  V30 37 1 35 17
M  V30 38 2 35 26
M  V30 39 2 36 19
M  V30 40 1 37 1
M  V30 41 1 38 2
M  V30 42 1 39 2
M  V30 43 1 40 4
M  V30 44 1 41 4
M  V30 45 1 42 6
M  V30 46 1 43 12
M  V30 47 1 44 13
M  V30 48 1 45 15
M  V30 49 1 46 15
M  V30 50 1 47 16
M  V30 51 1 48 16
M  V30 52 1 49 17
M  V30 53 1 50 17
M  V30 54 1 51 18
M  V30 55 1 52 18
M  V30 56 1 21 53 CFG=3
M  V30 57 1 54 22
M  V30 58 1 55 22
M  V30 59 1 56 30
M  V30 60 1 57 30
M  V30 61 1 58 32
M  V30 62 1 59 33
M  V30 63 1 60 33
M  V30 64 1 61 7
M  V30 END BOND
M  V30 END CTAB
M  END
>  <i_epik_Tot_Q>  (1) 
-2

>  <i_epik_Tot_abs_Q>  (1) 
2

>  <i_i_glide_confnum>  (1) 
303

>  <i_i_glide_lignum>  (1) 
99

>  <i_i_glide_posenum>  (1) 
45

>  <i_i_glide_rotatable_bonds>  (1) 
9

>  <i_lp_mmshare_version>  (1) 
72125

>  <i_m_source_file_index>  (1) 
40

>  <i_f3d_flags>  (1) 
0

>  <num_sample>  (1) 
100

>  <b_lp_Chiralities_Consistent>  (1) 
1

>  <r_epik_Charging_Adjusted_Penalty>  (1) 
2.4833595310622814

>  <r_epik_Ionization_Penalty>  (1) 
1.1966221344959846

>  <r_epik_Ionization_Penalty_Charging>  (1) 
1.1966221333468745

>  <r_epik_Ionization_Penalty_Neutral>  (1) 
1.1491101627543943e-09

>  <r_epik_State_Penalty>  (1) 
1.2867373977154066

>  <r_glide_ring_energy>  (1) 
0

>  <r_i_docking_score>  (1) 
-7.0594496925055532

>  <r_i_glide_ecoul>  (1) 
-2.2152926125688031

>  <r_i_glide_eff_state_penalty>  (1) 
1.2867373977154066

>  <r_i_glide_einternal>  (1) 
12.872509865341584

>  <r_i_glide_emodel>  (1) 
-60.969289533865535

>  <r_i_glide_emodel_strain>  (1) 
1.0958577989166542

>  <r_i_glide_energy>  (1) 
-45.19066977387488

>  <r_i_glide_erotb>  (1) 
0.44176053004123106

>  <r_i_glide_esite>  (1) 
-0.050489568602976147

>  <r_i_glide_evdw>  (1) 
-42.975377161306078

>  <r_i_glide_gscore>  (1) 
-8.3461870902209601

>  <r_i_glide_gscore_strain>  (1) 
0

>  <r_i_glide_hbond>  (1) 
-0.11770886308425425

>  <r_i_glide_ligand_efficiency>  (1) 
-0.19609582479182092

>  <r_i_glide_ligand_efficiency_ln>  (1) 
-1.5401811986149279

>  <r_i_glide_ligand_efficiency_sa>  (1) 
-0.6474941472745801

>  <r_i_glide_lipo>  (1) 
-4.6717683798505698

>  <r_i_glide_metal>  (1) 
-0

>  <r_i_glide_rewards>  (1) 
-1.4669180587737674

>  <r_lp_Energy>  (1) 
54.484504999999999

>  <s_epik_cmdline>  (1) 
J2VwaWtfcHl0aG9uJywgJy1waHQnLCAnMS4wJywgJy1waCcsICc3LjQnLCAnLXRuJywgJzgnLCAnLW1hJywgJzUwMCcsICctaW1hZScsICc8aW5maWxlLm1hZT4nLCAnLW9tYWUnLCAnPG91dGZpbGUubWFlPic=

>  <s_epik_input>  (1) 
W09IXUMoPU8pW0NIMl1bQ0gyXWMoW2NIXVtjSF0xKVtjSF1jKGMxMilDKD1PKU4oW0NAQEhdKEMoPU8pW09IXSlbQ0gyXVtDSDJdMilbQ0gyXVtDSDJdW0NIMl0vW0NIXT1bQ0hdXGMoYzNbT0hdKWMoQ2wpbmMoYzM0KVtDSDJdW0NIMl1TNA==

>  <s_glide_docking_method>  (1) 
confgen

>  <s_i_glide_gridfile>  (1) 
gpcr_5ht2c_6bqh_protein_autoprepared_prepared

>  <s_lp_Force_Field>  (1) 
S-OPLS

>  <s_lp_Variant>  (1) 
DiffSBDD_39_num_sample_100-6

>  <s_m_source_file>  (1) 
generated__ligand_DiffSBDD_2026-05-06_prepared.sdf

>  <GenAI_Model>  (1) 
DiffSBDD

>  <Protein>  (1) 
GPCR_5HT2C

$$$$
DiffSBDD_93_num_sample_100
     RDKit          3D

  0  0  0  0  0  0  0  0  0  0999 V3000
M  V30 BEGIN CTAB
M  V30 COUNTS 74 77 0 0 1
M  V30 BEGIN ATOM
M  V30 1 C 39.575216 29.604393 53.157718 0
M  V30 2 S 39.433944 28.380839 60.228030 0
M  V30 3 C 40.342797 30.176191 50.789578 0 CFG=2
M  V30 4 O 38.118275 33.257304 60.769211 0
M  V30 5 C 36.228660 25.284212 56.647169 0
M  V30 6 C 38.440500 31.578366 58.412645 0 CFG=1
M  V30 7 C 39.269872 24.663881 56.910803 0
M  V30 8 C 39.063638 26.178290 58.815279 0
M  V30 9 C 39.860232 28.794185 50.359230 0
M  V30 10 N 38.512505 28.228544 57.711771 0
M  V30 11 C 36.667328 25.336255 55.232114 0
M  V30 12 C 40.213408 30.425145 52.282578 0
M  V30 13 C 39.547780 29.971843 54.589532 0
M  V30 14 C 38.867228 29.441155 56.991687 0 CFG=1
M  V30 15 C 38.638766 28.362614 51.159680 0
M  V30 16 Cl 39.808542 26.821573 52.974245 0
M  V30 17 O 37.387225 23.221442 55.053458 0
M  V30 18 C 38.895814 28.316762 52.655127 0 CFG=1
M  V30 19 C 40.220363 31.258696 55.051420 0
M  V30 20 C 39.955422 30.052968 59.953219 0
M  V30 21 C 37.468107 32.768981 58.522772 0
M  V30 22 C 38.930842 29.165219 55.489724 0
M  V30 23 C 39.138907 24.957418 55.457368 0
M  V30 24 C 38.769851 31.052142 59.847709 0 CFG=1
M  V30 25 C 39.521841 27.621184 58.574468 0 CFG=1
M  V30 26 C 37.819831 24.541459 54.872878 0 CFG=2
M  V30 27 C 39.089263 32.223563 60.812987 0
M  V30 28 C 38.024178 33.823989 59.475918 0
M  V30 29 C 37.022532 25.377146 57.704085 0
M  V30 30 S 41.153772 27.528214 57.764104 0
M  V30 31 N 38.407069 25.493877 57.721286 0
M  V30 32 C 39.707942 31.318067 49.981031 0
M  V30 33 C 37.871578 30.538833 57.409808 0
M  V30 34 H 41.413160 30.207150 50.574768 0
M  V30 35 H 35.169691 25.221432 56.811375 0
M  V30 36 H 39.347186 31.988026 57.980246 0
M  V30 37 H 40.307479 24.807004 57.205477 0
M  V30 38 H 39.049694 23.621713 57.115606 0
M  V30 39 H 38.267260 26.266595 59.525239 0
M  V30 40 H 39.867254 25.620941 59.271953 0
M  V30 41 H 39.639494 28.821538 49.294876 0
M  V30 42 H 40.644351 28.054106 50.508386 0
M  V30 43 H 38.129353 27.510860 57.108780 0
M  V30 44 H 36.743377 26.369448 54.890398 0
M  V30 45 H 35.867579 24.821457 54.688079 0
M  V30 46 H 40.675394 31.321716 52.637430 0
M  V30 47 H 39.864853 29.753301 57.270985 0
M  V30 48 H 37.867340 29.106178 51.053509 0
M  V30 49 H 38.267012 27.404851 50.797077 0
M  V30 50 H 37.053457 23.141086 55.934917 0
M  V30 51 H 37.923795 28.191473 53.129638 0
M  V30 52 H 39.661740 32.107362 54.658101 0
M  V30 53 H 40.266559 31.398150 56.118749 0
M  V30 54 H 41.249191 31.306342 54.689608 0
M  V30 55 H 40.582132 30.289036 60.813675 0
M  V30 56 H 40.639900 30.021381 59.118257 0
M  V30 57 H 36.493593 32.436222 58.881445 0
M  V30 58 H 37.300755 33.220870 57.541042 0
M  V30 59 H 38.454444 28.261518 55.159066 0
M  V30 60 H 39.867451 24.421623 54.877263 0
M  V30 61 H 39.317240 26.020178 55.329281 0
M  V30 62 H 37.868907 30.569841 60.232492 0
M  V30 63 H 37.867219 24.794995 53.853513 0
M  V30 64 H 39.127381 31.852400 61.838980 0
M  V30 65 H 40.078152 32.638481 60.600950 0
M  V30 66 H 37.392276 34.711525 59.505013 0
M  V30 67 H 39.014025 34.127152 59.143669 0
M  V30 68 H 36.597688 25.385985 58.653503 0
M  V30 69 H 41.767397 26.858720 58.743911 0
M  V30 70 H 40.476557 31.881436 49.469168 0
M  V30 71 H 39.067481 30.971416 49.184357 0
M  V30 72 H 39.134565 32.017403 50.591112 0
M  V30 73 H 36.945702 30.104808 57.797608 0
M  V30 74 H 37.573711 31.075798 56.508640 0
M  V30 END ATOM
M  V30 BEGIN BOND
M  V30 1 1 9 3
M  V30 2 1 11 5
M  V30 3 2 12 1
M  V30 4 1 12 3
M  V30 5 1 13 1
M  V30 6 1 14 10
M  V30 7 1 15 9
M  V30 8 1 18 1
M  V30 9 1 18 15
M  V30 10 1 18 16
M  V30 11 1 19 13
M  V30 12 1 20 2
M  V30 13 1 21 6
M  V30 14 2 22 13
M  V30 15 1 22 14
M  V30 16 1 23 7
M  V30 17 1 24 6
M  V30 18 1 24 20
M  V30 19 1 25 2
M  V30 20 1 25 8
M  V30 21 1 25 10
M  V30 22 1 26 11
M  V30 23 1 26 17
M  V30 24 1 26 23
M  V30 25 1 27 4
M  V30 26 1 27 24
M  V30 27 1 28 4
M  V30 28 1 28 21
M  V30 29 2 29 5
M  V30 30 1 25 30 CFG=3
M  V30 31 1 31 7
M  V30 32 1 31 8
M  V30 33 1 31 29
M  V30 34 1 32 3
M  V30 35 1 33 6
M  V30 36 1 33 14
M  V30 37 1 3 34 CFG=3
M  V30 38 1 35 5
M  V30 39 1 6 36 CFG=3
M  V30 40 1 37 7
M  V30 41 1 38 7
M  V30 42 1 39 8
M  V30 43 1 40 8
M  V30 44 1 41 9
M  V30 45 1 42 9
M  V30 46 1 43 10
M  V30 47 1 44 11
M  V30 48 1 45 11
M  V30 49 1 46 12
M  V30 50 1 14 47 CFG=1
M  V30 51 1 48 15
M  V30 52 1 49 15
M  V30 53 1 50 17
M  V30 54 1 18 51 CFG=1
M  V30 55 1 52 19
M  V30 56 1 53 19
M  V30 57 1 54 19
M  V30 58 1 55 20
M  V30 59 1 56 20
M  V30 60 1 57 21
M  V30 61 1 58 21
M  V30 62 1 59 22
M  V30 63 1 60 23
M  V30 64 1 61 23
M  V30 65 1 24 62 CFG=1
M  V30 66 1 26 63 CFG=3
M  V30 67 1 64 27
M  V30 68 1 65 27
M  V30 69 1 66 28
M  V30 70 1 67 28
M  V30 71 1 68 29
M  V30 72 1 69 30
M  V30 73 1 70 32
M  V30 74 1 71 32
M  V30 75 1 72 32
M  V30 76 1 73 33
M  V30 77 1 74 33
M  V30 END BOND
M  V30 END CTAB
M  END
>  <i_epik_Tot_Q>  (1) 
0

>  <i_epik_Tot_abs_Q>  (1) 
0

>  <i_i_glide_confnum>  (1) 
3

>  <i_i_glide_lignum>  (1) 
253

>  <i_i_glide_posenum>  (1) 
173

>  <i_i_glide_rotatable_bonds>  (1) 
6

>  <i_lp_mmshare_version>  (1) 
72125

>  <i_m_source_file_index>  (1) 
94

>  <i_f3d_flags>  (1) 
0

>  <num_sample>  (1) 
100

>  <b_lp_Chiralities_Consistent>  (1) 
1

>  <r_epik_Charging_Adjusted_Penalty>  (1) 
0.20325292957253988

>  <r_epik_Ionization_Penalty>  (1) 
0.031936562948065232

>  <r_epik_Ionization_Penalty_Charging>  (1) 
3.6030848355623751e-07

>  <r_epik_Ionization_Penalty_Neutral>  (1) 
0.031936202639581676

>  <r_epik_State_Penalty>  (1) 
0.20325256926405633

>  <r_glide_ring_energy>  (1) 
0.82930930823907001

>  <r_i_docking_score>  (1) 
-7.0562434487068879

>  <r_i_glide_ecoul>  (1) 
0.067157354734262875

>  <r_i_glide_eff_state_penalty>  (1) 
0.20325256926405633

>  <r_i_glide_einternal>  (1) 
10.022218689665589

>  <r_i_glide_emodel>  (1) 
-17.05547193496561

>  <r_i_glide_emodel_strain>  (1) 
4.0884557921828417

>  <r_i_glide_energy>  (1) 
-14.714112154911769

>  <r_i_glide_erotb>  (1) 
0.31140238833871409

>  <r_i_glide_esite>  (1) 
0

>  <r_i_glide_evdw>  (1) 
-14.781269509646032

>  <r_i_glide_gscore>  (1) 
-7.2594960179709442

>  <r_i_glide_gscore_strain>  (1) 
0.02211394804571043

>  <r_i_glide_hbond>  (1) 
0

>  <r_i_glide_ligand_efficiency>  (1) 
-0.21382555905172387

>  <r_i_glide_ligand_efficiency_ln>  (1) 
-1.5692720077191602

>  <r_i_glide_ligand_efficiency_sa>  (1) 
-0.6858528212889542

>  <r_i_glide_lipo>  (1) 
-5.2263341517594837

>  <r_i_glide_metal>  (1) 
-0

>  <r_i_glide_rewards>  (1) 
-1.6376883303237233

>  <r_lp_Energy>  (1) 
31.372437999999999

>  <s_epik_Chemistry_Notes>  (1) 
This compound has an imine and may undergo hydrolysis.

>  <s_epik_cmdline>  (1) 
J2VwaWtfcHl0aG9uJywgJy1waHQnLCAnMS4wJywgJy1waCcsICc3LjQnLCAnLXRuJywgJzgnLCAnLW1hJywgJzUwMCcsICctaW1hZScsICc8aW5maWxlLm1hZT4nLCAnLW9tYWUnLCAnPG91dGZpbGUubWFlPic=

>  <s_epik_input>  (1) 
Q2xbQ0BIXTFbQ0gyXVtDSDJdW0NAQEhdKFtDSDNdKVtDSF09QzEvQyhbQ0gzXSk9W0NIXS9bQ0BASF0oW0NIMl0yKVtOSF1bQ0BAXShbU0hdKShTW0NIMl1bQ0BIXShbQ0BASF0yMylbQ0gyXU9bQ0gyXVtDSDJdMylbQ0gyXU4oW0NIMl1bQ0gyXTQpW0NIXT1bQ0hdW0NIMl1bQ0BASF00W09IXQ==

>  <s_glide_docking_method>  (1) 
confgen

>  <s_i_glide_gridfile>  (1) 
gpcr_5ht2c_6bqh_protein_autoprepared_prepared

>  <s_lp_Force_Field>  (1) 
S-OPLS

>  <s_lp_Variant>  (1) 
DiffSBDD_93_num_sample_100-5

>  <s_m_source_file>  (1) 
generated__ligand_DiffSBDD_2026-05-06_prepared.sdf

>  <GenAI_Model>  (1) 
DiffSBDD

>  <Protein>  (1) 
GPCR_5HT2C

$$$$
DiffSBDD_77_num_sample_100
     RDKit          3D

  0  0  0  0  0  0  0  0  0  0999 V3000
M  V30 BEGIN CTAB
M  V30 COUNTS 77 79 0 0 1
M  V30 BEGIN ATOM
M  V30 1 C 42.684041 33.407947 66.668792 0
M  V30 2 F 39.775072 34.695342 68.506396 0
M  V30 3 C 37.565734 33.669147 57.753238 0
M  V30 4 C 42.571130 34.131270 65.464408 0
M  V30 5 C 39.183178 27.181431 57.392941 0
M  V30 6 C 41.262328 33.858308 62.254405 0
M  V30 7 C 37.300281 31.557919 59.841342 0
M  V30 8 C 39.228441 32.810461 60.874814 0 CFG=2
M  V30 9 O 38.726254 29.115814 59.137837 0
M  V30 10 C 39.594720 25.823225 56.786696 0
M  V30 11 N 37.939331 37.611389 61.726367 0
M  V30 12 C 41.369786 35.798134 63.974698 0
M  V30 13 C 40.685225 34.512823 67.520506 0
M  V30 14 O 37.864801 31.952150 55.131063 0
M  V30 15 C 38.796254 32.091333 56.172869 0
M  V30 16 C 41.511943 35.037403 65.283547 0
M  V30 17 F 41.842242 32.896047 68.849508 0
M  V30 18 C 39.362330 35.342826 60.715810 0
M  V30 19 O 36.303810 37.188875 63.239831 0
M  V30 20 O 39.860837 32.118478 63.097446 0
M  V30 21 C 41.737937 33.596053 67.694908 0
M  V30 22 C 38.798469 26.660662 54.552243 0
M  V30 23 N 38.328296 29.522886 56.921174 0
M  V30 24 C 39.034117 37.037513 62.518283 0
M  V30 25 C 40.576196 35.237035 66.318794 0
M  V30 26 C 38.088448 32.268181 57.521332 0
M  V30 27 C 36.667539 37.633463 62.154168 0
M  V30 28 C 38.468709 27.970471 55.075250 0
M  V30 29 C 38.470801 34.140004 61.065962 0
M  V30 30 F 38.593736 26.422336 53.250987 0
M  V30 31 C 37.924684 29.040507 54.142985 0
M  V30 32 C 40.509899 35.056014 62.917875 0 CFG=1
M  V30 33 C 38.391480 29.883454 58.237580 0
M  V30 34 N 38.307578 31.654531 60.916811 0
M  V30 35 C 37.939537 31.278245 58.477983 0
M  V30 36 C 38.647032 28.227180 56.393255 0
M  V30 37 C 39.304116 25.679431 55.311931 0
M  V30 38 C 40.388023 32.621196 61.895994 0 CFG=2
M  V30 39 N 39.944973 36.014437 61.908254 0 CFG=1 CHG=1
M  V30 40 H 43.495653 32.708317 66.805513 0
M  V30 41 H 36.577824 33.684533 58.212167 0
M  V30 42 H 38.263128 34.220794 58.367113 0
M  V30 43 H 37.467399 34.186720 56.800932 0
M  V30 44 H 43.293597 33.992658 64.682330 0
M  V30 45 H 40.063682 27.571191 57.904949 0
M  V30 46 H 38.409049 26.966589 58.131638 0
M  V30 47 H 41.842797 34.200843 61.402104 0
M  V30 48 H 42.021573 33.487349 62.938914 0
M  V30 49 H 36.637363 32.417611 59.831973 0
M  V30 50 H 36.633706 30.722011 60.057994 0
M  V30 51 H 39.690536 32.839765 59.887432 0
M  V30 52 H 39.107608 25.007666 57.321383 0
M  V30 53 H 40.665907 25.680946 56.919527 0
M  V30 54 H 38.160201 38.003952 60.822643 0
M  V30 55 H 42.349017 36.062886 63.576139 0
M  V30 56 H 40.884395 36.730722 64.241645 0
M  V30 57 H 37.036666 32.354267 55.394700 0
M  V30 58 H 39.604282 31.362679 56.131056 0
M  V30 59 H 39.332324 33.022144 55.982489 0
M  V30 60 H 40.176383 35.032627 60.061525 0
M  V30 61 H 38.801887 36.037741 60.096279 0
M  V30 62 H 39.112518 31.584240 62.864102 0
M  V30 63 H 38.002242 30.213026 56.251887 0
M  V30 64 H 38.636967 36.630387 63.449621 0
M  V30 65 H 39.654319 37.881892 62.823446 0
M  V30 66 H 39.764350 35.936946 66.185651 0
M  V30 67 H 36.004583 38.102058 61.409746 0
M  V30 68 H 37.596816 34.191716 60.425044 0
M  V30 69 H 38.046869 34.210466 62.064287 0
M  V30 70 H 37.621930 28.627186 53.181193 0
M  V30 71 H 37.041913 29.518926 54.565503 0
M  V30 72 H 38.691802 29.789142 53.948658 0
M  V30 73 H 39.660565 34.644407 63.454268 0
M  V30 74 H 38.839954 30.786256 60.915096 0
M  V30 75 H 39.532276 24.723403 54.865294 0
M  V30 76 H 41.045038 31.839450 61.509327 0
M  V30 77 H 40.731206 36.538230 61.546856 0
M  V30 END ATOM
M  V30 BEGIN BOND
M  V30 1 2 4 1
M  V30 2 1 10 5
M  V30 3 1 13 2
M  V30 4 1 15 14
M  V30 5 1 16 4
M  V30 6 1 16 12
M  V30 7 1 21 1
M  V30 8 2 21 13
M  V30 9 1 21 17
M  V30 10 1 24 11
M  V30 11 1 25 13
M  V30 12 2 25 16
M  V30 13 1 26 3
M  V30 14 1 26 15
M  V30 15 1 27 11
M  V30 16 2 27 19
M  V30 17 1 28 22
M  V30 18 1 29 8
M  V30 19 1 29 18
M  V30 20 1 30 22
M  V30 21 1 31 28
M  V30 22 1 32 6
M  V30 23 1 32 12
M  V30 24 2 33 9
M  V30 25 1 33 23
M  V30 26 1 34 7
M  V30 27 1 34 8
M  V30 28 1 35 7
M  V30 29 2 35 26
M  V30 30 1 35 33
M  V30 31 1 36 5
M  V30 32 1 36 23
M  V30 33 2 36 28
M  V30 34 1 37 10
M  V30 35 2 37 22
M  V30 36 1 38 6
M  V30 37 1 38 8
M  V30 38 1 38 20
M  V30 39 1 39 18
M  V30 40 1 39 24
M  V30 41 1 39 32
M  V30 42 1 40 1
M  V30 43 1 41 3
M  V30 44 1 42 3
M  V30 45 1 43 3
M  V30 46 1 44 4
M  V30 47 1 45 5
M  V30 48 1 46 5
M  V30 49 1 47 6
M  V30 50 1 48 6
M  V30 51 1 49 7
M  V30 52 1 50 7
M  V30 53 1 8 51 CFG=3
M  V30 54 1 52 10
M  V30 55 1 53 10
M  V30 56 1 54 11
M  V30 57 1 55 12
M  V30 58 1 56 12
M  V30 59 1 57 14
M  V30 60 1 58 15
M  V30 61 1 59 15
M  V30 62 1 60 18
M  V30 63 1 61 18
M  V30 64 1 62 20
M  V30 65 1 63 23
M  V30 66 1 64 24
M  V30 67 1 65 24
M  V30 68 1 66 25
M  V30 69 1 67 27
M  V30 70 1 68 29
M  V30 71 1 69 29
M  V30 72 1 70 31
M  V30 73 1 71 31
M  V30 74 1 72 31
M  V30 75 1 32 73 CFG=1
M  V30 76 1 74 34
M  V30 77 1 75 37
M  V30 78 1 38 76 CFG=3
M  V30 79 1 39 77 CFG=3
M  V30 END BOND
M  V30 END CTAB
M  END
>  <i_epik_Tot_Q>  (1) 
1

>  <i_epik_Tot_abs_Q>  (1) 
1

>  <i_i_glide_confnum>  (1) 
3102

>  <i_i_glide_lignum>  (1) 
194

>  <i_i_glide_posenum>  (1) 
145

>  <i_i_glide_rotatable_bonds>  (1) 
14

>  <i_lp_mmshare_version>  (1) 
72125

>  <i_m_source_file_index>  (1) 
78

>  <i_f3d_flags>  (1) 
0

>  <num_sample>  (1) 
100

>  <b_lp_Chiralities_Consistent>  (1) 
1

>  <r_epik_Charging_Adjusted_Penalty>  (1) 
1.2599673287133732

>  <r_epik_Ionization_Penalty>  (1) 
0.56885031527891383

>  <r_epik_Ionization_Penalty_Charging>  (1) 
0.52000942162343

>  <r_epik_Ionization_Penalty_Neutral>  (1) 
0.048840893655483872

>  <r_epik_State_Penalty>  (1) 
0.73995790708994325

>  <r_glide_ring_energy>  (1) 
0

>  <r_i_docking_score>  (1) 
-7.0556572698909354

>  <r_i_glide_ecoul>  (1) 
-2.5814134478448798

>  <r_i_glide_eff_state_penalty>  (1) 
0.73995790708994325

>  <r_i_glide_einternal>  (1) 
21.189119383854052

>  <r_i_glide_emodel>  (1) 
-60.852577142679543

>  <r_i_glide_emodel_strain>  (1) 
2.9974081177184928

>  <r_i_glide_energy>  (1) 
-47.491704399831463

>  <r_i_glide_erotb>  (1) 
0.67934156738045093

>  <r_i_glide_esite>  (1) 
-0.046328678364884184

>  <r_i_glide_evdw>  (1) 
-44.910290951986582

>  <r_i_glide_gscore>  (1) 
-7.7956151769808786

>  <r_i_glide_gscore_strain>  (1) 
0

>  <r_i_glide_hbond>  (1) 
-0.19783521947279417

>  <r_i_glide_ligand_efficiency>  (1) 
-0.18091428897156245

>  <r_i_glide_ligand_efficiency_ln>  (1) 
-1.5129332054067564

>  <r_i_glide_ligand_efficiency_sa>  (1) 
-0.61351860696513427

>  <r_i_glide_lipo>  (1) 
-3.7737949548818781

>  <r_i_glide_metal>  (1) 
-0

>  <r_i_glide_rewards>  (1) 
-1.8242713268657129

>  <r_lp_Energy>  (1) 
51.282467999999994

>  <s_epik_Chemistry_Notes>  (1) 
This compound contains an acetal/aminal-like group ( X-CH(R)-Y where X, Y are N, S, or O) that may be acid/base labile, releasing an aldehyde.

>  <s_epik_cmdline>  (1) 
J2VwaWtfcHl0aG9uJywgJy1waHQnLCAnMS4wJywgJy1waCcsICc3LjQnLCAnLXRuJywgJzgnLCAnLW1hJywgJzUwMCcsICctaW1hZScsICc8aW5maWxlLm1hZT4nLCAnLW9tYWUnLCAnPG91dGZpbGUubWFlPic=

>  <s_epik_input>  (1) 
RmMxYyhGKVtjSF1bY0hdYyhbY0hdMSlbQ0gyXVtDQEhdKFtDSDJdW0NASF0yW09IXSlOKFtDSDJdW05IXVtDSF09TylbQ0gyXVtDSDJdW0NAQEhdMltOSF1bQ0gyXS9DKD1DKFxbQ0gzXSlbQ0gyXVtPSF0pQyg9TylbTkhdQyg9QzNbQ0gzXSlbQ0gyXVtDSDJdW0NIXT1DM0Y=

>  <s_glide_docking_method>  (1) 
confgen

>  <s_i_glide_gridfile>  (1) 
gpcr_5ht2c_6bqh_protein_autoprepared_prepared

>  <s_lp_Force_Field>  (1) 
S-OPLS

>  <s_lp_Variant>  (1) 
DiffSBDD_77_num_sample_100-5

>  <s_m_source_file>  (1) 
generated__ligand_DiffSBDD_2026-05-06_prepared.sdf

>  <GenAI_Model>  (1) 
DiffSBDD

>  <Protein>  (1) 
GPCR_5HT2C

$$$$
DiffSBDD_25_num_sample_100
     RDKit          3D

  0  0  0  0  0  0  0  0  0  0999 V3000
M  V30 BEGIN CTAB
M  V30 COUNTS 57 59 0 0 1
M  V30 BEGIN ATOM
M  V30 1 C 38.835373 33.279402 61.306352 0
M  V30 2 C 40.235636 29.718996 61.021907 0
M  V30 3 C 40.488677 31.435291 62.831317 0
M  V30 4 C 37.644114 27.275471 55.026474 0
M  V30 5 C 37.587034 25.363133 56.702677 0
M  V30 6 C 38.318370 24.528975 57.458748 0
M  V30 7 C 38.457988 29.861920 57.586949 0 CFG=2
M  V30 8 N 42.678035 33.506085 66.927724 0
M  V30 9 O 40.093100 28.082832 59.264798 0
M  V30 10 C 39.756275 29.328247 59.752745 0
M  V30 11 C 38.606495 27.621429 52.657929 0
M  V30 12 C 41.719285 34.516535 66.507760 0 CFG=2
M  V30 13 C 39.164389 27.445484 57.188440 0 CFG=2
M  V30 14 O 37.652195 28.421427 52.526082 0
M  V30 15 O 38.940022 27.402569 58.594425 0
M  V30 16 C 39.731832 33.783899 62.452001 0
M  V30 17 O 39.464789 27.357106 51.788336 0 CHG=-1
M  V30 18 C 41.003421 33.000292 64.605376 0
M  V30 19 C 38.966871 30.237538 58.984433 0
M  V30 20 N 39.842260 34.821442 68.323820 0
M  V30 21 O 40.315466 26.731892 56.782344 0
M  V30 22 C 38.667403 31.511912 59.509764 0
M  V30 23 C 40.667407 34.689626 67.523515 0
M  V30 24 C 38.744964 26.901284 54.008038 0
M  V30 25 C 40.410969 32.698810 63.293528 0
M  V30 26 O 41.006598 28.853508 61.748933 0
M  V30 27 C 39.419870 28.927622 56.835077 0
M  V30 28 O 38.263098 30.994634 56.756885 0
M  V30 29 C 41.107647 34.244628 65.141352 0
M  V30 30 C 39.948480 31.010668 61.529673 0
M  V30 31 C 39.160891 31.899751 60.768226 0
M  V30 32 C 37.887377 26.850371 56.501212 0 CFG=1
M  V30 33 F 40.667407 35.299642 64.439915 0
M  V30 34 H 38.835805 34.003949 60.490956 0
M  V30 35 H 37.806601 33.230242 61.666191 0
M  V30 36 H 40.986061 30.681321 63.424442 0
M  V30 37 H 37.467424 28.351072 55.006326 0
M  V30 38 H 36.705802 26.844790 54.677117 0
M  V30 39 H 36.715509 24.979849 56.191933 0
M  V30 40 H 39.194446 24.870777 57.983479 0
M  V30 41 H 38.044282 23.492239 57.560572 0
M  V30 42 H 37.474864 29.404731 57.695627 0
M  V30 43 H 42.216721 32.619677 67.075969 0
M  V30 44 H 43.380262 33.367409 66.215132 0
M  V30 45 H 42.249173 35.467790 66.440985 0
M  V30 46 H 40.532546 34.388852 62.024237 0
M  V30 47 H 39.113504 34.445750 63.053485 0
M  V30 48 H 41.381598 32.170478 65.182832 0
M  V30 49 H 41.074999 27.119713 57.188501 0
M  V30 50 H 38.067501 32.203855 58.935493 0
M  V30 51 H 39.731531 27.162199 54.382562 0
M  V30 52 H 38.747504 25.825026 53.853507 0
M  V30 53 H 41.139163 28.021567 61.316649 0
M  V30 54 H 39.354333 29.076939 55.759090 0
M  V30 55 H 40.444917 29.221436 57.060152 0
M  V30 56 H 37.357831 31.286451 56.840223 0
M  V30 57 H 37.067404 27.298333 57.053513 0
M  V30 END ATOM
M  V30 BEGIN BOND
M  V30 1 2 6 5
M  V30 2 1 10 2
M  V30 3 1 10 9
M  V30 4 1 12 8
M  V30 5 2 14 11
M  V30 6 1 15 9
M  V30 7 1 15 13
M  V30 8 1 16 1
M  V30 9 1 17 11
M  V30 10 1 19 7
M  V30 11 2 19 10
M  V30 12 1 13 21 CFG=1
M  V30 13 1 22 19
M  V30 14 1 23 12
M  V30 15 3 23 20
M  V30 16 1 24 4
M  V30 17 1 24 11
M  V30 18 2 25 3
M  V30 19 1 25 16
M  V30 20 1 25 18
M  V30 21 1 26 2
M  V30 22 1 27 7
M  V30 23 1 27 13
M  V30 24 1 28 7
M  V30 25 1 29 12
M  V30 26 2 29 18
M  V30 27 2 30 2
M  V30 28 1 30 3
M  V30 29 1 31 1
M  V30 30 2 31 22
M  V30 31 1 31 30
M  V30 32 1 32 4
M  V30 33 1 32 5
M  V30 34 1 32 13
M  V30 35 1 33 29
M  V30 36 1 34 1
M  V30 37 1 35 1
M  V30 38 1 36 3
M  V30 39 1 37 4
M  V30 40 1 38 4
M  V30 41 1 39 5
M  V30 42 1 40 6
M  V30 43 1 41 6
M  V30 44 1 7 42 CFG=1
M  V30 45 1 43 8
M  V30 46 1 44 8
M  V30 47 1 12 45 CFG=3
M  V30 48 1 46 16
M  V30 49 1 47 16
M  V30 50 1 48 18
M  V30 51 1 49 21
M  V30 52 1 50 22
M  V30 53 1 51 24
M  V30 54 1 52 24
M  V30 55 1 53 26
M  V30 56 1 54 27
M  V30 57 1 55 27
M  V30 58 1 56 28
M  V30 59 1 32 57 CFG=1
M  V30 END BOND
M  V30 END CTAB
M  END
>  <i_epik_Tot_Q>  (1) 
-1

>  <i_epik_Tot_abs_Q>  (1) 
1

>  <i_i_glide_confnum>  (1) 
132

>  <i_i_glide_lignum>  (1) 
65

>  <i_i_glide_posenum>  (1) 
385

>  <i_i_glide_rotatable_bonds>  (1) 
10

>  <i_lp_mmshare_version>  (1) 
72125

>  <i_m_source_file_index>  (1) 
26

>  <i_f3d_flags>  (1) 
0

>  <num_sample>  (1) 
100

>  <b_lp_Chiralities_Consistent>  (1) 
1

>  <r_epik_Charging_Adjusted_Penalty>  (1) 
0.0056011124489286045

>  <r_epik_Ionization_Penalty>  (1) 
0.0056278004124673013

>  <r_epik_Ionization_Penalty_Charging>  (1) 
0.0010502183284910153

>  <r_epik_Ionization_Penalty_Neutral>  (1) 
0.0045775820839762862

>  <r_epik_State_Penalty>  (1) 
0.0045508941204375894

>  <r_glide_ring_energy>  (1) 
0

>  <r_i_docking_score>  (1) 
-7.0535724361535177

>  <r_i_glide_ecoul>  (1) 
-4.8409584593964601

>  <r_i_glide_eff_state_penalty>  (1) 
0.0045508941204375894

>  <r_i_glide_einternal>  (1) 
7.8956363500255877

>  <r_i_glide_emodel>  (1) 
-57.304558539674147

>  <r_i_glide_emodel_strain>  (1) 
2.1720695958452296

>  <r_i_glide_energy>  (1) 
-44.256337096084948

>  <r_i_glide_erotb>  (1) 
0.57188489385704211

>  <r_i_glide_esite>  (1) 
0

>  <r_i_glide_evdw>  (1) 
-39.415378636688487

>  <r_i_glide_gscore>  (1) 
-7.058123330273955

>  <r_i_glide_gscore_strain>  (1) 
0

>  <r_i_glide_hbond>  (1) 
-0.37792333055294308

>  <r_i_glide_ligand_efficiency>  (1) 
-0.21374461927737931

>  <r_i_glide_ligand_efficiency_ln>  (1) 
-1.5686779883570536

>  <r_i_glide_ligand_efficiency_sa>  (1) 
-0.68559320418408198

>  <r_i_glide_lipo>  (1) 
-3.0927676554593662

>  <r_i_glide_metal>  (1) 
-0

>  <r_i_glide_rewards>  (1) 
-1.4624045373747956

>  <r_lp_Energy>  (1) 
34.737321999999999

>  <s_epik_cmdline>  (1) 
J2VwaWtfcHl0aG9uJywgJy1waHQnLCAnMS4wJywgJy1waCcsICc3LjQnLCAnLXRuJywgJzgnLCAnLW1hJywgJzUwMCcsICctaW1hZScsICc8aW5maWxlLm1hZT4nLCAnLW9tYWUnLCAnPG91dGZpbGUubWFlPic=

>  <s_epik_input>  (1) 
TiNDW0NAQEhdKFtOSDJdKVxDKEYpPVtDSF1cQyhbQ0gyXVtDSDJdMSk9W0NIXWMoYzJbT0hdKWMxW2NIXWMoYzIzKVtDQEBIXShbT0hdKVtDSDJdW0NAXShPTzMpKFtPSF0pW0NASF0oW0NIXT1bQ0gyXSlbQ0gyXVtDSDJdQyg9TylbT0hd

>  <s_glide_docking_method>  (1) 
confgen

>  <s_i_glide_gridfile>  (1) 
gpcr_5ht2c_6bqh_protein_autoprepared_prepared

>  <s_lp_Force_Field>  (1) 
S-OPLS

>  <s_lp_Variant>  (1) 
DiffSBDD_25_num_sample_100-1

>  <s_m_source_file>  (1) 
generated__ligand_DiffSBDD_2026-05-06_prepared.sdf

>  <GenAI_Model>  (1) 
DiffSBDD

>  <Protein>  (1) 
GPCR_5HT2C

$$$$
DiffSBDD_63_num_sample_100
     RDKit          3D

  0  0  0  0  0  0  0  0  0  0999 V3000
M  V30 BEGIN CTAB
M  V30 COUNTS 66 69 0 0 1
M  V30 BEGIN ATOM
M  V30 1 C 39.179322 28.772263 59.041034 0
M  V30 2 O 41.773086 31.425050 62.516655 0
M  V30 3 C 40.571655 31.989591 62.063634 0 CFG=2
M  V30 4 O 40.374014 30.458405 66.418343 0
M  V30 5 C 38.219837 30.033794 57.066223 0
M  V30 6 C 40.616834 29.408247 65.505304 0
M  V30 7 C 41.312066 35.581869 63.075005 0
M  V30 8 C 41.774122 31.028459 63.885881 0 CFG=1
M  V30 9 F 40.954609 30.032582 50.837247 0
M  V30 10 C 40.074502 29.706728 51.799828 0
M  V30 11 C 39.028600 30.669667 53.884762 0
M  V30 12 S 37.087938 30.021429 55.631625 0
M  V30 13 C 37.692485 31.040553 58.103344 0
M  V30 14 C 41.519310 34.151746 62.558272 0
M  V30 15 N 40.312420 33.327872 62.637698 0
M  V30 16 O 40.325825 36.205365 62.263807 0
M  V30 17 C 39.866807 30.696186 52.828579 0
M  V30 18 C 39.082591 35.518541 62.320310 0
M  V30 19 F 37.067432 27.588320 54.256769 0
M  V30 20 C 37.949996 28.410365 53.671840 0
M  V30 21 C 39.497886 28.504646 51.691034 0
M  V30 22 C 39.450048 30.916074 62.248700 0 CFG=2
M  V30 23 C 40.721394 29.928326 64.053955 0 CFG=2
M  V30 24 C 38.307519 28.668681 57.769208 0
M  V30 25 C 39.253920 34.037145 61.903996 0
M  V30 26 C 43.179708 30.520399 64.243421 0
M  V30 27 C 38.521078 31.069425 59.391779 0
M  V30 28 O 39.467400 30.421566 63.593171 0
M  V30 29 O 43.610792 31.051463 65.481250 0
M  V30 30 F 39.061058 31.772066 54.653573 0
M  V30 31 N 38.703823 29.759433 60.025060 0
M  V30 32 N 38.136984 29.659365 54.275799 0
M  V30 33 C 38.529879 27.906996 52.569980 0
M  V30 34 F 39.866943 27.763299 50.637349 0
M  V30 35 C 39.622865 29.787941 61.182692 0
M  V30 36 H 40.199022 29.017899 58.737929 0
M  V30 37 H 39.231904 27.789494 59.511272 0
M  V30 38 H 40.736807 32.137829 60.995649 0
M  V30 39 H 39.549281 30.858993 66.183871 0
M  V30 40 H 39.211462 30.342037 56.736359 0
M  V30 41 H 39.867338 28.631958 65.607799 0
M  V30 42 H 41.550100 28.930241 65.801868 0
M  V30 43 H 41.008593 35.582256 64.123831 0
M  V30 44 H 42.240381 36.150852 63.016936 0
M  V30 45 H 41.524431 31.891515 64.505004 0
M  V30 46 H 37.653421 32.040410 57.669328 0
M  V30 47 H 36.667412 30.782033 58.363912 0
M  V30 48 H 42.322774 33.696958 63.135304 0
M  V30 49 H 41.867215 34.199436 61.526112 0
M  V30 50 H 40.456550 31.593726 52.728339 0
M  V30 51 H 38.676771 35.621415 63.325880 0
M  V30 52 H 38.382735 36.012611 61.647291 0
M  V30 53 H 38.473114 31.377956 62.131706 0
M  V30 54 H 40.994675 29.074589 63.432835 0
M  V30 55 H 38.717844 27.921514 57.088447 0
M  V30 56 H 37.307022 28.327122 58.038091 0
M  V30 57 H 39.468606 34.011622 60.834081 0
M  V30 58 H 38.298167 33.530527 62.035645 0
M  V30 59 H 43.867421 30.821403 63.466048 0
M  V30 60 H 43.230602 29.431528 64.264165 0
M  V30 61 H 38.018238 31.747013 60.079460 0
M  V30 62 H 39.467401 31.531242 59.177049 0
M  V30 63 H 42.967168 30.837958 66.142907 0
M  V30 64 H 38.214130 26.909134 52.296316 0
M  V30 65 H 40.654788 29.798740 60.827237 0
M  V30 66 H 39.513377 28.831191 61.694531 0
M  V30 END ATOM
M  V30 BEGIN BOND
M  V30 1 1 3 2
M  V30 2 1 6 4
M  V30 3 1 8 2
M  V30 4 1 10 9
M  V30 5 1 12 5
M  V30 6 1 13 5
M  V30 7 1 14 7
M  V30 8 1 15 3
M  V30 9 1 15 14
M  V30 10 1 16 7
M  V30 11 1 17 10
M  V30 12 2 17 11
M  V30 13 1 18 16
M  V30 14 1 20 19
M  V30 15 2 21 10
M  V30 16 1 22 3
M  V30 17 1 23 6
M  V30 18 1 23 8
M  V30 19 1 24 1
M  V30 20 1 24 5
M  V30 21 1 25 15
M  V30 22 1 25 18
M  V30 23 1 26 8
M  V30 24 1 27 13
M  V30 25 1 28 22
M  V30 26 1 28 23
M  V30 27 1 29 26
M  V30 28 1 30 11
M  V30 29 1 31 1
M  V30 30 1 31 27
M  V30 31 1 32 11
M  V30 32 1 32 12
M  V30 33 1 32 20
M  V30 34 2 33 20
M  V30 35 1 33 21
M  V30 36 1 34 21
M  V30 37 1 35 22
M  V30 38 1 35 31
M  V30 39 1 36 1
M  V30 40 1 37 1
M  V30 41 1 3 38 CFG=3
M  V30 42 1 39 4
M  V30 43 1 40 5
M  V30 44 1 41 6
M  V30 45 1 42 6
M  V30 46 1 43 7
M  V30 47 1 44 7
M  V30 48 1 8 45 CFG=1
M  V30 49 1 46 13
M  V30 50 1 47 13
M  V30 51 1 48 14
M  V30 52 1 49 14
M  V30 53 1 50 17
M  V30 54 1 51 18
M  V30 55 1 52 18
M  V30 56 1 22 53 CFG=3
M  V30 57 1 23 54 CFG=3
M  V30 58 1 55 24
M  V30 59 1 56 24
M  V30 60 1 57 25
M  V30 61 1 58 25
M  V30 62 1 59 26
M  V30 63 1 60 26
M  V30 64 1 61 27
M  V30 65 1 62 27
M  V30 66 1 63 29
M  V30 67 1 64 33
M  V30 68 1 65 35
M  V30 69 1 66 35
M  V30 END BOND
M  V30 END CTAB
M  END
>  <i_epik_Tot_Q>  (1) 
0

>  <i_epik_Tot_abs_Q>  (1) 
0

>  <i_i_glide_confnum>  (1) 
492

>  <i_i_glide_lignum>  (1) 
160

>  <i_i_glide_posenum>  (1) 
261

>  <i_i_glide_rotatable_bonds>  (1) 
9

>  <i_lp_mmshare_version>  (1) 
72125

>  <i_m_source_file_index>  (1) 
64

>  <i_f3d_flags>  (1) 
0

>  <num_sample>  (1) 
100

>  <b_lp_Chiralities_Consistent>  (1) 
1

>  <r_epik_Charging_Adjusted_Penalty>  (1) 
0.48877855165897433

>  <r_epik_Ionization_Penalty>  (1) 
0.48879775138492404

>  <r_epik_Ionization_Penalty_Charging>  (1) 
0

>  <r_epik_Ionization_Penalty_Neutral>  (1) 
0.48879775138492404

>  <r_epik_State_Penalty>  (1) 
0.48877855165897433

>  <r_glide_ring_energy>  (1) 
0.0045149093831275133

>  <r_i_docking_score>  (1) 
-7.0519622924251237

>  <r_i_glide_ecoul>  (1) 
-1.1469749515337488

>  <r_i_glide_eff_state_penalty>  (1) 
0.48877855165897433

>  <r_i_glide_einternal>  (1) 
10.644726939770148

>  <r_i_glide_emodel>  (1) 
-54.130818448438603

>  <r_i_glide_emodel_strain>  (1) 
0.78729661436240406

>  <r_i_glide_energy>  (1) 
-44.479950781191562

>  <r_i_glide_erotb>  (1) 
0.52162944545335954

>  <r_i_glide_esite>  (1) 
0

>  <r_i_glide_evdw>  (1) 
-43.332975829657812

>  <r_i_glide_gscore>  (1) 
-7.5407408440840982

>  <r_i_glide_gscore_strain>  (1) 
0

>  <r_i_glide_hbond>  (1) 
-0.12384102609035803

>  <r_i_glide_ligand_efficiency>  (1) 
-0.20148463692643212

>  <r_i_glide_ligand_efficiency_ln>  (1) 
-1.5480622330578664

>  <r_i_glide_ligand_efficiency_sa>  (1) 
-0.65906960787063207

>  <r_i_glide_lipo>  (1) 
-3.3574408230356068

>  <r_i_glide_metal>  (1) 
-0

>  <r_i_glide_rewards>  (1) 
-2.2423934061985396

>  <r_lp_Energy>  (1) 
32.449697999999998

>  <s_epik_Chemistry_Notes>  (1) 
This compound contains an acetal/aminal-like group ( X-CH(R)-Y where X, Y are N, S, or O) that may be acid/base labile, releasing an aldehyde. This compound has a N-S or N-O group and may undergo hydrolysis at high or low pH.

>  <s_epik_cmdline>  (1) 
J2VwaWtfcHl0aG9uJywgJy1waHQnLCAnMS4wJywgJy1waCcsICc3LjQnLCAnLXRuJywgJzgnLCAnLW1hJywgJzUwMCcsICctaW1hZScsICc8aW5maWxlLm1hZT4nLCAnLW9tYWUnLCAnPG91dGZpbGUubWFlPic=

>  <s_epik_input>  (1) 
RkMxPUMoRilbQ0hdPUMoRilOKEMoRik9W0NIXTEpU1tDSF0yW0NIMl1bQ0gyXU4oW0NIMl1bQ0gyXTIpW0NIMl1bQ0BIXTNPW0NASF0oW0NIMl1bT0hdKVtDQEBIXShbQ0gyXVtPSF0pT1tDQEBIXTNONFtDSDJdW0NIMl1PW0NIMl1bQ0gyXTQ=

>  <s_glide_docking_method>  (1) 
confgen

>  <s_i_glide_gridfile>  (1) 
gpcr_5ht2c_6bqh_protein_autoprepared_prepared

>  <s_lp_Force_Field>  (1) 
S-OPLS

>  <s_lp_Variant>  (1) 
DiffSBDD_63_num_sample_100-3

>  <s_m_source_file>  (1) 
generated__ligand_DiffSBDD_2026-05-06_prepared.sdf

>  <GenAI_Model>  (1) 
DiffSBDD

>  <Protein>  (1) 
GPCR_5HT2C

$$$$
DiffSBDD_0_num_sample_100
     RDKit          3D

  0  0  0  0  0  0  0  0  0  0999 V3000
M  V30 BEGIN CTAB
M  V30 COUNTS 59 61 0 0 1
M  V30 BEGIN ATOM
M  V30 1 C 38.922077 28.022187 59.390673 0
M  V30 2 C 39.599209 27.795151 55.457954 0 CFG=1
M  V30 3 C 39.467170 33.771864 61.379900 0
M  V30 4 C 37.726898 32.271544 58.628168 0
M  V30 5 C 40.168764 28.437358 59.961681 0
M  V30 6 C 41.350951 27.228038 58.008767 0
M  V30 7 C 37.432180 34.817530 60.522521 0
M  V30 8 C 39.882211 35.011475 61.903974 0
M  V30 9 C 38.240120 33.672043 60.689657 0
M  V30 10 C 39.050838 28.109564 52.979856 0 CFG=2
M  V30 11 N 38.326960 29.939112 55.917541 0
M  V30 12 C 38.358925 31.325880 56.381574 0
M  V30 13 C 38.428474 31.401415 57.890451 0
M  V30 14 C 39.072577 36.151533 61.740417 0
M  V30 15 F 37.073521 37.154837 60.889568 0
M  V30 16 C 37.849119 36.055362 61.048137 0
M  V30 17 C 37.788792 32.332262 60.135598 0 CFG=1
M  V30 18 C 41.322178 28.077943 59.330642 0
M  V30 19 N 35.467423 31.621422 61.130982 0
M  V30 20 C 39.606337 29.233705 56.056550 0
M  V30 21 C 38.930864 27.201646 58.359716 0
M  V30 22 C 39.356409 26.616935 56.445295 0 CFG=1
M  V30 23 N 38.659705 27.676963 54.333704 0
M  V30 24 O 39.471263 37.350141 62.251620 0
M  V30 25 C 39.467354 29.595158 52.844305 0
M  V30 26 C 37.867388 27.815976 52.059977 0
M  V30 27 C 39.984579 29.970036 51.446042 0
M  V30 28 N 40.014726 26.650076 57.774021 0
M  V30 29 S 37.705590 26.615489 57.328326 0
M  V30 30 C 36.488935 31.935990 60.692270 0
M  V30 31 Cl 40.207720 29.400699 61.391804 0
M  V30 32 H 37.991376 28.421386 59.766129 0
M  V30 33 H 40.601957 27.621107 55.076913 0
M  V30 34 H 40.088299 32.896870 61.509776 0
M  V30 35 H 37.067411 32.975762 58.140688 0
M  V30 36 H 41.704415 27.830412 57.173062 0
M  V30 37 H 42.066820 26.421473 58.151678 0
M  V30 38 H 36.492574 34.745340 59.994092 0
M  V30 39 H 40.820587 35.087142 62.433744 0
M  V30 40 H 39.882164 27.485112 52.653194 0
M  V30 41 H 38.066282 29.939403 54.937312 0
M  V30 42 H 37.467450 31.854130 56.041095 0
M  V30 43 H 39.214046 31.850619 55.953916 0
M  V30 44 H 39.086498 30.703898 58.380826 0
M  V30 45 H 38.491814 31.571505 60.473938 0
M  V30 46 H 42.267397 28.386876 59.726415 0
M  V30 47 H 40.385791 29.812336 55.567727 0
M  V30 48 H 39.920672 29.223846 57.093449 0
M  V30 49 H 39.516351 25.642615 55.982282 0
M  V30 50 H 37.773156 28.089947 54.606996 0
M  V30 51 H 38.831866 38.021172 62.068447 0
M  V30 52 H 38.638841 30.249081 53.110603 0
M  V30 53 H 40.267389 29.838858 53.531114 0
M  V30 54 H 38.153198 27.856689 51.010967 0
M  V30 55 H 37.474753 26.821426 52.253502 0
M  V30 56 H 37.050198 28.518772 52.220427 0
M  V30 57 H 40.338024 31.001685 51.431563 0
M  V30 58 H 40.820360 29.333673 51.153100 0
M  V30 59 H 39.211825 29.883534 50.682061 0
M  V30 END ATOM
M  V30 BEGIN BOND
M  V30 1 1 5 1
M  V30 2 2 8 3
M  V30 3 1 9 3
M  V30 4 2 9 7
M  V30 5 1 12 11
M  V30 6 2 13 4
M  V30 7 1 13 12
M  V30 8 1 14 8
M  V30 9 1 16 7
M  V30 10 2 16 14
M  V30 11 1 16 15
M  V30 12 1 17 4
M  V30 13 1 17 9
M  V30 14 2 18 5
M  V30 15 1 18 6
M  V30 16 1 20 2
M  V30 17 1 20 11
M  V30 18 2 21 1
M  V30 19 1 22 2
M  V30 20 1 23 2
M  V30 21 1 23 10
M  V30 22 1 24 14
M  V30 23 1 25 10
M  V30 24 1 26 10
M  V30 25 1 27 25
M  V30 26 1 28 6
M  V30 27 1 28 21
M  V30 28 1 28 22
M  V30 29 1 29 21
M  V30 30 1 29 22
M  V30 31 1 30 17
M  V30 32 3 30 19
M  V30 33 1 31 5
M  V30 34 1 32 1
M  V30 35 1 2 33 CFG=3
M  V30 36 1 34 3
M  V30 37 1 35 4
M  V30 38 1 36 6
M  V30 39 1 37 6
M  V30 40 1 38 7
M  V30 41 1 39 8
M  V30 42 1 10 40 CFG=3
M  V30 43 1 41 11
M  V30 44 1 42 12
M  V30 45 1 43 12
M  V30 46 1 44 13
M  V30 47 1 17 45 CFG=1
M  V30 48 1 46 18
M  V30 49 1 47 20
M  V30 50 1 48 20
M  V30 51 1 22 49 CFG=3
M  V30 52 1 50 23
M  V30 53 1 51 24
M  V30 54 1 52 25
M  V30 55 1 53 25
M  V30 56 1 54 26
M  V30 57 1 55 26
M  V30 58 1 56 26
M  V30 59 1 57 27
M  V30 60 1 58 27
M  V30 61 1 59 27
M  V30 END BOND
M  V30 END CTAB
M  END
>  <i_epik_Tot_Q>  (1) 
0

>  <i_epik_Tot_abs_Q>  (1) 
0

>  <i_i_glide_confnum>  (1) 
834

>  <i_i_glide_lignum>  (1) 
1

>  <i_i_glide_posenum>  (1) 
266

>  <i_i_glide_rotatable_bonds>  (1) 
11

>  <i_lp_mmshare_version>  (1) 
72125

>  <i_m_source_file_index>  (1) 
1

>  <i_f3d_flags>  (1) 
0

>  <num_sample>  (1) 
100

>  <b_lp_Chiralities_Consistent>  (1) 
1

>  <r_epik_Charging_Adjusted_Penalty>  (1) 
0.47819495767320574

>  <r_epik_Ionization_Penalty>  (1) 
0.67182721305937398

>  <r_epik_Ionization_Penalty_Charging>  (1) 
0

>  <r_epik_Ionization_Penalty_Neutral>  (1) 
0.67182721305937398

>  <r_epik_State_Penalty>  (1) 
0.47819495767320574

>  <r_glide_ring_energy>  (1) 
0

>  <r_i_docking_score>  (1) 
-7.0507401901741709

>  <r_i_glide_ecoul>  (1) 
-1.8736688755944326

>  <r_i_glide_eff_state_penalty>  (1) 
0.47819495767320574

>  <r_i_glide_einternal>  (1) 
24.230962520487139

>  <r_i_glide_emodel>  (1) 
-54.833723537789709

>  <r_i_glide_emodel_strain>  (1) 
0.60262079529574919

>  <r_i_glide_energy>  (1) 
-45.856430450954655

>  <r_i_glide_erotb>  (1) 
0.75184865993743433

>  <r_i_glide_esite>  (1) 
-0.049531632975758688

>  <r_i_glide_evdw>  (1) 
-43.982761575360222

>  <r_i_glide_gscore>  (1) 
-7.5289351478473767

>  <r_i_glide_gscore_strain>  (1) 
0

>  <r_i_glide_hbond>  (1) 
-0.20680457826331627

>  <r_i_glide_ligand_efficiency>  (1) 
-0.22744323194110228

>  <r_i_glide_ligand_efficiency_ln>  (1) 
-1.5901579921209694

>  <r_i_glide_ligand_efficiency_sa>  (1) 
-0.71448576833714694

>  <r_i_glide_lipo>  (1) 
-4.13223988551026

>  <r_i_glide_metal>  (1) 
-0

>  <r_i_glide_rewards>  (1) 
-1.4120193009283002

>  <r_lp_Energy>  (1) 
39.698704999999997

>  <r_lp_tautomer_probability>  (1) 
0.99999999999736477

>  <s_epik_Chemistry_Notes>  (1) 
This compound contains an acetal/aminal-like group ( X-CH(R)-Y where X, Y are N, S, or O) that may be acid/base labile, releasing an aldehyde.

>  <s_epik_cmdline>  (1) 
J2VwaWtfcHl0aG9uJywgJy1waHQnLCAnMS4wJywgJy1waCcsICc3LjQnLCAnLXRuJywgJzgnLCAnLW1hJywgJzUwMCcsICctaW1hZScsICc8aW5maWxlLm1hZT4nLCAnLW9tYWUnLCAnPG91dGZpbGUubWFlPic=

>  <s_epik_input>  (1) 
W0NIXT0xQyhDbCk9W0NIXVtDSDJdTihDMTIpW0NAQEhdKFMyKVtDQEBIXShbTkhdW0NAQEhdKFtDSDNdKVtDSDJdW0NIM10pW0NIMl1bTkhdW0NIMl1cW0NIXT1bQ0hdXFtDQEhdKEMjTiljM1tjSF1bY0hdYyhbT0hdKWMoRilbY0hdMw==

>  <s_glide_docking_method>  (1) 
confgen

>  <s_i_glide_gridfile>  (1) 
gpcr_5ht2c_6bqh_protein_autoprepared_prepared

>  <s_lp_Force_Field>  (1) 
S-OPLS

>  <s_lp_Variant>  (1) 
DiffSBDD_0_num_sample_100-1

>  <s_m_source_file>  (1) 
generated__ligand_DiffSBDD_2026-05-06_prepared.sdf

>  <GenAI_Model>  (1) 
DiffSBDD

>  <Protein>  (1) 
GPCR_5HT2C

$$$$
DiffSBDD_49_num_sample_100
     RDKit          3D

  0  0  0  0  0  0  0  0  0  0999 V3000
M  V30 BEGIN CTAB
M  V30 COUNTS 44 46 0 0 1
M  V30 BEGIN ATOM
M  V30 1 Cl 40.673016 30.393824 50.277420 0
M  V30 2 C 38.852045 30.900247 60.463023 0
M  V30 3 O 39.289844 31.317721 55.396038 0
M  V30 4 C 38.350526 27.765234 52.249179 0
M  V30 5 C 38.493741 33.383481 60.234371 0
M  V30 6 C 39.118356 28.390683 51.249536 0
M  V30 7 C 38.207501 28.368508 53.513007 0
M  V30 8 N 38.613019 32.035917 59.716795 0
M  V30 9 C 40.549021 28.234846 60.306964 0
M  V30 10 O 36.667402 37.790439 61.514434 0
M  V30 11 C 39.168627 35.167855 61.772882 0
M  V30 12 C 38.222078 36.028385 61.190798 0
M  V30 13 S 38.977631 30.821430 62.139947 0
M  V30 14 O 39.163910 28.547083 60.253140 0
M  V30 15 C 39.748644 29.621429 51.510810 0
M  V30 16 N 38.926463 29.797666 59.649219 0
M  V30 17 C 37.742946 30.063716 57.396222 0
M  V30 18 N 37.927554 29.610686 56.020052 0
M  V30 19 C 39.034826 29.774652 58.183079 0
M  V30 20 C 39.311983 33.851654 61.299517 0
M  V30 21 N 38.092863 37.354661 61.695055 0
M  V30 22 C 37.417365 35.575523 60.114552 0
M  V30 23 C 37.561832 34.257261 59.634763 0
M  V30 24 C 39.617173 30.227772 52.776534 0
M  V30 25 C 38.843275 29.607551 53.784157 0
M  V30 26 C 38.706637 30.263790 55.138615 0
M  V30 27 O 37.699310 38.260168 60.567034 0
M  V30 28 H 37.867404 26.821449 52.044965 0
M  V30 29 H 39.220302 27.927255 50.278761 0
M  V30 30 H 37.614615 27.879026 54.270201 0
M  V30 31 H 38.401202 31.905769 58.738276 0
M  V30 32 H 40.667403 27.383431 60.971559 0
M  V30 33 H 40.952063 27.970988 59.329188 0
M  V30 34 H 41.139818 29.050465 60.721636 0
M  V30 35 H 39.789576 35.518352 62.584679 0
M  V30 36 H 37.474000 31.120631 57.418741 0
M  V30 37 H 36.904939 29.514346 57.826608 0
M  V30 38 H 37.473975 28.755946 55.739223 0
M  V30 39 H 39.357391 28.769891 57.908945 0
M  V30 40 H 39.845179 30.421656 57.853792 0
M  V30 41 H 40.055101 33.214045 61.743336 0
M  V30 42 H 36.693411 36.233471 59.656719 0
M  V30 43 H 36.947721 33.912733 58.813922 0
M  V30 44 H 40.104387 31.172988 52.972171 0
M  V30 END ATOM
M  V30 BEGIN BOND
M  V30 1 2 6 4
M  V30 2 1 7 4
M  V30 3 1 8 2
M  V30 4 1 8 5
M  V30 5 1 12 11
M  V30 6 2 13 2
M  V30 7 1 14 9
M  V30 8 1 15 1
M  V30 9 1 15 6
M  V30 10 1 16 2
M  V30 11 1 16 14
M  V30 12 1 18 17
M  V30 13 1 19 16
M  V30 14 1 19 17
M  V30 15 1 20 5
M  V30 16 2 20 11
M  V30 17 1 21 10
M  V30 18 1 21 12
M  V30 19 2 22 12
M  V30 20 2 23 5
M  V30 21 1 23 22
M  V30 22 2 24 15
M  V30 23 2 25 7
M  V30 24 1 25 24
M  V30 25 2 26 3
M  V30 26 1 26 18
M  V30 27 1 26 25
M  V30 28 1 27 10
M  V30 29 1 27 21
M  V30 30 1 28 4
M  V30 31 1 29 6
M  V30 32 1 30 7
M  V30 33 1 31 8
M  V30 34 1 32 9
M  V30 35 1 33 9
M  V30 36 1 34 9
M  V30 37 1 35 11
M  V30 38 1 36 17
M  V30 39 1 37 17
M  V30 40 1 38 18
M  V30 41 1 39 19
M  V30 42 1 40 19
M  V30 43 1 41 20
M  V30 44 1 42 22
M  V30 45 1 43 23
M  V30 46 1 44 24
M  V30 END BOND
M  V30 END CTAB
M  END
>  <i_epik_Tot_Q>  (1) 
0

>  <i_epik_Tot_abs_Q>  (1) 
0

>  <i_i_glide_confnum>  (1) 
329

>  <i_i_glide_lignum>  (1) 
133

>  <i_i_glide_posenum>  (1) 
14

>  <i_i_glide_rotatable_bonds>  (1) 
10

>  <i_lp_mmshare_version>  (1) 
72125

>  <i_m_source_file_index>  (1) 
50

>  <i_f3d_flags>  (1) 
0

>  <num_sample>  (1) 
100

>  <b_lp_Chiralities_Consistent>  (1) 
1

>  <r_epik_Charging_Adjusted_Penalty>  (1) 
0

>  <r_epik_Ionization_Penalty>  (1) 
1.2411307214121904e-05

>  <r_epik_Ionization_Penalty_Charging>  (1) 
0

>  <r_epik_Ionization_Penalty_Neutral>  (1) 
1.2411307214121904e-05

>  <r_epik_State_Penalty>  (1) 
-0

>  <r_glide_ring_energy>  (1) 
0

>  <r_i_docking_score>  (1) 
-7.049629805810703

>  <r_i_glide_ecoul>  (1) 
-1.5022608360093539

>  <r_i_glide_eff_state_penalty>  (1) 
-0

>  <r_i_glide_einternal>  (1) 
19.529103535953681

>  <r_i_glide_emodel>  (1) 
-65.649202408197027

>  <r_i_glide_emodel_strain>  (1) 
0.67292034393624078

>  <r_i_glide_energy>  (1) 
-51.285350263913251

>  <r_i_glide_erotb>  (1) 
0.94204315138098349

>  <r_i_glide_esite>  (1) 
-0.059121659839613941

>  <r_i_glide_evdw>  (1) 
-49.783089427903896

>  <r_i_glide_gscore>  (1) 
-7.049629805810703

>  <r_i_glide_gscore_strain>  (1) 
0

>  <r_i_glide_hbond>  (1) 
0

>  <r_i_glide_ligand_efficiency>  (1) 
-0.26109740021521122

>  <r_i_glide_ligand_efficiency_ln>  (1) 
-1.641037596562122

>  <r_i_glide_ligand_efficiency_sa>  (1) 
-0.78329220064563387

>  <r_i_glide_lipo>  (1) 
-3.2592793204074564

>  <r_i_glide_metal>  (1) 
-0

>  <r_i_glide_rewards>  (1) 
-1.9587783801480187

>  <r_lp_Energy>  (1) 
32.022877999999999

>  <r_lp_tautomer_probability>  (1) 
1

>  <s_epik_Chemistry_Notes>  (1) 
This compound has a N-S or N-O group and may undergo hydrolysis at high or low pH.

>  <s_epik_cmdline>  (1) 
J2VwaWtfcHl0aG9uJywgJy1waHQnLCAnMS4wJywgJy1waCcsICc3LjQnLCAnLXRuJywgJzgnLCAnLW1hJywgJzUwMCcsICctaW1hZScsICc8aW5maWxlLm1hZT4nLCAnLW9tYWUnLCAnPG91dGZpbGUubWFlPic=

>  <s_epik_input>  (1) 
Q2xjMVtjSF1bY0hdW2NIXWMoW2NIXTEpQyg9TylbTkhdW0NIMl1bQ0gyXU4oT1tDSDNdKUMoPVMpW05IXWMyW2NIXVtjSF1jKC1uM29vMylbY0hdW2NIXTI=

>  <s_glide_docking_method>  (1) 
confgen

>  <s_i_glide_gridfile>  (1) 
gpcr_5ht2c_6bqh_protein_autoprepared_prepared

>  <s_lp_Force_Field>  (1) 
S-OPLS

>  <s_lp_Variant>  (1) 
DiffSBDD_49_num_sample_100-1

>  <s_m_source_file>  (1) 
generated__ligand_DiffSBDD_2026-05-06_prepared.sdf

>  <GenAI_Model>  (1) 
DiffSBDD

>  <Protein>  (1) 
GPCR_5HT2C

$$$$
DiffSBDD_91_num_sample_100
     RDKit          3D

  0  0  0  0  0  0  0  0  0  0999 V3000
M  V30 BEGIN CTAB
M  V30 COUNTS 73 75 0 0 1
M  V30 BEGIN ATOM
M  V30 1 C 41.804374 30.015806 67.113912 0
M  V30 2 C 41.635383 33.882625 64.396532 0 CFG=1
M  V30 3 N 37.945821 26.532344 56.175532 0
M  V30 4 C 39.907828 32.990160 62.245256 0 CFG=2
M  V30 5 O 39.694203 32.392911 60.999954 0
M  V30 6 C 40.975526 34.898473 63.444072 0 CFG=2
M  V30 7 F 43.577289 28.411912 67.203847 0
M  V30 8 C 40.752880 34.270636 62.050693 0 CFG=2
M  V30 9 C 41.579549 31.443720 65.145328 0
M  V30 10 C 37.879651 29.839836 55.709919 0
M  V30 11 C 38.709448 31.456671 60.951076 0
M  V30 12 C 38.353177 26.895435 57.418562 0
M  V30 13 C 38.816453 28.811620 51.980130 0 CFG=1
M  V30 14 O 37.902369 31.221525 61.853513 0
M  V30 15 C 37.729577 29.249617 54.291301 0
M  V30 16 C 40.026927 35.240377 61.096500 0
M  V30 17 S 39.398637 29.306905 56.559302 0
M  V30 18 C 41.129633 31.039910 66.420272 0
M  V30 19 O 41.617912 34.433383 65.702153 0
M  V30 20 O 41.826696 36.021435 63.306081 0
M  V30 21 C 38.921086 29.523588 53.345834 0
M  V30 22 C 39.826611 29.660091 59.511282 0
M  V30 23 C 40.850378 32.545478 64.391823 0 CFG=2
M  V30 24 C 42.929734 29.395728 66.536242 0
M  V30 25 C 43.381473 29.798707 65.264458 0
M  V30 26 N 39.334987 28.367657 59.061817 0
M  V30 27 O 39.867393 29.268934 51.152974 0
M  V30 28 C 42.707436 30.821030 64.568570 0
M  V30 29 C 38.967256 28.047121 57.755368 0
M  V30 30 C 38.033705 25.909005 58.295542 0
M  V30 31 C 38.683769 30.691548 59.630767 0
M  V30 32 C 38.939323 27.281642 52.064843 0
M  V30 33 C 37.199626 25.214725 56.128129 0 CFG=2
M  V30 34 C 37.407096 24.954545 57.654545 0
M  V30 35 C 37.873380 24.172389 55.269169 0
M  V30 36 O 40.638308 32.119328 63.051278 0
M  V30 37 H 41.458888 29.705203 68.089454 0
M  V30 38 H 42.667011 33.708398 64.086480 0
M  V30 39 H 38.954070 33.228676 62.720751 0
M  V30 40 H 40.018934 35.233177 63.847579 0
M  V30 41 H 41.710297 33.979963 61.615164 0
M  V30 42 H 37.918491 30.927088 55.634822 0
M  V30 43 H 37.013715 29.621459 56.333659 0
M  V30 44 H 37.872306 29.064821 51.499424 0
M  V30 45 H 36.822725 29.660385 53.853615 0
M  V30 46 H 37.545080 28.183384 54.347878 0
M  V30 47 H 39.048918 35.525303 61.485354 0
M  V30 48 H 40.607098 36.152638 60.958257 0
M  V30 49 H 39.880472 34.804243 60.108474 0
M  V30 50 H 40.267459 31.513575 66.864935 0
M  V30 51 H 40.721794 34.592540 65.955456 0
M  V30 52 H 41.867111 36.504203 64.125061 0
M  V30 53 H 39.858789 29.227039 53.814857 0
M  V30 54 H 39.002455 30.600945 53.195666 0
M  V30 55 H 40.295716 29.499419 60.482780 0
M  V30 56 H 40.617084 30.016672 58.858836 0
M  V30 57 H 39.870478 32.688748 64.848564 0
M  V30 58 H 44.244166 29.322663 64.822466 0
M  V30 59 H 39.132372 27.695935 59.787279 0
M  V30 60 H 39.752408 30.193190 50.989766 0
M  V30 61 H 43.054034 31.127835 63.591906 0
M  V30 62 H 38.267407 25.907070 59.344859 0
M  V30 63 H 38.715225 31.393457 58.797054 0
M  V30 64 H 37.718864 30.187100 59.567249 0
M  V30 65 H 38.112459 26.838338 52.618795 0
M  V30 66 H 38.929408 26.834886 51.069472 0
M  V30 67 H 39.866360 26.981292 52.553654 0
M  V30 68 H 36.147856 25.351970 55.884270 0
M  V30 69 H 37.053282 24.048182 58.117873 0
M  V30 70 H 37.342771 23.221420 55.297353 0
M  V30 71 H 37.881683 24.529884 54.253499 0
M  V30 72 H 38.903209 24.021469 55.586853 0
M  V30 73 H 38.009614 27.136540 55.370476 0
M  V30 END ATOM
M  V30 BEGIN BOND
M  V30 1 1 5 4
M  V30 2 1 6 2
M  V30 3 1 8 4
M  V30 4 1 8 6
M  V30 5 1 11 5
M  V30 6 1 12 3
M  V30 7 2 14 11
M  V30 8 1 15 10
M  V30 9 1 16 8
M  V30 10 1 17 10
M  V30 11 2 18 1
M  V30 12 1 18 9
M  V30 13 1 19 2
M  V30 14 1 20 6
M  V30 15 1 21 13
M  V30 16 1 21 15
M  V30 17 1 23 2
M  V30 18 1 23 9
M  V30 19 1 24 1
M  V30 20 1 24 7
M  V30 21 2 25 24
M  V30 22 1 26 22
M  V30 23 1 27 13
M  V30 24 2 28 9
M  V30 25 1 28 25
M  V30 26 2 29 12
M  V30 27 1 29 17
M  V30 28 1 29 26
M  V30 29 1 30 12
M  V30 30 1 31 11
M  V30 31 1 31 22
M  V30 32 1 32 13
M  V30 33 1 33 3
M  V30 34 2 34 30
M  V30 35 1 34 33
M  V30 36 1 35 33
M  V30 37 1 36 4
M  V30 38 1 36 23
M  V30 39 1 37 1
M  V30 40 1 2 38 CFG=3
M  V30 41 1 4 39 CFG=1
M  V30 42 1 6 40 CFG=1
M  V30 43 1 8 41 CFG=3
M  V30 44 1 42 10
M  V30 45 1 43 10
M  V30 46 1 13 44 CFG=3
M  V30 47 1 45 15
M  V30 48 1 46 15
M  V30 49 1 47 16
M  V30 50 1 48 16
M  V30 51 1 49 16
M  V30 52 1 50 18
M  V30 53 1 51 19
M  V30 54 1 52 20
M  V30 55 1 53 21
M  V30 56 1 54 21
M  V30 57 1 55 22
M  V30 58 1 56 22
M  V30 59 1 23 57 CFG=1
M  V30 60 1 58 25
M  V30 61 1 59 26
M  V30 62 1 60 27
M  V30 63 1 61 28
M  V30 64 1 62 30
M  V30 65 1 63 31
M  V30 66 1 64 31
M  V30 67 1 65 32
M  V30 68 1 66 32
M  V30 69 1 67 32
M  V30 70 1 33 68 CFG=1
M  V30 71 1 69 34
M  V30 72 1 70 35
M  V30 73 1 71 35
M  V30 74 1 72 35
M  V30 75 1 73 3
M  V30 END BOND
M  V30 END CTAB
M  END
>  <i_epik_Tot_Q>  (1) 
0

>  <i_epik_Tot_abs_Q>  (1) 
0

>  <i_i_glide_confnum>  (1) 
3048

>  <i_i_glide_lignum>  (1) 
246

>  <i_i_glide_posenum>  (1) 
41

>  <i_i_glide_rotatable_bonds>  (1) 
15

>  <i_lp_mmshare_version>  (1) 
72125

>  <i_m_source_file_index>  (1) 
92

>  <i_f3d_flags>  (1) 
0

>  <num_sample>  (1) 
100

>  <b_lp_Chiralities_Consistent>  (1) 
1

>  <r_epik_Charging_Adjusted_Penalty>  (1) 
0.41626047813520761

>  <r_epik_Ionization_Penalty>  (1) 
0.0056919315549441929

>  <r_epik_Ionization_Penalty_Charging>  (1) 
0.0055806391826036302

>  <r_epik_Ionization_Penalty_Neutral>  (1) 
0.00011129237234056257

>  <r_epik_State_Penalty>  (1) 
0.41067983895260396

>  <r_glide_ring_energy>  (1) 
0

>  <r_i_docking_score>  (1) 
-7.045972870534305

>  <r_i_glide_ecoul>  (1) 
-3.2076844005965022

>  <r_i_glide_eff_state_penalty>  (1) 
0.41067983895260396

>  <r_i_glide_einternal>  (1) 
13.516361389785034

>  <r_i_glide_emodel>  (1) 
-65.961199441097293

>  <r_i_glide_emodel_strain>  (1) 
0.27579826759894388

>  <r_i_glide_energy>  (1) 
-50.612801562882737

>  <r_i_glide_erotb>  (1) 
0.89707811728232589

>  <r_i_glide_esite>  (1) 
0

>  <r_i_glide_evdw>  (1) 
-47.405117162286231

>  <r_i_glide_gscore>  (1) 
-7.4566527094869093

>  <r_i_glide_gscore_strain>  (1) 
0

>  <r_i_glide_hbond>  (1) 
-0.44075188750550404

>  <r_i_glide_ligand_efficiency>  (1) 
-0.19572146862595291

>  <r_i_glide_ligand_efficiency_ln>  (1) 
-1.5372409201624539

>  <r_i_glide_ligand_efficiency_sa>  (1) 
-0.64625805044970885

>  <r_i_glide_lipo>  (1) 
-4.4490526070506276

>  <r_i_glide_metal>  (1) 
-0

>  <r_i_glide_rewards>  (1) 
-0.61251781400931515

>  <r_lp_Energy>  (1) 
23.896531

>  <r_lp_tautomer_probability>  (1) 
0.49957765584955821

>  <s_epik_Chemistry_Notes>  (1) 
This compound has an ester and may undergo hydrolysis at high or low pH. This compound has an imine and may undergo hydrolysis. This compound contains an acetal/aminal-like group ( X-CH(R)-Y where X, Y are N, S, or O) that may be acid/base labile, releasing an aldehyde.

>  <s_epik_cmdline>  (1) 
J2VwaWtfcHl0aG9uJywgJy1waHQnLCAnMS4wJywgJy1waCcsICc3LjQnLCAnLXRuJywgJzgnLCAnLW1hJywgJzUwMCcsICctaW1hZScsICc8aW5maWxlLm1hZT4nLCAnLW9tYWUnLCAnPG91dGZpbGUubWFlPic=

>  <s_epik_input>  (1) 
W2NIXTFbY0hdYyhGKVtjSF1bY0hdYzFbQ0BASF0yT1tDQEBIXShbQ0BASF0oW0NIM10pW0NASF0oW09IXSlbQ0BIXTJbT0hdKU9DKD1PKVtDSDJdW0NIMl1bTkhdW0NAQEhdKEMzPU5bQ0BASF0oW0NIM10pW0NIXT1bQ0hdMylTW0NIMl1bQ0gyXVtDSDJdW0NAQEhdKFtPSF0pW0NIM10=

>  <s_glide_docking_method>  (1) 
confgen

>  <s_i_glide_gridfile>  (1) 
gpcr_5ht2c_6bqh_protein_autoprepared_prepared

>  <s_lp_Force_Field>  (1) 
S-OPLS

>  <s_lp_Variant>  (1) 
DiffSBDD_91_num_sample_100-2

>  <s_m_source_file>  (1) 
generated__ligand_DiffSBDD_2026-05-06_prepared.sdf

>  <GenAI_Model>  (1) 
DiffSBDD

>  <Protein>  (1) 
GPCR_5HT2C

$$$$
DiffSBDD_14_num_sample_100
     RDKit          3D

  0  0  0  0  0  0  0  0  0  0999 V3000
M  V30 BEGIN CTAB
M  V30 COUNTS 76 78 0 0 1
M  V30 BEGIN ATOM
M  V30 1 C 39.158730 27.081928 51.597065 0
M  V30 2 C 39.232672 27.429110 53.071786 0 CFG=1
M  V30 3 C 38.414914 32.259236 58.122632 0
M  V30 4 C 39.661529 29.876591 52.391236 0
M  V30 5 C 38.832910 28.910264 53.280958 0 CFG=2
M  V30 6 C 40.574383 30.383158 50.078989 0
M  V30 7 O 40.760194 36.421434 63.423504 0
M  V30 8 C 37.484836 25.918073 56.660176 0
M  V30 9 C 38.476598 34.584722 60.427001 0
M  V30 10 C 37.312874 24.159696 55.066081 0
M  V30 11 C 39.674163 29.471700 50.922648 0 CFG=1
M  V30 12 O 39.592174 31.621878 55.097980 0
M  V30 13 O 36.267405 25.221467 56.862366 0
M  V30 14 N 39.424774 36.882564 63.319292 0
M  V30 15 C 37.491033 30.957510 56.053729 0
M  V30 16 O 37.511636 36.652071 62.144194 0
M  V30 17 C 38.937242 29.322514 54.750638 0
M  V30 18 N 37.067413 30.787713 58.474129 0 CHG=1
M  V30 19 O 38.432718 26.568153 53.864707 0
M  V30 20 C 36.314084 23.966893 56.188524 0
M  V30 21 C 39.219671 25.825916 54.794877 0
M  V30 22 C 38.696589 36.370406 62.308473 0
M  V30 23 C 37.804420 31.663795 59.382272 0 CFG=2
M  V30 24 C 36.897456 32.497998 60.296196 0 CFG=2
M  V30 25 C 39.408716 35.409659 61.333978 0
M  V30 26 C 38.093358 30.929247 57.453211 0 CFG=2
M  V30 27 C 37.691498 33.489501 61.175725 0
M  V30 28 C 38.336870 25.035426 55.752050 0 CFG=1
M  V30 29 C 38.479982 30.772569 54.930352 0 CFG=2
M  V30 30 C 36.074185 31.583586 61.213881 0
M  V30 31 C 40.114938 28.021803 50.856823 0
M  V30 32 H 38.141570 27.175124 51.216327 0
M  V30 33 H 39.467696 26.049483 51.452935 0
M  V30 34 H 40.267382 27.221399 53.322341 0
M  V30 35 H 37.835484 33.097886 57.729040 0
M  V30 36 H 39.467401 32.505291 58.173275 0
M  V30 37 H 39.347230 30.912832 52.461593 0
M  V30 38 H 40.667382 29.907472 52.773165 0
M  V30 39 H 37.787700 29.000262 52.983623 0
M  V30 40 H 41.596203 30.409108 50.458473 0
M  V30 41 H 40.611894 30.020852 49.053562 0
M  V30 42 H 40.199082 31.407452 50.065365 0
M  V30 43 H 41.160732 37.015733 64.052570 0
M  V30 44 H 37.979095 26.143670 57.604022 0
M  V30 45 H 37.238612 26.852861 56.167089 0
M  V30 46 H 37.789452 35.232819 59.883367 0
M  V30 47 H 39.121980 34.135614 59.680260 0
M  V30 48 H 36.835002 24.683288 54.238146 0
M  V30 49 H 37.723675 23.224357 54.689232 0
M  V30 50 H 38.667477 29.542893 50.536051 0
M  V30 51 H 39.288613 32.516796 55.088502 0
M  V30 52 H 39.169248 37.494244 64.082451 0
M  V30 53 H 36.681454 30.232584 55.945909 0
M  V30 54 H 37.067462 31.939156 55.853505 0
M  V30 55 H 39.953087 29.182373 55.122950 0
M  V30 56 H 38.309242 28.662493 55.346831 0
M  V30 57 H 36.920775 29.843942 58.799469 0
M  V30 58 H 36.671178 23.208270 56.885540 0
M  V30 59 H 35.336388 23.651673 55.824014 0
M  V30 60 H 39.875269 25.147341 54.253597 0
M  V30 61 H 39.855065 26.493685 55.380860 0
M  V30 62 H 38.541708 31.077009 59.936064 0
M  V30 63 H 36.202004 33.077359 59.685628 0
M  V30 64 H 40.073801 36.008388 60.712688 0
M  V30 65 H 40.040021 34.706343 61.877159 0
M  V30 66 H 38.870002 30.174885 57.601365 0
M  V30 67 H 38.379128 32.927137 61.809219 0
M  V30 68 H 36.993483 33.980659 61.853540 0
M  V30 69 H 38.969421 24.409844 56.385981 0
M  V30 70 H 37.941022 31.107623 54.045028 0
M  V30 71 H 36.743370 31.009131 61.852875 0
M  V30 72 H 35.395496 32.155301 61.847651 0
M  V30 73 H 35.467503 30.879477 60.646347 0
M  V30 74 H 40.240735 27.675624 49.853508 0
M  V30 75 H 41.096452 28.021437 51.312612 0
M  V30 76 H 36.219460 31.221404 58.086760 0
M  V30 END ATOM
M  V30 BEGIN BOND
M  V30 1 1 2 1
M  V30 2 1 5 2
M  V30 3 1 5 4
M  V30 4 1 11 4
M  V30 5 1 11 6
M  V30 6 1 13 8
M  V30 7 1 14 7
M  V30 8 1 17 5
M  V30 9 1 19 2
M  V30 10 1 20 10
M  V30 11 1 20 13
M  V30 12 1 21 19
M  V30 13 1 22 14
M  V30 14 2 22 16
M  V30 15 1 23 3
M  V30 16 1 23 18
M  V30 17 1 24 23
M  V30 18 1 25 9
M  V30 19 1 25 22
M  V30 20 1 26 3
M  V30 21 1 26 15
M  V30 22 1 26 18
M  V30 23 1 27 9
M  V30 24 1 27 24
M  V30 25 1 28 8
M  V30 26 1 28 10
M  V30 27 1 28 21
M  V30 28 1 29 12
M  V30 29 1 29 15
M  V30 30 1 29 17
M  V30 31 1 30 24
M  V30 32 1 31 1
M  V30 33 1 31 11
M  V30 34 1 32 1
M  V30 35 1 33 1
M  V30 36 1 2 34 CFG=1
M  V30 37 1 35 3
M  V30 38 1 36 3
M  V30 39 1 37 4
M  V30 40 1 38 4
M  V30 41 1 5 39 CFG=3
M  V30 42 1 40 6
M  V30 43 1 41 6
M  V30 44 1 42 6
M  V30 45 1 43 7
M  V30 46 1 44 8
M  V30 47 1 45 8
M  V30 48 1 46 9
M  V30 49 1 47 9
M  V30 50 1 48 10
M  V30 51 1 49 10
M  V30 52 1 11 50 CFG=3
M  V30 53 1 51 12
M  V30 54 1 52 14
M  V30 55 1 53 15
M  V30 56 1 54 15
M  V30 57 1 55 17
M  V30 58 1 56 17
M  V30 59 1 57 18
M  V30 60 1 58 20
M  V30 61 1 59 20
M  V30 62 1 60 21
M  V30 63 1 61 21
M  V30 64 1 23 62 CFG=1
M  V30 65 1 24 63 CFG=3
M  V30 66 1 64 25
M  V30 67 1 65 25
M  V30 68 1 26 66 CFG=3
M  V30 69 1 67 27
M  V30 70 1 68 27
M  V30 71 1 28 69 CFG=1
M  V30 72 1 29 70 CFG=3
M  V30 73 1 71 30
M  V30 74 1 72 30
M  V30 75 1 73 30
M  V30 76 1 74 31
M  V30 77 1 75 31
M  V30 78 1 76 18
M  V30 END BOND
M  V30 END CTAB
M  END
>  <i_epik_Tot_Q>  (1) 
1

>  <i_epik_Tot_abs_Q>  (1) 
1

>  <i_i_glide_confnum>  (1) 
103

>  <i_i_glide_lignum>  (1) 
32

>  <i_i_glide_posenum>  (1) 
207

>  <i_i_glide_rotatable_bonds>  (1) 
15

>  <i_lp_mmshare_version>  (1) 
72125

>  <i_m_source_file_index>  (1) 
15

>  <i_f3d_flags>  (1) 
0

>  <num_sample>  (1) 
100

>  <b_lp_Chiralities_Consistent>  (1) 
1

>  <r_epik_Charging_Adjusted_Penalty>  (1) 
0.00011085431656654283

>  <r_epik_Ionization_Penalty>  (1) 
0.0093428253379992804

>  <r_epik_Ionization_Penalty_Charging>  (1) 
0.00011085431656654283

>  <r_epik_Ionization_Penalty_Neutral>  (1) 
0.0092319710214327378

>  <r_epik_State_Penalty>  (1) 
-0

>  <r_glide_ring_energy>  (1) 
0

>  <r_i_docking_score>  (1) 
-7.0439195756974389

>  <r_i_glide_ecoul>  (1) 
-9.7177124447575629

>  <r_i_glide_eff_state_penalty>  (1) 
-0

>  <r_i_glide_einternal>  (1) 
9.6710736666256878

>  <r_i_glide_emodel>  (1) 
-64.059072790918478

>  <r_i_glide_emodel_strain>  (1) 
1.4507784856021715

>  <r_i_glide_energy>  (1) 
-46.420272881049655

>  <r_i_glide_erotb>  (1) 
1.3314850251941783

>  <r_i_glide_esite>  (1) 
-0.10000000000000001

>  <r_i_glide_evdw>  (1) 
-36.702560436292089

>  <r_i_glide_gscore>  (1) 
-7.0439195756974389

>  <r_i_glide_gscore_strain>  (1) 
0

>  <r_i_glide_hbond>  (1) 
-0.52000000000000002

>  <r_i_glide_ligand_efficiency>  (1) 
-0.22722321211927221

>  <r_i_glide_ligand_efficiency_ln>  (1) 
-1.5886197345297359

>  <r_i_glide_ligand_efficiency_sa>  (1) 
-0.71379460232570735

>  <r_i_glide_lipo>  (1) 
-4.3890664221793756

>  <r_i_glide_metal>  (1) 
-0

>  <r_i_glide_rewards>  (1) 
-0.073553290184005027

>  <r_lp_Energy>  (1) 
22.97654

>  <r_lp_tautomer_probability>  (1) 
1

>  <s_epik_Chemistry_Notes>  (1) 
This compound has a N-S or N-O group and may undergo hydrolysis at high or low pH.

>  <s_epik_cmdline>  (1) 
J2VwaWtfcHl0aG9uJywgJy1waHQnLCAnMS4wJywgJy1waCcsICc3LjQnLCAnLXRuJywgJzgnLCAnLW1hJywgJzUwMCcsICctaW1hZScsICc8aW5maWxlLm1hZT4nLCAnLW9tYWUnLCAnPG91dGZpbGUubWFlPic=

>  <s_epik_input>  (1) 
W0NIMl0xW0NIMl1PW0NIMl1bQ0BASF0xW0NIMl1PW0NASF0yW0NIMl1bQ0gyXVtDQEhdKFtDSDNdKVtDSDJdW0NAQEhdMltDSDJdW0NASF0oW09IXSlbQ0gyXVtDQEhdKFtOSF0zKVtDSDJdW0NASF0zW0NAQEhdKFtDSDNdKVtDSDJdW0NIMl1bQ0gyXUMoPU8pW05IXVtPSF0=

>  <s_glide_docking_method>  (1) 
confgen

>  <s_i_glide_gridfile>  (1) 
gpcr_5ht2c_6bqh_protein_autoprepared_prepared

>  <s_lp_Force_Field>  (1) 
S-OPLS

>  <s_lp_Variant>  (1) 
DiffSBDD_14_num_sample_100-1

>  <s_m_source_file>  (1) 
generated__ligand_DiffSBDD_2026-05-06_prepared.sdf

>  <GenAI_Model>  (1) 
DiffSBDD

>  <Protein>  (1) 
GPCR_5HT2C

$$$$
DiffSBDD_42_num_sample_100
     RDKit          3D

  0  0  0  0  0  0  0  0  0  0999 V3000
M  V30 BEGIN CTAB
M  V30 COUNTS 70 74 0 0 1
M  V30 BEGIN ATOM
M  V30 1 O 41.727513 27.760912 65.623294 0
M  V30 2 C 42.976364 24.610013 64.178771 0
M  V30 3 C 40.021866 28.841994 59.834130 0
M  V30 4 C 41.626184 32.588391 67.241494 0
M  V30 5 O 39.821739 32.318893 61.616004 0
M  V30 6 C 42.314594 25.741366 64.894806 0
M  V30 7 C 40.563593 31.190087 63.632520 0
M  V30 8 C 41.177781 35.027811 63.908909 0
M  V30 9 C 43.470792 27.876233 63.902716 0
M  V30 10 C 42.540427 32.143523 66.114826 0 CFG=2
M  V30 11 C 41.067380 26.756728 66.265323 0
M  V30 12 C 42.536649 27.082412 64.757851 0
M  V30 13 O 42.321575 32.437857 64.738064 0
M  V30 14 C 40.852193 27.596780 57.948083 0
M  V30 15 C 40.965349 32.493356 64.302037 0 CFG=1
M  V30 16 C 40.680791 27.105722 56.710897 0
M  V30 17 C 44.416392 29.982512 64.874873 0
M  V30 18 Cl 37.317193 29.561556 58.627269 0
M  V30 19 C 40.181112 29.248247 61.072792 0
M  V30 20 O 41.067435 30.116632 63.954925 0
M  V30 21 N 44.581715 28.520794 64.652031 0 CFG=1 CHG=1
M  V30 22 C 38.579111 28.630914 57.889082 0
M  V30 23 C 40.749771 33.673230 63.362754 0
M  V30 24 C 40.600111 36.188660 63.086363 0
M  V30 25 C 39.828531 28.380189 58.617378 0
M  V30 26 P 43.295352 30.508962 66.268786 0 CFG=2
M  V30 27 C 39.422431 27.315349 55.890129 0
M  V30 28 C 39.996858 34.690864 61.152239 0
M  V30 29 C 38.394230 28.146667 56.644122 0
M  V30 30 O 43.139456 29.703772 67.512273 0
M  V30 31 C 39.494829 31.288911 62.547190 0 CFG=2
M  V30 32 C 40.774524 35.942486 61.588326 0
M  V30 33 C 40.218074 33.541707 62.118234 0
M  V30 34 C 39.093993 29.985193 61.834817 0
M  V30 35 C 45.083850 27.749228 65.818152 0
M  V30 36 N 41.345714 25.517627 65.855356 0
M  V30 37 O 43.906188 32.002137 66.509267 0
M  V30 38 H 43.707785 24.964682 63.453148 0
M  V30 39 H 42.267418 24.021405 63.613479 0
M  V30 40 H 43.467363 23.938214 64.883673 0
M  V30 41 H 41.466182 33.665736 67.193645 0
M  V30 42 H 42.072116 32.348472 68.207394 0
M  V30 43 H 40.667422 32.076015 67.182657 0
M  V30 44 H 42.267403 35.071886 63.908868 0
M  V30 45 H 40.859979 35.122628 64.947316 0
M  V30 46 H 43.938890 27.202644 63.185891 0
M  V30 47 H 42.927962 28.592389 63.289097 0
M  V30 48 H 40.353103 26.980661 67.043714 0
M  V30 49 H 41.782418 27.398721 58.462845 0
M  V30 50 H 40.287160 32.657370 65.136797 0
M  V30 51 H 41.466495 26.525734 56.253538 0
M  V30 52 H 44.069251 30.449671 63.954610 0
M  V30 53 H 45.401143 30.403529 65.080915 0
M  V30 54 H 41.100903 29.061006 61.602999 0
M  V30 55 H 39.539042 36.303265 63.311282 0
M  V30 56 H 41.067601 37.128246 63.361312 0
M  V30 57 H 39.678732 27.816739 54.957348 0
M  V30 58 H 38.989935 26.347432 55.635785 0
M  V30 59 H 40.267331 34.396328 60.139573 0
M  V30 60 H 38.928708 34.909408 61.135636 0
M  V30 61 H 37.467431 28.347476 56.128271 0
M  V30 62 H 38.596867 31.638254 63.053464 0
M  V30 63 H 41.833093 35.826977 61.353270 0
M  V30 64 H 40.429422 36.820014 61.053492 0
M  V30 65 H 38.249234 30.192439 61.179631 0
M  V30 66 H 38.723430 29.294784 62.585304 0
M  V30 67 H 44.473447 27.863047 66.709401 0
M  V30 68 H 46.107417 28.021521 66.065566 0
M  V30 69 H 45.068097 26.687542 65.593939 0
M  V30 70 H 45.340977 28.474892 63.987154 0
M  V30 END ATOM
M  V30 BEGIN BOND
M  V30 1 1 6 2
M  V30 2 1 10 4
M  V30 3 1 11 1
M  V30 4 1 12 1
M  V30 5 2 12 6
M  V30 6 1 12 9
M  V30 7 1 10 13 CFG=3
M  V30 8 1 15 7
M  V30 9 1 15 13
M  V30 10 2 16 14
M  V30 11 2 19 3
M  V30 12 2 20 7
M  V30 13 1 21 9
M  V30 14 1 21 17
M  V30 15 1 22 18
M  V30 16 1 23 8
M  V30 17 1 23 15
M  V30 18 1 24 8
M  V30 19 2 25 3
M  V30 20 1 25 14
M  V30 21 1 25 22
M  V30 22 1 26 10
M  V30 23 1 26 17 CFG=1
M  V30 24 1 27 16
M  V30 25 2 29 22
M  V30 26 1 29 27
M  V30 27 2 30 26
M  V30 28 1 31 5
M  V30 29 1 31 7
M  V30 30 1 32 24
M  V30 31 1 32 28
M  V30 32 1 33 5
M  V30 33 2 33 23
M  V30 34 1 33 28
M  V30 35 1 34 19
M  V30 36 1 34 31
M  V30 37 1 35 21
M  V30 38 1 36 6
M  V30 39 2 36 11
M  V30 40 1 37 10
M  V30 41 1 37 26
M  V30 42 1 38 2
M  V30 43 1 39 2
M  V30 44 1 40 2
M  V30 45 1 41 4
M  V30 46 1 42 4
M  V30 47 1 43 4
M  V30 48 1 44 8
M  V30 49 1 45 8
M  V30 50 1 46 9
M  V30 51 1 47 9
M  V30 52 1 48 11
M  V30 53 1 49 14
M  V30 54 1 15 50 CFG=1
M  V30 55 1 51 16
M  V30 56 1 52 17
M  V30 57 1 53 17
M  V30 58 1 54 19
M  V30 59 1 55 24
M  V30 60 1 56 24
M  V30 61 1 57 27
M  V30 62 1 58 27
M  V30 63 1 59 28
M  V30 64 1 60 28
M  V30 65 1 61 29
M  V30 66 1 31 62 CFG=1
M  V30 67 1 63 32
M  V30 68 1 64 32
M  V30 69 1 65 34
M  V30 70 1 66 34
M  V30 71 1 67 35
M  V30 72 1 68 35
M  V30 73 1 69 35
M  V30 74 1 21 70 CFG=3
M  V30 END BOND
M  V30 END CTAB
M  END
>  <i_epik_Tot_Q>  (1) 
1

>  <i_epik_Tot_abs_Q>  (1) 
1

>  <i_i_glide_confnum>  (1) 
95

>  <i_i_glide_lignum>  (1) 
105

>  <i_i_glide_posenum>  (1) 
371

>  <i_i_glide_rotatable_bonds>  (1) 
8

>  <i_lp_mmshare_version>  (1) 
72125

>  <i_m_source_file_index>  (1) 
43

>  <i_f3d_flags>  (1) 
0

>  <num_sample>  (1) 
100

>  <b_lp_Chiralities_Consistent>  (1) 
1

>  <r_epik_Charging_Adjusted_Penalty>  (1) 
0.2152556309207356

>  <r_epik_Ionization_Penalty>  (1) 
0.1076280395274669

>  <r_epik_Ionization_Penalty_Charging>  (1) 
0.10762781546036781

>  <r_epik_Ionization_Penalty_Neutral>  (1) 
2.2406709908736756e-07

>  <r_epik_State_Penalty>  (1) 
0.10762781546036779

>  <r_glide_ring_energy>  (1) 
0

>  <r_i_docking_score>  (1) 
-7.0435173904284758

>  <r_i_glide_ecoul>  (1) 
-4.3641375459067238

>  <r_i_glide_eff_state_penalty>  (1) 
0.10762781546036779

>  <r_i_glide_einternal>  (1) 
15.918926179408611

>  <r_i_glide_emodel>  (1) 
-60.589095935804863

>  <r_i_glide_emodel_strain>  (1) 
0.94163791175123635

>  <r_i_glide_energy>  (1) 
-45.172582340134028

>  <r_i_glide_erotb>  (1) 
0.55194975081301367

>  <r_i_glide_esite>  (1) 
0

>  <r_i_glide_evdw>  (1) 
-40.808444794227306

>  <r_i_glide_gscore>  (1) 
-7.1511452058888434

>  <r_i_glide_gscore_strain>  (1) 
0

>  <r_i_glide_hbond>  (1) 
0

>  <r_i_glide_ligand_efficiency>  (1) 
-0.1903653348764453

>  <r_i_glide_ligand_efficiency_ln>  (1) 
-1.527573798508425

>  <r_i_glide_ligand_efficiency_sa>  (1) 
-0.63433952867119059

>  <r_i_glide_lipo>  (1) 
-4.4076372595161555

>  <r_i_glide_metal>  (1) 
-0

>  <r_i_glide_rewards>  (1) 
-0.60041482558832726

>  <r_lp_Energy>  (1) 
6.0054069999999999

>  <r_lp_tautomer_probability>  (1) 
0.99995000000000001

>  <s_epik_cmdline>  (1) 
J2VwaWtfcHl0aG9uJywgJy1waHQnLCAnMS4wJywgJy1waCcsICc3LjQnLCAnLXRuJywgJzgnLCAnLW1hJywgJzUwMCcsICctaW1hZScsICc8aW5maWxlLm1hZT4nLCAnLW9tYWUnLCAnPG91dGZpbGUubWFlPic=

>  <s_epik_input>  (1) 
bjFbY0hdb2MoYzFbQ0gzXSlbQ0gyXU4oW0NIM10pW0NIMl1bUEBAXSg9TykoTzIpW0NAXTIoW0NIM10pT1tDQEBIXTNDKD1PKVtDQEBIXShPQyg9QzM0KVtDSDJdW0NIMl1bQ0gyXVtDSDJdNClbQ0gyXVtDSF09Qz1DNVtDSF09W0NIXVtDSDJdW0NIXT1DNUNs

>  <s_glide_docking_method>  (1) 
confgen

>  <s_i_glide_gridfile>  (1) 
gpcr_5ht2c_6bqh_protein_autoprepared_prepared

>  <s_lp_Force_Field>  (1) 
S-OPLS

>  <s_lp_Variant>  (1) 
DiffSBDD_42_num_sample_100-2

>  <s_m_source_file>  (1) 
generated__ligand_DiffSBDD_2026-05-06_prepared.sdf

>  <GenAI_Model>  (1) 
DiffSBDD

>  <Protein>  (1) 
GPCR_5HT2C

$$$$
DiffSBDD_84_num_sample_100
     RDKit          3D

  0  0  0  0  0  0  0  0  0  0999 V3000
M  V30 BEGIN CTAB
M  V30 COUNTS 48 50 0 0 1
M  V30 BEGIN ATOM
M  V30 1 C 39.467319 29.767867 52.804389 0
M  V30 2 C 38.716848 30.811148 61.430216 0
M  V30 3 C 38.290197 31.457992 60.109622 0 CFG=2
M  V30 4 C 39.522190 28.967972 55.882717 0
M  V30 5 C 39.230379 29.193721 59.702626 0 CFG=1
M  V30 6 C 39.643899 30.867944 53.720296 0
M  V30 7 C 39.494392 28.344605 50.876244 0
M  V30 8 N 39.016254 28.205132 56.761651 0
M  V30 9 Cl 40.667389 30.799950 50.589689 0
M  V30 10 C 39.754606 29.769581 61.022633 0
M  V30 11 C 37.720621 26.693345 53.898605 0
M  V30 12 O 36.667401 32.909127 59.053502 0
M  V30 13 C 38.715100 29.583877 54.761692 0 CFG=1
M  V30 14 C 38.861802 28.930499 53.481894 0
M  V30 15 C 39.839388 29.586192 51.473918 0
M  V30 16 C 38.463027 27.676892 53.015920 0
M  V30 17 C 36.874297 32.057306 60.157639 0
M  V30 18 C 38.792442 27.366971 51.661312 0
M  V30 19 C 39.912375 27.592733 57.717764 0 CFG=1
M  V30 20 C 38.488571 30.371074 59.034663 0
M  V30 21 C 40.353710 28.551402 58.852773 0
M  V30 22 N 39.221579 26.412520 58.253995 0 CHG=1
M  V30 23 H 39.117317 31.537594 62.138258 0
M  V30 24 H 37.867438 30.329528 61.911379 0
M  V30 25 H 39.001333 32.261903 59.909488 0
M  V30 26 H 40.585701 29.221201 55.877635 0
M  V30 27 H 38.491780 28.435145 59.963804 0
M  V30 28 H 39.068267 31.753204 53.447654 0
M  V30 29 H 40.683877 31.047002 53.993272 0
M  V30 30 H 39.753636 28.140195 49.853475 0
M  V30 31 H 40.714094 30.262840 60.863299 0
M  V30 32 H 39.896817 29.003344 61.786368 0
M  V30 33 H 37.099894 26.024769 53.301528 0
M  V30 34 H 38.429689 26.089551 54.464984 0
M  V30 35 H 37.068896 27.212924 54.601080 0
M  V30 36 H 36.263366 32.421354 58.335188 0
M  V30 37 H 37.685726 29.845388 55.012836 0
M  V30 38 H 36.754133 32.654404 61.062357 0
M  V30 39 H 36.108061 31.281138 60.178732 0
M  V30 40 H 38.520958 26.421520 51.228638 0
M  V30 41 H 40.808507 27.217189 57.214906 0
M  V30 42 H 37.539925 30.032139 58.615312 0
M  V30 43 H 39.061134 30.792368 58.207871 0
M  V30 44 H 40.990435 29.335593 58.443040 0
M  V30 45 H 41.007534 27.989123 59.521563 0
M  V30 46 H 39.825330 25.932392 58.904814 0
M  V30 47 H 38.379991 26.713441 58.723029 0
M  V30 48 H 38.977655 25.797647 57.491210 0
M  V30 END ATOM
M  V30 BEGIN BOND
M  V30 1 1 3 2
M  V30 2 1 6 1
M  V30 3 2 8 4
M  V30 4 1 10 2
M  V30 5 1 10 5
M  V30 6 1 13 4
M  V30 7 1 13 6
M  V30 8 1 14 1
M  V30 9 1 14 13
M  V30 10 2 15 1
M  V30 11 1 15 7
M  V30 12 1 15 9
M  V30 13 1 16 11
M  V30 14 2 16 14
M  V30 15 1 17 3
M  V30 16 1 17 12
M  V30 17 2 18 7
M  V30 18 1 18 16
M  V30 19 1 19 8
M  V30 20 1 20 3
M  V30 21 1 20 5
M  V30 22 1 21 5
M  V30 23 1 21 19
M  V30 24 1 22 19
M  V30 25 1 23 2
M  V30 26 1 24 2
M  V30 27 1 3 25 CFG=3
M  V30 28 1 26 4
M  V30 29 1 5 27 CFG=1
M  V30 30 1 28 6
M  V30 31 1 29 6
M  V30 32 1 30 7
M  V30 33 1 31 10
M  V30 34 1 32 10
M  V30 35 1 33 11
M  V30 36 1 34 11
M  V30 37 1 35 11
M  V30 38 1 36 12
M  V30 39 1 13 37 CFG=1
M  V30 40 1 38 17
M  V30 41 1 39 17
M  V30 42 1 40 18
M  V30 43 1 19 41 CFG=3
M  V30 44 1 42 20
M  V30 45 1 43 20
M  V30 46 1 44 21
M  V30 47 1 45 21
M  V30 48 1 46 22
M  V30 49 1 47 22
M  V30 50 1 48 22
M  V30 END BOND
M  V30 END CTAB
M  END
>  <i_epik_Tot_Q>  (1) 
1

>  <i_epik_Tot_abs_Q>  (1) 
1

>  <i_i_glide_confnum>  (1) 
220

>  <i_i_glide_lignum>  (1) 
218

>  <i_i_glide_posenum>  (1) 
273

>  <i_i_glide_rotatable_bonds>  (1) 
6

>  <i_lp_mmshare_version>  (1) 
72125

>  <i_m_source_file_index>  (1) 
85

>  <i_f3d_flags>  (1) 
0

>  <num_sample>  (1) 
100

>  <b_lp_Chiralities_Consistent>  (1) 
1

>  <r_epik_Charging_Adjusted_Penalty>  (1) 
0.46451758934955678

>  <r_epik_Ionization_Penalty>  (1) 
0.053840736014893024

>  <r_epik_Ionization_Penalty_Charging>  (1) 
0.053837750396952835

>  <r_epik_Ionization_Penalty_Neutral>  (1) 
2.9856179401856363e-06

>  <r_epik_State_Penalty>  (1) 
0.41067983895260396

>  <r_glide_ring_energy>  (1) 
0.98952934885899624

>  <r_i_docking_score>  (1) 
-7.0433865835304426

>  <r_i_glide_ecoul>  (1) 
-2.8615154220725119

>  <r_i_glide_eff_state_penalty>  (1) 
0.41067983895260396

>  <r_i_glide_einternal>  (1) 
10.309476737850161

>  <r_i_glide_emodel>  (1) 
-49.833778133228144

>  <r_i_glide_emodel_strain>  (1) 
0.25513470648644443

>  <r_i_glide_energy>  (1) 
-36.621153117700814

>  <r_i_glide_erotb>  (1) 
0.90212786361762021

>  <r_i_glide_esite>  (1) 
0

>  <r_i_glide_evdw>  (1) 
-33.7596376956283

>  <r_i_glide_gscore>  (1) 
-7.4540664224830468

>  <r_i_glide_gscore_strain>  (1) 
0

>  <r_i_glide_hbond>  (1) 
-0.16

>  <r_i_glide_ligand_efficiency>  (1) 
-0.32015393561502009

>  <r_i_glide_ligand_efficiency_ln>  (1) 
-1.7216605947827703

>  <r_i_glide_ligand_efficiency_sa>  (1) 
-0.89708391945739896

>  <r_i_glide_lipo>  (1) 
-3.6742789476233071

>  <r_i_glide_metal>  (1) 
-0

>  <r_i_glide_rewards>  (1) 
-2.404706140385068

>  <r_lp_Energy>  (1) 
11.505056

>  <r_lp_tautomer_probability>  (1) 
0.49999300000000002

>  <s_epik_Chemistry_Notes>  (1) 
This compound has an imine and may undergo hydrolysis. This compound contains an acetal/aminal-like group ( X-CH(R)-Y where X, Y are N, S, or O) that may be acid/base labile, releasing an aldehyde.

>  <s_epik_cmdline>  (1) 
J2VwaWtfcHl0aG9uJywgJy1waHQnLCAnMS4wJywgJy1waCcsICc3LjQnLCAnLXRuJywgJzgnLCAnLW1hJywgJzUwMCcsICctaW1hZScsICc8aW5maWxlLm1hZT4nLCAnLW9tYWUnLCAnPG91dGZpbGUubWFlPic=

>  <s_epik_input>  (1) 
Q2xjMVtjSF1bY0hdYyhbQ0gzXSljKGMxMilbQ0BIXShbQ0gyXTIpL1tDSF09Ti9bQ0BIXShbTkgyXSlbQ0gyXVtDQEhdKFtDSDJdMylbQ0gyXVtDSDJdW0NAQEhdM1tDSDJdW09IXQ==

>  <s_glide_docking_method>  (1) 
confgen

>  <s_i_glide_gridfile>  (1) 
gpcr_5ht2c_6bqh_protein_autoprepared_prepared

>  <s_lp_Force_Field>  (1) 
S-OPLS

>  <s_lp_Variant>  (1) 
DiffSBDD_84_num_sample_100-1

>  <s_m_source_file>  (1) 
generated__ligand_DiffSBDD_2026-05-06_prepared.sdf

>  <GenAI_Model>  (1) 
DiffSBDD

>  <Protein>  (1) 
GPCR_5HT2C

$$$$
DiffSBDD_39_num_sample_100
     RDKit          3D

  0  0  0  0  0  0  0  0  0  0999 V3000
M  V30 BEGIN CTAB
M  V30 COUNTS 60 63 0 0 1
M  V30 BEGIN ATOM
M  V30 1 C 39.212119 34.862934 60.690594 0
M  V30 2 C 38.355969 30.441391 55.439016 0
M  V30 3 C 36.613105 31.947181 61.041987 0
M  V30 4 C 37.958801 31.646036 56.302658 0
M  V30 5 C 38.407782 33.288227 58.907784 0
M  V30 6 C 40.513149 29.109033 55.827031 0
M  V30 7 N 39.865254 25.898457 57.719167 0
M  V30 8 O 36.487310 32.881766 61.853501 0 CHG=-1
M  V30 9 C 39.892153 27.820781 56.194050 0
M  V30 10 C 36.930606 35.113475 59.856475 0
M  V30 11 O 37.067359 30.821429 61.324434 0
M  V30 12 C 36.773926 36.246946 60.678106 0
M  V30 13 C 37.810037 36.661937 61.529761 0
M  V30 14 N 37.413324 32.378828 58.727496 0
M  V30 15 C 40.142652 36.430175 62.484203 0
M  V30 16 C 35.171293 33.352691 59.429978 0
M  V30 17 C 38.237732 24.116200 57.387718 0
M  V30 18 C 37.738505 31.253897 57.804803 0
M  V30 19 C 41.425928 34.282276 63.134893 0
M  V30 20 C 38.828804 27.249410 55.448700 0
M  V30 21 C 36.207482 32.202461 59.585111 0 CFG=2
M  V30 22 C 37.309266 23.792178 56.155576 0
M  V30 23 O 41.067405 34.243483 64.331781 0 CHG=-1
M  V30 24 C 38.160690 34.425247 59.853492 0
M  V30 25 S 37.067405 25.222236 55.054395 0
M  V30 26 C 38.324593 26.030361 55.880259 0
M  V30 27 O 38.349940 27.831374 54.302752 0 CHG=-1
M  V30 28 C 39.027672 35.967808 61.548331 0
M  V30 29 Cl 41.717294 27.736018 58.220617 0
M  V30 30 C 41.480864 35.663733 62.466243 0
M  V30 31 C 40.394901 27.086793 57.314357 0
M  V30 32 C 39.865283 30.244390 55.465079 0
M  V30 33 C 35.792451 34.660123 58.955190 0
M  V30 34 O 39.467404 33.221430 58.339101 0
M  V30 35 C 38.842221 25.418805 56.985006 0
M  V30 36 O 41.756966 33.298315 62.435451 0
M  V30 37 H 40.154873 34.339600 60.674279 0
M  V30 38 H 38.043028 30.596918 54.406257 0
M  V30 39 H 37.792591 29.601079 55.834731 0
M  V30 40 H 38.706729 32.426971 56.180759 0
M  V30 41 H 37.067403 32.072344 55.853504 0
M  V30 42 H 41.580960 29.120882 55.853496 0
M  V30 43 H 35.867405 36.802259 60.653482 0
M  V30 44 H 37.670156 37.521950 62.167226 0
M  V30 45 H 40.337048 37.477766 62.257646 0
M  V30 46 H 39.742455 36.424216 63.498704 0
M  V30 47 H 34.610984 33.517189 60.352054 0
M  V30 48 H 34.416477 33.060185 58.699919 0
M  V30 49 H 39.010234 23.365240 57.555477 0
M  V30 50 H 37.659195 24.248523 58.300994 0
M  V30 51 H 36.977803 30.474714 57.852035 0
M  V30 52 H 38.638138 30.757385 58.175197 0
M  V30 53 H 35.678526 31.294314 59.295280 0
M  V30 54 H 36.394063 23.252304 56.393136 0
M  V30 55 H 37.867400 23.221425 55.435023 0
M  V30 56 H 41.867371 35.593526 61.448129 0
M  V30 57 H 42.213269 36.240113 63.033098 0
M  V30 58 H 40.451938 31.109294 55.191516 0
M  V30 59 H 35.046511 35.443244 58.842702 0
M  V30 60 H 36.159528 34.421433 57.956233 0
M  V30 END ATOM
M  V30 BEGIN BOND
M  V30 1 1 4 2
M  V30 2 1 8 3
M  V30 3 1 9 6
M  V30 4 2 11 3
M  V30 5 1 12 10
M  V30 6 2 13 12
M  V30 7 1 14 5
M  V30 8 1 18 4
M  V30 9 1 18 14
M  V30 10 2 20 9
M  V30 11 1 21 3
M  V30 12 1 21 14
M  V30 13 1 21 16
M  V30 14 1 22 17
M  V30 15 1 23 19
M  V30 16 1 24 1
M  V30 17 1 24 5
M  V30 18 2 24 10
M  V30 19 1 25 22
M  V30 20 1 26 20
M  V30 21 1 26 25
M  V30 22 1 27 20
M  V30 23 2 28 1
M  V30 24 1 28 13
M  V30 25 1 28 15
M  V30 26 1 30 15
M  V30 27 1 30 19
M  V30 28 2 31 7
M  V30 29 1 31 9
M  V30 30 1 31 29
M  V30 31 1 32 2
M  V30 32 2 32 6
M  V30 33 1 33 10
M  V30 34 1 33 16
M  V30 35 2 34 5
M  V30 36 1 35 7
M  V30 37 1 35 17
M  V30 38 2 35 26
M  V30 39 2 36 19
M  V30 40 1 37 1
M  V30 41 1 38 2
M  V30 42 1 39 2
M  V30 43 1 40 4
M  V30 44 1 41 4
M  V30 45 1 42 6
M  V30 46 1 43 12
M  V30 47 1 44 13
M  V30 48 1 45 15
M  V30 49 1 46 15
M  V30 50 1 47 16
M  V30 51 1 48 16
M  V30 52 1 49 17
M  V30 53 1 50 17
M  V30 54 1 51 18
M  V30 55 1 52 18
M  V30 56 1 21 53 CFG=3
M  V30 57 1 54 22
M  V30 58 1 55 22
M  V30 59 1 56 30
M  V30 60 1 57 30
M  V30 61 1 58 32
M  V30 62 1 59 33
M  V30 63 1 60 33
M  V30 END BOND
M  V30 END CTAB
M  END
>  <i_epik_Tot_Q>  (1) 
-3

>  <i_epik_Tot_abs_Q>  (1) 
3

>  <i_i_glide_confnum>  (1) 
186

>  <i_i_glide_lignum>  (1) 
95

>  <i_i_glide_posenum>  (1) 
141

>  <i_i_glide_rotatable_bonds>  (1) 
9

>  <i_lp_mmshare_version>  (1) 
72125

>  <i_m_source_file_index>  (1) 
40

>  <i_f3d_flags>  (1) 
0

>  <num_sample>  (1) 
100

>  <b_lp_Chiralities_Consistent>  (1) 
1

>  <r_epik_Charging_Adjusted_Penalty>  (1) 
0.2804944600534911

>  <r_epik_Ionization_Penalty>  (1) 
0.1893944324441556

>  <r_epik_Ionization_Penalty_Charging>  (1) 
0.1048911762492778

>  <r_epik_Ionization_Penalty_Neutral>  (1) 
0.084503256194877821

>  <r_epik_State_Penalty>  (1) 
0.17560328380421328

>  <r_glide_ring_energy>  (1) 
0

>  <r_i_docking_score>  (1) 
-7.0431247402861983

>  <r_i_glide_ecoul>  (1) 
-2.6483942370157796

>  <r_i_glide_eff_state_penalty>  (1) 
0.17560328380421328

>  <r_i_glide_einternal>  (1) 
3.9181710678955

>  <r_i_glide_emodel>  (1) 
-50.26452293667257

>  <r_i_glide_emodel_strain>  (1) 
1.8004872361844804

>  <r_i_glide_energy>  (1) 
-34.82008839398997

>  <r_i_glide_erotb>  (1) 
0.44331424450836554

>  <r_i_glide_esite>  (1) 
-0.14840904444281008

>  <r_i_glide_evdw>  (1) 
-32.171694156974191

>  <r_i_glide_gscore>  (1) 
-7.2187280240904119

>  <r_i_glide_gscore_strain>  (1) 
0

>  <r_i_glide_hbond>  (1) 
-0.16

>  <r_i_glide_ligand_efficiency>  (1) 
-0.19564235389683884

>  <r_i_glide_ligand_efficiency_ln>  (1) 
-1.5366195350899041

>  <r_i_glide_ligand_efficiency_sa>  (1) 
-0.6459968193698582

>  <r_i_glide_lipo>  (1) 
-4.2255279047239229

>  <r_i_glide_metal>  (1) 
-0

>  <r_i_glide_rewards>  (1) 
-1.1222614760309673

>  <r_lp_Energy>  (1) 
59.773787999999996

>  <s_epik_cmdline>  (1) 
J2VwaWtfcHl0aG9uJywgJy1waHQnLCAnMS4wJywgJy1waCcsICc3LjQnLCAnLXRuJywgJzgnLCAnLW1hJywgJzUwMCcsICctaW1hZScsICc8aW5maWxlLm1hZT4nLCAnLW9tYWUnLCAnPG91dGZpbGUubWFlPic=

>  <s_epik_input>  (1) 
W09IXUMoPU8pW0NIMl1bQ0gyXWMoW2NIXVtjSF0xKVtjSF1jKGMxMilDKD1PKU4oW0NAQEhdKEMoPU8pW09IXSlbQ0gyXVtDSDJdMilbQ0gyXVtDSDJdW0NIMl0vW0NIXT1bQ0hdXGMoYzNbT0hdKWMoQ2wpbmMoYzM0KVtDSDJdW0NIMl1TNA==

>  <s_glide_docking_method>  (1) 
confgen

>  <s_i_glide_gridfile>  (1) 
gpcr_5ht2c_6bqh_protein_autoprepared_prepared

>  <s_lp_Force_Field>  (1) 
S-OPLS

>  <s_lp_Variant>  (1) 
DiffSBDD_39_num_sample_100-2

>  <s_m_source_file>  (1) 
generated__ligand_DiffSBDD_2026-05-06_prepared.sdf

>  <GenAI_Model>  (1) 
DiffSBDD

>  <Protein>  (1) 
GPCR_5HT2C

$$$$
DiffSBDD_15_num_sample_100
     RDKit          3D

  0  0  0  0  0  0  0  0  0  0999 V3000
M  V30 BEGIN CTAB
M  V30 COUNTS 74 79 0 0 1
M  V30 BEGIN ATOM
M  V30 1 C 41.067406 29.974058 61.514395 0
M  V30 2 S 40.267396 33.624537 63.223096 0
M  V30 3 N 38.478327 26.625418 54.362554 0
M  V30 4 C 36.329711 37.149763 59.543906 0
M  V30 5 C 38.956056 28.510709 51.904737 0
M  V30 6 C 37.161850 24.163394 55.122453 0
M  V30 7 S 40.360045 27.330001 57.579672 0
M  V30 8 S 38.243308 29.221493 53.422204 0
M  V30 9 O 41.467354 27.504681 56.653495 0
M  V30 10 C 38.556834 36.547011 61.418934 0
M  V30 11 C 37.952649 35.471882 60.883212 0
M  V30 12 C 40.090611 32.159089 62.157676 0 CFG=1
M  V30 13 C 37.712145 25.075706 56.205738 0 CFG=1
M  V30 14 N 39.533902 36.152327 62.317173 0
M  V30 15 C 39.705314 29.543581 51.041296 0
M  V30 16 C 40.269193 30.745156 51.810172 0
M  V30 17 C 38.765179 26.102340 55.733760 0 CFG=2
M  V30 18 C 37.665238 30.084251 60.059613 0
M  V30 19 S 36.667473 35.361420 59.724658 0
M  V30 20 C 38.266869 37.967539 61.118524 0
M  V30 21 N 38.701911 28.307322 55.817912 0
M  V30 22 C 39.693478 29.499515 61.109795 0 CFG=2
M  V30 23 N 36.667397 25.621398 57.046519 0
M  V30 24 O 42.279575 31.456803 62.954920 0
M  V30 25 C 37.605578 38.021420 59.716795 0
M  V30 26 C 40.382971 28.842319 58.634738 0
M  V30 27 C 40.983098 31.003954 62.649415 0 CFG=2
M  V30 28 N 38.911457 27.302810 56.660617 0
M  V30 29 C 39.604292 28.570433 59.907807 0 CFG=2
M  V30 30 C 37.556278 24.642813 57.644053 0
M  V30 31 C 38.483555 27.880136 54.580705 0
M  V30 32 C 38.139860 28.691983 59.600532 0
M  V30 33 O 40.267395 26.110680 58.379703 0
M  V30 34 C 39.419168 34.817653 62.253587 0
M  V30 35 N 38.829406 30.633408 60.774759 0 CFG=2 CHG=1
M  V30 36 O 38.498784 34.346747 61.365085 0
M  V30 37 C 38.666352 31.556142 61.919814 0
M  V30 38 H 41.467389 30.465808 60.631725 0
M  V30 39 H 41.693604 29.124238 61.794151 0
M  V30 40 H 35.896208 37.270937 58.553336 0
M  V30 41 H 35.574037 37.475736 60.253596 0
M  V30 42 H 39.670759 27.740054 52.192611 0
M  V30 43 H 38.176943 28.006326 51.330127 0
M  V30 44 H 37.978354 23.621588 54.653486 0
M  V30 45 H 36.468741 23.431394 55.536542 0
M  V30 46 H 36.638050 24.737338 54.357905 0
M  V30 47 H 40.480627 32.512866 61.201606 0
M  V30 48 H 40.521106 29.029480 50.532436 0
M  V30 49 H 39.067388 29.921565 50.249894 0
M  V30 50 H 41.067488 31.221478 51.243831 0
M  V30 51 H 39.502952 31.496370 52.007683 0
M  V30 52 H 40.667404 30.442830 52.775076 0
M  V30 53 H 39.719220 25.570535 55.693057 0
M  V30 54 H 37.437780 30.723658 59.205286 0
M  V30 55 H 36.764579 30.022617 60.662345 0
M  V30 56 H 37.571547 38.371952 61.853560 0
M  V30 57 H 39.163621 38.585852 61.153177 0
M  V30 58 H 38.719414 29.272948 56.110135 0
M  V30 59 H 39.251018 28.980448 61.965326 0
M  V30 60 H 35.722796 25.337926 56.831563 0
M  V30 61 H 42.731659 30.790524 63.453468 0
M  V30 62 H 38.267413 37.676942 58.931165 0
M  V30 63 H 37.467655 39.071155 59.505113 0
M  V30 64 H 40.021691 29.689274 58.054976 0
M  V30 65 H 41.435091 29.016706 58.859893 0
M  V30 66 H 40.566971 30.554806 63.554917 0
M  V30 67 H 39.879058 27.578974 60.267569 0
M  V30 68 H 37.141872 23.656552 57.845542 0
M  V30 69 H 38.216112 25.021175 58.414365 0
M  V30 70 H 37.805728 28.429752 58.601052 0
M  V30 71 H 37.867427 27.897676 60.254236 0
M  V30 72 H 37.869095 32.248884 61.681852 0
M  V30 73 H 38.318506 31.011908 62.799509 0
M  V30 74 H 39.321818 31.157878 60.065994 0
M  V30 END ATOM
M  V30 BEGIN BOND
M  V30 1 1 8 5
M  V30 2 2 9 7
M  V30 3 2 11 10
M  V30 4 1 12 2
M  V30 5 1 13 6 CFG=3
M  V30 6 1 14 10
M  V30 7 1 15 5
M  V30 8 1 16 15
M  V30 9 1 17 3
M  V30 10 1 17 13
M  V30 11 1 19 4
M  V30 12 1 19 11
M  V30 13 1 20 10
M  V30 14 1 22 1
M  V30 15 1 23 13
M  V30 16 1 25 4
M  V30 17 1 25 20
M  V30 18 1 26 7
M  V30 19 1 27 1
M  V30 20 1 27 12
M  V30 21 1 27 24
M  V30 22 1 28 7
M  V30 23 1 28 17
M  V30 24 1 28 21
M  V30 25 1 29 22
M  V30 26 1 29 26
M  V30 27 1 30 13
M  V30 28 1 30 23
M  V30 29 2 31 3
M  V30 30 1 31 8
M  V30 31 1 31 21
M  V30 32 1 32 18
M  V30 33 1 32 29
M  V30 34 2 33 7
M  V30 35 1 34 2
M  V30 36 2 34 14
M  V30 37 1 35 18
M  V30 38 1 35 22
M  V30 39 1 36 11
M  V30 40 1 36 34
M  V30 41 1 37 12
M  V30 42 1 37 35
M  V30 43 1 38 1
M  V30 44 1 39 1
M  V30 45 1 40 4
M  V30 46 1 41 4
M  V30 47 1 42 5
M  V30 48 1 43 5
M  V30 49 1 44 6
M  V30 50 1 45 6
M  V30 51 1 46 6
M  V30 52 1 12 47 CFG=3
M  V30 53 1 48 15
M  V30 54 1 49 15
M  V30 55 1 50 16
M  V30 56 1 51 16
M  V30 57 1 52 16
M  V30 58 1 17 53 CFG=3
M  V30 59 1 54 18
M  V30 60 1 55 18
M  V30 61 1 56 20
M  V30 62 1 57 20
M  V30 63 1 58 21
M  V30 64 1 22 59 CFG=1
M  V30 65 1 60 23
M  V30 66 1 61 24
M  V30 67 1 62 25
M  V30 68 1 63 25
M  V30 69 1 64 26
M  V30 70 1 65 26
M  V30 71 1 27 66 CFG=1
M  V30 72 1 29 67 CFG=1
M  V30 73 1 68 30
M  V30 74 1 69 30
M  V30 75 1 70 32
M  V30 76 1 71 32
M  V30 77 1 72 37
M  V30 78 1 73 37
M  V30 79 1 35 74 CFG=3
M  V30 END BOND
M  V30 END CTAB
M  END
>  <i_epik_Tot_Q>  (1) 
1

>  <i_epik_Tot_abs_Q>  (1) 
1

>  <i_i_glide_confnum>  (1) 
296

>  <i_i_glide_lignum>  (1) 
35

>  <i_i_glide_posenum>  (1) 
216

>  <i_i_glide_rotatable_bonds>  (1) 
10

>  <i_lp_mmshare_version>  (1) 
72125

>  <i_m_source_file_index>  (1) 
16

>  <i_f3d_flags>  (1) 
0

>  <num_sample>  (1) 
100

>  <b_lp_Chiralities_Consistent>  (1) 
1

>  <r_epik_Charging_Adjusted_Penalty>  (1) 
0.0082019649409003706

>  <r_epik_Ionization_Penalty>  (1) 
0.015626865898487191

>  <r_epik_Ionization_Penalty_Charging>  (1) 
0.0082019649409003706

>  <r_epik_Ionization_Penalty_Neutral>  (1) 
0.0074249009575868222

>  <r_epik_State_Penalty>  (1) 
-0

>  <r_glide_ring_energy>  (1) 
0

>  <r_i_docking_score>  (1) 
-7.0428194321991331

>  <r_i_glide_ecoul>  (1) 
1.710906501327025

>  <r_i_glide_eff_state_penalty>  (1) 
-0

>  <r_i_glide_einternal>  (1) 
18.374423728652229

>  <r_i_glide_emodel>  (1) 
-31.531205810912645

>  <r_i_glide_emodel_strain>  (1) 
8.2179705199095707

>  <r_i_glide_energy>  (1) 
-41.900884523570902

>  <r_i_glide_erotb>  (1) 
0.37349522713264072

>  <r_i_glide_esite>  (1) 
0

>  <r_i_glide_evdw>  (1) 
-43.611791024897926

>  <r_i_glide_gscore>  (1) 
-7.0428194321991331

>  <r_i_glide_gscore_strain>  (1) 
1.0544926299773927

>  <r_i_glide_hbond>  (1) 
-0.028460310090931008

>  <r_i_glide_ligand_efficiency>  (1) 
-0.19034647114051712

>  <r_i_glide_ligand_efficiency_ln>  (1) 
-1.5274224277309432

>  <r_i_glide_ligand_efficiency_sa>  (1) 
-0.63427667051812697

>  <r_i_glide_lipo>  (1) 
-4.3674907127929279

>  <r_i_glide_metal>  (1) 
-0

>  <r_i_glide_rewards>  (1) 
-2.1509026903794659

>  <r_lp_Energy>  (1) 
14.877502999999999

>  <r_lp_tautomer_probability>  (1) 
1

>  <s_epik_Chemistry_Notes>  (1) 
This compound has an imine and may undergo hydrolysis. This compound contains an acetal/aminal-like group ( X-CH(R)-Y where X, Y are N, S, or O) that may be acid/base labile, releasing an aldehyde.

>  <s_epik_cmdline>  (1) 
J2VwaWtfcHl0aG9uJywgJy1waHQnLCAnMS4wJywgJy1waCcsICc3LjQnLCAnLXRuJywgJzgnLCAnLW1hJywgJzUwMCcsICctaW1hZScsICc8aW5maWxlLm1hZT4nLCAnLW9tYWUnLCAnPG91dGZpbGUubWFlPic=

>  <s_epik_input>  (1) 
W0NIMl0xW0NIMl1bQ0gyXVNjKGMxMilvYyhuMilTW0NAQEhdKFtDQEBIXShbQ0gyXTMpW09IXSlbQ0gyXU4oW0NASF0zNClbQ0gyXVtDSDJdW0NASF00W0NIMl1TKD1PKSg9TylONVtOSF1DKFNbQ0gyXVtDSDJdW0NIM10pPU5bQ0BASF01W0NAXTYoW0NIM10pW05IXVtDSDJdNg==

>  <s_glide_docking_method>  (1) 
confgen

>  <s_i_glide_gridfile>  (1) 
gpcr_5ht2c_6bqh_protein_autoprepared_prepared

>  <s_lp_Force_Field>  (1) 
S-OPLS

>  <s_lp_Variant>  (1) 
DiffSBDD_15_num_sample_100-2

>  <s_m_source_file>  (1) 
generated__ligand_DiffSBDD_2026-05-06_prepared.sdf

>  <GenAI_Model>  (1) 
DiffSBDD

>  <Protein>  (1) 
GPCR_5HT2C

$$$$
DiffSBDD_18_num_sample_100
     RDKit          3D

  0  0  0  0  0  0  0  0  0  0999 V3000
M  V30 BEGIN CTAB
M  V30 COUNTS 70 72 0 0 1
M  V30 BEGIN ATOM
M  V30 1 O 38.146249 33.959253 59.375124 0
M  V30 2 C 38.654820 25.406694 57.517728 0
M  V30 3 C 37.679471 30.429055 54.586935 0
M  V30 4 C 37.837451 24.421617 57.354126 0
M  V30 5 O 39.467424 32.417533 55.453493 0
M  V30 6 C 39.670242 27.359417 56.257763 0 CFG=2
M  V30 7 C 41.829049 30.690146 63.762671 0
M  V30 8 N 38.897241 26.116278 56.374272 0
M  V30 9 N 40.527220 27.572212 57.427208 0
M  V30 10 C 38.910494 32.737161 61.322622 0
M  V30 11 C 41.867490 33.165396 63.566464 0
M  V30 12 O 42.822212 30.034478 63.454336 0
M  V30 13 O 36.668452 23.628675 55.453696 0
M  V30 14 C 41.238650 30.972831 66.771543 0
M  V30 15 C 38.720183 28.460425 53.522863 0
M  V30 16 C 37.445871 24.421521 55.981878 0
M  V30 17 C 41.559798 33.443112 66.555309 0
M  V30 18 C 40.945102 33.327302 62.595363 0
M  V30 19 C 38.371072 32.336338 55.984143 0
M  V30 20 N 40.538030 30.336662 63.527081 0
M  V30 21 C 38.800182 29.368173 54.770962 0 CFG=2
M  V30 22 C 38.868589 34.073337 60.589679 0 CFG=2
M  V30 23 C 38.742029 28.593866 56.126280 0 CFG=2
M  V30 24 C 39.193787 29.438280 57.326932 0
M  V30 25 O 40.667399 34.283914 66.794520 0 CHG=-1
M  V30 26 C 38.140859 25.594106 55.182680 0
M  V30 27 C 39.686276 30.989159 62.834508 0
M  V30 28 C 37.968760 33.331883 57.078634 0
M  V30 29 C 38.795205 33.200471 58.362211 0
M  V30 30 C 38.155827 35.146045 61.419877 0
M  V30 31 C 39.849486 32.378115 62.230612 0
M  V30 32 C 41.976794 31.997194 64.493665 0 CFG=1
M  V30 33 C 41.138019 32.168221 65.799876 0 CFG=1
M  V30 34 N 37.467406 31.402700 55.650337 0
M  V30 35 N 39.946377 28.579509 58.226971 0
M  V30 36 O 42.765365 33.543907 66.875279 0
M  V30 37 H 39.144280 25.717275 58.428167 0
M  V30 38 H 36.721862 29.926893 54.444741 0
M  V30 39 H 37.867564 30.989496 53.672344 0
M  V30 40 H 37.487206 23.717029 58.093836 0
M  V30 41 H 40.345728 27.255419 55.410748 0
M  V30 42 H 40.633203 26.713972 57.963626 0
M  V30 43 H 38.118737 32.042595 61.077204 0
M  V30 44 H 42.596231 33.948810 63.720094 0
M  V30 45 H 37.406461 26.300991 54.800860 0
M  V30 46 H 40.749277 31.191208 67.721449 0
M  V30 47 H 40.756721 30.083817 66.364961 0
M  V30 48 H 42.278727 30.722834 66.983759 0
M  V30 49 H 37.741372 27.988972 53.432956 0
M  V30 50 H 38.872479 29.046883 52.615771 0
M  V30 51 H 39.467443 27.671607 53.503680 0
M  V30 52 H 41.006573 34.246305 62.038692 0
M  V30 53 H 39.767171 29.870725 54.724872 0
M  V30 54 H 39.867571 34.424023 60.335570 0
M  V30 55 H 37.713065 28.283881 56.307761 0
M  V30 56 H 39.867222 30.230357 57.002192 0
M  V30 57 H 38.360711 29.902675 57.854833 0
M  V30 58 H 38.799118 25.229013 54.395964 0
M  V30 59 H 38.725906 30.526617 62.590342 0
M  V30 60 H 36.925044 33.221451 57.345888 0
M  V30 61 H 38.062549 34.340644 56.676823 0
M  V30 62 H 39.805806 33.575212 58.204458 0
M  V30 63 H 38.871194 32.155619 58.664544 0
M  V30 64 H 38.669082 35.319899 62.365942 0
M  V30 65 H 38.125800 36.093410 60.881053 0
M  V30 66 H 37.127681 34.856552 61.640132 0
M  V30 67 H 43.024035 31.998311 64.802894 0
M  V30 68 H 40.091024 32.293614 65.522133 0
M  V30 69 H 36.553142 31.408047 56.130120 0
M  V30 70 H 39.314641 28.132504 58.888637 0
M  V30 END ATOM
M  V30 BEGIN BOND
M  V30 1 2 4 2
M  V30 2 1 8 2
M  V30 3 1 8 6
M  V30 4 1 9 6
M  V30 5 2 12 7
M  V30 6 1 16 4
M  V30 7 2 16 13
M  V30 8 2 18 11
M  V30 9 2 19 5
M  V30 10 1 20 7
M  V30 11 1 21 3
M  V30 12 1 21 15
M  V30 13 1 22 1
M  V30 14 1 22 10
M  V30 15 1 23 6
M  V30 16 1 23 21
M  V30 17 1 24 23
M  V30 18 1 25 17
M  V30 19 1 26 8
M  V30 20 1 26 16
M  V30 21 2 27 20
M  V30 22 1 28 19
M  V30 23 1 29 1
M  V30 24 1 29 28
M  V30 25 1 30 22
M  V30 26 2 31 10
M  V30 27 1 31 18
M  V30 28 1 31 27
M  V30 29 1 32 7
M  V30 30 1 32 11
M  V30 31 1 33 14
M  V30 32 1 33 17
M  V30 33 1 33 32
M  V30 34 1 34 3
M  V30 35 1 34 19
M  V30 36 1 35 9
M  V30 37 1 35 24
M  V30 38 2 36 17
M  V30 39 1 37 2
M  V30 40 1 38 3
M  V30 41 1 39 3
M  V30 42 1 40 4
M  V30 43 1 6 41 CFG=3
M  V30 44 1 42 9
M  V30 45 1 43 10
M  V30 46 1 44 11
M  V30 47 1 45 26
M  V30 48 1 46 14
M  V30 49 1 47 14
M  V30 50 1 48 14
M  V30 51 1 49 15
M  V30 52 1 50 15
M  V30 53 1 51 15
M  V30 54 1 52 18
M  V30 55 1 21 53 CFG=3
M  V30 56 1 22 54 CFG=3
M  V30 57 1 23 55 CFG=1
M  V30 58 1 56 24
M  V30 59 1 57 24
M  V30 60 1 58 26
M  V30 61 1 59 27
M  V30 62 1 60 28
M  V30 63 1 61 28
M  V30 64 1 62 29
M  V30 65 1 63 29
M  V30 66 1 64 30
M  V30 67 1 65 30
M  V30 68 1 66 30
M  V30 69 1 32 67 CFG=1
M  V30 70 1 33 68 CFG=3
M  V30 71 1 69 34
M  V30 72 1 70 35
M  V30 END BOND
M  V30 END CTAB
M  END
>  <i_epik_Tot_Q>  (1) 
-1

>  <i_epik_Tot_abs_Q>  (1) 
1

>  <i_i_glide_confnum>  (1) 
3479

>  <i_i_glide_lignum>  (1) 
41

>  <i_i_glide_posenum>  (1) 
36

>  <i_i_glide_rotatable_bonds>  (1) 
12

>  <i_lp_mmshare_version>  (1) 
72125

>  <i_m_source_file_index>  (1) 
19

>  <i_f3d_flags>  (1) 
0

>  <num_sample>  (1) 
100

>  <b_lp_Chiralities_Consistent>  (1) 
1

>  <r_epik_Charging_Adjusted_Penalty>  (1) 
0.37971815023500188

>  <r_epik_Ionization_Penalty>  (1) 
0.19445293645399606

>  <r_epik_Ionization_Penalty_Charging>  (1) 
0.18991606969001057

>  <r_epik_Ionization_Penalty_Neutral>  (1) 
0.004536866763985496

>  <r_epik_State_Penalty>  (1) 
0.18980208054499129

>  <r_glide_ring_energy>  (1) 
1.845819541117304

>  <r_i_docking_score>  (1) 
-7.0417862164619454

>  <r_i_glide_ecoul>  (1) 
-3.3682334443210289

>  <r_i_glide_eff_state_penalty>  (1) 
0.18980208054499129

>  <r_i_glide_einternal>  (1) 
13.352981941264419

>  <r_i_glide_emodel>  (1) 
-68.273225672839231

>  <r_i_glide_emodel_strain>  (1) 
0

>  <r_i_glide_energy>  (1) 
-50.260362183040613

>  <r_i_glide_erotb>  (1) 
0.89642714384868305

>  <r_i_glide_esite>  (1) 
-0.16253476957180435

>  <r_i_glide_evdw>  (1) 
-46.892128738719585

>  <r_i_glide_gscore>  (1) 
-7.2315882970069367

>  <r_i_glide_gscore_strain>  (1) 
0

>  <r_i_glide_hbond>  (1) 
-0.17158751313221401

>  <r_i_glide_ligand_efficiency>  (1) 
-0.19560517267949848

>  <r_i_glide_ligand_efficiency_ln>  (1) 
-1.5363275053541867

>  <r_i_glide_ligand_efficiency_sa>  (1) 
-0.64587404969517492

>  <r_i_glide_lipo>  (1) 
-3.0771407391576289

>  <r_i_glide_metal>  (1) 
-0

>  <r_i_glide_rewards>  (1) 
-1.866910965409839

>  <r_lp_Energy>  (1) 
22.943131999999999

>  <r_lp_tautomer_probability>  (1) 
0.98846045845713826

>  <s_epik_Chemistry_Notes>  (1) 
This compound has an imine and may undergo hydrolysis. This compound contains an acetal/aminal-like group ( X-CH(R)-Y where X, Y are N, S, or O) that may be acid/base labile, releasing an aldehyde.

>  <s_epik_cmdline>  (1) 
J2VwaWtfcHl0aG9uJywgJy1waHQnLCAnMS4wJywgJy1waCcsICc3LjQnLCAnLXRuJywgJzgnLCAnLW1hJywgJzUwMCcsICctaW1hZScsICc8aW5maWxlLm1hZT4nLCAnLW9tYWUnLCAnPG91dGZpbGUubWFlPic=

>  <s_epik_input>  (1) 
W09IXUMoPU8pW0NASF0oW0NIM10pW0NAQEhdMVtDSF09W0NIXS9DKFtDSF09TkMxPU8pPVtDSF1cW0NASF0oW0NIM10pT1tDSDJdW0NIMl1DKD1PKVtOSF1bQ0gyXVtDQEhdKFtDSDNdKVtDQEBIXTJbQ0gyXVtOSF1bTkhdW0NASF0ybjNbY0hdW2NIXWMoW09IXSlbY0hdMw==

>  <s_glide_docking_method>  (1) 
confgen

>  <s_i_glide_gridfile>  (1) 
gpcr_5ht2c_6bqh_protein_autoprepared_prepared

>  <s_lp_Force_Field>  (1) 
S-OPLS

>  <s_lp_Variant>  (1) 
DiffSBDD_18_num_sample_100-1

>  <s_m_source_file>  (1) 
generated__ligand_DiffSBDD_2026-05-06_prepared.sdf

>  <GenAI_Model>  (1) 
DiffSBDD

>  <Protein>  (1) 
GPCR_5HT2C

$$$$
DiffSBDD_72_num_sample_100
     RDKit          3D

  0  0  0  0  0  0  0  0  0  0999 V3000
M  V30 BEGIN CTAB
M  V30 COUNTS 68 72 0 0 1
M  V30 BEGIN ATOM
M  V30 1 C 37.248764 36.648596 60.971396 0
M  V30 2 C 39.467411 28.988838 60.746410 0
M  V30 3 C 38.389879 28.290167 55.965365 0 CFG=1
M  V30 4 C 37.814466 32.419337 60.624627 0
M  V30 5 C 37.826283 29.345638 58.789207 0 CFG=2
M  V30 6 O 40.419990 28.396788 61.251150 0
M  V30 7 C 38.659586 28.603875 54.477708 0
M  V30 8 C 38.870247 28.494015 59.455763 0 CFG=1
M  V30 9 N 38.430287 31.159368 60.234042 0
M  V30 10 O 39.849648 25.212655 57.210219 0
M  V30 11 O 40.847680 33.732585 63.196223 0
M  V30 12 C 37.707077 26.392650 53.766381 0
M  V30 13 C 39.740714 26.309497 56.331053 0 CFG=1
M  V30 14 C 38.287356 26.780435 56.238621 0 CFG=2
M  V30 15 C 39.235922 29.319879 58.212866 0 CFG=1
M  V30 16 C 39.878547 36.154554 61.853545 0
M  V30 17 O 37.275246 34.628719 59.676518 0
M  V30 18 C 39.816223 30.923578 62.329368 0
M  V30 19 C 42.249789 27.864683 58.477876 0
M  V30 20 C 39.581198 28.728224 56.838802 0 CFG=1
M  V30 21 C 37.922423 35.498551 60.531512 0
M  V30 22 C 37.875584 37.543814 61.851262 0
M  V30 23 C 40.546370 27.513059 56.860173 0 CFG=1
M  V30 24 C 39.189119 37.296972 62.295597 0
M  V30 25 C 37.426345 26.003829 55.226481 0
M  V30 26 C 41.300990 35.896085 62.321252 0
M  V30 27 O 37.353363 30.460476 59.555036 0
M  V30 28 C 38.833322 30.267000 61.338349 0 CFG=2
M  V30 29 C 41.314641 34.862491 63.452901 0
M  V30 30 C 39.250859 35.254418 60.968843 0
M  V30 31 O 41.051027 27.195237 58.148416 0
M  V30 32 C 37.819431 33.347161 59.390844 0
M  V30 33 O 41.800906 35.221251 64.546301 0 CHG=-1
M  V30 34 C 37.662987 27.908153 53.552614 0
M  V30 35 H 36.246614 36.843246 60.633260 0
M  V30 36 H 37.467719 28.806915 56.223601 0
M  V30 37 H 36.800529 32.263228 60.996638 0
M  V30 38 H 38.365244 32.880991 61.436999 0
M  V30 39 H 37.002999 28.816666 58.316896 0
M  V30 40 H 38.625089 29.681842 54.314804 0
M  V30 41 H 39.660787 28.283799 54.203726 0
M  V30 42 H 38.745993 27.418812 59.352647 0
M  V30 43 H 40.311068 25.544991 57.971025 0
M  V30 44 H 36.985059 25.908839 53.111202 0
M  V30 45 H 38.687073 26.021427 53.470891 0
M  V30 46 H 40.121425 26.019585 55.351073 0
M  V30 47 H 37.833561 26.657333 57.223720 0
M  V30 48 H 39.867392 30.176810 58.411425 0
M  V30 49 H 40.227169 30.202206 63.036179 0
M  V30 50 H 40.652038 31.397081 61.813480 0
M  V30 51 H 39.322211 31.673271 62.944972 0
M  V30 52 H 42.553562 27.497828 59.453314 0
M  V30 53 H 43.049423 27.646908 57.768356 0
M  V30 54 H 42.106049 28.943467 58.541233 0
M  V30 55 H 40.087006 29.541108 56.316372 0
M  V30 56 H 37.346037 38.421429 62.185597 0
M  V30 57 H 41.375397 27.689735 56.175506 0
M  V30 58 H 39.669074 37.988046 62.973928 0
M  V30 59 H 36.380078 26.188157 55.453490 0
M  V30 60 H 37.568806 24.930822 55.360676 0
M  V30 61 H 41.867444 35.516833 61.473842 0
M  V30 62 H 41.775170 36.821048 62.650052 0
M  V30 63 H 37.939807 30.021443 61.907924 0
M  V30 64 H 39.787541 34.382149 60.632449 0
M  V30 65 H 38.812539 33.441915 58.949230 0
M  V30 66 H 37.195401 32.911990 58.608395 0
M  V30 67 H 36.667360 28.290009 53.751187 0
M  V30 68 H 37.886214 28.144068 52.511214 0
M  V30 END ATOM
M  V30 BEGIN BOND
M  V30 1 2 6 2
M  V30 2 1 7 3
M  V30 3 1 8 2
M  V30 4 1 8 5
M  V30 5 1 9 4
M  V30 6 1 13 10
M  V30 7 1 14 3
M  V30 8 1 14 13
M  V30 9 1 15 5
M  V30 10 1 15 8
M  V30 11 1 20 3
M  V30 12 1 20 15
M  V30 13 2 21 1
M  V30 14 1 21 17
M  V30 15 1 22 1
M  V30 16 1 23 13
M  V30 17 1 23 20
M  V30 18 1 24 16
M  V30 19 2 24 22
M  V30 20 1 25 12
M  V30 21 1 25 14
M  V30 22 1 26 16
M  V30 23 1 27 5
M  V30 24 1 27 9
M  V30 25 1 28 2
M  V30 26 1 28 9
M  V30 27 1 28 18
M  V30 28 2 29 11
M  V30 29 1 29 26
M  V30 30 2 30 16
M  V30 31 1 30 21
M  V30 32 1 31 19
M  V30 33 1 31 23
M  V30 34 1 32 4
M  V30 35 1 32 17
M  V30 36 1 33 29
M  V30 37 1 34 7
M  V30 38 1 34 12
M  V30 39 1 35 1
M  V30 40 1 3 36 CFG=1
M  V30 41 1 37 4
M  V30 42 1 38 4
M  V30 43 1 5 39 CFG=3
M  V30 44 1 40 7
M  V30 45 1 41 7
M  V30 46 1 8 42 CFG=3
M  V30 47 1 43 10
M  V30 48 1 44 12
M  V30 49 1 45 12
M  V30 50 1 13 46 CFG=3
M  V30 51 1 14 47 CFG=1
M  V30 52 1 15 48 CFG=1
M  V30 53 1 49 18
M  V30 54 1 50 18
M  V30 55 1 51 18
M  V30 56 1 52 19
M  V30 57 1 53 19
M  V30 58 1 54 19
M  V30 59 1 20 55 CFG=3
M  V30 60 1 56 22
M  V30 61 1 23 57 CFG=3
M  V30 62 1 58 24
M  V30 63 1 59 25
M  V30 64 1 60 25
M  V30 65 1 61 26
M  V30 66 1 62 26
M  V30 67 1 28 63 CFG=1
M  V30 68 1 64 30
M  V30 69 1 65 32
M  V30 70 1 66 32
M  V30 71 1 67 34
M  V30 72 1 68 34
M  V30 END BOND
M  V30 END CTAB
M  END
>  <i_epik_Tot_Q>  (1) 
-1

>  <i_epik_Tot_abs_Q>  (1) 
1

>  <i_i_glide_confnum>  (1) 
425

>  <i_i_glide_lignum>  (1) 
181

>  <i_i_glide_posenum>  (1) 
230

>  <i_i_glide_rotatable_bonds>  (1) 
9

>  <i_lp_mmshare_version>  (1) 
72125

>  <i_m_source_file_index>  (1) 
73

>  <i_f3d_flags>  (1) 
0

>  <num_sample>  (1) 
100

>  <b_lp_Chiralities_Consistent>  (1) 
1

>  <r_epik_Charging_Adjusted_Penalty>  (1) 
0.00040534896778007237

>  <r_epik_Ionization_Penalty>  (1) 
0.00058627792093801146

>  <r_epik_Ionization_Penalty_Charging>  (1) 
0.00040534896778007237

>  <r_epik_Ionization_Penalty_Neutral>  (1) 
0.00018092895315793904

>  <r_epik_State_Penalty>  (1) 
-0

>  <r_glide_ring_energy>  (1) 
0.044211323700632445

>  <r_i_docking_score>  (1) 
-7.0403775295983984

>  <r_i_glide_ecoul>  (1) 
2.0640560280463935

>  <r_i_glide_eff_state_penalty>  (1) 
-0

>  <r_i_glide_einternal>  (1) 
15.369263912273386

>  <r_i_glide_emodel>  (1) 
-46.74637006175346

>  <r_i_glide_emodel_strain>  (1) 
1.3509866930663463

>  <r_i_glide_energy>  (1) 
-41.068565305341799

>  <r_i_glide_erotb>  (1) 
0.54329249107916178

>  <r_i_glide_esite>  (1) 
-0.036887699850529018

>  <r_i_glide_evdw>  (1) 
-43.132621333388194

>  <r_i_glide_gscore>  (1) 
-7.0403775295983984

>  <r_i_glide_gscore_strain>  (1) 
0

>  <r_i_glide_hbond>  (1) 
0

>  <r_i_glide_ligand_efficiency>  (1) 
-0.20706992734112936

>  <r_i_glide_ligand_efficiency_ln>  (1) 
-1.5554168721890369

>  <r_i_glide_ligand_efficiency_sa>  (1) 
-0.67082618030399377

>  <r_i_glide_lipo>  (1) 
-4.328787604215699

>  <r_i_glide_metal>  (1) 
-0

>  <r_i_glide_rewards>  (1) 
-1.3709720541488828

>  <r_lp_Energy>  (1) 
56.228467999999999

>  <r_lp_tautomer_probability>  (1) 
1

>  <s_epik_Chemistry_Notes>  (1) 
This compound has a N-S or N-O group and may undergo hydrolysis at high or low pH.

>  <s_epik_cmdline>  (1) 
J2VwaWtfcHl0aG9uJywgJy1waHQnLCAnMS4wJywgJy1waCcsICc3LjQnLCAnLXRuJywgJzgnLCAnLW1hJywgJzUwMCcsICctaW1hZScsICc8aW5maWxlLm1hZT4nLCAnLW9tYWUnLCAnPG91dGZpbGUubWFlPic=

>  <s_epik_input>  (1) 
Tz1DKFtPSF0pW0NIMl1jMVtjSF1bY0hdW2NIXWMoW2NIXTEpT1tDSDJdW0NIMl1OKE8yKVtDQEhdKFtDSDNdKUMoPU8pW0NAQEhdKFtDQEBIXTIzKVtDQEhdM1tDQEhdNFtDQEBIXShPW0NIM10pW0NAQEhdKFtPSF0pW0NAQEhdKFtDQEBIXTQ1KVtDSDJdW0NIMl1bQ0gyXVtDSDJdNQ==

>  <s_glide_docking_method>  (1) 
confgen

>  <s_i_glide_gridfile>  (1) 
gpcr_5ht2c_6bqh_protein_autoprepared_prepared

>  <s_lp_Force_Field>  (1) 
S-OPLS

>  <s_lp_Variant>  (1) 
DiffSBDD_72_num_sample_100-1

>  <s_m_source_file>  (1) 
generated__ligand_DiffSBDD_2026-05-06_prepared.sdf

>  <GenAI_Model>  (1) 
DiffSBDD

>  <Protein>  (1) 
GPCR_5HT2C

$$$$
DiffSBDD_0_num_sample_100
     RDKit          3D

  0  0  0  0  0  0  0  0  0  0999 V3000
M  V30 BEGIN CTAB
M  V30 COUNTS 60 62 0 0 1
M  V30 BEGIN ATOM
M  V30 1 C 38.850174 28.022127 59.885572 0
M  V30 2 C 39.564202 28.627369 55.937250 0 CFG=1
M  V30 3 C 38.124740 35.134800 61.118971 0
M  V30 4 C 38.854703 32.854002 58.995554 0
M  V30 5 C 39.690512 28.960946 60.563755 0
M  V30 6 C 41.283408 28.821521 58.548065 0
M  V30 7 C 40.185706 34.157184 61.989946 0
M  V30 8 C 38.414314 36.339565 61.786662 0
M  V30 9 C 39.008959 34.042968 61.219901 0
M  V30 10 C 38.519507 28.986741 53.669340 0 CFG=2
M  V30 11 N 39.028248 31.073315 56.070895 0 CHG=1
M  V30 12 C 38.300675 32.247153 56.606570 0
M  V30 13 C 38.121694 32.156624 58.108808 0
M  V30 14 C 39.589324 36.454647 62.555228 0
M  V30 15 F 41.605471 35.472687 63.396130 0
M  V30 16 C 40.476354 35.362345 62.657015 0
M  V30 17 C 38.698294 32.747651 60.502848 0 CFG=1
M  V30 18 C 40.837674 29.352355 59.956326 0
M  V30 19 N 36.428868 31.673352 61.296653 0
M  V30 20 C 38.644730 29.721412 56.564172 0
M  V30 21 C 39.275941 27.462096 58.769254 0
M  V30 22 C 39.944841 27.404230 56.829398 0 CFG=1
M  V30 23 N 39.000466 28.068043 54.703624 0
M  V30 24 O 39.867193 37.621445 63.198341 0
M  V30 25 C 37.821126 28.159213 52.567595 0
M  V30 26 C 39.643636 29.885418 53.114080 0
M  V30 27 C 38.758002 27.323954 51.678651 0
M  V30 28 N 40.479810 27.646432 58.192313 0
M  V30 29 S 38.527938 26.452968 57.604838 0
M  V30 30 C 37.424441 32.149757 60.946807 0
M  V30 31 Cl 39.235914 29.618518 62.092163 0
M  V30 32 H 37.867407 27.827959 60.253514 0
M  V30 33 H 40.503803 29.104373 55.661579 0
M  V30 34 H 37.223224 35.049821 60.529907 0
M  V30 35 H 39.617339 33.535212 58.639102 0
M  V30 36 H 41.067404 29.617698 57.853824 0
M  V30 37 H 42.346983 28.581239 58.546423 0
M  V30 38 H 40.866043 33.321156 62.068898 0
M  V30 39 H 37.736001 37.174829 61.710419 0
M  V30 40 H 37.742794 29.617958 54.103037 0
M  V30 41 H 38.912004 31.085349 55.066826 0
M  V30 42 H 37.344737 32.341178 56.100634 0
M  V30 43 H 38.866587 33.146527 56.354529 0
M  V30 44 H 37.354907 31.476919 58.461048 0
M  V30 45 H 39.465954 32.041061 60.809951 0
M  V30 46 H 41.467207 30.077541 60.429766 0
M  V30 47 H 38.750496 29.725582 57.645459 0
M  V30 48 H 37.590153 29.523960 56.365514 0
M  V30 49 H 40.611282 26.708603 56.315465 0
M  V30 50 H 38.287787 27.384195 54.924558 0
M  V30 51 H 40.639375 37.584707 63.754276 0
M  V30 52 H 37.076798 27.502732 53.021240 0
M  V30 53 H 37.255611 28.824022 51.921112 0
M  V30 54 H 39.245281 30.651036 52.458789 0
M  V30 55 H 40.217580 30.400401 53.879926 0
M  V30 56 H 40.352207 29.321242 52.517937 0
M  V30 57 H 38.192188 26.784083 50.924497 0
M  V30 58 H 39.462292 27.942353 51.126108 0
M  V30 59 H 39.321631 26.596984 52.263316 0
M  V30 60 H 40.007649 31.208983 56.274977 0
M  V30 END ATOM
M  V30 BEGIN BOND
M  V30 1 1 5 1
M  V30 2 2 8 3
M  V30 3 1 9 3
M  V30 4 2 9 7
M  V30 5 1 12 11
M  V30 6 2 13 4
M  V30 7 1 13 12
M  V30 8 1 14 8
M  V30 9 1 16 7
M  V30 10 2 16 14
M  V30 11 1 16 15
M  V30 12 1 17 4
M  V30 13 1 17 9
M  V30 14 2 18 5
M  V30 15 1 18 6
M  V30 16 1 20 2
M  V30 17 1 20 11
M  V30 18 2 21 1
M  V30 19 1 22 2
M  V30 20 1 23 2
M  V30 21 1 23 10
M  V30 22 1 24 14
M  V30 23 1 25 10
M  V30 24 1 26 10
M  V30 25 1 27 25
M  V30 26 1 28 6
M  V30 27 1 28 21
M  V30 28 1 28 22
M  V30 29 1 29 21
M  V30 30 1 29 22
M  V30 31 1 30 17
M  V30 32 3 30 19
M  V30 33 1 31 5
M  V30 34 1 32 1
M  V30 35 1 2 33 CFG=3
M  V30 36 1 34 3
M  V30 37 1 35 4
M  V30 38 1 36 6
M  V30 39 1 37 6
M  V30 40 1 38 7
M  V30 41 1 39 8
M  V30 42 1 10 40 CFG=1
M  V30 43 1 41 11
M  V30 44 1 42 12
M  V30 45 1 43 12
M  V30 46 1 44 13
M  V30 47 1 17 45 CFG=1
M  V30 48 1 46 18
M  V30 49 1 47 20
M  V30 50 1 48 20
M  V30 51 1 22 49 CFG=3
M  V30 52 1 50 23
M  V30 53 1 51 24
M  V30 54 1 52 25
M  V30 55 1 53 25
M  V30 56 1 54 26
M  V30 57 1 55 26
M  V30 58 1 56 26
M  V30 59 1 57 27
M  V30 60 1 58 27
M  V30 61 1 59 27
M  V30 62 1 60 11
M  V30 END BOND
M  V30 END CTAB
M  END
>  <i_epik_Tot_Q>  (1) 
1

>  <i_epik_Tot_abs_Q>  (1) 
1

>  <i_i_glide_confnum>  (1) 
597

>  <i_i_glide_lignum>  (1) 
5

>  <i_i_glide_posenum>  (1) 
107

>  <i_i_glide_rotatable_bonds>  (1) 
11

>  <i_lp_mmshare_version>  (1) 
72125

>  <i_m_source_file_index>  (1) 
1

>  <i_f3d_flags>  (1) 
0

>  <num_sample>  (1) 
100

>  <b_lp_Chiralities_Consistent>  (1) 
1

>  <r_epik_Charging_Adjusted_Penalty>  (1) 
1.8065071523224812

>  <r_epik_Ionization_Penalty>  (1) 
0.92614417087394063

>  <r_epik_Ionization_Penalty_Charging>  (1) 
0.760298405215594

>  <r_epik_Ionization_Penalty_Neutral>  (1) 
0.16584576565834661

>  <r_epik_State_Penalty>  (1) 
1.0462087471068873

>  <r_glide_ring_energy>  (1) 
0

>  <r_i_docking_score>  (1) 
-7.0253732699610625

>  <r_i_glide_ecoul>  (1) 
-5.7885620771961195

>  <r_i_glide_eff_state_penalty>  (1) 
1.0462087471068873

>  <r_i_glide_einternal>  (1) 
14.822355938378081

>  <r_i_glide_emodel>  (1) 
-62.585743542949118

>  <r_i_glide_emodel_strain>  (1) 
0.76056742741329231

>  <r_i_glide_energy>  (1) 
-43.85772996345348

>  <r_i_glide_erotb>  (1) 
0.74887478347211667

>  <r_i_glide_esite>  (1) 
-0.0279322707321598

>  <r_i_glide_evdw>  (1) 
-38.069167886257361

>  <r_i_glide_gscore>  (1) 
-8.07158201706795

>  <r_i_glide_gscore_strain>  (1) 
0

>  <r_i_glide_hbond>  (1) 
-0.60799999999999998

>  <r_i_glide_ligand_efficiency>  (1) 
-0.22662494419229234

>  <r_i_glide_ligand_efficiency_ln>  (1) 
-1.5844369742101716

>  <r_i_glide_ligand_efficiency_sa>  (1) 
-0.71191521503494648

>  <r_i_glide_lipo>  (1) 
-4.3591961454851376

>  <r_i_glide_metal>  (1) 
-0

>  <r_i_glide_rewards>  (1) 
-1.0535856784304825

>  <r_lp_Energy>  (1) 
41.265557999999999

>  <s_epik_Chemistry_Notes>  (1) 
This compound contains an acetal/aminal-like group ( X-CH(R)-Y where X, Y are N, S, or O) that may be acid/base labile, releasing an aldehyde.

>  <s_epik_cmdline>  (1) 
J2VwaWtfcHl0aG9uJywgJy1waHQnLCAnMS4wJywgJy1waCcsICc3LjQnLCAnLXRuJywgJzgnLCAnLW1hJywgJzUwMCcsICctaW1hZScsICc8aW5maWxlLm1hZT4nLCAnLW9tYWUnLCAnPG91dGZpbGUubWFlPic=

>  <s_epik_input>  (1) 
W0NIXT0xQyhDbCk9W0NIXVtDSDJdTihDMTIpW0NAQEhdKFMyKVtDQEBIXShbTkhdW0NAQEhdKFtDSDNdKVtDSDJdW0NIM10pW0NIMl1bTkhdW0NIMl1cW0NIXT1bQ0hdXFtDQEhdKEMjTiljM1tjSF1bY0hdYyhbT0hdKWMoRilbY0hdMw==

>  <s_glide_docking_method>  (1) 
confgen

>  <s_i_glide_gridfile>  (1) 
gpcr_5ht2c_6bqh_protein_autoprepared_prepared

>  <s_lp_Force_Field>  (1) 
S-OPLS

>  <s_lp_Variant>  (1) 
DiffSBDD_0_num_sample_100-5

>  <s_m_source_file>  (1) 
generated__ligand_DiffSBDD_2026-05-06_prepared.sdf

>  <GenAI_Model>  (1) 
DiffSBDD

>  <Protein>  (1) 
GPCR_5HT2C

$$$$
DiffSBDD_80_num_sample_100
     RDKit          3D

  0  0  0  0  0  0  0  0  0  0999 V3000
M  V30 BEGIN CTAB
M  V30 COUNTS 73 76 0 0 1
M  V30 BEGIN ATOM
M  V30 1 C 41.204462 27.817012 59.273006 0
M  V30 2 C 38.432130 31.266345 61.934151 0
M  V30 3 N 37.623053 32.112099 61.027225 0 CFG=2 CHG=1
M  V30 4 O 39.863051 29.005347 56.991489 0
M  V30 5 O 40.267403 29.557736 63.237314 0
M  V30 6 O 42.183061 27.910274 58.253505 0
M  V30 7 C 35.609480 34.085426 60.179514 0 CFG=2
M  V30 8 C 37.106174 34.453737 60.208029 0 CFG=1
M  V30 9 C 38.563154 27.160027 53.444433 0
M  V30 10 C 37.923614 30.267681 56.695188 0
M  V30 11 O 39.614169 31.205942 53.540003 0
M  V30 12 C 39.276803 29.885033 53.511305 0
M  V30 13 O 39.657491 36.233546 61.911461 0
M  V30 14 C 38.704014 27.815931 54.677560 0
M  V30 15 C 37.253747 36.431927 61.893938 0
M  V30 16 C 39.142159 29.221408 52.277060 0
M  V30 17 O 37.090436 30.039354 58.881140 0
M  V30 18 C 35.417523 32.569075 60.046672 0
M  V30 19 O 38.667403 27.221417 51.053500 0
M  V30 20 C 37.285974 35.960348 60.442729 0
M  V30 21 C 38.789094 27.860083 52.245045 0
M  V30 22 C 39.245532 29.063992 58.270632 0 CFG=1
M  V30 23 C 39.688923 30.784486 61.245396 0 CFG=2
M  V30 24 C 40.355124 29.100710 59.356892 0 CFG=1
M  V30 25 C 37.932454 33.559113 61.168226 0
M  V30 26 C 38.282174 30.253430 58.163529 0 CFG=1
M  V30 27 C 38.652505 36.647386 62.488785 0
M  V30 28 C 39.809432 29.348222 60.763039 0 CFG=1
M  V30 29 C 37.455483 36.821508 59.425570 0
M  V30 30 C 33.787274 34.417953 58.646150 0
M  V30 31 C 40.666003 29.848467 61.917578 0 CFG=2
M  V30 32 C 39.239027 29.871184 56.053828 0 CFG=2
M  V30 33 C 39.067407 29.177748 54.716523 0
M  V30 34 C 36.175345 31.835728 61.141189 0
M  V30 35 O 35.090773 34.777260 59.053493 0
M  V30 36 H 41.717452 27.625702 60.215240 0
M  V30 37 H 40.567643 26.958978 59.053497 0
M  V30 38 H 37.867423 30.397496 62.267101 0
M  V30 39 H 38.706097 31.817517 62.833757 0
M  V30 40 H 39.605490 28.875713 63.260558 0
M  V30 41 H 42.613411 27.071972 58.159237 0
M  V30 42 H 35.116307 34.421408 61.091671 0
M  V30 43 H 37.487716 34.246275 59.206006 0
M  V30 44 H 38.288572 26.116097 53.419681 0
M  V30 45 H 38.098840 26.463915 51.085004 0
M  V30 46 H 37.543732 31.225900 56.338631 0
M  V30 47 H 37.165185 29.510643 56.488839 0
M  V30 48 H 39.771806 31.587641 52.689223 0
M  V30 49 H 38.538799 27.274450 55.597444 0
M  V30 50 H 36.736768 37.391413 61.927528 0
M  V30 51 H 36.669940 35.751128 62.512714 0
M  V30 52 H 39.309838 29.756013 51.353153 0
M  V30 53 H 36.390563 30.461474 58.392124 0
M  V30 54 H 35.758867 32.248807 59.062768 0
M  V30 55 H 34.364158 32.301132 60.117135 0
M  V30 56 H 38.657313 28.150667 58.376348 0
M  V30 57 H 40.177158 31.556383 60.653512 0
M  V30 58 H 41.027773 29.924879 59.156945 0
M  V30 59 H 37.756796 33.825296 62.205440 0
M  V30 60 H 38.995781 33.719364 60.984778 0
M  V30 61 H 38.764000 31.191875 58.437495 0
M  V30 62 H 38.681256 37.178100 63.440448 0
M  V30 63 H 39.024119 28.650102 61.046119 0
M  V30 64 H 37.581002 37.879039 59.605679 0
M  V30 65 H 37.467398 36.477781 58.401172 0
M  V30 66 H 33.453677 35.094163 57.856902 0
M  V30 67 H 33.779984 33.409622 58.253501 0
M  V30 68 H 33.067393 34.421427 59.453534 0
M  V30 69 H 41.713663 30.106896 61.853488 0
M  V30 70 H 39.876844 30.750715 55.971052 0
M  V30 71 H 35.978460 30.768993 61.053477 0
M  V30 72 H 35.807947 32.135341 62.114728 0
M  V30 73 H 37.861209 31.830149 60.085182 0
M  V30 END ATOM
M  V30 BEGIN BOND
M  V30 1 1 3 2
M  V30 2 1 6 1
M  V30 3 1 8 7
M  V30 4 1 12 11
M  V30 5 2 14 9
M  V30 6 1 16 12
M  V30 7 1 18 7
M  V30 8 1 20 8
M  V30 9 1 20 15
M  V30 10 1 21 9
M  V30 11 2 21 16
M  V30 12 1 21 19
M  V30 13 1 22 4
M  V30 14 1 23 2
M  V30 15 1 24 1
M  V30 16 1 24 22
M  V30 17 1 25 3
M  V30 18 1 25 8
M  V30 19 1 26 10
M  V30 20 1 26 17
M  V30 21 1 26 22
M  V30 22 2 27 13
M  V30 23 1 27 15
M  V30 24 1 28 23
M  V30 25 1 28 24
M  V30 26 2 29 20
M  V30 27 1 31 5
M  V30 28 1 31 23
M  V30 29 1 31 28
M  V30 30 1 32 4
M  V30 31 1 32 10
M  V30 32 2 33 12
M  V30 33 1 33 14
M  V30 34 1 33 32
M  V30 35 1 34 3
M  V30 36 1 34 18
M  V30 37 1 35 7
M  V30 38 1 35 30
M  V30 39 1 36 1
M  V30 40 1 37 1
M  V30 41 1 38 2
M  V30 42 1 39 2
M  V30 43 1 40 5
M  V30 44 1 41 6
M  V30 45 1 7 42 CFG=1
M  V30 46 1 8 43 CFG=3
M  V30 47 1 44 9
M  V30 48 1 45 19
M  V30 49 1 46 10
M  V30 50 1 47 10
M  V30 51 1 48 11
M  V30 52 1 49 14
M  V30 53 1 50 15
M  V30 54 1 51 15
M  V30 55 1 52 16
M  V30 56 1 53 17
M  V30 57 1 54 18
M  V30 58 1 55 18
M  V30 59 1 22 56 CFG=1
M  V30 60 1 23 57 CFG=3
M  V30 61 1 24 58 CFG=3
M  V30 62 1 59 25
M  V30 63 1 60 25
M  V30 64 1 26 61 CFG=1
M  V30 65 1 62 27
M  V30 66 1 28 63 CFG=1
M  V30 67 1 64 29
M  V30 68 1 65 29
M  V30 69 1 66 30
M  V30 70 1 67 30
M  V30 71 1 68 30
M  V30 72 1 31 69 CFG=3
M  V30 73 1 32 70 CFG=3
M  V30 74 1 71 34
M  V30 75 1 72 34
M  V30 76 1 3 73 CFG=3
M  V30 END BOND
M  V30 END CTAB
M  END
>  <i_epik_Tot_Q>  (1) 
1

>  <i_epik_Tot_abs_Q>  (1) 
1

>  <i_i_glide_confnum>  (1) 
341

>  <i_i_glide_lignum>  (1) 
211

>  <i_i_glide_posenum>  (1) 
111

>  <i_i_glide_rotatable_bonds>  (1) 
15

>  <i_lp_mmshare_version>  (1) 
72125

>  <i_m_source_file_index>  (1) 
81

>  <i_f3d_flags>  (1) 
0

>  <num_sample>  (1) 
100

>  <b_lp_Chiralities_Consistent>  (1) 
1

>  <r_epik_Charging_Adjusted_Penalty>  (1) 
0.034071705691259377

>  <r_epik_Ionization_Penalty>  (1) 
0.043305258844254187

>  <r_epik_Ionization_Penalty_Charging>  (1) 
0.034071705691259377

>  <r_epik_Ionization_Penalty_Neutral>  (1) 
0.009233553152994808

>  <r_epik_State_Penalty>  (1) 
-0

>  <r_glide_ring_energy>  (1) 
0

>  <r_i_docking_score>  (1) 
-7.0218918566841024

>  <r_i_glide_ecoul>  (1) 
-4.2855342857623402

>  <r_i_glide_eff_state_penalty>  (1) 
-0

>  <r_i_glide_einternal>  (1) 
8.8908693494960751

>  <r_i_glide_emodel>  (1) 
-60.201432217814933

>  <r_i_glide_emodel_strain>  (1) 
3.2278410297392526

>  <r_i_glide_energy>  (1) 
-44.962430755197872

>  <r_i_glide_erotb>  (1) 
0.67144220787932085

>  <r_i_glide_esite>  (1) 
0

>  <r_i_glide_evdw>  (1) 
-40.676896469435533

>  <r_i_glide_gscore>  (1) 
-7.0218918566841024

>  <r_i_glide_gscore_strain>  (1) 
0

>  <r_i_glide_hbond>  (1) 
-0.39101786958304602

>  <r_i_glide_ligand_efficiency>  (1) 
-0.20062548161954577

>  <r_i_glide_ligand_efficiency_ln>  (1) 
-1.5414611050353484

>  <r_i_glide_ligand_efficiency_sa>  (1) 
-0.65625925389105644

>  <r_i_glide_lipo>  (1) 
-3.6884278129647532

>  <r_i_glide_metal>  (1) 
-0

>  <r_i_glide_rewards>  (1) 
-0.93721341567949634

>  <r_lp_Energy>  (1) 
32.799517000000002

>  <r_lp_tautomer_probability>  (1) 
1

>  <s_epik_cmdline>  (1) 
J2VwaWtfcHl0aG9uJywgJy1waHQnLCAnMS4wJywgJy1waCcsICc3LjQnLCAnLXRuJywgJzgnLCAnLW1hJywgJzUwMCcsICctaW1hZScsICc8aW5maWxlLm1hZT4nLCAnLW9tYWUnLCAnPG91dGZpbGUubWFlPic=

>  <s_epik_input>  (1) 
Tz1bQ0hdW0NIMl1DKD1bQ0gyXSlbQ0BASF0oW0NASF0oW0NIMl1bQ0gyXTEpT1tDSDNdKVtDSDJdTjFbQ0gyXVtDQEBIXTJbQ0BASF0oW0NAQEhdMltPSF0pW0NAQEhdKFtDSDJdW09IXSlbQ0BASF0zT1tDQEhdKFtDSDJdW0NASF0zW09IXSlDND1bQ0hdW0NIMl1DKD1PKVtDSF09QzRbT0hd

>  <s_glide_docking_method>  (1) 
confgen

>  <s_i_glide_gridfile>  (1) 
gpcr_5ht2c_6bqh_protein_autoprepared_prepared

>  <s_lp_Force_Field>  (1) 
S-OPLS

>  <s_lp_Variant>  (1) 
DiffSBDD_80_num_sample_100-7

>  <s_m_source_file>  (1) 
generated__ligand_DiffSBDD_2026-05-06_prepared.sdf

>  <GenAI_Model>  (1) 
DiffSBDD

>  <Protein>  (1) 
GPCR_5HT2C

$$$$
DiffSBDD_77_num_sample_100
     RDKit          3D

  0  0  0  0  0  0  0  0  0  0999 V3000
M  V30 BEGIN CTAB
M  V30 COUNTS 77 79 0 0 1
M  V30 BEGIN ATOM
M  V30 1 C 40.926562 28.962302 66.519478 0
M  V30 2 F 42.732652 26.829819 64.131834 0
M  V30 3 C 39.133110 28.130369 59.850037 0
M  V30 4 C 41.021635 30.212233 65.876694 0
M  V30 5 C 39.388763 30.927657 53.808891 0
M  V30 6 C 39.572517 31.093556 62.785437 0
M  V30 7 C 37.543747 30.500181 58.884984 0
M  V30 8 C 39.004688 31.879775 60.390247 0 CFG=2
M  V30 9 O 38.667865 31.492858 56.318851 0
M  V30 10 C 39.888870 31.039337 52.349020 0
M  V30 11 N 40.669383 35.223796 64.665982 0
M  V30 12 C 41.782819 31.669854 63.938103 0
M  V30 13 C 42.177492 27.927420 64.697341 0
M  V30 14 O 39.863726 26.792950 57.047462 0
M  V30 15 C 40.385472 27.973641 57.617806 0
M  V30 16 C 41.693364 30.321343 64.639946 0
M  V30 17 F 41.408061 26.618685 66.547701 0
M  V30 18 C 40.832670 33.396046 61.345471 0
M  V30 19 O 42.267830 34.416331 66.054881 0
M  V30 20 O 37.581207 32.421494 62.253247 0
M  V30 21 C 41.502756 27.820246 65.929806 0
M  V30 22 C 39.282356 28.621437 52.028444 0
M  V30 23 N 38.939022 29.303722 55.703680 0
M  V30 24 C 41.205709 34.625614 63.446324 0
M  V30 25 C 42.273610 29.175969 64.052238 0
M  V30 26 C 39.314550 28.700035 58.448972 0
M  V30 27 C 41.250271 35.076837 65.865765 0
M  V30 28 C 39.067500 28.420503 53.454439 0
M  V30 29 C 39.603712 33.292701 60.426877 0
M  V30 30 F 39.119864 27.580258 51.194412 0
M  V30 31 C 38.782451 27.025207 53.990630 0
M  V30 32 C 40.392149 32.217353 63.505268 0 CFG=1
M  V30 33 C 38.748892 30.303263 56.617724 0
M  V30 34 N 37.957629 31.824401 59.367863 0
M  V30 35 C 38.576164 29.783612 58.000128 0
M  V30 36 C 39.123924 29.486725 54.292746 0
M  V30 37 C 39.646356 29.803284 51.513975 0
M  V30 38 C 38.464786 31.442426 61.769327 0 CFG=2
M  V30 39 N 40.451024 33.521992 62.770925 0 CFG=2 CHG=1
M  V30 40 H 40.409466 28.878328 67.464355 0
M  V30 41 H 40.098930 27.866138 60.281096 0
M  V30 42 H 38.668062 28.797992 60.563931 0
M  V30 43 H 38.538638 27.221610 59.791156 0
M  V30 44 H 40.576311 31.085864 66.329983 0
M  V30 45 H 38.453645 31.487268 53.872969 0
M  V30 46 H 40.134015 31.421952 54.432508 0
M  V30 47 H 40.262843 30.427597 62.266184 0
M  V30 48 H 39.121505 30.466208 63.557123 0
M  V30 49 H 36.666254 30.635426 58.253512 0
M  V30 50 H 37.173171 29.876057 59.692648 0
M  V30 51 H 39.795920 31.185061 60.107918 0
M  V30 52 H 40.961025 31.221443 52.342381 0
M  V30 53 H 39.467465 31.909752 51.853606 0
M  V30 54 H 39.836819 35.791145 64.590329 0
M  V30 55 H 42.439349 31.575589 63.072801 0
M  V30 56 H 42.287520 32.350221 64.619810 0
M  V30 57 H 40.581934 26.199653 56.873500 0
M  V30 58 H 41.179843 27.669292 58.300236 0
M  V30 59 H 40.915659 28.585274 56.889387 0
M  V30 60 H 41.524288 32.568878 61.180976 0
M  V30 61 H 41.375522 34.293534 61.053520 0
M  V30 62 H 36.992408 32.632611 61.538674 0
M  V30 63 H 38.902078 28.344863 56.031375 0
M  V30 64 H 42.256902 34.351022 63.547815 0
M  V30 65 H 41.223196 35.485055 62.774536 0
M  V30 66 H 42.789700 29.252920 63.106257 0
M  V30 67 H 40.697644 35.622318 66.646057 0
M  V30 68 H 39.869941 33.568064 59.406686 0
M  V30 69 H 38.856983 34.034002 60.713890 0
M  V30 70 H 38.346010 26.400910 53.212609 0
M  V30 71 H 39.705547 26.551137 54.323773 0
M  V30 72 H 38.069485 27.036738 54.815152 0
M  V30 73 H 39.867115 32.453809 64.428772 0
M  V30 74 H 38.186728 32.405075 58.563193 0
M  V30 75 H 39.799215 29.899536 50.448021 0
M  V30 76 H 37.867990 30.540378 61.652343 0
M  V30 77 H 39.488174 33.831712 62.738462 0
M  V30 END ATOM
M  V30 BEGIN BOND
M  V30 1 2 4 1
M  V30 2 1 10 5
M  V30 3 1 13 2
M  V30 4 1 15 14
M  V30 5 1 16 4
M  V30 6 1 16 12
M  V30 7 1 21 1
M  V30 8 2 21 13
M  V30 9 1 21 17
M  V30 10 1 24 11
M  V30 11 1 25 13
M  V30 12 2 25 16
M  V30 13 1 26 3
M  V30 14 1 26 15
M  V30 15 1 27 11
M  V30 16 2 27 19
M  V30 17 1 28 22
M  V30 18 1 29 8
M  V30 19 1 29 18
M  V30 20 1 30 22
M  V30 21 1 31 28
M  V30 22 1 32 6
M  V30 23 1 32 12
M  V30 24 2 33 9
M  V30 25 1 33 23
M  V30 26 1 34 7
M  V30 27 1 34 8
M  V30 28 1 35 7
M  V30 29 2 35 26
M  V30 30 1 35 33
M  V30 31 1 36 5
M  V30 32 1 36 23
M  V30 33 2 36 28
M  V30 34 1 37 10
M  V30 35 2 37 22
M  V30 36 1 38 6
M  V30 37 1 38 8
M  V30 38 1 38 20
M  V30 39 1 39 18
M  V30 40 1 39 24
M  V30 41 1 39 32
M  V30 42 1 40 1
M  V30 43 1 41 3
M  V30 44 1 42 3
M  V30 45 1 43 3
M  V30 46 1 44 4
M  V30 47 1 45 5
M  V30 48 1 46 5
M  V30 49 1 47 6
M  V30 50 1 48 6
M  V30 51 1 49 7
M  V30 52 1 50 7
M  V30 53 1 8 51 CFG=3
M  V30 54 1 52 10
M  V30 55 1 53 10
M  V30 56 1 54 11
M  V30 57 1 55 12
M  V30 58 1 56 12
M  V30 59 1 57 14
M  V30 60 1 58 15
M  V30 61 1 59 15
M  V30 62 1 60 18
M  V30 63 1 61 18
M  V30 64 1 62 20
M  V30 65 1 63 23
M  V30 66 1 64 24
M  V30 67 1 65 24
M  V30 68 1 66 25
M  V30 69 1 67 27
M  V30 70 1 68 29
M  V30 71 1 69 29
M  V30 72 1 70 31
M  V30 73 1 71 31
M  V30 74 1 72 31
M  V30 75 1 32 73 CFG=1
M  V30 76 1 74 34
M  V30 77 1 75 37
M  V30 78 1 38 76 CFG=3
M  V30 79 1 39 77 CFG=3
M  V30 END BOND
M  V30 END CTAB
M  END
>  <i_epik_Tot_Q>  (1) 
1

>  <i_epik_Tot_abs_Q>  (1) 
1

>  <i_i_glide_confnum>  (1) 
10465

>  <i_i_glide_lignum>  (1) 
195

>  <i_i_glide_posenum>  (1) 
146

>  <i_i_glide_rotatable_bonds>  (1) 
14

>  <i_lp_mmshare_version>  (1) 
72125

>  <i_m_source_file_index>  (1) 
78

>  <i_f3d_flags>  (1) 
0

>  <num_sample>  (1) 
100

>  <b_lp_Chiralities_Consistent>  (1) 
1

>  <r_epik_Charging_Adjusted_Penalty>  (1) 
1.2599673287133732

>  <r_epik_Ionization_Penalty>  (1) 
0.56885031527891383

>  <r_epik_Ionization_Penalty_Charging>  (1) 
0.52000942162343

>  <r_epik_Ionization_Penalty_Neutral>  (1) 
0.048840893655483872

>  <r_epik_State_Penalty>  (1) 
0.73995790708994325

>  <r_glide_ring_energy>  (1) 
0

>  <r_i_docking_score>  (1) 
-7.0217374607994172

>  <r_i_glide_ecoul>  (1) 
-1.9035788421312756

>  <r_i_glide_eff_state_penalty>  (1) 
0.73995790708994325

>  <r_i_glide_einternal>  (1) 
19.98518240877543

>  <r_i_glide_emodel>  (1) 
-63.200527312985123

>  <r_i_glide_emodel_strain>  (1) 
0.7612181981918269

>  <r_i_glide_energy>  (1) 
-49.029480200516645

>  <r_i_glide_erotb>  (1) 
0.67934156738045093

>  <r_i_glide_esite>  (1) 
-0.027959839347115691

>  <r_i_glide_evdw>  (1) 
-47.12590135838537

>  <r_i_glide_gscore>  (1) 
-7.7616953678893603

>  <r_i_glide_gscore_strain>  (1) 
0

>  <r_i_glide_hbond>  (1) 
-0.00095954817080328922

>  <r_i_glide_ligand_efficiency>  (1) 
-0.18004455027690813

>  <r_i_glide_ligand_efficiency_ln>  (1) 
-1.5056598354664945

>  <r_i_glide_ligand_efficiency_sa>  (1) 
-0.61056913915139044

>  <r_i_glide_lipo>  (1) 
-4.2085046165097557

>  <r_i_glide_metal>  (1) 
-0

>  <r_i_glide_rewards>  (1) 
-1.5617810370031775

>  <r_lp_Energy>  (1) 
52.196855999999997

>  <s_epik_Chemistry_Notes>  (1) 
This compound contains an acetal/aminal-like group ( X-CH(R)-Y where X, Y are N, S, or O) that may be acid/base labile, releasing an aldehyde.

>  <s_epik_cmdline>  (1) 
J2VwaWtfcHl0aG9uJywgJy1waHQnLCAnMS4wJywgJy1waCcsICc3LjQnLCAnLXRuJywgJzgnLCAnLW1hJywgJzUwMCcsICctaW1hZScsICc8aW5maWxlLm1hZT4nLCAnLW9tYWUnLCAnPG91dGZpbGUubWFlPic=

>  <s_epik_input>  (1) 
RmMxYyhGKVtjSF1bY0hdYyhbY0hdMSlbQ0gyXVtDQEhdKFtDSDJdW0NASF0yW09IXSlOKFtDSDJdW05IXVtDSF09TylbQ0gyXVtDSDJdW0NAQEhdMltOSF1bQ0gyXS9DKD1DKFxbQ0gzXSlbQ0gyXVtPSF0pQyg9TylbTkhdQyg9QzNbQ0gzXSlbQ0gyXVtDSDJdW0NIXT1DM0Y=

>  <s_glide_docking_method>  (1) 
confgen

>  <s_i_glide_gridfile>  (1) 
gpcr_5ht2c_6bqh_protein_autoprepared_prepared

>  <s_lp_Force_Field>  (1) 
S-OPLS

>  <s_lp_Variant>  (1) 
DiffSBDD_77_num_sample_100-6

>  <s_m_source_file>  (1) 
generated__ligand_DiffSBDD_2026-05-06_prepared.sdf

>  <GenAI_Model>  (1) 
DiffSBDD

>  <Protein>  (1) 
GPCR_5HT2C

$$$$
DiffSBDD_14_num_sample_100
     RDKit          3D

  0  0  0  0  0  0  0  0  0  0999 V3000
M  V30 BEGIN CTAB
M  V30 COUNTS 76 78 0 0 1
M  V30 BEGIN ATOM
M  V30 1 C 38.881755 27.448355 52.213178 0
M  V30 2 C 38.913616 28.022288 53.643416 0 CFG=1
M  V30 3 C 38.820285 31.511149 59.492845 0
M  V30 4 C 39.620325 30.252182 52.646420 0
M  V30 5 C 38.706637 29.556875 53.690354 0 CFG=2
M  V30 6 C 40.375149 30.391446 50.212764 0
M  V30 7 O 35.938340 38.520322 62.255474 0
M  V30 8 C 36.864764 26.032193 56.852963 0
M  V30 9 C 36.209533 34.699484 61.640420 0
M  V30 10 C 38.755001 24.591608 56.828199 0
M  V30 11 C 39.518740 29.631823 51.235917 0 CFG=1
M  V30 12 O 37.867484 32.264093 54.653597 0
M  V30 13 O 36.667554 24.899878 57.665014 0
M  V30 14 N 36.645654 38.243558 61.060897 0
M  V30 15 C 38.429495 31.885266 56.916466 0
M  V30 16 O 37.604755 36.599541 59.853538 0
M  V30 17 C 38.983235 30.132255 55.105408 0
M  V30 18 N 37.067264 30.754924 58.652868 0 CHG=1
M  V30 19 O 37.929375 27.357701 54.416160 0
M  V30 20 C 37.921345 24.447856 58.090322 0
M  V30 21 C 38.294133 26.024067 54.763792 0
M  V30 22 C 37.087703 36.977890 60.900098 0
M  V30 23 C 37.372292 31.371040 59.937600 0 CFG=2
M  V30 24 C 36.498544 32.596259 60.200827 0 CFG=2
M  V30 25 C 36.938543 35.990272 62.083747 0
M  V30 26 C 38.417129 30.957155 58.133364 0 CFG=2
M  V30 27 C 37.110214 33.503369 61.292353 0
M  V30 28 C 38.278067 25.925148 56.288217 0 CFG=1
M  V30 29 C 37.999745 31.221365 55.592675 0 CFG=2
M  V30 30 C 35.068071 32.146480 60.542095 0
M  V30 31 C 39.871511 28.156259 51.292144 0
M  V30 32 H 37.870928 27.521119 51.806954 0
M  V30 33 H 39.135910 26.396936 52.218007 0
M  V30 34 H 39.867391 27.811305 54.106452 0
M  V30 35 H 39.187341 32.538086 59.455745 0
M  V30 36 H 39.500530 30.858629 60.041467 0
M  V30 37 H 39.413699 31.322541 52.612277 0
M  V30 38 H 40.657749 30.182571 52.972060 0
M  V30 39 H 37.664519 29.744251 53.438204 0
M  V30 40 H 41.426340 30.405484 50.503181 0
M  V30 41 H 40.308074 29.927601 49.228801 0
M  V30 42 H 40.043207 31.425435 50.111095 0
M  V30 43 H 35.739504 39.443590 62.190136 0
M  V30 44 H 36.749927 26.935742 57.453909 0
M  V30 45 H 36.114344 26.021178 56.066631 0
M  V30 46 H 35.493471 34.402300 62.409769 0
M  V30 47 H 35.604914 34.909248 60.756301 0
M  V30 48 H 38.490277 23.801535 56.128091 0
M  V30 49 H 39.829928 24.555187 57.008662 0
M  V30 50 H 38.485494 29.621760 50.906323 0
M  V30 51 H 37.128498 32.804782 54.915538 0
M  V30 52 H 36.582660 39.008424 60.395764 0
M  V30 53 H 37.797782 32.754430 57.110987 0
M  V30 54 H 39.432305 32.293583 56.782426 0
M  V30 55 H 40.006293 30.506365 55.161578 0
M  V30 56 H 38.943897 29.311709 55.820152 0
M  V30 57 H 36.829988 29.778171 58.740422 0
M  V30 58 H 38.267377 25.115722 58.880255 0
M  V30 59 H 37.867392 23.424320 58.459452 0
M  V30 60 H 37.586764 25.328724 54.311685 0
M  V30 61 H 39.282199 25.733857 54.404148 0
M  V30 62 H 37.295843 30.621480 60.727075 0
M  V30 63 H 36.442706 33.202030 59.292966 0
M  V30 64 H 37.939892 35.752007 62.443793 0
M  V30 65 H 36.421466 36.381187 62.957724 0
M  V30 66 H 38.900804 29.995222 57.960913 0
M  V30 67 H 38.070726 33.879985 60.942567 0
M  V30 68 H 37.323306 32.924001 62.191598 0
M  V30 69 H 38.894779 26.716425 56.716383 0
M  V30 70 H 37.020551 30.764820 55.704841 0
M  V30 71 H 35.059611 31.481923 61.405583 0
M  V30 72 H 34.401514 32.982437 60.752653 0
M  V30 73 H 34.625181 31.621546 59.697528 0
M  V30 74 H 39.834130 27.713134 50.295682 0
M  V30 75 H 40.888593 28.045893 51.659459 0
M  V30 76 H 36.376876 31.267753 58.093471 0
M  V30 END ATOM
M  V30 BEGIN BOND
M  V30 1 1 2 1
M  V30 2 1 5 2
M  V30 3 1 5 4
M  V30 4 1 11 4
M  V30 5 1 11 6
M  V30 6 1 13 8
M  V30 7 1 14 7
M  V30 8 1 17 5
M  V30 9 1 19 2
M  V30 10 1 20 10
M  V30 11 1 20 13
M  V30 12 1 21 19
M  V30 13 1 22 14
M  V30 14 2 22 16
M  V30 15 1 23 3
M  V30 16 1 23 18
M  V30 17 1 24 23
M  V30 18 1 25 9
M  V30 19 1 25 22
M  V30 20 1 26 3
M  V30 21 1 26 15
M  V30 22 1 26 18
M  V30 23 1 27 9
M  V30 24 1 27 24
M  V30 25 1 28 8
M  V30 26 1 28 10
M  V30 27 1 28 21
M  V30 28 1 29 12
M  V30 29 1 29 15
M  V30 30 1 29 17
M  V30 31 1 30 24
M  V30 32 1 31 1
M  V30 33 1 31 11
M  V30 34 1 32 1
M  V30 35 1 33 1
M  V30 36 1 2 34 CFG=1
M  V30 37 1 35 3
M  V30 38 1 36 3
M  V30 39 1 37 4
M  V30 40 1 38 4
M  V30 41 1 5 39 CFG=3
M  V30 42 1 40 6
M  V30 43 1 41 6
M  V30 44 1 42 6
M  V30 45 1 43 7
M  V30 46 1 44 8
M  V30 47 1 45 8
M  V30 48 1 46 9
M  V30 49 1 47 9
M  V30 50 1 48 10
M  V30 51 1 49 10
M  V30 52 1 11 50 CFG=3
M  V30 53 1 51 12
M  V30 54 1 52 14
M  V30 55 1 53 15
M  V30 56 1 54 15
M  V30 57 1 55 17
M  V30 58 1 56 17
M  V30 59 1 57 18
M  V30 60 1 58 20
M  V30 61 1 59 20
M  V30 62 1 60 21
M  V30 63 1 61 21
M  V30 64 1 23 62 CFG=1
M  V30 65 1 24 63 CFG=3
M  V30 66 1 64 25
M  V30 67 1 65 25
M  V30 68 1 26 66 CFG=3
M  V30 69 1 67 27
M  V30 70 1 68 27
M  V30 71 1 28 69 CFG=1
M  V30 72 1 29 70 CFG=1
M  V30 73 1 71 30
M  V30 74 1 72 30
M  V30 75 1 73 30
M  V30 76 1 74 31
M  V30 77 1 75 31
M  V30 78 1 76 18
M  V30 END BOND
M  V30 END CTAB
M  END
>  <i_epik_Tot_Q>  (1) 
1

>  <i_epik_Tot_abs_Q>  (1) 
1

>  <i_i_glide_confnum>  (1) 
2664

>  <i_i_glide_lignum>  (1) 
32

>  <i_i_glide_posenum>  (1) 
53

>  <i_i_glide_rotatable_bonds>  (1) 
15

>  <i_lp_mmshare_version>  (1) 
72125

>  <i_m_source_file_index>  (1) 
15

>  <i_f3d_flags>  (1) 
0

>  <num_sample>  (1) 
100

>  <b_lp_Chiralities_Consistent>  (1) 
1

>  <r_epik_Charging_Adjusted_Penalty>  (1) 
0.00011085431656654283

>  <r_epik_Ionization_Penalty>  (1) 
0.0093428253379992804

>  <r_epik_Ionization_Penalty_Charging>  (1) 
0.00011085431656654283

>  <r_epik_Ionization_Penalty_Neutral>  (1) 
0.0092319710214327378

>  <r_epik_State_Penalty>  (1) 
-0

>  <r_glide_ring_energy>  (1) 
0

>  <r_i_docking_score>  (1) 
-7.0211578634660583

>  <r_i_glide_ecoul>  (1) 
-10.007794823651071

>  <r_i_glide_eff_state_penalty>  (1) 
-0

>  <r_i_glide_einternal>  (1) 
12.292677677773163

>  <r_i_glide_emodel>  (1) 
-66.823857584880699

>  <r_i_glide_emodel_strain>  (1) 
1.6974245732413351

>  <r_i_glide_energy>  (1) 
-50.819817353356868

>  <r_i_glide_erotb>  (1) 
1.3314850251941783

>  <r_i_glide_esite>  (1) 
-0.10000000000000001

>  <r_i_glide_evdw>  (1) 
-40.8120225297058

>  <r_i_glide_gscore>  (1) 
-7.0211578634660583

>  <r_i_glide_gscore_strain>  (1) 
0

>  <r_i_glide_hbond>  (1) 
-0.63273001454309163

>  <r_i_glide_ligand_efficiency>  (1) 
-0.22648896333761478

>  <r_i_glide_ligand_efficiency_ln>  (1) 
-1.5834862708588537

>  <r_i_glide_ligand_efficiency_sa>  (1) 
-0.71148804740896676

>  <r_i_glide_lipo>  (1) 
-4.1584987150094728

>  <r_i_glide_metal>  (1) 
-0

>  <r_i_glide_rewards>  (1) 
0.080356190925276572

>  <r_lp_Energy>  (1) 
22.97654

>  <r_lp_tautomer_probability>  (1) 
1

>  <s_epik_Chemistry_Notes>  (1) 
This compound has a N-S or N-O group and may undergo hydrolysis at high or low pH.

>  <s_epik_cmdline>  (1) 
J2VwaWtfcHl0aG9uJywgJy1waHQnLCAnMS4wJywgJy1waCcsICc3LjQnLCAnLXRuJywgJzgnLCAnLW1hJywgJzUwMCcsICctaW1hZScsICc8aW5maWxlLm1hZT4nLCAnLW9tYWUnLCAnPG91dGZpbGUubWFlPic=

>  <s_epik_input>  (1) 
W0NIMl0xW0NIMl1PW0NIMl1bQ0BASF0xW0NIMl1PW0NASF0yW0NIMl1bQ0gyXVtDQEhdKFtDSDNdKVtDSDJdW0NAQEhdMltDSDJdW0NASF0oW09IXSlbQ0gyXVtDQEhdKFtOSF0zKVtDSDJdW0NASF0zW0NAQEhdKFtDSDNdKVtDSDJdW0NIMl1bQ0gyXUMoPU8pW05IXVtPSF0=

>  <s_glide_docking_method>  (1) 
confgen

>  <s_i_glide_gridfile>  (1) 
gpcr_5ht2c_6bqh_protein_autoprepared_prepared

>  <s_lp_Force_Field>  (1) 
S-OPLS

>  <s_lp_Variant>  (1) 
DiffSBDD_14_num_sample_100-1

>  <s_m_source_file>  (1) 
generated__ligand_DiffSBDD_2026-05-06_prepared.sdf

>  <GenAI_Model>  (1) 
DiffSBDD

>  <Protein>  (1) 
GPCR_5HT2C

$$$$
DiffSBDD_63_num_sample_100
     RDKit          3D

  0  0  0  0  0  0  0  0  0  0999 V3000
M  V30 BEGIN CTAB
M  V30 COUNTS 67 70 0 0 1
M  V30 BEGIN ATOM
M  V30 1 C 38.469390 31.744003 58.128612 0
M  V30 2 O 38.044625 27.215719 55.725054 0
M  V30 3 C 38.092504 28.479006 55.121545 0 CFG=2
M  V30 4 O 41.412233 28.229987 59.053522 0
M  V30 5 C 38.696747 32.094989 60.690757 0 CFG=2
M  V30 6 C 41.181555 27.494269 57.868577 0
M  V30 7 C 38.902107 27.508068 51.544573 0
M  V30 8 C 39.292078 26.775101 56.267716 0 CFG=1
M  V30 9 F 41.277229 33.516956 66.674908 0
M  V30 10 C 41.067715 32.778844 65.570929 0
M  V30 11 C 40.910149 33.034332 63.067571 0
M  V30 12 S 40.407602 31.511591 60.935603 0
M  V30 13 C 37.683623 30.957356 60.858602 0
M  V30 14 C 38.174537 27.597974 52.891649 0
M  V30 15 N 38.882393 28.425314 53.875528 0
M  V30 16 O 39.067566 28.821439 51.029079 0
M  V30 17 C 41.116158 33.490325 64.316506 0
M  V30 18 C 39.831297 29.650905 51.893503 0
M  V30 19 F 40.267408 29.433337 62.775028 0
M  V30 20 C 40.495964 30.585190 63.431372 0
M  V30 21 C 40.845090 31.472094 65.765214 0
M  V30 22 C 38.526445 29.488920 56.231986 0 CFG=2
M  V30 23 C 39.749405 27.759781 57.371691 0 CFG=2
M  V30 24 C 38.495909 32.749353 59.305132 0
M  V30 25 C 39.167888 29.735854 53.287019 0
M  V30 26 C 39.100213 25.312964 56.715254 0
M  V30 27 C 37.738494 29.964180 59.685272 0
M  V30 28 O 39.758335 29.071009 56.814005 0
M  V30 29 O 38.267402 25.231346 57.853297 0
M  V30 30 F 41.026409 33.966533 62.103804 0
M  V30 31 N 37.521586 30.625100 58.369424 0 CFG=2 CHG=1
M  V30 32 N 40.587792 31.738794 62.646527 0
M  V30 33 C 40.601753 30.459476 64.766963 0
M  V30 34 F 40.856672 31.050564 67.041629 0
M  V30 35 C 37.357873 29.649797 57.247985 0
M  V30 36 H 39.464519 31.344727 57.942060 0
M  V30 37 H 38.169853 32.270897 57.221284 0
M  V30 38 H 37.068388 28.723972 54.833539 0
M  V30 39 H 42.270791 28.010002 59.390948 0
M  V30 40 H 38.505878 32.853523 61.450992 0
M  V30 41 H 41.317712 26.440167 58.108937 0
M  V30 42 H 41.920903 27.752110 57.109172 0
M  V30 43 H 39.867401 27.017200 51.658662 0
M  V30 44 H 38.323644 26.912840 50.838323 0
M  V30 45 H 40.041848 26.764795 55.474983 0
M  V30 46 H 36.678488 31.374986 60.931408 0
M  V30 47 H 37.866683 30.431052 61.796558 0
M  V30 48 H 38.035114 26.589835 53.283365 0
M  V30 49 H 37.175236 28.000060 52.715909 0
M  V30 50 H 41.348042 34.543371 64.392501 0
M  V30 51 H 40.842491 29.251111 51.947054 0
M  V30 52 H 39.910900 30.645924 51.454762 0
M  V30 53 H 38.688078 30.459134 55.766266 0
M  V30 54 H 39.059947 27.711028 58.213734 0
M  V30 55 H 37.550052 33.293437 59.311863 0
M  V30 56 H 39.266511 33.501585 59.132010 0
M  V30 57 H 38.249676 30.313624 53.218610 0
M  V30 58 H 39.838307 30.297173 53.937731 0
M  V30 59 H 40.059600 24.854608 56.956178 0
M  V30 60 H 38.668985 24.721972 55.906591 0
M  V30 61 H 36.961073 29.221432 59.851726 0
M  V30 62 H 38.693144 29.437354 59.682258 0
M  V30 63 H 37.420378 25.579640 57.617064 0
M  V30 64 H 40.485965 29.454223 65.147658 0
M  V30 65 H 36.506269 30.021145 56.679940 0
M  V30 66 H 37.043570 28.680966 57.635545 0
M  V30 67 H 36.609990 31.071305 58.414707 0
M  V30 END ATOM
M  V30 BEGIN BOND
M  V30 1 1 3 2
M  V30 2 1 6 4
M  V30 3 1 8 2
M  V30 4 1 10 9
M  V30 5 1 12 5
M  V30 6 1 13 5
M  V30 7 1 14 7
M  V30 8 1 15 3
M  V30 9 1 15 14
M  V30 10 1 16 7
M  V30 11 1 17 10
M  V30 12 2 17 11
M  V30 13 1 18 16
M  V30 14 1 20 19
M  V30 15 2 21 10
M  V30 16 1 22 3
M  V30 17 1 23 6
M  V30 18 1 23 8
M  V30 19 1 24 1
M  V30 20 1 24 5
M  V30 21 1 25 15
M  V30 22 1 25 18
M  V30 23 1 26 8
M  V30 24 1 27 13
M  V30 25 1 28 22
M  V30 26 1 28 23
M  V30 27 1 29 26
M  V30 28 1 30 11
M  V30 29 1 31 1
M  V30 30 1 31 27
M  V30 31 1 32 11
M  V30 32 1 32 12
M  V30 33 1 32 20
M  V30 34 2 33 20
M  V30 35 1 33 21
M  V30 36 1 34 21
M  V30 37 1 35 22
M  V30 38 1 35 31
M  V30 39 1 36 1
M  V30 40 1 37 1
M  V30 41 1 3 38 CFG=3
M  V30 42 1 39 4
M  V30 43 1 5 40 CFG=1
M  V30 44 1 41 6
M  V30 45 1 42 6
M  V30 46 1 43 7
M  V30 47 1 44 7
M  V30 48 1 8 45 CFG=3
M  V30 49 1 46 13
M  V30 50 1 47 13
M  V30 51 1 48 14
M  V30 52 1 49 14
M  V30 53 1 50 17
M  V30 54 1 51 18
M  V30 55 1 52 18
M  V30 56 1 22 53 CFG=3
M  V30 57 1 23 54 CFG=1
M  V30 58 1 55 24
M  V30 59 1 56 24
M  V30 60 1 57 25
M  V30 61 1 58 25
M  V30 62 1 59 26
M  V30 63 1 60 26
M  V30 64 1 61 27
M  V30 65 1 62 27
M  V30 66 1 63 29
M  V30 67 1 64 33
M  V30 68 1 65 35
M  V30 69 1 66 35
M  V30 70 1 31 67 CFG=1
M  V30 END BOND
M  V30 END CTAB
M  END
>  <i_epik_Tot_Q>  (1) 
1

>  <i_epik_Tot_abs_Q>  (1) 
1

>  <i_i_glide_confnum>  (1) 
235

>  <i_i_glide_lignum>  (1) 
159

>  <i_i_glide_posenum>  (1) 
259

>  <i_i_glide_rotatable_bonds>  (1) 
9

>  <i_lp_mmshare_version>  (1) 
72125

>  <i_m_source_file_index>  (1) 
64

>  <i_f3d_flags>  (1) 
0

>  <num_sample>  (1) 
100

>  <b_lp_Chiralities_Consistent>  (1) 
1

>  <r_epik_Charging_Adjusted_Penalty>  (1) 
0.6833741402111444

>  <r_epik_Ionization_Penalty>  (1) 
0.34168859396029116

>  <r_epik_Ionization_Penalty_Charging>  (1) 
0.34168707010557214

>  <r_epik_Ionization_Penalty_Neutral>  (1) 
1.5238547190056168e-06

>  <r_epik_State_Penalty>  (1) 
0.3416870701055722

>  <r_glide_ring_energy>  (1) 
0.0045149093831275133

>  <r_i_docking_score>  (1) 
-7.0200108543394615

>  <r_i_glide_ecoul>  (1) 
-5.2301802224024589

>  <r_i_glide_eff_state_penalty>  (1) 
0.3416870701055722

>  <r_i_glide_einternal>  (1) 
12.548790920478346

>  <r_i_glide_emodel>  (1) 
-65.693209686617138

>  <r_i_glide_emodel_strain>  (1) 
0.17155413352342919

>  <r_i_glide_energy>  (1) 
-49.421538969562789

>  <r_i_glide_erotb>  (1) 
0.51979340436673749

>  <r_i_glide_esite>  (1) 
-0.12806628724383318

>  <r_i_glide_evdw>  (1) 
-44.191358747160329

>  <r_i_glide_gscore>  (1) 
-7.3616979244450338

>  <r_i_glide_gscore_strain>  (1) 
0

>  <r_i_glide_hbond>  (1) 
-0.22881793749664076

>  <r_i_glide_ligand_efficiency>  (1) 
-0.2005717386954132

>  <r_i_glide_ligand_efficiency_ln>  (1) 
-1.5410481832741019

>  <r_i_glide_ligand_efficiency_sa>  (1) 
-0.65608345722251526

>  <r_i_glide_lipo>  (1) 
-3.12179844535143

>  <r_i_glide_metal>  (1) 
-0

>  <r_i_glide_rewards>  (1) 
-1.4087136880014821

>  <r_lp_Energy>  (1) 
40.670952999999997

>  <s_epik_Chemistry_Notes>  (1) 
This compound contains an acetal/aminal-like group ( X-CH(R)-Y where X, Y are N, S, or O) that may be acid/base labile, releasing an aldehyde. This compound has a N-S or N-O group and may undergo hydrolysis at high or low pH.

>  <s_epik_cmdline>  (1) 
J2VwaWtfcHl0aG9uJywgJy1waHQnLCAnMS4wJywgJy1waCcsICc3LjQnLCAnLXRuJywgJzgnLCAnLW1hJywgJzUwMCcsICctaW1hZScsICc8aW5maWxlLm1hZT4nLCAnLW9tYWUnLCAnPG91dGZpbGUubWFlPic=

>  <s_epik_input>  (1) 
RkMxPUMoRilbQ0hdPUMoRilOKEMoRik9W0NIXTEpU1tDSF0yW0NIMl1bQ0gyXU4oW0NIMl1bQ0gyXTIpW0NIMl1bQ0BIXTNPW0NASF0oW0NIMl1bT0hdKVtDQEBIXShbQ0gyXVtPSF0pT1tDQEBIXTNONFtDSDJdW0NIMl1PW0NIMl1bQ0gyXTQ=

>  <s_glide_docking_method>  (1) 
confgen

>  <s_i_glide_gridfile>  (1) 
gpcr_5ht2c_6bqh_protein_autoprepared_prepared

>  <s_lp_Force_Field>  (1) 
S-OPLS

>  <s_lp_Variant>  (1) 
DiffSBDD_63_num_sample_100-2

>  <s_m_source_file>  (1) 
generated__ligand_DiffSBDD_2026-05-06_prepared.sdf

>  <GenAI_Model>  (1) 
DiffSBDD

>  <Protein>  (1) 
GPCR_5HT2C

$$$$
DiffSBDD_51_num_sample_100
     RDKit          3D

  0  0  0  0  0  0  0  0  0  0999 V3000
M  V30 BEGIN CTAB
M  V30 COUNTS 64 65 0 0 1
M  V30 BEGIN ATOM
M  V30 1 C 38.036655 26.210102 56.656261 0 CFG=1
M  V30 2 O 38.430484 28.197775 52.607750 0
M  V30 3 C 37.489315 24.612786 54.784618 0
M  V30 4 N 37.900124 27.164053 54.592021 0
M  V30 5 C 39.019380 29.720160 58.141307 0
M  V30 6 C 40.610655 27.639739 57.966841 0 CFG=2
M  V30 7 C 36.862370 23.666294 55.808060 0
M  V30 8 C 37.319006 26.038947 55.289758 0 CFG=2
M  V30 9 N 38.119922 31.536286 59.321811 0
M  V30 10 O 38.914139 29.145009 55.045564 0
M  V30 11 N 38.388179 30.176288 59.221173 0
M  V30 12 C 38.171021 27.744901 56.889332 0 CFG=2
M  V30 13 N 41.431311 28.177835 59.068274 0 CHG=1
M  V30 14 C 37.490129 32.010822 60.393823 0
M  V30 15 C 34.954809 33.321433 61.852749 0
M  V30 16 C 37.720610 35.777021 61.495373 0
M  V30 17 C 37.493368 23.867084 57.203433 0
M  V30 18 C 33.772476 33.825414 59.048265 0
M  V30 19 C 37.936442 27.256641 53.233122 0
M  V30 20 O 37.203463 31.308011 61.367263 0
M  V30 21 C 38.371963 28.100341 55.405444 0
M  V30 22 C 41.368119 27.815420 56.653523 0
M  V30 23 C 38.070074 34.294124 61.298835 0
M  V30 24 C 39.155153 28.198659 58.003715 0 CFG=2
M  V30 25 C 35.607724 33.769290 60.536427 0 CFG=1
M  V30 26 O 39.467441 30.463981 57.279113 0
M  V30 27 C 37.129381 33.505906 60.364473 0 CFG=2
M  V30 28 C 37.373333 25.318941 57.703978 0
M  V30 29 O 34.926305 33.125975 59.476251 0
M  V30 30 H 39.052411 25.824360 56.539934 0
M  V30 31 H 38.545093 24.376415 54.653426 0
M  V30 32 H 36.953688 24.485537 53.853498 0
M  V30 33 H 40.555291 26.567859 58.160504 0
M  V30 34 H 35.788830 23.850076 55.853882 0
M  V30 35 H 36.968019 22.643219 55.453498 0
M  V30 36 H 36.267433 26.240981 55.453506 0
M  V30 37 H 38.392205 32.053151 58.495097 0
M  V30 38 H 37.996461 29.638531 59.982655 0
M  V30 39 H 37.183656 28.125569 57.162154 0
M  V30 40 H 41.600320 29.162203 58.915389 0
M  V30 41 H 42.319870 27.694834 59.104828 0
M  V30 42 H 35.211878 34.021325 62.653461 0
M  V30 43 H 35.210189 32.299347 62.106309 0
M  V30 44 H 33.872220 33.257550 61.785976 0
M  V30 45 H 38.498485 36.283438 62.066649 0
M  V30 46 H 36.787221 35.900557 62.045201 0
M  V30 47 H 37.621490 36.293706 60.540239 0
M  V30 48 H 37.067382 23.155852 57.897474 0
M  V30 49 H 38.555276 23.621472 57.161283 0
M  V30 50 H 33.237970 33.221489 58.331693 0
M  V30 51 H 34.040344 34.764607 58.562702 0
M  V30 52 H 33.072998 34.021363 59.853548 0
M  V30 53 H 37.466444 26.387495 52.766426 0
M  V30 54 H 41.000263 27.128894 55.891912 0
M  V30 55 H 42.428110 27.604272 56.786311 0
M  V30 56 H 41.272171 28.821322 56.253659 0
M  V30 57 H 39.079240 34.242262 60.887416 0
M  V30 58 H 38.138086 33.789566 62.253504 0
M  V30 59 H 38.735179 27.788404 58.924604 0
M  V30 60 H 35.467478 34.840577 60.415826 0
M  V30 61 H 37.358525 33.864146 59.358735 0
M  V30 62 H 37.891563 25.424662 58.653497 0
M  V30 63 H 36.329286 25.597793 57.853431 0
M  V30 64 H 40.960065 28.043524 59.951262 0
M  V30 END ATOM
M  V30 BEGIN BOND
M  V30 1 1 7 3
M  V30 2 1 8 1
M  V30 3 1 8 3
M  V30 4 1 8 4
M  V30 5 1 11 5
M  V30 6 1 11 9
M  V30 7 1 12 1
M  V30 8 1 13 6
M  V30 9 1 14 9
M  V30 10 1 17 7
M  V30 11 2 19 2
M  V30 12 1 19 4
M  V30 13 2 20 14
M  V30 14 1 21 4
M  V30 15 2 21 10
M  V30 16 1 21 12
M  V30 17 1 22 6
M  V30 18 1 23 16
M  V30 19 1 24 5
M  V30 20 1 24 6
M  V30 21 1 24 12
M  V30 22 1 25 15
M  V30 23 2 26 5
M  V30 24 1 27 14
M  V30 25 1 27 23
M  V30 26 1 27 25
M  V30 27 1 28 1
M  V30 28 1 28 17
M  V30 29 1 29 18
M  V30 30 1 29 25
M  V30 31 1 1 30 CFG=3
M  V30 32 1 31 3
M  V30 33 1 32 3
M  V30 34 1 6 33 CFG=1
M  V30 35 1 34 7
M  V30 36 1 35 7
M  V30 37 1 8 36 CFG=1
M  V30 38 1 37 9
M  V30 39 1 38 11
M  V30 40 1 12 39 CFG=1
M  V30 41 1 40 13
M  V30 42 1 41 13
M  V30 43 1 42 15
M  V30 44 1 43 15
M  V30 45 1 44 15
M  V30 46 1 45 16
M  V30 47 1 46 16
M  V30 48 1 47 16
M  V30 49 1 48 17
M  V30 50 1 49 17
M  V30 51 1 50 18
M  V30 52 1 51 18
M  V30 53 1 52 18
M  V30 54 1 53 19
M  V30 55 1 54 22
M  V30 56 1 55 22
M  V30 57 1 56 22
M  V30 58 1 57 23
M  V30 59 1 58 23
M  V30 60 1 24 59 CFG=1
M  V30 61 1 25 60 CFG=3
M  V30 62 1 27 61 CFG=3
M  V30 63 1 62 28
M  V30 64 1 63 28
M  V30 65 1 64 13
M  V30 END BOND
M  V30 END CTAB
M  END
>  <i_epik_Tot_Q>  (1) 
1

>  <i_epik_Tot_abs_Q>  (1) 
1

>  <i_i_glide_confnum>  (1) 
2

>  <i_i_glide_lignum>  (1) 
137

>  <i_i_glide_posenum>  (1) 
55

>  <i_i_glide_rotatable_bonds>  (1) 
11

>  <i_lp_mmshare_version>  (1) 
72125

>  <i_m_source_file_index>  (1) 
52

>  <i_f3d_flags>  (1) 
0

>  <num_sample>  (1) 
100

>  <b_lp_Chiralities_Consistent>  (1) 
1

>  <r_epik_Charging_Adjusted_Penalty>  (1) 
0.019458142528331109

>  <r_epik_Ionization_Penalty>  (1) 
0.0099781937774174462

>  <r_epik_Ionization_Penalty_Charging>  (1) 
0.0097290712641655529

>  <r_epik_Ionization_Penalty_Neutral>  (1) 
0.00024912251325189406

>  <r_epik_State_Penalty>  (1) 
0.0097290712641655563

>  <r_glide_ring_energy>  (1) 
0

>  <r_i_docking_score>  (1) 
-7.0183743750737113

>  <r_i_glide_ecoul>  (1) 
-4.4612748082046476

>  <r_i_glide_eff_state_penalty>  (1) 
0.0097290712641655563

>  <r_i_glide_einternal>  (1) 
23.423599731531255

>  <r_i_glide_emodel>  (1) 
-48.036137607278192

>  <r_i_glide_emodel_strain>  (1) 
1.626575233089369

>  <r_i_glide_energy>  (1) 
-38.36970755401498

>  <r_i_glide_erotb>  (1) 
0.81470354957181534

>  <r_i_glide_esite>  (1) 
-0.056220160782058187

>  <r_i_glide_evdw>  (1) 
-33.90843274581033

>  <r_i_glide_gscore>  (1) 
-7.0281034463378766

>  <r_i_glide_gscore_strain>  (1) 
0

>  <r_i_glide_hbond>  (1) 
-0.32000000000000001

>  <r_i_glide_ligand_efficiency>  (1) 
-0.24201290948530038

>  <r_i_glide_ligand_efficiency_ln>  (1) 
-1.607029761273453

>  <r_i_glide_ligand_efficiency_sa>  (1) 
-0.7435403338448745

>  <r_i_glide_lipo>  (1) 
-3.1312654572958345

>  <r_i_glide_metal>  (1) 
-0

>  <r_i_glide_rewards>  (1) 
-1.9707085193105853

>  <r_lp_Energy>  (1) 
32.699864999999996

>  <r_lp_tautomer_probability>  (1) 
0.99995000000000001

>  <s_epik_cmdline>  (1) 
J2VwaWtfcHl0aG9uJywgJy1waHQnLCAnMS4wJywgJy1waCcsICc3LjQnLCAnLXRuJywgJzgnLCAnLW1hJywgJzUwMCcsICctaW1hZScsICc8aW5maWxlLm1hZT4nLCAnLW9tYWUnLCAnPG91dGZpbGUubWFlPic=

>  <s_epik_input>  (1) 
W0NIMl0xW0NIMl1bQ0gyXVtDSDJdW0NAQEhdKFtDQEhdMTIpTihbQ0hdPU8pQyg9TylbQ0BASF0yW0NAQEhdKFtDQEhdKFtOSDJdKVtDSDNdKUMoPU8pW05IXVtOSF1DKD1PKVtDQEhdKFtDSDJdW0NIM10pW0NASF0oW0NIM10pT1tDSDNd

>  <s_glide_docking_method>  (1) 
confgen

>  <s_i_glide_gridfile>  (1) 
gpcr_5ht2c_6bqh_protein_autoprepared_prepared

>  <s_lp_Force_Field>  (1) 
S-OPLS

>  <s_lp_Variant>  (1) 
DiffSBDD_51_num_sample_100-2

>  <s_m_source_file>  (1) 
generated__ligand_DiffSBDD_2026-05-06_prepared.sdf

>  <GenAI_Model>  (1) 
DiffSBDD

>  <Protein>  (1) 
GPCR_5HT2C

$$$$
DiffSBDD_24_num_sample_100
     RDKit          3D

  0  0  0  0  0  0  0  0  0  0999 V3000
M  V30 BEGIN CTAB
M  V30 COUNTS 61 63 0 0 1
M  V30 BEGIN ATOM
M  V30 1 C 38.301811 30.013436 58.689771 0
M  V30 2 O 39.017910 34.742481 60.972406 0
M  V30 3 C 41.076278 33.004194 64.061764 0
M  V30 4 C 39.867359 28.699995 50.253489 0
M  V30 5 C 40.082740 30.900118 51.447199 0
M  V30 6 N 39.821392 32.825620 61.852684 0
M  V30 7 C 39.252864 32.005436 60.761161 0
M  V30 8 C 38.246884 26.980560 56.323566 0
M  V30 9 C 38.746446 29.029446 55.013754 0
M  V30 10 N 39.485731 29.569520 51.358919 0
M  V30 11 O 39.867401 37.334966 62.253509 0
M  V30 12 N 41.471046 34.329273 63.611363 0
M  V30 13 C 38.397162 24.848497 57.771705 0
M  V30 14 C 40.915326 36.393738 62.382316 0
M  V30 15 C 39.047002 29.673551 53.792237 0
M  V30 16 C 40.393417 35.038385 62.918984 0 CFG=1
M  V30 17 C 38.655305 29.795456 56.191055 0
M  V30 18 N 39.467389 29.812669 59.535331 0
M  V30 19 C 38.551081 27.619664 55.056103 0
M  V30 20 C 39.172562 28.924390 52.594935 0
M  V30 21 C 37.958288 25.494620 56.468300 0
M  V30 22 C 39.688988 34.177662 61.836516 0
M  V30 23 C 38.204021 27.784670 57.491525 0
M  V30 24 C 37.342480 24.765030 55.513194 0
M  V30 25 C 38.995925 27.521607 52.641721 0
M  V30 26 C 38.701182 26.876010 53.854895 0
M  V30 27 C 40.633726 32.136556 62.874714 0
M  V30 28 C 39.438548 30.465480 60.840640 0
M  V30 29 C 38.392425 29.176637 57.423320 0
M  V30 30 H 37.400996 29.724910 59.233020 0
M  V30 31 H 38.195000 31.067237 58.427809 0
M  V30 32 H 40.267414 33.085895 64.787105 0
M  V30 33 H 41.901676 32.522631 64.587583 0
M  V30 34 H 39.016309 28.120255 49.897595 0
M  V30 35 H 40.233454 29.286358 49.410124 0
M  V30 36 H 40.663381 28.021436 50.558682 0
M  V30 37 H 39.467403 31.627253 51.967802 0
M  V30 38 H 41.059901 30.864548 51.921875 0
M  V30 39 H 40.235979 31.297400 50.443459 0
M  V30 40 H 38.187047 32.223993 60.671978 0
M  V30 41 H 39.705282 32.384886 59.850265 0
M  V30 42 H 39.536195 37.522384 63.119092 0
M  V30 43 H 42.266820 34.249246 62.987041 0
M  V30 44 H 39.466528 25.012274 57.906436 0
M  V30 45 H 37.867365 25.236019 58.638133 0
M  V30 46 H 38.227899 23.771360 57.753502 0
M  V30 47 H 41.406997 36.269631 61.415681 0
M  V30 48 H 41.660512 36.821064 63.053527 0
M  V30 49 H 39.186692 30.741855 53.782852 0
M  V30 50 H 39.625642 35.262576 63.658181 0
M  V30 51 H 38.801458 30.865691 56.148765 0
M  V30 52 H 39.655858 28.823958 59.627641 0
M  V30 53 H 37.989098 27.332886 58.445140 0
M  V30 54 H 37.168178 23.708463 55.655245 0
M  V30 55 H 36.994580 25.202869 54.595721 0
M  V30 56 H 39.099324 26.928879 51.746994 0
M  V30 57 H 38.620777 25.815949 53.853475 0
M  V30 58 H 40.092957 31.276022 63.270535 0
M  V30 59 H 41.529869 31.757389 62.381680 0
M  V30 60 H 40.395077 30.202861 61.287260 0
M  V30 61 H 38.666865 30.019869 61.469038 0
M  V30 END ATOM
M  V30 BEGIN BOND
M  V30 1 1 7 6
M  V30 2 1 10 4
M  V30 3 1 10 5
M  V30 4 1 12 3
M  V30 5 1 14 11
M  V30 6 1 15 9
M  V30 7 1 16 12
M  V30 8 1 16 14
M  V30 9 2 17 9
M  V30 10 1 18 1
M  V30 11 2 19 8
M  V30 12 1 19 9
M  V30 13 1 20 10
M  V30 14 2 20 15
M  V30 15 1 21 8
M  V30 16 1 21 13
M  V30 17 2 22 2
M  V30 18 1 22 6
M  V30 19 1 22 16
M  V30 20 1 23 8
M  V30 21 2 24 21
M  V30 22 1 25 20
M  V30 23 1 26 19
M  V30 24 2 26 25
M  V30 25 1 27 3
M  V30 26 1 27 6
M  V30 27 1 28 7
M  V30 28 1 28 18
M  V30 29 1 29 1
M  V30 30 1 29 17
M  V30 31 2 29 23
M  V30 32 1 30 1
M  V30 33 1 31 1
M  V30 34 1 32 3
M  V30 35 1 33 3
M  V30 36 1 34 4
M  V30 37 1 35 4
M  V30 38 1 36 4
M  V30 39 1 37 5
M  V30 40 1 38 5
M  V30 41 1 39 5
M  V30 42 1 40 7
M  V30 43 1 41 7
M  V30 44 1 42 11
M  V30 45 1 43 12
M  V30 46 1 44 13
M  V30 47 1 45 13
M  V30 48 1 46 13
M  V30 49 1 47 14
M  V30 50 1 48 14
M  V30 51 1 49 15
M  V30 52 1 16 50 CFG=1
M  V30 53 1 51 17
M  V30 54 1 52 18
M  V30 55 1 53 23
M  V30 56 1 54 24
M  V30 57 1 55 24
M  V30 58 1 56 25
M  V30 59 1 57 26
M  V30 60 1 58 27
M  V30 61 1 59 27
M  V30 62 1 60 28
M  V30 63 1 61 28
M  V30 END BOND
M  V30 END CTAB
M  END
>  <i_epik_Tot_Q>  (1) 
0

>  <i_epik_Tot_abs_Q>  (1) 
0

>  <i_i_glide_confnum>  (1) 
218

>  <i_i_glide_lignum>  (1) 
64

>  <i_i_glide_posenum>  (1) 
321

>  <i_i_glide_rotatable_bonds>  (1) 
9

>  <i_lp_mmshare_version>  (1) 
72125

>  <i_m_source_file_index>  (1) 
25

>  <i_f3d_flags>  (1) 
0

>  <num_sample>  (1) 
100

>  <b_lp_Chiralities_Consistent>  (1) 
1

>  <r_epik_Charging_Adjusted_Penalty>  (1) 
1.3040267678810453

>  <r_epik_Ionization_Penalty>  (1) 
1.4057066568095866

>  <r_epik_Ionization_Penalty_Charging>  (1) 
0

>  <r_epik_Ionization_Penalty_Neutral>  (1) 
1.4057066568095866

>  <r_epik_State_Penalty>  (1) 
1.3040267678810453

>  <r_glide_ring_energy>  (1) 
0

>  <r_i_docking_score>  (1) 
-7.0135004780557475

>  <r_i_glide_ecoul>  (1) 
-1.3829858716229642

>  <r_i_glide_eff_state_penalty>  (1) 
1.3040267678810453

>  <r_i_glide_einternal>  (1) 
11.221917215385481

>  <r_i_glide_emodel>  (1) 
-66.876363444109714

>  <r_i_glide_emodel_strain>  (1) 
0.62716003676779053

>  <r_i_glide_energy>  (1) 
-48.144752536776963

>  <r_i_glide_erotb>  (1) 
0.87102097732651396

>  <r_i_glide_esite>  (1) 
0

>  <r_i_glide_evdw>  (1) 
-46.761766665153999

>  <r_i_glide_gscore>  (1) 
-8.3175272459367928

>  <r_i_glide_gscore_strain>  (1) 
0

>  <r_i_glide_hbond>  (1) 
0

>  <r_i_glide_ligand_efficiency>  (1) 
-0.24184484407088785

>  <r_i_glide_ligand_efficiency_ln>  (1) 
-1.605913762447704

>  <r_i_glide_ligand_efficiency_sa>  (1) 
-0.74302398364435895

>  <r_i_glide_lipo>  (1) 
-4.5749245465120909

>  <r_i_glide_metal>  (1) 
-0

>  <r_i_glide_rewards>  (1) 
-2.0680874627500714

>  <r_lp_Energy>  (1) 
67.58931299999999

>  <s_epik_cmdline>  (1) 
J2VwaWtfcHl0aG9uJywgJy1waHQnLCAnMS4wJywgJy1waCcsICc3LjQnLCAnLXRuJywgJzgnLCAnLW1hJywgJzUwMCcsICctaW1hZScsICc8aW5maWxlLm1hZT4nLCAnLW9tYWUnLCAnPG91dGZpbGUubWFlPic=

>  <s_epik_input>  (1) 
W0NIMl0xW0NIMl1bTkhdW0NAQEhdKFtDSDJdW09IXSlDKD1PKU4xW0NIMl1bQ0gyXVtOSF1bQ0gyXWMoW2NIXTIpW2NIXWMoQyhbQ0gzXSk9W0NIMl0pYyhjMjMpW2NIXVtjSF1jKFtjSF0zKU4oW0NIM10pW0NIM10=

>  <s_glide_docking_method>  (1) 
confgen

>  <s_i_glide_gridfile>  (1) 
gpcr_5ht2c_6bqh_protein_autoprepared_prepared

>  <s_lp_Force_Field>  (1) 
S-OPLS

>  <s_lp_Variant>  (1) 
DiffSBDD_24_num_sample_100-3

>  <s_m_source_file>  (1) 
generated__ligand_DiffSBDD_2026-05-06_prepared.sdf

>  <GenAI_Model>  (1) 
DiffSBDD

>  <Protein>  (1) 
GPCR_5HT2C

$$$$
DiffSBDD_59_num_sample_100
     RDKit          3D

  0  0  0  0  0  0  0  0  0  0999 V3000
M  V30 BEGIN CTAB
M  V30 COUNTS 54 55 0 0 1
M  V30 BEGIN ATOM
M  V30 1 O 34.955046 32.171416 59.456916 0
M  V30 2 N 38.752394 27.842616 55.764255 0 CFG=2 CHG=1
M  V30 3 C 38.556659 27.571117 52.409425 0
M  V30 4 C 38.039135 27.494564 57.031881 0
M  V30 5 C 36.032373 34.050016 60.586276 0
M  V30 6 C 39.937462 29.940107 51.756724 0
M  V30 7 C 39.334727 29.815926 53.021980 0
M  V30 8 C 38.615537 28.624127 53.347573 0
M  V30 9 C 38.150333 31.735133 58.933699 0
M  V30 10 C 38.988514 29.299636 58.648904 0
M  V30 11 Cl 39.481424 31.118802 54.155874 0
M  V30 12 C 37.753067 28.701326 57.954533 0
M  V30 13 O 37.877196 32.115893 57.648325 0
M  V30 14 N 37.955098 32.600405 59.981619 0
M  V30 15 N 38.278946 32.017287 61.161107 0
M  V30 16 C 34.899284 33.566148 59.661507 0
M  V30 17 C 38.622579 30.551524 59.409072 0
M  V30 18 C 37.889698 28.468059 54.691600 0 CFG=2
M  V30 19 C 39.497927 26.634632 55.298732 0
M  V30 20 C 37.447188 33.978412 59.965157 0 CFG=2
M  V30 21 C 39.185019 27.698050 51.158332 0
M  V30 22 C 38.680515 30.783979 60.825062 0
M  V30 23 C 38.420996 34.952006 60.662706 0
M  V30 24 C 37.069341 29.745881 55.069523 0
M  V30 25 C 39.863968 28.883328 50.826830 0
M  V30 26 H 35.067447 32.018373 58.507656 0
M  V30 27 H 38.025593 26.662196 52.651649 0
M  V30 28 H 38.629310 26.777165 57.612449 0
M  V30 29 H 37.127877 26.923980 56.818685 0
M  V30 30 H 35.993815 33.513197 61.536116 0
M  V30 31 H 35.864454 35.092081 60.837539 0
M  V30 32 H 40.460706 30.850817 51.500379 0
M  V30 33 H 39.696426 29.535000 57.866720 0
M  V30 34 H 39.493729 28.576762 59.293852 0
M  V30 35 H 37.031075 28.458581 58.703526 0
M  V30 36 H 37.190940 29.477139 57.475732 0
M  V30 37 H 33.928853 33.789931 60.094989 0
M  V30 38 H 34.940752 34.074015 58.698838 0
M  V30 39 H 36.940371 32.018060 57.466152 0
M  V30 40 H 37.119555 27.719578 54.498973 0
M  V30 41 H 38.829326 25.867116 54.917168 0
M  V30 42 H 40.207068 26.865819 54.516719 0
M  V30 43 H 40.087662 26.175735 56.088032 0
M  V30 44 H 37.372662 34.313007 58.927887 0
M  V30 45 H 39.138995 26.885664 50.444645 0
M  V30 46 H 39.002931 30.115876 61.604223 0
M  V30 47 H 38.072418 35.980631 60.581594 0
M  V30 48 H 38.532786 34.728429 61.721822 0
M  V30 49 H 39.408007 34.907798 60.207498 0
M  V30 50 H 36.922258 30.379866 54.210672 0
M  V30 51 H 36.065870 29.625060 55.459312 0
M  V30 52 H 37.584388 30.403991 55.754677 0
M  V30 53 H 40.332182 28.981807 49.854648 0
M  V30 54 H 39.455348 28.513795 56.031133 0
M  V30 END ATOM
M  V30 BEGIN BOND
M  V30 1 1 4 2
M  V30 2 2 7 6
M  V30 3 2 8 3
M  V30 4 1 8 7
M  V30 5 1 11 7
M  V30 6 1 12 4
M  V30 7 1 12 10
M  V30 8 1 13 9
M  V30 9 1 14 9
M  V30 10 1 15 14
M  V30 11 1 16 1
M  V30 12 1 16 5
M  V30 13 2 17 9
M  V30 14 1 17 10
M  V30 15 1 18 2
M  V30 16 1 18 8
M  V30 17 1 19 2
M  V30 18 1 20 5
M  V30 19 1 20 14
M  V30 20 1 21 3
M  V30 21 2 22 15
M  V30 22 1 22 17
M  V30 23 1 23 20
M  V30 24 1 24 18
M  V30 25 1 25 6
M  V30 26 2 25 21
M  V30 27 1 26 1
M  V30 28 1 27 3
M  V30 29 1 28 4
M  V30 30 1 29 4
M  V30 31 1 30 5
M  V30 32 1 31 5
M  V30 33 1 32 6
M  V30 34 1 33 10
M  V30 35 1 34 10
M  V30 36 1 35 12
M  V30 37 1 36 12
M  V30 38 1 37 16
M  V30 39 1 38 16
M  V30 40 1 39 13
M  V30 41 1 18 40 CFG=3
M  V30 42 1 41 19
M  V30 43 1 42 19
M  V30 44 1 43 19
M  V30 45 1 20 44 CFG=3
M  V30 46 1 45 21
M  V30 47 1 46 22
M  V30 48 1 47 23
M  V30 49 1 48 23
M  V30 50 1 49 23
M  V30 51 1 50 24
M  V30 52 1 51 24
M  V30 53 1 52 24
M  V30 54 1 53 25
M  V30 55 1 2 54 CFG=1
M  V30 END BOND
M  V30 END CTAB
M  END
>  <i_epik_Tot_Q>  (1) 
1

>  <i_epik_Tot_abs_Q>  (1) 
1

>  <i_i_glide_confnum>  (1) 
327

>  <i_i_glide_lignum>  (1) 
149

>  <i_i_glide_posenum>  (1) 
144

>  <i_i_glide_rotatable_bonds>  (1) 
11

>  <i_lp_mmshare_version>  (1) 
72125

>  <i_m_source_file_index>  (1) 
60

>  <i_f3d_flags>  (1) 
0

>  <num_sample>  (1) 
100

>  <b_lp_Chiralities_Consistent>  (1) 
1

>  <r_epik_Charging_Adjusted_Penalty>  (1) 
0.34288875783321848

>  <r_epik_Ionization_Penalty>  (1) 
0.16299728195075516

>  <r_epik_Ionization_Penalty_Charging>  (1) 
0.10603582337888565

>  <r_epik_Ionization_Penalty_Neutral>  (1) 
0.05696145857186951

>  <r_epik_State_Penalty>  (1) 
0.23685293445433284

>  <r_glide_ring_energy>  (1) 
0

>  <r_i_docking_score>  (1) 
-7.0131210167583822

>  <r_i_glide_ecoul>  (1) 
-14.661237689884354

>  <r_i_glide_eff_state_penalty>  (1) 
0.23685293445433284

>  <r_i_glide_einternal>  (1) 
14.678615988210947

>  <r_i_glide_emodel>  (1) 
-61.392582651052422

>  <r_i_glide_emodel_strain>  (1) 
7.049375625338044

>  <r_i_glide_energy>  (1) 
-50.368081393670316

>  <r_i_glide_erotb>  (1) 
1.1440711446639862

>  <r_i_glide_esite>  (1) 
-0.014842621652969857

>  <r_i_glide_evdw>  (1) 
-35.706843703785964

>  <r_i_glide_gscore>  (1) 
-7.2499739512127146

>  <r_i_glide_gscore_strain>  (1) 
0.76234390633451099

>  <r_i_glide_hbond>  (1) 
-0.30399999999999999

>  <r_i_glide_ligand_efficiency>  (1) 
-0.28052484067033528

>  <r_i_glide_ligand_efficiency_ln>  (1) 
-1.6623198472492311

>  <r_i_glide_ligand_efficiency_sa>  (1) 
-0.82025961012939841

>  <r_i_glide_lipo>  (1) 
-3.4056172450229121

>  <r_i_glide_metal>  (1) 
-0

>  <r_i_glide_rewards>  (1) 
-1.4474012968633776

>  <r_lp_Energy>  (1) 
26.033631999999997

>  <r_lp_tautomer_probability>  (1) 
0.67048000943507491

>  <s_epik_cmdline>  (1) 
J2VwaWtfcHl0aG9uJywgJy1waHQnLCAnMS4wJywgJy1waCcsICc3LjQnLCAnLXRuJywgJzgnLCAnLW1hJywgJzUwMCcsICctaW1hZScsICc8aW5maWxlLm1hZT4nLCAnLW9tYWUnLCAnPG91dGZpbGUubWFlPic=

>  <s_epik_input>  (1) 
W09IXVtDSDJdW0NIMl1bQ0BASF0oW0NIM10pTihDMT1PKU49W0NIXVtDQEBIXTFbQ0gyXVtDSDJdW0NIMl1OKFtDSDNdKVtDQEBIXShbQ0gzXSljMltjSF1bY0hdW2NIXVtjSF1jMkNs

>  <s_glide_docking_method>  (1) 
confgen

>  <s_i_glide_gridfile>  (1) 
gpcr_5ht2c_6bqh_protein_autoprepared_prepared

>  <s_lp_Force_Field>  (1) 
S-OPLS

>  <s_lp_Variant>  (1) 
DiffSBDD_59_num_sample_100-2

>  <s_m_source_file>  (1) 
generated__ligand_DiffSBDD_2026-05-06_prepared.sdf

>  <GenAI_Model>  (1) 
DiffSBDD

>  <Protein>  (1) 
GPCR_5HT2C

$$$$
DiffSBDD_85_num_sample_100
     RDKit          3D

  0  0  0  0  0  0  0  0  0  0999 V3000
M  V30 BEGIN CTAB
M  V30 COUNTS 83 87 0 0 1
M  V30 BEGIN ATOM
M  V30 1 C 35.945539 33.982811 59.004733 0
M  V30 2 N 38.318030 28.080725 53.552865 0 CHG=1
M  V30 3 C 39.539898 28.880239 50.018151 0
M  V30 4 Cl 34.668375 33.221435 61.737583 0
M  V30 5 C 37.504145 34.404824 60.993892 0 CFG=1
M  V30 6 C 37.671575 26.206333 57.498462 0
M  V30 7 C 39.277457 28.491231 52.512434 0
M  V30 8 C 39.921224 30.343020 50.248235 0
M  V30 9 O 40.868033 32.604339 61.453485 0
M  V30 10 S 38.839979 29.782159 58.085365 0
M  V30 11 C 40.621104 30.435778 51.585107 0
M  V30 12 O 39.619231 31.698506 63.053539 0 CHG=-1
M  V30 13 C 38.648106 28.316126 51.129518 0
M  V30 14 C 39.399667 29.867142 59.809295 0 CFG=1
M  V30 15 C 40.471918 27.810280 59.000414 0 CFG=1
M  V30 16 C 39.580829 27.519292 56.514001 0 CFG=1
M  V30 17 C 37.267889 34.598298 59.478049 0
M  V30 18 N 38.433975 26.670983 53.902191 0
M  V30 19 C 37.393241 32.895031 61.408659 0 CFG=2
M  V30 20 C 38.285094 24.911421 56.972881 0 CFG=1
M  V30 21 C 39.753044 29.940646 52.753016 0
M  V30 22 C 38.788134 35.131323 61.430252 0
M  V30 23 C 37.701651 26.373785 55.121229 0 CFG=2
M  V30 24 C 40.435386 26.233452 56.400801 0
M  V30 25 C 38.068075 27.186964 56.392370 0 CFG=1
M  V30 26 C 35.808463 32.519198 59.453389 0
M  V30 27 C 39.802381 32.123516 61.894506 0
M  V30 28 C 38.610549 32.028530 60.915422 0 CFG=1
M  V30 29 C 37.842389 24.890251 55.505056 0
M  V30 30 O 41.867369 28.018521 59.053562 0
M  V30 31 C 38.335255 30.516141 60.705955 0
M  V30 32 C 39.758387 28.447837 60.203755 0 CFG=1
M  V30 33 C 36.005463 32.360912 60.954605 0 CFG=2
M  V30 34 C 39.819307 24.990421 57.094819 0
M  V30 35 C 40.002738 28.456065 57.680874 0 CFG=1
M  V30 36 O 40.571973 28.421369 61.365911 0
M  V30 37 H 35.108011 34.576774 59.369670 0
M  V30 38 H 35.893415 34.021452 57.917967 0
M  V30 39 H 37.366710 28.244507 53.255990 0
M  V30 40 H 40.426008 28.259070 49.953926 0
M  V30 41 H 39.067407 28.821418 49.054775 0
M  V30 42 H 36.702326 34.937724 61.505702 0
M  V30 43 H 36.586549 26.116748 57.562868 0
M  V30 44 H 38.033731 26.485609 58.486935 0
M  V30 45 H 40.139193 27.824315 52.546191 0
M  V30 46 H 40.590898 30.682961 49.457027 0
M  V30 47 H 39.062785 31.006934 50.220713 0
M  V30 48 H 41.467433 29.775424 51.453507 0
M  V30 49 H 40.982366 31.443639 51.772275 0
M  V30 50 H 38.438214 27.262194 50.938517 0
M  V30 51 H 37.694295 28.821299 51.133997 0
M  V30 52 H 40.332260 30.421444 59.853506 0
M  V30 53 H 40.267431 26.752881 59.053350 0
M  V30 54 H 39.840561 28.117442 55.642772 0
M  V30 55 H 37.270256 35.660317 59.229371 0
M  V30 56 H 38.083642 34.154051 58.907930 0
M  V30 57 H 37.965717 26.248892 53.110467 0
M  V30 58 H 37.375909 32.821474 62.495837 0
M  V30 59 H 37.913195 24.039475 57.512485 0
M  V30 60 H 38.906070 30.603808 52.902812 0
M  V30 61 H 40.318555 30.019643 53.681701 0
M  V30 62 H 39.649706 34.815972 60.840795 0
M  V30 63 H 38.690196 36.207713 61.286492 0
M  V30 64 H 39.014063 34.959256 62.482637 0
M  V30 65 H 36.667369 26.566933 54.899101 0
M  V30 66 H 40.571783 25.993998 55.347203 0
M  V30 67 H 41.444137 26.421528 56.765869 0
M  V30 68 H 37.467407 28.094159 56.438961 0
M  V30 69 H 34.831375 32.132892 59.159770 0
M  V30 70 H 36.545696 31.919654 58.919277 0
M  V30 71 H 38.934478 32.418026 59.951131 0
M  V30 72 H 38.549306 24.346193 54.877687 0
M  V30 73 H 36.877277 24.390533 55.405578 0
M  V30 74 H 42.130818 27.965320 59.966210 0
M  V30 75 H 37.375846 30.303821 60.243174 0
M  V30 76 H 38.287569 30.021356 61.675838 0
M  V30 77 H 38.836050 27.900118 60.403439 0
M  V30 78 H 35.857082 31.325358 61.251886 0
M  V30 79 H 40.249458 24.095942 56.670205 0
M  V30 80 H 40.107726 24.937954 58.138115 0
M  V30 81 H 40.847425 29.014127 57.282477 0
M  V30 82 H 40.124905 28.881865 62.064202 0
M  V30 83 H 38.502708 28.588565 54.407424 0
M  V30 END ATOM
M  V30 BEGIN BOND
M  V30 1 1 7 2
M  V30 2 1 8 3
M  V30 3 1 11 8
M  V30 4 1 13 3
M  V30 5 1 13 7
M  V30 6 1 14 10
M  V30 7 1 17 1
M  V30 8 1 17 5
M  V30 9 1 18 2
M  V30 10 1 19 5
M  V30 11 1 20 6
M  V30 12 1 21 7
M  V30 13 1 21 11
M  V30 14 1 22 5
M  V30 15 1 23 18
M  V30 16 1 24 16
M  V30 17 1 25 6
M  V30 18 1 25 16
M  V30 19 1 25 23
M  V30 20 1 26 1
M  V30 21 2 27 9
M  V30 22 1 27 12
M  V30 23 1 28 19
M  V30 24 1 28 27
M  V30 25 1 29 20
M  V30 26 1 29 23
M  V30 27 1 30 15
M  V30 28 1 31 14
M  V30 29 1 31 28
M  V30 30 1 32 14
M  V30 31 1 32 15
M  V30 32 1 33 4
M  V30 33 1 33 19
M  V30 34 1 33 26
M  V30 35 1 34 20
M  V30 36 1 34 24
M  V30 37 1 35 10
M  V30 38 1 35 15
M  V30 39 1 35 16
M  V30 40 1 36 32
M  V30 41 1 37 1
M  V30 42 1 38 1
M  V30 43 1 39 2
M  V30 44 1 40 3
M  V30 45 1 41 3
M  V30 46 1 5 42 CFG=1
M  V30 47 1 43 6
M  V30 48 1 44 6
M  V30 49 1 45 7
M  V30 50 1 46 8
M  V30 51 1 47 8
M  V30 52 1 48 11
M  V30 53 1 49 11
M  V30 54 1 50 13
M  V30 55 1 51 13
M  V30 56 1 14 52 CFG=3
M  V30 57 1 15 53 CFG=3
M  V30 58 1 16 54 CFG=3
M  V30 59 1 55 17
M  V30 60 1 56 17
M  V30 61 1 57 18
M  V30 62 1 19 58 CFG=1
M  V30 63 1 20 59 CFG=1
M  V30 64 1 60 21
M  V30 65 1 61 21
M  V30 66 1 62 22
M  V30 67 1 63 22
M  V30 68 1 64 22
M  V30 69 1 23 65 CFG=3
M  V30 70 1 66 24
M  V30 71 1 67 24
M  V30 72 1 25 68 CFG=1
M  V30 73 1 69 26
M  V30 74 1 70 26
M  V30 75 1 28 71 CFG=3
M  V30 76 1 72 29
M  V30 77 1 73 29
M  V30 78 1 74 30
M  V30 79 1 75 31
M  V30 80 1 76 31
M  V30 81 1 32 77 CFG=1
M  V30 82 1 33 78 CFG=3
M  V30 83 1 79 34
M  V30 84 1 80 34
M  V30 85 1 35 81 CFG=3
M  V30 86 1 82 36
M  V30 87 1 83 2
M  V30 END BOND
M  V30 END CTAB
M  END
>  <i_epik_Tot_Q>  (1) 
0

>  <i_epik_Tot_abs_Q>  (1) 
2

>  <i_i_glide_confnum>  (1) 
1575

>  <i_i_glide_lignum>  (1) 
222

>  <i_i_glide_posenum>  (1) 
102

>  <i_i_glide_rotatable_bonds>  (1) 
10

>  <i_lp_mmshare_version>  (1) 
72125

>  <i_m_source_file_index>  (1) 
86

>  <i_f3d_flags>  (1) 
0

>  <num_sample>  (1) 
100

>  <b_lp_Chiralities_Consistent>  (1) 
1

>  <r_epik_Charging_Adjusted_Penalty>  (1) 
0.73371446279801333

>  <r_epik_Ionization_Penalty>  (1) 
0.028997413797582132

>  <r_epik_Ionization_Penalty_Charging>  (1) 
0.028997299906531444

>  <r_epik_Ionization_Penalty_Neutral>  (1) 
1.138910506862436e-07

>  <r_epik_State_Penalty>  (1) 
0.7047171628914819

>  <r_glide_ring_energy>  (1) 
2.2711301210520229

>  <r_i_docking_score>  (1) 
-7.0096252208719836

>  <r_i_glide_ecoul>  (1) 
-0.79794904432101998

>  <r_i_glide_eff_state_penalty>  (1) 
0.7047171628914819

>  <r_i_glide_einternal>  (1) 
13.663558257275493

>  <r_i_glide_emodel>  (1) 
-29.863214301694647

>  <r_i_glide_emodel_strain>  (1) 
2.7043023897728347

>  <r_i_glide_energy>  (1) 
-31.124331831359459

>  <r_i_glide_erotb>  (1) 
0.49083612240102314

>  <r_i_glide_esite>  (1) 
0

>  <r_i_glide_evdw>  (1) 
-30.32638278703844

>  <r_i_glide_gscore>  (1) 
-7.7143423837634657

>  <r_i_glide_gscore_strain>  (1) 
0

>  <r_i_glide_hbond>  (1) 
-0.19247135014070613

>  <r_i_glide_ligand_efficiency>  (1) 
-0.19471181169088844

>  <r_i_glide_ligand_efficiency_ln>  (1) 
-1.5293108450061452

>  <r_i_glide_ligand_efficiency_sa>  (1) 
-0.64292423670378396

>  <r_i_glide_lipo>  (1) 
-5.2455513046848372

>  <r_i_glide_metal>  (1) 
-0

>  <r_i_glide_rewards>  (1) 
-1.1311443553388698

>  <r_lp_Energy>  (1) 
61.998908

>  <s_epik_cmdline>  (1) 
J2VwaWtfcHl0aG9uJywgJy1waHQnLCAnMS4wJywgJy1waCcsICc3LjQnLCAnLXRuJywgJzgnLCAnLW1hJywgJzUwMCcsICctaW1hZScsICc8aW5maWxlLm1hZT4nLCAnLW9tYWUnLCAnPG91dGZpbGUubWFlPic=

>  <s_epik_input>  (1) 
W0NIM11bQ0BIXTFbQ0gyXVtDSDJdW0NIMl1bQ0BIXShDbClbQ0BIXTFbQ0BASF0oQyg9TylbT0hdKVtDSDJdW0NAQEhdMlNbQ0BASF0oW0NAQEhdKFtPSF0pW0NASF0yW09IXSlbQ0BASF0oW0NIMl1bQ0gyXTMpW0NASF0oW0NIMl1bQ0BIXTM0KVtDQEhdKFtDSDJdNClbTkhdW05IXVtDSF01W0NIMl1bQ0gyXVtDSDJdW0NIMl1bQ0gyXTU=

>  <s_glide_docking_method>  (1) 
confgen

>  <s_i_glide_gridfile>  (1) 
gpcr_5ht2c_6bqh_protein_autoprepared_prepared

>  <s_lp_Force_Field>  (1) 
S-OPLS

>  <s_lp_Variant>  (1) 
DiffSBDD_85_num_sample_100-3

>  <s_m_source_file>  (1) 
generated__ligand_DiffSBDD_2026-05-06_prepared.sdf

>  <GenAI_Model>  (1) 
DiffSBDD

>  <Protein>  (1) 
GPCR_5HT2C

$$$$
DiffSBDD_49_num_sample_100
     RDKit          3D

  0  0  0  0  0  0  0  0  0  0999 V3000
M  V30 BEGIN CTAB
M  V30 COUNTS 44 46 0 0 1
M  V30 BEGIN ATOM
M  V30 1 Cl 40.267403 30.926504 50.945203 0
M  V30 2 C 38.647626 30.978476 60.078245 0
M  V30 3 O 37.867407 27.238763 55.514069 0
M  V30 4 C 38.925678 27.221431 51.398598 0
M  V30 5 C 37.963115 33.384311 59.753172 0
M  V30 6 C 39.467403 28.381802 50.852598 0
M  V30 7 C 38.513331 27.196010 52.743498 0
M  V30 8 N 38.275946 32.049571 59.293328 0
M  V30 9 C 40.728409 28.572936 60.104512 0
M  V30 10 O 38.246307 38.012320 61.453501 0
M  V30 11 C 36.667442 35.433537 59.453501 0
M  V30 12 C 37.338078 36.024815 60.537747 0
M  V30 13 S 38.667404 30.936575 61.761804 0
M  V30 14 O 39.323136 28.689758 59.914721 0
M  V30 15 C 39.598673 29.527841 51.634496 0
M  V30 16 N 38.967305 29.903374 59.287609 0
M  V30 17 C 37.840627 29.609322 57.043704 0
M  V30 18 N 38.200496 29.480441 55.631442 0
M  V30 19 C 39.126306 29.889077 57.825339 0
M  V30 20 C 36.986073 34.120999 59.054396 0
M  V30 21 N 37.009864 37.359098 60.910434 0
M  V30 22 C 38.332484 35.299211 61.237416 0
M  V30 23 C 38.647084 33.983930 60.846892 0
M  V30 24 C 39.181209 29.526411 52.982464 0
M  V30 25 C 38.636469 28.346378 53.544438 0
M  V30 26 C 38.199561 28.301373 54.987679 0
M  V30 27 O 37.216021 37.506613 62.387922 0
M  V30 28 H 38.825131 26.347440 50.783289 0
M  V30 29 H 39.784800 28.396311 49.823529 0
M  V30 30 H 38.097249 26.290394 53.159734 0
M  V30 31 H 38.140802 31.869870 58.309359 0
M  V30 32 H 40.944506 27.621436 60.589250 0
M  V30 33 H 41.286619 28.603334 59.168835 0
M  V30 34 H 41.098751 29.361272 60.757136 0
M  V30 35 H 35.912307 35.989988 58.917197 0
M  V30 36 H 37.124089 30.421432 57.156408 0
M  V30 37 H 37.350710 28.717281 57.437944 0
M  V30 38 H 38.471005 30.314910 55.134071 0
M  V30 39 H 39.848792 29.113517 57.572203 0
M  V30 40 H 39.571630 30.820156 57.473504 0
M  V30 41 H 36.473153 33.675453 58.213298 0
M  V30 42 H 38.858916 35.749864 62.065701 0
M  V30 43 H 39.422343 33.453893 61.369396 0
M  V30 44 H 39.289815 30.420540 53.577082 0
M  V30 END ATOM
M  V30 BEGIN BOND
M  V30 1 2 6 4
M  V30 2 1 7 4
M  V30 3 1 8 2
M  V30 4 1 8 5
M  V30 5 1 12 11
M  V30 6 2 13 2
M  V30 7 1 14 9
M  V30 8 1 15 1
M  V30 9 1 15 6
M  V30 10 1 16 2
M  V30 11 1 16 14
M  V30 12 1 18 17
M  V30 13 1 19 16
M  V30 14 1 19 17
M  V30 15 1 20 5
M  V30 16 2 20 11
M  V30 17 1 21 10
M  V30 18 1 21 12
M  V30 19 2 22 12
M  V30 20 2 23 5
M  V30 21 1 23 22
M  V30 22 2 24 15
M  V30 23 2 25 7
M  V30 24 1 25 24
M  V30 25 2 26 3
M  V30 26 1 26 18
M  V30 27 1 26 25
M  V30 28 1 27 10
M  V30 29 1 27 21
M  V30 30 1 28 4
M  V30 31 1 29 6
M  V30 32 1 30 7
M  V30 33 1 31 8
M  V30 34 1 32 9
M  V30 35 1 33 9
M  V30 36 1 34 9
M  V30 37 1 35 11
M  V30 38 1 36 17
M  V30 39 1 37 17
M  V30 40 1 38 18
M  V30 41 1 39 19
M  V30 42 1 40 19
M  V30 43 1 41 20
M  V30 44 1 42 22
M  V30 45 1 43 23
M  V30 46 1 44 24
M  V30 END BOND
M  V30 END CTAB
M  END
>  <i_epik_Tot_Q>  (1) 
0

>  <i_epik_Tot_abs_Q>  (1) 
0

>  <i_i_glide_confnum>  (1) 
205

>  <i_i_glide_lignum>  (1) 
133

>  <i_i_glide_posenum>  (1) 
8

>  <i_i_glide_rotatable_bonds>  (1) 
10

>  <i_lp_mmshare_version>  (1) 
72125

>  <i_m_source_file_index>  (1) 
50

>  <i_f3d_flags>  (1) 
0

>  <num_sample>  (1) 
100

>  <b_lp_Chiralities_Consistent>  (1) 
1

>  <r_epik_Charging_Adjusted_Penalty>  (1) 
0

>  <r_epik_Ionization_Penalty>  (1) 
1.2411307214121904e-05

>  <r_epik_Ionization_Penalty_Charging>  (1) 
0

>  <r_epik_Ionization_Penalty_Neutral>  (1) 
1.2411307214121904e-05

>  <r_epik_State_Penalty>  (1) 
-0

>  <r_glide_ring_energy>  (1) 
0

>  <r_i_docking_score>  (1) 
-7.006983948878287

>  <r_i_glide_ecoul>  (1) 
-2.5269545833460172

>  <r_i_glide_eff_state_penalty>  (1) 
-0

>  <r_i_glide_einternal>  (1) 
12.879584083122907

>  <r_i_glide_emodel>  (1) 
-65.555998103938578

>  <r_i_glide_emodel_strain>  (1) 
0.46629317758657862

>  <r_i_glide_energy>  (1) 
-47.810791587050247

>  <r_i_glide_erotb>  (1) 
0.94204315138098349

>  <r_i_glide_esite>  (1) 
-0.039671985316205714

>  <r_i_glide_evdw>  (1) 
-45.283837003704228

>  <r_i_glide_gscore>  (1) 
-7.006983948878287

>  <r_i_glide_gscore_strain>  (1) 
0

>  <r_i_glide_hbond>  (1) 
0

>  <r_i_glide_ligand_efficiency>  (1) 
-0.25951792403252916

>  <r_i_glide_ligand_efficiency_ln>  (1) 
-1.6311103441401551

>  <r_i_glide_ligand_efficiency_sa>  (1) 
-0.77855377209758758

>  <r_i_glide_lipo>  (1) 
-2.8322764353043857

>  <r_i_glide_metal>  (1) 
-0

>  <r_i_glide_rewards>  (1) 
-2.4338436419515652

>  <r_lp_Energy>  (1) 
32.022877999999999

>  <r_lp_tautomer_probability>  (1) 
1

>  <s_epik_Chemistry_Notes>  (1) 
This compound has a N-S or N-O group and may undergo hydrolysis at high or low pH.

>  <s_epik_cmdline>  (1) 
J2VwaWtfcHl0aG9uJywgJy1waHQnLCAnMS4wJywgJy1waCcsICc3LjQnLCAnLXRuJywgJzgnLCAnLW1hJywgJzUwMCcsICctaW1hZScsICc8aW5maWxlLm1hZT4nLCAnLW9tYWUnLCAnPG91dGZpbGUubWFlPic=

>  <s_epik_input>  (1) 
Q2xjMVtjSF1bY0hdW2NIXWMoW2NIXTEpQyg9TylbTkhdW0NIMl1bQ0gyXU4oT1tDSDNdKUMoPVMpW05IXWMyW2NIXVtjSF1jKC1uM29vMylbY0hdW2NIXTI=

>  <s_glide_docking_method>  (1) 
confgen

>  <s_i_glide_gridfile>  (1) 
gpcr_5ht2c_6bqh_protein_autoprepared_prepared

>  <s_lp_Force_Field>  (1) 
S-OPLS

>  <s_lp_Variant>  (1) 
DiffSBDD_49_num_sample_100-1

>  <s_m_source_file>  (1) 
generated__ligand_DiffSBDD_2026-05-06_prepared.sdf

>  <GenAI_Model>  (1) 
DiffSBDD

>  <Protein>  (1) 
GPCR_5HT2C

$$$$
DiffSBDD_18_num_sample_100
     RDKit          3D

  0  0  0  0  0  0  0  0  0  0999 V3000
M  V30 BEGIN CTAB
M  V30 COUNTS 71 73 0 0 1
M  V30 BEGIN ATOM
M  V30 1 O 38.822848 34.598817 61.859369 0
M  V30 2 C 39.083852 25.549487 57.481372 0
M  V30 3 C 37.993724 30.261347 59.555312 0
M  V30 4 C 38.308675 24.620606 56.944468 0
M  V30 5 O 37.171139 31.615546 61.853544 0
M  V30 6 C 39.896290 27.837253 57.072943 0 CFG=2
M  V30 7 C 41.268739 31.788412 66.358194 0
M  V30 8 N 39.158011 26.594671 56.729842 0 CHG=1
M  V30 9 N 41.320341 27.553673 57.265572 0
M  V30 10 C 41.023278 34.534776 62.964570 0
M  V30 11 C 40.308687 31.093317 64.167060 0
M  V30 12 O 40.667403 31.592808 67.413343 0
M  V30 13 O 37.066728 24.488740 54.935134 0
M  V30 14 C 43.673194 29.952982 65.840030 0
M  V30 15 C 37.705581 30.033879 57.043770 0
M  V30 16 C 37.878432 25.095776 55.809968 0
M  V30 17 C 42.433389 29.013079 63.810965 0
M  V30 18 C 40.252573 32.272657 63.523146 0
M  V30 19 C 37.198833 32.224409 60.788427 0
M  V30 20 N 42.021399 32.888858 66.062659 0
M  V30 21 C 38.690569 29.907528 58.219538 0 CFG=2
M  V30 22 C 40.236524 34.571463 61.662593 0 CFG=2
M  V30 23 C 39.358829 28.512348 58.358887 0 CFG=2
M  V30 24 C 40.603383 28.552584 59.258931 0
M  V30 25 O 41.870850 29.211494 62.705123 0 CHG=-1
M  V30 26 C 38.341373 26.523618 55.390128 0
M  V30 27 C 41.952160 33.648986 65.035197 0
M  V30 28 C 36.813417 33.698903 60.739172 0
M  V30 29 C 38.054498 34.598252 60.653830 0
M  V30 30 C 40.710512 35.773064 60.847959 0
M  V30 31 C 41.060224 33.484571 63.812379 0
M  V30 32 C 41.250226 30.744696 65.269826 0 CFG=1
M  V30 33 C 42.632106 30.243747 64.731712 0 CFG=1
M  V30 34 N 37.563528 31.651232 59.629334 0
M  V30 35 N 41.759256 28.188634 58.449812 0
M  V30 36 O 42.844255 27.909025 64.232669 0
M  V30 37 H 39.609628 25.496210 58.428277 0
M  V30 38 H 37.127194 29.617923 59.713737 0
M  V30 39 H 38.670233 30.068255 60.390104 0
M  V30 40 H 38.102459 23.664082 57.404204 0
M  V30 41 H 39.825141 28.494295 56.207766 0
M  V30 42 H 41.509757 26.553719 57.319848 0
M  V30 43 H 41.607253 35.417150 63.189359 0
M  V30 44 H 39.651113 30.297347 63.845051 0
M  V30 45 H 39.024718 26.561715 54.541366 0
M  V30 46 H 44.585958 29.515240 65.433117 0
M  V30 47 H 43.970406 30.867819 66.352215 0
M  V30 48 H 43.276550 29.264934 66.587033 0
M  V30 49 H 36.773796 29.500830 57.231987 0
M  V30 50 H 37.467293 31.085278 56.885873 0
M  V30 51 H 38.113255 29.687398 56.097377 0
M  V30 52 H 39.538943 32.340534 62.718417 0
M  V30 53 H 39.468268 30.643936 58.030020 0
M  V30 54 H 40.490627 33.667583 61.107042 0
M  V30 55 H 38.624236 27.860220 58.833164 0
M  V30 56 H 40.506275 27.824789 60.065206 0
M  V30 57 H 40.776995 29.523779 59.724626 0
M  V30 58 H 37.564349 27.289355 55.388490 0
M  V30 59 H 42.570170 34.550177 64.992516 0
M  V30 60 H 36.176538 33.861770 59.870276 0
M  V30 61 H 36.218285 33.951689 61.617548 0
M  V30 62 H 38.646133 34.268998 59.799515 0
M  V30 63 H 37.752354 35.624489 60.447505 0
M  V30 64 H 41.789362 35.737875 60.700607 0
M  V30 65 H 40.261241 35.766765 59.860227 0
M  V30 66 H 40.466439 36.715415 61.340733 0
M  V30 67 H 40.789578 29.877971 65.748395 0
M  V30 68 H 43.060038 31.013879 64.089425 0
M  V30 69 H 37.551169 32.193503 58.776079 0
M  V30 70 H 42.405597 27.597206 58.972855 0
M  V30 71 H 36.987766 25.036715 54.167835 0
M  V30 END ATOM
M  V30 BEGIN BOND
M  V30 1 1 4 2
M  V30 2 2 8 2
M  V30 3 1 8 6
M  V30 4 1 9 6
M  V30 5 2 12 7
M  V30 6 2 16 4
M  V30 7 1 16 13
M  V30 8 2 18 11
M  V30 9 2 19 5
M  V30 10 1 20 7
M  V30 11 1 21 3
M  V30 12 1 21 15
M  V30 13 1 22 1
M  V30 14 1 22 10
M  V30 15 1 23 6
M  V30 16 1 23 21
M  V30 17 1 24 23
M  V30 18 1 25 17
M  V30 19 1 26 8
M  V30 20 1 26 16
M  V30 21 2 27 20
M  V30 22 1 28 19
M  V30 23 1 29 1
M  V30 24 1 29 28
M  V30 25 1 30 22
M  V30 26 2 31 10
M  V30 27 1 31 18
M  V30 28 1 31 27
M  V30 29 1 32 7
M  V30 30 1 32 11
M  V30 31 1 33 14
M  V30 32 1 33 17
M  V30 33 1 33 32
M  V30 34 1 34 3
M  V30 35 1 34 19
M  V30 36 1 35 9
M  V30 37 1 35 24
M  V30 38 2 36 17
M  V30 39 1 37 2
M  V30 40 1 38 3
M  V30 41 1 39 3
M  V30 42 1 40 4
M  V30 43 1 6 41 CFG=3
M  V30 44 1 42 9
M  V30 45 1 43 10
M  V30 46 1 44 11
M  V30 47 1 45 26
M  V30 48 1 46 14
M  V30 49 1 47 14
M  V30 50 1 48 14
M  V30 51 1 49 15
M  V30 52 1 50 15
M  V30 53 1 51 15
M  V30 54 1 52 18
M  V30 55 1 21 53 CFG=3
M  V30 56 1 22 54 CFG=3
M  V30 57 1 23 55 CFG=1
M  V30 58 1 56 24
M  V30 59 1 57 24
M  V30 60 1 58 26
M  V30 61 1 59 27
M  V30 62 1 60 28
M  V30 63 1 61 28
M  V30 64 1 62 29
M  V30 65 1 63 29
M  V30 66 1 64 30
M  V30 67 1 65 30
M  V30 68 1 66 30
M  V30 69 1 32 67 CFG=1
M  V30 70 1 33 68 CFG=3
M  V30 71 1 69 34
M  V30 72 1 70 35
M  V30 73 1 71 13
M  V30 END BOND
M  V30 END CTAB
M  END
>  <i_epik_Tot_Q>  (1) 
0

>  <i_epik_Tot_abs_Q>  (1) 
2

>  <i_i_glide_confnum>  (1) 
3358

>  <i_i_glide_lignum>  (1) 
45

>  <i_i_glide_posenum>  (1) 
356

>  <i_i_glide_rotatable_bonds>  (1) 
13

>  <i_lp_mmshare_version>  (1) 
72125

>  <i_m_source_file_index>  (1) 
19

>  <i_f3d_flags>  (1) 
0

>  <num_sample>  (1) 
100

>  <b_lp_Chiralities_Consistent>  (1) 
1

>  <r_epik_Charging_Adjusted_Penalty>  (1) 
0.76693695219889413

>  <r_epik_Ionization_Penalty>  (1) 
0.76778133156762796

>  <r_epik_Ionization_Penalty_Charging>  (1) 
0.00011398914501928687

>  <r_epik_Ionization_Penalty_Neutral>  (1) 
0.7676673424226087

>  <r_epik_State_Penalty>  (1) 
0.76682296305387487

>  <r_glide_ring_energy>  (1) 
1.7561163794185919

>  <r_i_docking_score>  (1) 
-7.0013293078422727

>  <r_i_glide_ecoul>  (1) 
-6.1187386218446864

>  <r_i_glide_eff_state_penalty>  (1) 
0.76682296305387487

>  <r_i_glide_einternal>  (1) 
10.737712548855914

>  <r_i_glide_emodel>  (1) 
-71.226543335790865

>  <r_i_glide_emodel_strain>  (1) 
2.0377622308548666

>  <r_i_glide_energy>  (1) 
-53.569647305653312

>  <r_i_glide_erotb>  (1) 
0.89312676016186854

>  <r_i_glide_esite>  (1) 
-0.059724177265368744

>  <r_i_glide_evdw>  (1) 
-47.450908683808628

>  <r_i_glide_gscore>  (1) 
-7.7681522708961479

>  <r_i_glide_gscore_strain>  (1) 
0

>  <r_i_glide_hbond>  (1) 
-0.5983061806805996

>  <r_i_glide_ligand_efficiency>  (1) 
-0.19448136966228535

>  <r_i_glide_ligand_efficiency_ln>  (1) 
-1.5275009009127312

>  <r_i_glide_ligand_efficiency_sa>  (1) 
-0.64216333389024893

>  <r_i_glide_lipo>  (1) 
-2.8957838766224371

>  <r_i_glide_metal>  (1) 
-0

>  <r_i_glide_rewards>  (1) 
-1.817108569022476

>  <r_lp_Energy>  (1) 
33.335281999999999

>  <r_lp_tautomer_probability>  (1) 
0.99929914239148299

>  <s_epik_Chemistry_Notes>  (1) 
This compound has an imine and may undergo hydrolysis. This compound contains an acetal/aminal-like group ( X-CH(R)-Y where X, Y are N, S, or O) that may be acid/base labile, releasing an aldehyde.

>  <s_epik_cmdline>  (1) 
J2VwaWtfcHl0aG9uJywgJy1waHQnLCAnMS4wJywgJy1waCcsICc3LjQnLCAnLXRuJywgJzgnLCAnLW1hJywgJzUwMCcsICctaW1hZScsICc8aW5maWxlLm1hZT4nLCAnLW9tYWUnLCAnPG91dGZpbGUubWFlPic=

>  <s_epik_input>  (1) 
W09IXUMoPU8pW0NASF0oW0NIM10pW0NAQEhdMVtDSF09W0NIXS9DKFtDSF09TkMxPU8pPVtDSF1cW0NASF0oW0NIM10pT1tDSDJdW0NIMl1DKD1PKVtOSF1bQ0gyXVtDQEhdKFtDSDNdKVtDQEBIXTJbQ0gyXVtOSF1bTkhdW0NASF0ybjNbY0hdW2NIXWMoW09IXSlbY0hdMw==

>  <s_glide_docking_method>  (1) 
confgen

>  <s_i_glide_gridfile>  (1) 
gpcr_5ht2c_6bqh_protein_autoprepared_prepared

>  <s_lp_Force_Field>  (1) 
S-OPLS

>  <s_lp_Variant>  (1) 
DiffSBDD_18_num_sample_100-5

>  <s_m_source_file>  (1) 
generated__ligand_DiffSBDD_2026-05-06_prepared.sdf

>  <GenAI_Model>  (1) 
DiffSBDD

>  <Protein>  (1) 
GPCR_5HT2C

$$$$
DiffSBDD_53_num_sample_100
     RDKit          3D

  0  0  0  0  0  0  0  0  0  0999 V3000
M  V30 BEGIN CTAB
M  V30 COUNTS 69 72 0 0 1
M  V30 BEGIN ATOM
M  V30 1 C 41.613099 32.737231 63.229148 0
M  V30 2 C 41.316808 29.218233 65.632621 0
M  V30 3 C 42.186563 31.940442 65.597945 0
M  V30 4 O 45.067390 28.135659 63.853499 0
M  V30 5 N 42.580154 27.375810 64.457264 0 CFG=1 CHG=1
M  V30 6 C 38.208438 29.236951 56.058495 0
M  V30 7 C 38.453421 30.776237 54.043476 0
M  V30 8 N 37.867406 30.317397 56.978526 0
M  V30 9 C 38.414474 30.427221 58.195906 0
M  V30 10 C 41.437692 34.244983 65.264448 0
M  V30 11 C 37.799675 31.334663 60.546270 0 CFG=1
M  V30 12 C 43.064219 26.023287 64.658787 0
M  V30 13 C 41.253970 27.836117 64.930188 0
M  V30 14 C 43.570576 27.183491 65.498895 0 CFG=1
M  V30 15 O 39.034326 30.960103 61.145552 0
M  V30 16 C 39.782740 32.112730 61.521398 0 CFG=1
M  V30 17 C 37.428076 32.549053 61.407827 0 CFG=1
M  V30 18 C 38.763277 33.260070 61.570954 0
M  V30 19 C 44.737205 28.124123 65.225220 0 CFG=2
M  V30 20 C 41.751906 32.977699 64.730177 0
M  V30 21 O 39.235140 29.621485 58.637025 0
M  V30 22 C 41.548869 34.476786 66.648542 0
M  V30 23 C 37.756519 28.348564 53.692758 0
M  V30 24 O 37.067443 28.421413 52.653562 0
M  V30 25 S 44.342008 29.777322 65.874075 0
M  V30 26 C 41.976160 33.445452 67.506713 0
M  V30 27 C 37.731444 29.570022 54.629163 0 CFG=1
M  V30 28 C 39.699955 30.738459 53.544434 0
M  V30 29 O 38.465661 27.375675 54.035117 0 CHG=-1
M  V30 30 C 37.977956 31.633228 59.037356 0
M  V30 31 S 42.589927 30.340651 64.949605 0 CHG=1
M  V30 32 C 42.295145 32.178774 66.983482 0
M  V30 33 C 36.284593 33.436935 60.891869 0
M  V30 34 C 40.435431 31.807531 62.874752 0
M  V30 35 H 41.461149 33.705368 62.749368 0
M  V30 36 H 42.547103 32.356994 62.813923 0
M  V30 37 H 41.510765 29.096380 66.698243 0
M  V30 38 H 40.340264 29.698057 65.557203 0
M  V30 39 H 45.926991 27.753223 63.718380 0
M  V30 40 H 39.287264 29.066702 56.056458 0
M  V30 41 H 37.743444 28.318026 56.420003 0
M  V30 42 H 37.907888 31.709204 54.041314 0
M  V30 43 H 37.185446 31.006049 56.675017 0
M  V30 44 H 41.105655 35.040278 64.611808 0
M  V30 45 H 37.072119 30.531700 60.674254 0
M  V30 46 H 42.271023 25.375722 65.028603 0
M  V30 47 H 43.612207 25.697883 63.776496 0
M  V30 48 H 40.792005 27.104822 65.594901 0
M  V30 49 H 40.612241 27.900500 64.051390 0
M  V30 50 H 43.161394 27.231383 66.507729 0
M  V30 51 H 40.538566 32.300744 60.757689 0
M  V30 52 H 37.136412 32.166734 62.386304 0
M  V30 53 H 38.816179 33.845154 62.489619 0
M  V30 54 H 38.936765 33.945047 60.740044 0
M  V30 55 H 45.606259 27.760171 65.775261 0
M  V30 56 H 41.304931 35.448980 67.053050 0
M  V30 57 H 42.059478 33.627523 68.568367 0
M  V30 58 H 36.678796 29.853594 54.692593 0
M  V30 59 H 40.163507 31.621389 53.139740 0
M  V30 60 H 40.267438 29.821614 53.535582 0
M  V30 61 H 37.031602 31.999565 58.641003 0
M  V30 62 H 38.700949 32.431387 58.876589 0
M  V30 63 H 42.622943 31.391002 67.645571 0
M  V30 64 H 36.537680 33.923124 59.949101 0
M  V30 65 H 35.376132 32.855051 60.732664 0
M  V30 66 H 36.050869 34.221950 61.612030 0
M  V30 67 H 40.773176 30.772492 62.871676 0
M  V30 68 H 39.665041 31.867713 63.643459 0
M  V30 69 H 42.999944 27.838998 63.658208 0
M  V30 END ATOM
M  V30 BEGIN BOND
M  V30 1 1 8 6
M  V30 2 1 9 8
M  V30 3 1 12 5
M  V30 4 1 13 2
M  V30 5 1 13 5
M  V30 6 1 14 5
M  V30 7 1 14 12
M  V30 8 1 15 11
M  V30 9 1 16 15
M  V30 10 1 17 11
M  V30 11 1 18 16
M  V30 12 1 18 17
M  V30 13 1 19 4
M  V30 14 1 19 14
M  V30 15 1 20 1
M  V30 16 1 20 3
M  V30 17 2 20 10
M  V30 18 2 21 9
M  V30 19 1 22 10
M  V30 20 2 24 23
M  V30 21 1 25 19
M  V30 22 2 26 22
M  V30 23 1 27 6
M  V30 24 1 27 7
M  V30 25 1 27 23
M  V30 26 2 28 7
M  V30 27 1 29 23
M  V30 28 1 30 9
M  V30 29 1 30 11
M  V30 30 1 31 2
M  V30 31 1 31 3 CFG=1
M  V30 32 1 31 25
M  V30 33 2 32 3
M  V30 34 1 32 26
M  V30 35 1 33 17
M  V30 36 1 34 1
M  V30 37 1 34 16
M  V30 38 1 35 1
M  V30 39 1 36 1
M  V30 40 1 37 2
M  V30 41 1 38 2
M  V30 42 1 39 4
M  V30 43 1 40 6
M  V30 44 1 41 6
M  V30 45 1 42 7
M  V30 46 1 43 8
M  V30 47 1 44 10
M  V30 48 1 11 45 CFG=3
M  V30 49 1 46 12
M  V30 50 1 47 12
M  V30 51 1 48 13
M  V30 52 1 49 13
M  V30 53 1 14 50 CFG=1
M  V30 54 1 16 51 CFG=3
M  V30 55 1 17 52 CFG=1
M  V30 56 1 53 18
M  V30 57 1 54 18
M  V30 58 1 19 55 CFG=1
M  V30 59 1 56 22
M  V30 60 1 57 26
M  V30 61 1 27 58 CFG=1
M  V30 62 1 59 28
M  V30 63 1 60 28
M  V30 64 1 61 30
M  V30 65 1 62 30
M  V30 66 1 63 32
M  V30 67 1 64 33
M  V30 68 1 65 33
M  V30 69 1 66 33
M  V30 70 1 67 34
M  V30 71 1 68 34
M  V30 72 1 5 69 CFG=3
M  V30 END BOND
M  V30 END CTAB
M  END
>  <i_epik_Tot_Q>  (1) 
1

>  <i_epik_Tot_abs_Q>  (1) 
3

>  <i_i_glide_confnum>  (1) 
3534

>  <i_i_glide_lignum>  (1) 
141

>  <i_i_glide_posenum>  (1) 
131

>  <i_i_glide_rotatable_bonds>  (1) 
12

>  <i_lp_mmshare_version>  (1) 
72125

>  <i_m_source_file_index>  (1) 
54

>  <i_f3d_flags>  (1) 
0

>  <num_sample>  (1) 
100

>  <b_lp_Chiralities_Consistent>  (1) 
1

>  <r_epik_Charging_Adjusted_Penalty>  (1) 
0.046453037766825911

>  <r_epik_Ionization_Penalty>  (1) 
0.023481310305084564

>  <r_epik_Ionization_Penalty_Charging>  (1) 
0.023340632071334463

>  <r_epik_Ionization_Penalty_Neutral>  (1) 
0.0001406782337501018

>  <r_epik_State_Penalty>  (1) 
0.023112405695491445

>  <r_glide_ring_energy>  (1) 
0

>  <r_i_docking_score>  (1) 
-6.9924951976117766

>  <r_i_glide_ecoul>  (1) 
-7.6667970938558554

>  <r_i_glide_eff_state_penalty>  (1) 
0.023112405695491445

>  <r_i_glide_einternal>  (1) 
10.968749977179829

>  <r_i_glide_emodel>  (1) 
-70.909585630770408

>  <r_i_glide_emodel_strain>  (1) 
0.55585538578996108

>  <r_i_glide_energy>  (1) 
-51.432590416808942

>  <r_i_glide_erotb>  (1) 
0.79410111881252765

>  <r_i_glide_esite>  (1) 
-0.12613752882025142

>  <r_i_glide_evdw>  (1) 
-43.765793322953087

>  <r_i_glide_gscore>  (1) 
-7.0156076033072683

>  <r_i_glide_gscore_strain>  (1) 
0

>  <r_i_glide_hbond>  (1) 
-0.31689653992033351

>  <r_i_glide_ligand_efficiency>  (1) 
-0.20566162345916991

>  <r_i_glide_ligand_efficiency_ln>  (1) 
-1.5448383219992723

>  <r_i_glide_ligand_efficiency_sa>  (1) 
-0.66626382242821303

>  <r_i_glide_lipo>  (1) 
-3.1491934216269835

>  <r_i_glide_metal>  (1) 
-0

>  <r_i_glide_rewards>  (1) 
-0.87917200152619412

>  <r_lp_Energy>  (1) 
5.0238719999999999

>  <s_epik_Chemistry_Notes>  (1) 
This compound contains an acetal/aminal-like group ( X-CH(R)-Y where X, Y are N, S, or O) that may be acid/base labile, releasing an aldehyde.

>  <s_epik_cmdline>  (1) 
J2VwaWtfcHl0aG9uJywgJy1waHQnLCAnMS4wJywgJy1waCcsICc3LjQnLCAnLXRuJywgJzgnLCAnLW1hJywgJzUwMCcsICctaW1hZScsICc8aW5maWxlLm1hZT4nLCAnLW9tYWUnLCAnPG91dGZpbGUubWFlPic=

>  <s_epik_input>  (1) 
TjEyW0NAQEhdKFtDSDJdMSlbQ0BASF0oW09IXSlTW1MrXShbQ0gyXVtDSDJdMiljM2MoW2NIXVtjSF1bY0hdW2NIXTMpW0NIMl1bQ0gyXVtDQEhdKFtDSDJdW0NASF00W0NIM10pT1tDQEBIXTRbQ0gyXUMoPU8pW05IXVtDSDJdW0NAQEhdKFtDSF09W0NIMl0pQyg9TylbT0hd

>  <s_glide_docking_method>  (1) 
confgen

>  <s_i_glide_gridfile>  (1) 
gpcr_5ht2c_6bqh_protein_autoprepared_prepared

>  <s_lp_Force_Field>  (1) 
S-OPLS

>  <s_lp_Variant>  (1) 
DiffSBDD_53_num_sample_100-2

>  <s_m_source_file>  (1) 
generated__ligand_DiffSBDD_2026-05-06_prepared.sdf

>  <GenAI_Model>  (1) 
DiffSBDD

>  <Protein>  (1) 
GPCR_5HT2C

$$$$
DiffSBDD_65_num_sample_100
     RDKit          3D

  0  0  0  0  0  0  0  0  0  0999 V3000
M  V30 BEGIN CTAB
M  V30 COUNTS 35 36 0 0 1
M  V30 BEGIN ATOM
M  V30 1 C 38.090653 28.704948 53.505191 0 CFG=2
M  V30 2 C 38.963466 29.850269 53.989308 0
M  V30 3 C 39.032536 30.239432 55.276331 0
M  V30 4 N 38.666977 26.621778 58.468012 0
M  V30 5 C 38.726575 27.319821 53.704514 0 CFG=2
M  V30 6 C 38.924545 28.331074 57.000147 0 CFG=1
M  V30 7 F 37.847180 28.821124 52.203194 0
M  V30 8 O 38.287016 27.984762 58.209326 0
M  V30 9 F 37.742403 26.420571 53.678110 0
M  V30 10 C 38.029337 23.734060 57.853322 0
M  V30 11 C 38.905299 26.048116 57.154144 0 CFG=2
M  V30 12 C 39.576281 27.140326 54.982156 0 CFG=1
M  V30 13 N 38.745855 27.133758 56.192848 0
M  V30 14 C 36.485767 25.252367 56.611925 0
M  V30 15 C 38.251568 29.590177 56.411921 0
M  V30 16 C 37.956285 24.858286 56.818366 0
M  V30 17 O 40.266863 25.917727 54.862135 0
M  V30 18 F 39.703969 30.511907 53.083906 0
M  V30 19 H 37.117732 28.755370 53.993033 0
M  V30 20 H 39.679944 31.060942 55.546369 0
M  V30 21 H 39.540116 26.694115 58.971069 0
M  V30 22 H 39.354518 27.108257 52.837659 0
M  V30 23 H 39.982213 28.508749 57.203958 0
M  V30 24 H 37.867402 24.133614 58.851039 0
M  V30 25 H 38.993452 23.223070 57.852581 0
M  V30 26 H 37.247625 22.992938 57.691386 0
M  V30 27 H 39.936962 25.698711 57.200563 0
M  V30 28 H 40.337882 27.908794 55.054356 0
M  V30 29 H 36.041985 25.617047 57.538216 0
M  V30 30 H 35.899851 24.404598 56.254134 0
M  V30 31 H 36.383860 26.021636 55.853402 0
M  V30 32 H 38.151002 30.343640 57.192934 0
M  V30 33 H 37.229520 29.374039 56.104973 0
M  V30 34 H 38.291127 24.430934 55.872362 0
M  V30 35 H 41.099594 25.988746 55.300800 0
M  V30 END ATOM
M  V30 BEGIN BOND
M  V30 1 1 2 1
M  V30 2 2 3 2
M  V30 3 1 5 1
M  V30 4 1 7 1
M  V30 5 1 8 4
M  V30 6 1 8 6
M  V30 7 1 9 5
M  V30 8 1 11 4
M  V30 9 1 12 5
M  V30 10 1 13 6
M  V30 11 1 13 11
M  V30 12 1 13 12
M  V30 13 1 15 3
M  V30 14 1 15 6
M  V30 15 1 16 10
M  V30 16 1 16 11
M  V30 17 1 16 14
M  V30 18 1 17 12
M  V30 19 1 18 2
M  V30 20 1 1 19 CFG=1
M  V30 21 1 20 3
M  V30 22 1 21 4
M  V30 23 1 5 22 CFG=3
M  V30 24 1 6 23 CFG=1
M  V30 25 1 24 10
M  V30 26 1 25 10
M  V30 27 1 26 10
M  V30 28 1 11 27 CFG=1
M  V30 29 1 12 28 CFG=1
M  V30 30 1 29 14
M  V30 31 1 30 14
M  V30 32 1 31 14
M  V30 33 1 32 15
M  V30 34 1 33 15
M  V30 35 1 34 16
M  V30 36 1 35 17
M  V30 END BOND
M  V30 END CTAB
M  END
>  <i_epik_Tot_Q>  (1) 
0

>  <i_epik_Tot_abs_Q>  (1) 
0

>  <i_i_glide_confnum>  (1) 
1

>  <i_i_glide_lignum>  (1) 
163

>  <i_i_glide_posenum>  (1) 
76

>  <i_i_glide_rotatable_bonds>  (1) 
2

>  <i_lp_mmshare_version>  (1) 
72125

>  <i_m_source_file_index>  (1) 
66

>  <i_f3d_flags>  (1) 
0

>  <num_sample>  (1) 
100

>  <b_lp_Chiralities_Consistent>  (1) 
1

>  <r_epik_Charging_Adjusted_Penalty>  (1) 
0

>  <r_epik_Ionization_Penalty>  (1) 
3.2857673984672069e-05

>  <r_epik_Ionization_Penalty_Charging>  (1) 
0

>  <r_epik_Ionization_Penalty_Neutral>  (1) 
3.2857673984672069e-05

>  <r_epik_State_Penalty>  (1) 
-0

>  <r_glide_ring_energy>  (1) 
0

>  <r_i_docking_score>  (1) 
-6.9901685550089123

>  <r_i_glide_ecoul>  (1) 
-0.65396798578103021

>  <r_i_glide_eff_state_penalty>  (1) 
-0

>  <r_i_glide_einternal>  (1) 
0.52598123625065885

>  <r_i_glide_emodel>  (1) 
-33.746471339725332

>  <r_i_glide_emodel_strain>  (1) 
0.32784327610696806

>  <r_i_glide_energy>  (1) 
-23.718021147074818

>  <r_i_glide_erotb>  (1) 
0

>  <r_i_glide_esite>  (1) 
0

>  <r_i_glide_evdw>  (1) 
-23.064053161293788

>  <r_i_glide_gscore>  (1) 
-6.9901685550089123

>  <r_i_glide_gscore_strain>  (1) 
0

>  <r_i_glide_hbond>  (1) 
0

>  <r_i_glide_ligand_efficiency>  (1) 
-0.3883426975004951

>  <r_i_glide_ligand_efficiency_ln>  (1) 
-1.7967867828623802

>  <r_i_glide_ligand_efficiency_sa>  (1) 
-1.0177457824782914

>  <r_i_glide_lipo>  (1) 
-1.9046748496881889

>  <r_i_glide_metal>  (1) 
-0

>  <r_i_glide_rewards>  (1) 
-3.8341958493888786

>  <r_lp_Energy>  (1) 
7.9581929999999996

>  <r_lp_tautomer_probability>  (1) 
1

>  <s_epik_Chemistry_Notes>  (1) 
This compound contains an acetal/aminal-like group ( X-CH(R)-Y where X, Y are N, S, or O) that may be acid/base labile, releasing an aldehyde. This compound has a N-S or N-O group and may undergo hydrolysis at high or low pH.

>  <s_epik_cmdline>  (1) 
J2VwaWtfcHl0aG9uJywgJy1waHQnLCAnMS4wJywgJy1waCcsICc3LjQnLCAnLXRuJywgJzgnLCAnLW1hJywgJzUwMCcsICctaW1hZScsICc8aW5maWxlLm1hZT4nLCAnLW9tYWUnLCAnPG91dGZpbGUubWFlPic=

>  <s_epik_input>  (1) 
W0NIMl0xL1tDSF09QyhGKVxbQ0BASF0oRilbQ0BIXShGKVtDQEhdKFtPSF0pTihbQ0BASF0xMilbQ0BASF0oW05IXU8yKVtDSF0oW0NIM10pW0NIM10=

>  <s_glide_docking_method>  (1) 
confgen

>  <s_i_glide_gridfile>  (1) 
gpcr_5ht2c_6bqh_protein_autoprepared_prepared

>  <s_lp_Force_Field>  (1) 
S-OPLS

>  <s_lp_Variant>  (1) 
DiffSBDD_65_num_sample_100-1

>  <s_m_source_file>  (1) 
generated__ligand_DiffSBDD_2026-05-06_prepared.sdf

>  <GenAI_Model>  (1) 
DiffSBDD

>  <Protein>  (1) 
GPCR_5HT2C

$$$$
DiffSBDD_42_num_sample_100
     RDKit          3D

  0  0  0  0  0  0  0  0  0  0999 V3000
M  V30 BEGIN CTAB
M  V30 COUNTS 70 74 0 0 1
M  V30 BEGIN ATOM
M  V30 1 O 40.085986 36.177863 65.439659 0
M  V30 2 C 40.754512 35.880204 61.819750 0
M  V30 3 C 38.727273 28.959389 55.314782 0
M  V30 4 C 40.979032 28.519032 63.276480 0
M  V30 5 O 37.706914 30.441451 58.844911 0
M  V30 6 C 40.277071 36.117555 63.219919 0
M  V30 7 C 39.583670 29.482660 60.210908 0
M  V30 8 C 38.436725 32.813755 61.710679 0
M  V30 9 C 42.092898 34.970942 64.734442 0
M  V30 10 C 40.429367 29.929904 63.323705 0 CFG=2
M  V30 11 C 39.066964 36.821420 64.805344 0
M  V30 12 C 40.851850 35.729115 64.402037 0
M  V30 13 O 40.257834 30.722652 62.155496 0
M  V30 14 C 39.867392 30.216550 53.602657 0
M  V30 15 C 39.124128 30.353541 61.372359 0 CFG=1
M  V30 16 C 40.137891 30.433685 52.304839 0
M  V30 17 C 41.090596 32.780273 64.207895 0
M  V30 18 Cl 37.074692 27.224387 53.453503 0
M  V30 19 C 38.596671 28.589895 56.568017 0
M  V30 20 O 40.666674 28.900692 60.237754 0
M  V30 21 N 41.847290 33.583222 65.197203 0 CFG=2 CHG=1
M  V30 22 C 38.244961 28.417738 53.002070 0
M  V30 23 C 38.395161 31.570430 60.832901 0
M  V30 24 C 37.402974 33.878948 61.298257 0
M  V30 25 C 38.935119 29.189656 54.036673 0
M  V30 26 P 41.390138 30.979423 64.420948 0 CFG=2
M  V30 27 C 39.521903 29.631465 51.173813 0
M  V30 28 C 36.994434 32.746034 59.070800 0
M  V30 29 C 38.508018 28.619279 51.695534 0
M  V30 30 O 42.371278 30.462762 65.414893 0
M  V30 31 C 38.635010 29.354557 59.007649 0 CFG=2
M  V30 32 C 37.365589 34.062332 59.775001 0
M  V30 33 C 37.742457 31.559871 59.650631 0
M  V30 34 C 39.419103 29.194005 57.687498 0
M  V30 35 C 41.282196 33.519051 66.567626 0
M  V30 36 N 39.112794 36.821308 63.471564 0
M  V30 37 O 39.869044 30.421514 64.552146 0
M  V30 38 H 41.406698 36.688407 61.487945 0
M  V30 39 H 39.920352 35.827017 61.119722 0
M  V30 40 H 41.312813 34.949095 61.734947 0
M  V30 41 H 40.266914 27.859032 62.784391 0
M  V30 42 H 41.151245 28.140392 64.285439 0
M  V30 43 H 41.920133 28.493880 62.726717 0
M  V30 44 H 39.440424 33.231921 61.651446 0
M  V30 45 H 38.268108 32.526717 62.744594 0
M  V30 46 H 42.713451 34.924253 63.848326 0
M  V30 47 H 42.668509 35.517663 65.481531 0
M  V30 48 H 38.268538 37.271772 65.373950 0
M  V30 49 H 40.358524 30.828623 54.346727 0
M  V30 50 H 38.423015 29.799240 61.995872 0
M  V30 51 H 40.834164 31.211523 52.024845 0
M  V30 52 H 41.411544 33.028210 63.196082 0
M  V30 53 H 40.022766 32.983080 64.267967 0
M  V30 54 H 37.892754 27.820209 56.848842 0
M  V30 55 H 36.412139 33.580891 61.646111 0
M  V30 56 H 37.626042 34.826519 61.789486 0
M  V30 57 H 39.067403 30.308262 50.452488 0
M  V30 58 H 40.312865 29.095490 50.649566 0
M  V30 59 H 37.192825 32.820626 58.001024 0
M  V30 60 H 35.926268 32.555321 59.180238 0
M  V30 61 H 37.987032 28.033587 50.954171 0
M  V30 62 H 38.049745 28.451317 59.178906 0
M  V30 63 H 38.343712 34.399119 59.430884 0
M  V30 64 H 36.654524 34.842526 59.500622 0
M  V30 65 H 40.262399 28.515431 57.821607 0
M  V30 66 H 39.842719 30.151015 57.377224 0
M  V30 67 H 40.267336 33.913295 66.606321 0
M  V30 68 H 41.893984 34.097416 67.261371 0
M  V30 69 H 41.254293 32.494485 66.937873 0
M  V30 70 H 42.758034 33.147948 65.264294 0
M  V30 END ATOM
M  V30 BEGIN BOND
M  V30 1 1 6 2
M  V30 2 1 10 4
M  V30 3 1 11 1
M  V30 4 1 12 1
M  V30 5 2 12 6
M  V30 6 1 12 9
M  V30 7 1 10 13 CFG=3
M  V30 8 1 15 7
M  V30 9 1 15 13
M  V30 10 2 16 14
M  V30 11 2 19 3
M  V30 12 2 20 7
M  V30 13 1 21 9
M  V30 14 1 21 17
M  V30 15 1 22 18
M  V30 16 1 23 8
M  V30 17 1 23 15
M  V30 18 1 24 8
M  V30 19 2 25 3
M  V30 20 1 25 14
M  V30 21 1 25 22
M  V30 22 1 26 10
M  V30 23 1 26 17 CFG=3
M  V30 24 1 27 16
M  V30 25 2 29 22
M  V30 26 1 29 27
M  V30 27 2 30 26
M  V30 28 1 31 5
M  V30 29 1 31 7
M  V30 30 1 32 24
M  V30 31 1 32 28
M  V30 32 1 33 5
M  V30 33 2 33 23
M  V30 34 1 33 28
M  V30 35 1 34 19
M  V30 36 1 34 31
M  V30 37 1 35 21
M  V30 38 1 36 6
M  V30 39 2 36 11
M  V30 40 1 37 10
M  V30 41 1 37 26
M  V30 42 1 38 2
M  V30 43 1 39 2
M  V30 44 1 40 2
M  V30 45 1 41 4
M  V30 46 1 42 4
M  V30 47 1 43 4
M  V30 48 1 44 8
M  V30 49 1 45 8
M  V30 50 1 46 9
M  V30 51 1 47 9
M  V30 52 1 48 11
M  V30 53 1 49 14
M  V30 54 1 15 50 CFG=1
M  V30 55 1 51 16
M  V30 56 1 52 17
M  V30 57 1 53 17
M  V30 58 1 54 19
M  V30 59 1 55 24
M  V30 60 1 56 24
M  V30 61 1 57 27
M  V30 62 1 58 27
M  V30 63 1 59 28
M  V30 64 1 60 28
M  V30 65 1 61 29
M  V30 66 1 31 62 CFG=1
M  V30 67 1 63 32
M  V30 68 1 64 32
M  V30 69 1 65 34
M  V30 70 1 66 34
M  V30 71 1 67 35
M  V30 72 1 68 35
M  V30 73 1 69 35
M  V30 74 1 21 70 CFG=1
M  V30 END BOND
M  V30 END CTAB
M  END
>  <i_epik_Tot_Q>  (1) 
1

>  <i_epik_Tot_abs_Q>  (1) 
1

>  <i_i_glide_confnum>  (1) 
664

>  <i_i_glide_lignum>  (1) 
104

>  <i_i_glide_posenum>  (1) 
125

>  <i_i_glide_rotatable_bonds>  (1) 
8

>  <i_lp_mmshare_version>  (1) 
72125

>  <i_m_source_file_index>  (1) 
43

>  <i_f3d_flags>  (1) 
0

>  <num_sample>  (1) 
100

>  <b_lp_Chiralities_Consistent>  (1) 
1

>  <r_epik_Charging_Adjusted_Penalty>  (1) 
0.2152556309207356

>  <r_epik_Ionization_Penalty>  (1) 
0.1076280395274669

>  <r_epik_Ionization_Penalty_Charging>  (1) 
0.10762781546036781

>  <r_epik_Ionization_Penalty_Neutral>  (1) 
2.2406709908736756e-07

>  <r_epik_State_Penalty>  (1) 
0.10762781546036779

>  <r_glide_ring_energy>  (1) 
0

>  <r_i_docking_score>  (1) 
-6.9850311054427356

>  <r_i_glide_ecoul>  (1) 
-0.39835029087526819

>  <r_i_glide_eff_state_penalty>  (1) 
0.10762781546036779

>  <r_i_glide_einternal>  (1) 
20.355053789594301

>  <r_i_glide_emodel>  (1) 
-58.766072057238375

>  <r_i_glide_emodel_strain>  (1) 
0.49472716446396703

>  <r_i_glide_energy>  (1) 
-48.521732576991035

>  <r_i_glide_erotb>  (1) 
0.55194975081301367

>  <r_i_glide_esite>  (1) 
-0.039187300629893729

>  <r_i_glide_evdw>  (1) 
-48.123382286115763

>  <r_i_glide_gscore>  (1) 
-7.0926589209031032

>  <r_i_glide_gscore_strain>  (1) 
0

>  <r_i_glide_hbond>  (1) 
-0.00073187613822347022

>  <r_i_glide_ligand_efficiency>  (1) 
-0.1887846244714253

>  <r_i_glide_ligand_efficiency_ln>  (1) 
-1.5148894944080731

>  <r_i_glide_ligand_efficiency_sa>  (1) 
-0.62907225091845875

>  <r_i_glide_lipo>  (1) 
-4.0424581081195559

>  <r_i_glide_metal>  (1) 
-0

>  <r_i_glide_rewards>  (1) 
-1.0963097288913666

>  <r_lp_Energy>  (1) 
6.6760409999999997

>  <r_lp_tautomer_probability>  (1) 
0.99995000000000001

>  <s_epik_cmdline>  (1) 
J2VwaWtfcHl0aG9uJywgJy1waHQnLCAnMS4wJywgJy1waCcsICc3LjQnLCAnLXRuJywgJzgnLCAnLW1hJywgJzUwMCcsICctaW1hZScsICc8aW5maWxlLm1hZT4nLCAnLW9tYWUnLCAnPG91dGZpbGUubWFlPic=

>  <s_epik_input>  (1) 
bjFbY0hdb2MoYzFbQ0gzXSlbQ0gyXU4oW0NIM10pW0NIMl1bUEBAXSg9TykoTzIpW0NAXTIoW0NIM10pT1tDQEBIXTNDKD1PKVtDQEBIXShPQyg9QzM0KVtDSDJdW0NIMl1bQ0gyXVtDSDJdNClbQ0gyXVtDSF09Qz1DNVtDSF09W0NIXVtDSDJdW0NIXT1DNUNs

>  <s_glide_docking_method>  (1) 
confgen

>  <s_i_glide_gridfile>  (1) 
gpcr_5ht2c_6bqh_protein_autoprepared_prepared

>  <s_lp_Force_Field>  (1) 
S-OPLS

>  <s_lp_Variant>  (1) 
DiffSBDD_42_num_sample_100-1

>  <s_m_source_file>  (1) 
generated__ligand_DiffSBDD_2026-05-06_prepared.sdf

>  <GenAI_Model>  (1) 
DiffSBDD

>  <Protein>  (1) 
GPCR_5HT2C

$$$$
DiffSBDD_51_num_sample_100
     RDKit          3D

  0  0  0  0  0  0  0  0  0  0999 V3000
M  V30 BEGIN CTAB
M  V30 COUNTS 64 65 0 0 1
M  V30 BEGIN ATOM
M  V30 1 C 38.187646 34.836405 61.508668 0 CFG=1
M  V30 2 O 41.816422 32.210251 62.481041 0
M  V30 3 C 40.245224 36.206871 61.958535 0
M  V30 4 N 40.017608 33.622207 62.245746 0
M  V30 5 C 38.176803 32.749752 58.895847 0
M  V30 6 C 35.779201 33.285234 59.874139 0 CFG=2
M  V30 7 C 39.335046 37.427315 62.245133 0
M  V30 8 C 39.466114 34.955658 62.395831 0 CFG=2
M  V30 9 N 38.924719 31.933386 56.804460 0
M  V30 10 O 39.396307 31.515317 61.625654 0
M  V30 11 N 38.060156 31.826274 57.924679 0
M  V30 12 C 37.790013 33.299172 61.433681 0 CFG=2
M  V30 13 N 34.832172 32.247640 59.453491 0 CHG=1
M  V30 14 C 38.967090 31.009154 55.823387 0
M  V30 15 C 40.031192 28.048641 55.965478 0
M  V30 16 C 38.321227 29.221366 53.281282 0
M  V30 17 C 37.931884 37.323169 61.587080 0
M  V30 18 C 38.293133 26.694151 58.006305 0
M  V30 19 C 41.300454 33.325462 62.595383 0
M  V30 20 O 39.731683 31.129295 54.871240 0
M  V30 21 C 39.153907 32.714348 61.781255 0
M  V30 22 C 35.734124 34.437748 58.865090 0
M  V30 23 C 37.443519 29.313095 54.548280 0
M  V30 24 C 37.194400 32.682829 60.112189 0 CFG=2
M  V30 25 C 38.794602 28.627842 56.686045 0 CFG=1
M  V30 26 O 39.033606 33.621492 58.850145 0
M  V30 27 C 38.047239 29.763827 55.926220 0 CFG=1
M  V30 28 C 37.219351 35.981138 61.884040 0
M  V30 29 O 37.868658 27.594646 56.992259 0
M  V30 30 H 38.478943 35.116010 60.502691 0
M  V30 31 H 40.508450 36.154180 60.899868 0
M  V30 32 H 41.182375 36.312610 62.507150 0
M  V30 33 H 35.389598 33.660339 60.822964 0
M  V30 34 H 39.211839 37.514104 63.326570 0
M  V30 35 H 39.834022 38.343789 61.931900 0
M  V30 36 H 39.206686 35.064753 63.450861 0
M  V30 37 H 39.503803 32.759380 56.853520 0
M  V30 38 H 37.403561 31.055884 57.863980 0
M  V30 39 H 37.119648 33.059005 62.252147 0
M  V30 40 H 35.067964 32.013872 58.473898 0
M  V30 41 H 33.886515 32.602294 59.456801 0
M  V30 42 H 40.678981 28.828830 55.573530 0
M  V30 43 H 39.746129 27.392329 55.145365 0
M  V30 44 H 40.647382 27.460107 56.640743 0
M  V30 45 H 37.753388 28.807000 52.446618 0
M  V30 46 H 39.218601 28.623614 53.405540 0
M  V30 47 H 38.654107 30.205491 52.975628 0
M  V30 48 H 37.308410 38.152165 61.917786 0
M  V30 49 H 38.031487 37.452967 60.510544 0
M  V30 50 H 37.509193 25.963745 58.200691 0
M  V30 51 H 38.497450 27.218589 58.939174 0
M  V30 52 H 39.185219 26.137724 57.723997 0
M  V30 53 H 41.812873 34.207655 62.999517 0
M  V30 54 H 36.476428 35.205333 59.086382 0
M  V30 55 H 34.755892 34.920784 58.839930 0
M  V30 56 H 35.943033 34.051492 57.864456 0
M  V30 57 H 36.640941 30.011331 54.315474 0
M  V30 58 H 36.970548 28.338353 54.652199 0
M  V30 59 H 37.061268 31.620503 60.331792 0
M  V30 60 H 39.128219 29.051649 57.633956 0
M  V30 61 H 37.174851 30.031718 56.522676 0
M  V30 62 H 36.292918 35.922160 61.316386 0
M  V30 63 H 36.942773 35.995475 62.936437 0
M  V30 64 H 34.902537 31.433272 60.039274 0
M  V30 END ATOM
M  V30 BEGIN BOND
M  V30 1 1 7 3
M  V30 2 1 8 1
M  V30 3 1 8 3
M  V30 4 1 8 4
M  V30 5 1 11 5
M  V30 6 1 11 9
M  V30 7 1 12 1
M  V30 8 1 13 6
M  V30 9 1 14 9
M  V30 10 1 17 7
M  V30 11 2 19 2
M  V30 12 1 19 4
M  V30 13 2 20 14
M  V30 14 1 21 4
M  V30 15 2 21 10
M  V30 16 1 21 12
M  V30 17 1 22 6
M  V30 18 1 23 16
M  V30 19 1 24 5
M  V30 20 1 24 6
M  V30 21 1 24 12
M  V30 22 1 25 15
M  V30 23 2 26 5
M  V30 24 1 27 14
M  V30 25 1 27 23
M  V30 26 1 27 25
M  V30 27 1 28 1
M  V30 28 1 28 17
M  V30 29 1 29 18
M  V30 30 1 29 25
M  V30 31 1 1 30 CFG=3
M  V30 32 1 31 3
M  V30 33 1 32 3
M  V30 34 1 6 33 CFG=1
M  V30 35 1 34 7
M  V30 36 1 35 7
M  V30 37 1 8 36 CFG=1
M  V30 38 1 37 9
M  V30 39 1 38 11
M  V30 40 1 12 39 CFG=1
M  V30 41 1 40 13
M  V30 42 1 41 13
M  V30 43 1 42 15
M  V30 44 1 43 15
M  V30 45 1 44 15
M  V30 46 1 45 16
M  V30 47 1 46 16
M  V30 48 1 47 16
M  V30 49 1 48 17
M  V30 50 1 49 17
M  V30 51 1 50 18
M  V30 52 1 51 18
M  V30 53 1 52 18
M  V30 54 1 53 19
M  V30 55 1 54 22
M  V30 56 1 55 22
M  V30 57 1 56 22
M  V30 58 1 57 23
M  V30 59 1 58 23
M  V30 60 1 24 59 CFG=1
M  V30 61 1 25 60 CFG=1
M  V30 62 1 27 61 CFG=1
M  V30 63 1 62 28
M  V30 64 1 63 28
M  V30 65 1 64 13
M  V30 END BOND
M  V30 END CTAB
M  END
>  <i_epik_Tot_Q>  (1) 
1

>  <i_epik_Tot_abs_Q>  (1) 
1

>  <i_i_glide_confnum>  (1) 
63

>  <i_i_glide_lignum>  (1) 
136

>  <i_i_glide_posenum>  (1) 
265

>  <i_i_glide_rotatable_bonds>  (1) 
11

>  <i_lp_mmshare_version>  (1) 
72125

>  <i_m_source_file_index>  (1) 
52

>  <i_f3d_flags>  (1) 
0

>  <num_sample>  (1) 
100

>  <b_lp_Chiralities_Consistent>  (1) 
1

>  <r_epik_Charging_Adjusted_Penalty>  (1) 
0.019458142528331109

>  <r_epik_Ionization_Penalty>  (1) 
0.0099781937774174462

>  <r_epik_Ionization_Penalty_Charging>  (1) 
0.0097290712641655529

>  <r_epik_Ionization_Penalty_Neutral>  (1) 
0.00024912251325189406

>  <r_epik_State_Penalty>  (1) 
0.0097290712641655563

>  <r_glide_ring_energy>  (1) 
0

>  <r_i_docking_score>  (1) 
-6.9846677573988432

>  <r_i_glide_ecoul>  (1) 
-10.056408932079957

>  <r_i_glide_eff_state_penalty>  (1) 
0.0097290712641655563

>  <r_i_glide_einternal>  (1) 
31.7800143835013

>  <r_i_glide_emodel>  (1) 
-55.505309230638879

>  <r_i_glide_emodel_strain>  (1) 
0.40832367412339465

>  <r_i_glide_energy>  (1) 
-48.153786550086593

>  <r_i_glide_erotb>  (1) 
0.81470354957181534

>  <r_i_glide_esite>  (1) 
-0.30495835063578752

>  <r_i_glide_evdw>  (1) 
-38.097377618006639

>  <r_i_glide_gscore>  (1) 
-6.9943968286630085

>  <r_i_glide_gscore_strain>  (1) 
0

>  <r_i_glide_hbond>  (1) 
-0.20000000000000001

>  <r_i_glide_ligand_efficiency>  (1) 
-0.24085061232409805

>  <r_i_glide_ligand_efficiency_ln>  (1) 
-1.5993118005519846

>  <r_i_glide_ligand_efficiency_sa>  (1) 
-0.73996938872006557

>  <r_i_glide_lipo>  (1) 
-2.2239376534266406

>  <r_i_glide_metal>  (1) 
-0

>  <r_i_glide_rewards>  (1) 
-1.66687415346007

>  <r_lp_Energy>  (1) 
35.249798999999996

>  <r_lp_tautomer_probability>  (1) 
0.99995000000000001

>  <s_epik_cmdline>  (1) 
J2VwaWtfcHl0aG9uJywgJy1waHQnLCAnMS4wJywgJy1waCcsICc3LjQnLCAnLXRuJywgJzgnLCAnLW1hJywgJzUwMCcsICctaW1hZScsICc8aW5maWxlLm1hZT4nLCAnLW9tYWUnLCAnPG91dGZpbGUubWFlPic=

>  <s_epik_input>  (1) 
W0NIMl0xW0NIMl1bQ0gyXVtDSDJdW0NAQEhdKFtDQEhdMTIpTihbQ0hdPU8pQyg9TylbQ0BASF0yW0NAQEhdKFtDQEhdKFtOSDJdKVtDSDNdKUMoPU8pW05IXVtOSF1DKD1PKVtDQEBIXShbQ0gyXVtDSDNdKVtDQEhdKFtDSDNdKU9bQ0gzXQ==

>  <s_glide_docking_method>  (1) 
confgen

>  <s_i_glide_gridfile>  (1) 
gpcr_5ht2c_6bqh_protein_autoprepared_prepared

>  <s_lp_Force_Field>  (1) 
S-OPLS

>  <s_lp_Variant>  (1) 
DiffSBDD_51_num_sample_100-1

>  <s_m_source_file>  (1) 
generated__ligand_DiffSBDD_2026-05-06_prepared.sdf

>  <GenAI_Model>  (1) 
DiffSBDD

>  <Protein>  (1) 
GPCR_5HT2C

$$$$
DiffSBDD_15_num_sample_100
     RDKit          3D

  0  0  0  0  0  0  0  0  0  0999 V3000
M  V30 BEGIN CTAB
M  V30 COUNTS 74 79 0 0 1
M  V30 BEGIN ATOM
M  V30 1 C 39.467067 33.384642 60.104860 0
M  V30 2 S 40.973577 35.289083 63.478922 0
M  V30 3 N 38.544870 28.496710 53.809084 0
M  V30 4 C 41.710139 32.585470 69.283859 0
M  V30 5 C 39.545771 30.209371 51.493972 0
M  V30 6 C 37.361062 26.012422 56.526195 0
M  V30 7 S 37.995903 29.248126 57.751171 0
M  V30 8 S 39.875229 30.821432 53.159679 0
M  V30 9 O 39.200023 28.492242 58.123272 0
M  V30 10 C 42.197030 33.146781 66.417798 0
M  V30 11 C 41.251909 33.916495 66.996294 0
M  V30 12 C 39.847813 34.192185 62.524833 0 CFG=1
M  V30 13 C 38.289686 26.725043 55.557536 0 CFG=1
M  V30 14 N 42.266047 33.413740 65.064572 0
M  V30 15 C 40.667364 29.440550 50.808457 0
M  V30 16 C 40.993000 30.177206 49.506553 0
M  V30 17 C 37.799472 28.096947 55.031855 0 CFG=1
M  V30 18 C 37.554608 32.048355 61.959753 0
M  V30 19 S 40.736357 34.007429 68.652483 0
M  V30 20 C 43.078339 32.144681 67.084604 0
M  V30 21 N 38.648702 30.123926 55.340367 0
M  V30 22 C 39.441328 31.911484 60.580411 0 CFG=2
M  V30 23 N 39.701780 26.652297 55.900785 0
M  V30 24 O 40.143191 35.620919 60.653501 0
M  V30 25 C 43.106335 32.421840 68.612903 0
M  V30 26 C 38.276670 30.995362 58.331113 0
M  V30 27 C 40.277819 34.282970 61.061384 0 CFG=2
M  V30 28 N 37.871479 29.290988 56.010430 0
M  V30 29 C 38.370223 31.035282 59.888888 0 CFG=2
M  V30 30 C 39.251526 25.864059 54.769768 0
M  V30 31 C 38.946592 29.659056 54.132880 0
M  V30 32 C 37.077994 31.403993 60.638184 0
M  V30 33 O 36.686356 28.822335 58.253435 0
M  V30 34 C 41.350125 34.383139 64.930595 0
M  V30 35 N 39.022675 31.860052 61.995114 0 CFG=1 CHG=1
M  V30 36 O 40.669448 34.723578 66.070678 0
M  V30 37 C 39.829171 32.702804 62.931506 0
M  V30 38 H 38.452563 33.777489 60.032014 0
M  V30 39 H 39.867152 33.449951 59.092870 0
M  V30 40 H 41.836458 32.702347 70.360307 0
M  V30 41 H 41.126239 31.676670 69.133527 0
M  V30 42 H 38.629457 29.621287 51.435625 0
M  V30 43 H 39.406848 31.141274 50.948043 0
M  V30 44 H 36.379265 25.882212 56.071649 0
M  V30 45 H 37.746674 25.025627 56.781318 0
M  V30 46 H 37.243553 26.562778 57.453956 0
M  V30 47 H 38.847703 34.608390 62.638118 0
M  V30 48 H 41.532709 29.320287 51.450912 0
M  V30 49 H 40.316862 28.431511 50.585173 0
M  V30 50 H 41.563359 29.621520 48.771384 0
M  V30 51 H 40.036597 30.419950 49.053519 0
M  V30 52 H 41.513252 31.115747 49.697457 0
M  V30 53 H 36.780456 27.969548 54.653429 0
M  V30 54 H 37.298181 33.107613 61.956303 0
M  V30 55 H 37.081430 31.621549 62.830478 0
M  V30 56 H 42.700207 31.138322 66.901250 0
M  V30 57 H 44.090254 32.181853 66.678808 0
M  V30 58 H 38.878893 31.042845 55.686062 0
M  V30 59 H 40.428569 31.457932 60.516844 0
M  V30 60 H 39.958583 26.157333 56.742815 0
M  V30 61 H 40.644810 36.166457 61.243077 0
M  V30 62 H 43.676678 33.333390 68.792748 0
M  V30 63 H 43.660088 31.625911 69.110692 0
M  V30 64 H 37.465820 31.617338 57.947530 0
M  V30 65 H 39.194823 31.342530 57.866723 0
M  V30 66 H 41.329962 34.000922 61.053524 0
M  V30 67 H 38.614041 30.018321 60.201886 0
M  V30 68 H 39.208025 24.786506 54.909098 0
M  V30 69 H 39.578631 26.181722 53.783279 0
M  V30 70 H 36.475406 32.114887 60.070981 0
M  V30 71 H 36.459958 30.521323 60.801904 0
M  V30 72 H 39.469903 32.579628 63.949737 0
M  V30 73 H 40.848039 32.311820 62.923127 0
M  V30 74 H 39.164003 30.902397 62.288304 0
M  V30 END ATOM
M  V30 BEGIN BOND
M  V30 1 1 8 5
M  V30 2 2 9 7
M  V30 3 2 11 10
M  V30 4 1 12 2
M  V30 5 1 13 6 CFG=1
M  V30 6 1 14 10
M  V30 7 1 15 5
M  V30 8 1 16 15
M  V30 9 1 17 3
M  V30 10 1 17 13
M  V30 11 1 19 4
M  V30 12 1 19 11
M  V30 13 1 20 10
M  V30 14 1 22 1
M  V30 15 1 23 13
M  V30 16 1 25 4
M  V30 17 1 25 20
M  V30 18 1 26 7
M  V30 19 1 27 1
M  V30 20 1 27 12
M  V30 21 1 27 24
M  V30 22 1 28 7
M  V30 23 1 28 17
M  V30 24 1 28 21
M  V30 25 1 29 22
M  V30 26 1 29 26
M  V30 27 1 30 13
M  V30 28 1 30 23
M  V30 29 2 31 3
M  V30 30 1 31 8
M  V30 31 1 31 21
M  V30 32 1 32 18
M  V30 33 1 32 29
M  V30 34 2 33 7
M  V30 35 1 34 2
M  V30 36 2 34 14
M  V30 37 1 35 18
M  V30 38 1 35 22
M  V30 39 1 36 11
M  V30 40 1 36 34
M  V30 41 1 37 12
M  V30 42 1 37 35
M  V30 43 1 38 1
M  V30 44 1 39 1
M  V30 45 1 40 4
M  V30 46 1 41 4
M  V30 47 1 42 5
M  V30 48 1 43 5
M  V30 49 1 44 6
M  V30 50 1 45 6
M  V30 51 1 46 6
M  V30 52 1 12 47 CFG=3
M  V30 53 1 48 15
M  V30 54 1 49 15
M  V30 55 1 50 16
M  V30 56 1 51 16
M  V30 57 1 52 16
M  V30 58 1 17 53 CFG=3
M  V30 59 1 54 18
M  V30 60 1 55 18
M  V30 61 1 56 20
M  V30 62 1 57 20
M  V30 63 1 58 21
M  V30 64 1 22 59 CFG=1
M  V30 65 1 60 23
M  V30 66 1 61 24
M  V30 67 1 62 25
M  V30 68 1 63 25
M  V30 69 1 64 26
M  V30 70 1 65 26
M  V30 71 1 27 66 CFG=1
M  V30 72 1 29 67 CFG=1
M  V30 73 1 68 30
M  V30 74 1 69 30
M  V30 75 1 70 32
M  V30 76 1 71 32
M  V30 77 1 72 37
M  V30 78 1 73 37
M  V30 79 1 35 74 CFG=1
M  V30 END BOND
M  V30 END CTAB
M  END
>  <i_epik_Tot_Q>  (1) 
1

>  <i_epik_Tot_abs_Q>  (1) 
1

>  <i_i_glide_confnum>  (1) 
7

>  <i_i_glide_lignum>  (1) 
36

>  <i_i_glide_posenum>  (1) 
127

>  <i_i_glide_rotatable_bonds>  (1) 
10

>  <i_lp_mmshare_version>  (1) 
72125

>  <i_m_source_file_index>  (1) 
16

>  <i_f3d_flags>  (1) 
0

>  <num_sample>  (1) 
100

>  <b_lp_Chiralities_Consistent>  (1) 
1

>  <r_epik_Charging_Adjusted_Penalty>  (1) 
0.0082019649409003706

>  <r_epik_Ionization_Penalty>  (1) 
0.015626865898487191

>  <r_epik_Ionization_Penalty_Charging>  (1) 
0.0082019649409003706

>  <r_epik_Ionization_Penalty_Neutral>  (1) 
0.0074249009575868222

>  <r_epik_State_Penalty>  (1) 
-0

>  <r_glide_ring_energy>  (1) 
0

>  <r_i_docking_score>  (1) 
-6.9845818737369347

>  <r_i_glide_ecoul>  (1) 
0.84916342056797101

>  <r_i_glide_eff_state_penalty>  (1) 
-0

>  <r_i_glide_einternal>  (1) 
15.080814530385858

>  <r_i_glide_emodel>  (1) 
-54.01788949316061

>  <r_i_glide_emodel_strain>  (1) 
5.3532636855820357

>  <r_i_glide_energy>  (1) 
-45.234262196419152

>  <r_i_glide_erotb>  (1) 
0.37349522713264072

>  <r_i_glide_esite>  (1) 
-0.085754113828601708

>  <r_i_glide_evdw>  (1) 
-46.083425616987121

>  <r_i_glide_gscore>  (1) 
-6.9845818737369347

>  <r_i_glide_gscore_strain>  (1) 
0.33831592139550892

>  <r_i_glide_hbond>  (1) 
0

>  <r_i_glide_ligand_efficiency>  (1) 
-0.18877248307397121

>  <r_i_glide_ligand_efficiency_ln>  (1) 
-1.5147920665825703

>  <r_i_glide_ligand_efficiency_sa>  (1) 
-0.62903179308855284

>  <r_i_glide_lipo>  (1) 
-4.2909779518470685

>  <r_i_glide_metal>  (1) 
-0

>  <r_i_glide_rewards>  (1) 
-1.142864188825254

>  <r_lp_Energy>  (1) 
12.858018

>  <r_lp_tautomer_probability>  (1) 
1

>  <s_epik_Chemistry_Notes>  (1) 
This compound has an imine and may undergo hydrolysis. This compound contains an acetal/aminal-like group ( X-CH(R)-Y where X, Y are N, S, or O) that may be acid/base labile, releasing an aldehyde.

>  <s_epik_cmdline>  (1) 
J2VwaWtfcHl0aG9uJywgJy1waHQnLCAnMS4wJywgJy1waCcsICc3LjQnLCAnLXRuJywgJzgnLCAnLW1hJywgJzUwMCcsICctaW1hZScsICc8aW5maWxlLm1hZT4nLCAnLW9tYWUnLCAnPG91dGZpbGUubWFlPic=

>  <s_epik_input>  (1) 
W0NIMl0xW0NIMl1bQ0gyXVNjKGMxMilvYyhuMilTW0NAQEhdKFtDQEBIXShbQ0gyXTMpW09IXSlbQ0gyXU4oW0NASF0zNClbQ0gyXVtDSDJdW0NASF00W0NIMl1TKD1PKSg9TylONVtOSF1DKFNbQ0gyXVtDSDJdW0NIM10pPU5bQ0BASF01W0NAXTYoW0NIM10pW05IXVtDSDJdNg==

>  <s_glide_docking_method>  (1) 
confgen

>  <s_i_glide_gridfile>  (1) 
gpcr_5ht2c_6bqh_protein_autoprepared_prepared

>  <s_lp_Force_Field>  (1) 
S-OPLS

>  <s_lp_Variant>  (1) 
DiffSBDD_15_num_sample_100-3

>  <s_m_source_file>  (1) 
generated__ligand_DiffSBDD_2026-05-06_prepared.sdf

>  <GenAI_Model>  (1) 
DiffSBDD

>  <Protein>  (1) 
GPCR_5HT2C

$$$$
DiffSBDD_39_num_sample_100
     RDKit          3D

  0  0  0  0  0  0  0  0  0  0999 V3000
M  V30 BEGIN CTAB
M  V30 COUNTS 61 64 0 0 1
M  V30 BEGIN ATOM
M  V30 1 C 39.164141 35.208500 62.211307 0
M  V30 2 C 39.234811 29.744066 58.483830 0
M  V30 3 C 35.981634 32.789058 61.106021 0
M  V30 4 C 38.575767 30.918521 59.218997 0
M  V30 5 C 38.746066 33.795107 60.185090 0
M  V30 6 C 37.891274 27.793928 57.446924 0
M  V30 7 N 38.514378 26.683833 53.849720 0
M  V30 8 O 36.266370 31.621530 61.453570 0 CHG=-1
M  V30 9 C 38.267278 27.889754 55.977029 0
M  V30 10 C 37.337175 35.892067 60.723407 0
M  V30 11 O 35.427370 33.621655 61.853401 0
M  V30 12 C 37.061836 36.967711 61.596503 0
M  V30 13 C 37.819818 37.151033 62.769371 0
M  V30 14 N 37.780559 33.266469 59.381282 0
M  V30 15 C 39.748660 36.470469 64.320072 0
M  V30 16 C 35.668954 34.515006 59.235030 0
M  V30 17 C 39.196734 27.860583 51.827765 0
M  V30 18 C 38.253581 32.219100 58.443858 0
M  V30 19 C 39.906609 37.182223 66.804617 0
M  V30 20 C 38.636373 29.103849 55.310690 0
M  V30 21 C 36.330500 33.207597 59.663094 0 CFG=2
M  V30 22 C 39.790025 29.302139 51.593067 0
M  V30 23 O 40.060567 35.998429 67.180765 0 CHG=-1
M  V30 24 C 38.391219 34.983244 61.051380 0
M  V30 25 S 39.467403 30.413939 53.053691 0
M  V30 26 C 38.961998 29.031665 53.956032 0
M  V30 27 O 38.617934 30.307583 55.927059 0
M  V30 28 C 38.886275 36.278161 63.066719 0
M  V30 29 Cl 37.763940 25.198188 55.914762 0
M  V30 30 C 39.243103 37.404901 65.436967 0
M  V30 31 C 38.215402 26.698449 55.175910 0
M  V30 32 C 38.273755 28.585330 58.491627 0
M  V30 33 C 36.536485 35.758904 59.428327 0
M  V30 34 O 39.867628 33.325464 60.255114 0
M  V30 35 C 38.881558 27.847859 53.290102 0
M  V30 36 O 40.244330 38.206078 67.445667 0
M  V30 37 H 39.975777 34.535773 62.452523 0
M  V30 38 H 39.972137 29.368977 59.195884 0
M  V30 39 H 39.923389 29.947469 57.675081 0
M  V30 40 H 37.638904 30.588265 59.663417 0
M  V30 41 H 39.202865 31.099613 60.087658 0
M  V30 42 H 37.225501 26.979001 57.687284 0
M  V30 43 H 36.265890 37.656911 61.363877 0
M  V30 44 H 37.582653 37.964227 63.430352 0
M  V30 45 H 39.975496 35.491852 64.726302 0
M  V30 46 H 40.708454 36.821398 63.956680 0
M  V30 47 H 34.705102 34.635139 59.723835 0
M  V30 48 H 35.409894 34.421610 58.183109 0
M  V30 49 H 39.867356 27.056488 51.540482 0
M  V30 50 H 38.264780 27.734756 51.276224 0
M  V30 51 H 39.127888 32.573104 57.895245 0
M  V30 52 H 37.507865 32.023664 57.676373 0
M  V30 53 H 35.872048 32.426061 59.056002 0
M  V30 54 H 40.872559 29.231531 51.476344 0
M  V30 55 H 39.401297 29.741916 50.673363 0
M  V30 56 H 38.726730 31.019496 55.315115 0
M  V30 57 H 39.467295 38.421447 65.129342 0
M  V30 58 H 38.172159 37.276556 65.585377 0
M  V30 59 H 37.867734 28.376303 59.464043 0
M  V30 60 H 35.903358 36.637835 59.307128 0
M  V30 61 H 37.246055 35.823425 58.605972 0
M  V30 END ATOM
M  V30 BEGIN BOND
M  V30 1 1 4 2
M  V30 2 1 8 3
M  V30 3 1 9 6
M  V30 4 2 11 3
M  V30 5 1 12 10
M  V30 6 2 13 12
M  V30 7 1 14 5
M  V30 8 1 18 4
M  V30 9 1 18 14
M  V30 10 2 20 9
M  V30 11 1 21 3
M  V30 12 1 21 14
M  V30 13 1 21 16
M  V30 14 1 22 17
M  V30 15 1 23 19
M  V30 16 1 24 1
M  V30 17 1 24 5
M  V30 18 2 24 10
M  V30 19 1 25 22
M  V30 20 1 26 20
M  V30 21 1 26 25
M  V30 22 1 27 20
M  V30 23 2 28 1
M  V30 24 1 28 13
M  V30 25 1 28 15
M  V30 26 1 30 15
M  V30 27 1 30 19
M  V30 28 2 31 7
M  V30 29 1 31 9
M  V30 30 1 31 29
M  V30 31 1 32 2
M  V30 32 2 32 6
M  V30 33 1 33 10
M  V30 34 1 33 16
M  V30 35 2 34 5
M  V30 36 1 35 7
M  V30 37 1 35 17
M  V30 38 2 35 26
M  V30 39 2 36 19
M  V30 40 1 37 1
M  V30 41 1 38 2
M  V30 42 1 39 2
M  V30 43 1 40 4
M  V30 44 1 41 4
M  V30 45 1 42 6
M  V30 46 1 43 12
M  V30 47 1 44 13
M  V30 48 1 45 15
M  V30 49 1 46 15
M  V30 50 1 47 16
M  V30 51 1 48 16
M  V30 52 1 49 17
M  V30 53 1 50 17
M  V30 54 1 51 18
M  V30 55 1 52 18
M  V30 56 1 21 53 CFG=3
M  V30 57 1 54 22
M  V30 58 1 55 22
M  V30 59 1 56 27
M  V30 60 1 57 30
M  V30 61 1 58 30
M  V30 62 1 59 32
M  V30 63 1 60 33
M  V30 64 1 61 33
M  V30 END BOND
M  V30 END CTAB
M  END
>  <i_epik_Tot_Q>  (1) 
-2

>  <i_epik_Tot_abs_Q>  (1) 
2

>  <i_i_glide_confnum>  (1) 
10

>  <i_i_glide_lignum>  (1) 
97

>  <i_i_glide_posenum>  (1) 
9

>  <i_i_glide_rotatable_bonds>  (1) 
10

>  <i_lp_mmshare_version>  (1) 
72125

>  <i_m_source_file_index>  (1) 
40

>  <i_f3d_flags>  (1) 
0

>  <num_sample>  (1) 
100

>  <b_lp_Chiralities_Consistent>  (1) 
1

>  <r_epik_Charging_Adjusted_Penalty>  (1) 
1.1553041349672681

>  <r_epik_Ionization_Penalty>  (1) 
1.0836065631352982

>  <r_epik_Ionization_Penalty_Charging>  (1) 
0.00098582723969229671

>  <r_epik_Ionization_Penalty_Neutral>  (1) 
1.0826207358956059

>  <r_epik_State_Penalty>  (1) 
1.1543183077275758

>  <r_glide_ring_energy>  (1) 
0

>  <r_i_docking_score>  (1) 
-6.9794295560047148

>  <r_i_glide_ecoul>  (1) 
-5.2820341329082163

>  <r_i_glide_eff_state_penalty>  (1) 
1.1543183077275758

>  <r_i_glide_einternal>  (1) 
15.979517155622446

>  <r_i_glide_emodel>  (1) 
-58.567629171819995

>  <r_i_glide_emodel_strain>  (1) 
1.8202653605057293

>  <r_i_glide_energy>  (1) 
-50.773176377938022

>  <r_i_glide_erotb>  (1) 
0.51538728504810294

>  <r_i_glide_esite>  (1) 
-0.029569923735023304

>  <r_i_glide_evdw>  (1) 
-45.491142245029806

>  <r_i_glide_gscore>  (1) 
-8.1337478637322906

>  <r_i_glide_gscore_strain>  (1) 
0

>  <r_i_glide_hbond>  (1) 
-0.2079365922973733

>  <r_i_glide_ligand_efficiency>  (1) 
-0.19387304322235319

>  <r_i_glide_ligand_efficiency_ln>  (1) 
-1.5227229667246955

>  <r_i_glide_ligand_efficiency_sa>  (1) 
-0.64015468424201383

>  <r_i_glide_lipo>  (1) 
-3.8375535295260859

>  <r_i_glide_metal>  (1) 
-0

>  <r_i_glide_rewards>  (1) 
-1.5072128710341883

>  <r_lp_Energy>  (1) 
49.855823000000001

>  <s_epik_cmdline>  (1) 
J2VwaWtfcHl0aG9uJywgJy1waHQnLCAnMS4wJywgJy1waCcsICc3LjQnLCAnLXRuJywgJzgnLCAnLW1hJywgJzUwMCcsICctaW1hZScsICc8aW5maWxlLm1hZT4nLCAnLW9tYWUnLCAnPG91dGZpbGUubWFlPic=

>  <s_epik_input>  (1) 
W09IXUMoPU8pW0NIMl1bQ0gyXWMoW2NIXVtjSF0xKVtjSF1jKGMxMilDKD1PKU4oW0NAQEhdKEMoPU8pW09IXSlbQ0gyXVtDSDJdMilbQ0gyXVtDSDJdW0NIMl0vW0NIXT1bQ0hdXGMoYzNbT0hdKWMoQ2wpbmMoYzM0KVtDSDJdW0NIMl1TNA==

>  <s_glide_docking_method>  (1) 
confgen

>  <s_i_glide_gridfile>  (1) 
gpcr_5ht2c_6bqh_protein_autoprepared_prepared

>  <s_lp_Force_Field>  (1) 
S-OPLS

>  <s_lp_Variant>  (1) 
DiffSBDD_39_num_sample_100-4

>  <s_m_source_file>  (1) 
generated__ligand_DiffSBDD_2026-05-06_prepared.sdf

>  <GenAI_Model>  (1) 
DiffSBDD

>  <Protein>  (1) 
GPCR_5HT2C

$$$$
DiffSBDD_79_num_sample_100
     RDKit          3D

  0  0  0  0  0  0  0  0  0  0999 V3000
M  V30 BEGIN CTAB
M  V30 COUNTS 85 87 0 0 1
M  V30 BEGIN ATOM
M  V30 1 C 41.088300 27.609497 56.391121 0
M  V30 2 C 37.376916 29.958960 59.244527 0
M  V30 3 C 39.294402 28.562681 51.114503 0
M  V30 4 C 38.556636 36.050610 61.496421 0
M  V30 5 C 41.011165 27.457436 58.805130 0
M  V30 6 C 40.314525 30.344128 49.777449 0
M  V30 7 C 40.142899 27.640649 57.574617 0
M  V30 8 C 37.266214 30.425974 54.673895 0
M  V30 9 F 41.635858 30.422726 49.702872 0
M  V30 10 C 37.725727 36.663036 62.638009 0
M  V30 11 C 38.628555 29.091144 59.114059 0
M  V30 12 C 39.483066 30.551910 53.446926 0
M  V30 13 F 39.868178 29.621381 48.773277 0
M  V30 14 C 39.911238 29.758708 51.086908 0
M  V30 15 C 37.982836 28.616678 53.191283 0
M  V30 16 C 36.397144 32.186483 59.435859 0
M  V30 17 C 40.384476 34.672500 62.466861 0
M  V30 18 N 39.165640 34.753968 61.857407 0
M  V30 19 C 38.773050 27.019464 57.384997 0
M  V30 20 C 38.255575 29.814496 53.732924 0
M  V30 21 C 38.457690 33.528636 61.416854 0
M  V30 22 C 38.202454 31.834600 57.606746 0 CFG=2
M  V30 23 C 38.902320 28.533404 57.710966 0
M  V30 24 C 38.283626 25.968606 58.365273 0
M  V30 25 O 39.151873 30.904529 57.202916 0
M  V30 26 O 40.919378 33.598262 62.741400 0
M  V30 27 C 38.932814 33.154506 57.841327 0
M  V30 28 C 38.364225 26.494068 56.007510 0
M  V30 29 C 41.110313 35.986283 62.794631 0
M  V30 30 N 37.622390 31.419809 59.065861 0 CFG=2 CHG=1
M  V30 31 F 39.803793 31.568904 49.656890 0
M  V30 32 C 40.198567 30.529839 52.296618 0
M  V30 33 C 36.927009 33.459031 61.623818 0
M  V30 34 C 38.901012 27.841085 52.333677 0
M  V30 35 C 36.193384 32.303853 60.948490 0
M  V30 36 C 37.319939 29.675615 55.992393 0
M  V30 37 C 38.708962 29.655021 56.682474 0 CFG=2
M  V30 38 H 41.467406 26.595961 56.274019 0
M  V30 39 H 40.625700 27.871118 55.452828 0
M  V30 40 H 41.925762 28.283996 56.556218 0
M  V30 41 H 37.030911 29.799262 60.254219 0
M  V30 42 H 36.552045 29.579016 58.650110 0
M  V30 43 H 39.102613 28.043936 50.187735 0
M  V30 44 H 39.308004 36.768019 61.168174 0
M  V30 45 H 37.924231 35.926050 60.618487 0
M  V30 46 H 41.733410 26.659251 58.638327 0
M  V30 47 H 41.581607 28.367744 59.002099 0
M  V30 48 H 40.430181 27.224561 59.692174 0
M  V30 49 H 37.476875 31.488473 54.783228 0
M  V30 50 H 36.267622 30.376031 54.253839 0
M  V30 51 H 37.353579 37.646458 62.350300 0
M  V30 52 H 36.859735 36.047094 62.879590 0
M  V30 53 H 38.304721 36.785856 63.550506 0
M  V30 54 H 39.503880 29.640502 59.467647 0
M  V30 55 H 38.509691 28.276113 59.820380 0
M  V30 56 H 39.811804 31.253386 54.201980 0
M  V30 57 H 37.050540 28.128630 53.444705 0
M  V30 58 H 36.385359 33.181184 58.990293 0
M  V30 59 H 35.518246 31.674463 59.053153 0
M  V30 60 H 38.884945 32.630346 61.862768 0
M  V30 61 H 38.675761 33.467202 60.364214 0
M  V30 62 H 37.467173 32.012295 56.848243 0
M  V30 63 H 38.798957 25.027030 58.178791 0
M  V30 64 H 38.454906 26.237995 59.397578 0
M  V30 65 H 37.217473 25.798558 58.234771 0
M  V30 66 H 38.241057 33.946980 58.117407 0
M  V30 67 H 39.725213 33.076010 58.575166 0
M  V30 68 H 39.385289 33.422108 56.888851 0
M  V30 69 H 38.837808 25.530668 55.811035 0
M  V30 70 H 37.281659 26.354994 55.951668 0
M  V30 71 H 38.652382 27.161967 55.205841 0
M  V30 72 H 40.509923 36.670086 63.389163 0
M  V30 73 H 42.009083 35.771961 63.373996 0
M  V30 74 H 41.445168 36.491129 61.888333 0
M  V30 75 H 41.026359 31.219814 52.238639 0
M  V30 76 H 36.421561 34.390810 61.375326 0
M  V30 77 H 36.728465 33.221497 62.653385 0
M  V30 78 H 39.787656 27.557986 52.902977 0
M  V30 79 H 38.409267 26.911563 52.044427 0
M  V30 80 H 35.126702 32.457350 61.126321 0
M  V30 81 H 36.423641 31.375203 61.463832 0
M  V30 82 H 36.514287 30.021203 56.626337 0
M  V30 83 H 37.067403 28.670842 55.719987 0
M  V30 84 H 39.441177 29.482748 55.911280 0
M  V30 85 H 38.325349 31.667537 59.743849 0
M  V30 END ATOM
M  V30 BEGIN BOND
M  V30 1 1 7 1
M  V30 2 1 7 5
M  V30 3 1 9 6
M  V30 4 1 10 4
M  V30 5 1 11 2
M  V30 6 1 13 6
M  V30 7 2 14 3
M  V30 8 1 14 6
M  V30 9 1 18 4
M  V30 10 1 18 17
M  V30 11 1 19 7
M  V30 12 1 20 8
M  V30 13 1 20 12
M  V30 14 2 20 15
M  V30 15 1 21 18
M  V30 16 1 23 7
M  V30 17 1 23 11
M  V30 18 1 23 19
M  V30 19 1 24 19
M  V30 20 1 25 22
M  V30 21 2 26 17
M  V30 22 1 27 22
M  V30 23 1 28 19
M  V30 24 1 29 17
M  V30 25 1 30 2
M  V30 26 1 30 16
M  V30 27 1 30 22
M  V30 28 1 31 6
M  V30 29 2 32 12
M  V30 30 1 32 14
M  V30 31 1 33 21
M  V30 32 1 34 3
M  V30 33 1 34 15
M  V30 34 1 35 16
M  V30 35 1 35 33
M  V30 36 1 36 8
M  V30 37 1 37 23
M  V30 38 1 37 25
M  V30 39 1 37 36
M  V30 40 1 38 1
M  V30 41 1 39 1
M  V30 42 1 40 1
M  V30 43 1 41 2
M  V30 44 1 42 2
M  V30 45 1 43 3
M  V30 46 1 44 4
M  V30 47 1 45 4
M  V30 48 1 46 5
M  V30 49 1 47 5
M  V30 50 1 48 5
M  V30 51 1 49 8
M  V30 52 1 50 8
M  V30 53 1 51 10
M  V30 54 1 52 10
M  V30 55 1 53 10
M  V30 56 1 54 11
M  V30 57 1 55 11
M  V30 58 1 56 12
M  V30 59 1 57 15
M  V30 60 1 58 16
M  V30 61 1 59 16
M  V30 62 1 60 21
M  V30 63 1 61 21
M  V30 64 1 22 62 CFG=3
M  V30 65 1 63 24
M  V30 66 1 64 24
M  V30 67 1 65 24
M  V30 68 1 66 27
M  V30 69 1 67 27
M  V30 70 1 68 27
M  V30 71 1 69 28
M  V30 72 1 70 28
M  V30 73 1 71 28
M  V30 74 1 72 29
M  V30 75 1 73 29
M  V30 76 1 74 29
M  V30 77 1 75 32
M  V30 78 1 76 33
M  V30 79 1 77 33
M  V30 80 1 78 34
M  V30 81 1 79 34
M  V30 82 1 80 35
M  V30 83 1 81 35
M  V30 84 1 82 36
M  V30 85 1 83 36
M  V30 86 1 37 84 CFG=3
M  V30 87 1 30 85 CFG=1
M  V30 END BOND
M  V30 END CTAB
M  END
>  <i_epik_Tot_Q>  (1) 
1

>  <i_epik_Tot_abs_Q>  (1) 
1

>  <i_i_glide_confnum>  (1) 
537

>  <i_i_glide_lignum>  (1) 
204

>  <i_i_glide_posenum>  (1) 
19

>  <i_i_glide_rotatable_bonds>  (1) 
11

>  <i_lp_mmshare_version>  (1) 
72125

>  <i_m_source_file_index>  (1) 
80

>  <i_f3d_flags>  (1) 
0

>  <num_sample>  (1) 
100

>  <b_lp_Chiralities_Consistent>  (1) 
1

>  <r_epik_Charging_Adjusted_Penalty>  (1) 
1.4563538393833728

>  <r_epik_Ionization_Penalty>  (1) 
0.72817750760685918

>  <r_epik_Ionization_Penalty_Charging>  (1) 
0.72817691969168641

>  <r_epik_Ionization_Penalty_Neutral>  (1) 
5.8791517278497126e-07

>  <r_epik_State_Penalty>  (1) 
0.72817691969168641

>  <r_glide_ring_energy>  (1) 
0

>  <r_i_docking_score>  (1) 
-6.9750347958466596

>  <r_i_glide_ecoul>  (1) 
-2.4324118145851541

>  <r_i_glide_eff_state_penalty>  (1) 
0.72817691969168641

>  <r_i_glide_einternal>  (1) 
15.799643881405139

>  <r_i_glide_emodel>  (1) 
-30.02086454242324

>  <r_i_glide_emodel_strain>  (1) 
2.3748207502625576

>  <r_i_glide_energy>  (1) 
-33.373804434180187

>  <r_i_glide_erotb>  (1) 
0.59581955881290138

>  <r_i_glide_esite>  (1) 
-0.18580173133863895

>  <r_i_glide_evdw>  (1) 
-30.941392619595032

>  <r_i_glide_gscore>  (1) 
-7.7032117155383464

>  <r_i_glide_gscore_strain>  (1) 
0

>  <r_i_glide_hbond>  (1) 
0

>  <r_i_glide_ligand_efficiency>  (1) 
-0.18851445394180161

>  <r_i_glide_ligand_efficiency_ln>  (1) 
-1.5127215292034304

>  <r_i_glide_ligand_efficiency_sa>  (1) 
-0.62817198277597608

>  <r_i_glide_lipo>  (1) 
-4.6161495513013167

>  <r_i_glide_metal>  (1) 
-0

>  <r_i_glide_rewards>  (1) 
-1.5851485885437679

>  <r_lp_Energy>  (1) 
61.755589999999998

>  <s_epik_Chemistry_Notes>  (1) 
This compound contains an acetal/aminal-like group ( X-CH(R)-Y where X, Y are N, S, or O) that may be acid/base labile, releasing an aldehyde.

>  <s_epik_cmdline>  (1) 
J2VwaWtfcHl0aG9uJywgJy1waHQnLCAnMS4wJywgJy1waCcsICc3LjQnLCAnLXRuJywgJzgnLCAnLW1hJywgJzUwMCcsICctaW1hZScsICc8aW5maWxlLm1hZT4nLCAnLW9tYWUnLCAnPG91dGZpbGUubWFlPic=

>  <s_epik_input>  (1) 
W0NIM11bQ0gyXU4oQyg9TylbQ0gzXSlbQ0gyXVtDSDJdW0NIMl1bQ0gyXU4oW0NIMl1bQ0gyXUMxMkMoW0NIM10pKFtDSDNdKUMxKFtDSDNdKVtDSDNdKVtDQEBIXShbQ0gzXSlPW0NASF0yW0NIMl1bQ0gyXUMoW0NIXT1bQ0hdMyk9W0NIXVtDSDJdW0NIXT1DM0MoRikoRilG

>  <s_glide_docking_method>  (1) 
confgen

>  <s_i_glide_gridfile>  (1) 
gpcr_5ht2c_6bqh_protein_autoprepared_prepared

>  <s_lp_Force_Field>  (1) 
S-OPLS

>  <s_lp_Variant>  (1) 
DiffSBDD_79_num_sample_100-6

>  <s_m_source_file>  (1) 
generated__ligand_DiffSBDD_2026-05-06_prepared.sdf

>  <GenAI_Model>  (1) 
DiffSBDD

>  <Protein>  (1) 
GPCR_5HT2C

$$$$
DiffSBDD_91_num_sample_100
     RDKit          3D

  0  0  0  0  0  0  0  0  0  0999 V3000
M  V30 BEGIN CTAB
M  V30 COUNTS 73 75 0 0 1
M  V30 BEGIN ATOM
M  V30 1 C 41.396007 29.327812 65.981501 0
M  V30 2 C 41.663714 33.739868 63.965938 0 CFG=1
M  V30 3 N 37.961750 30.506101 56.406811 0
M  V30 4 C 39.541267 33.322770 62.041858 0 CFG=2
M  V30 5 O 39.025247 32.983116 60.787213 0
M  V30 6 C 40.941292 34.938298 63.318386 0 CFG=2
M  V30 7 F 43.159385 27.714614 65.871524 0
M  V30 8 C 40.432553 34.578161 61.907532 0 CFG=2
M  V30 9 C 41.400049 31.215326 64.429844 0
M  V30 10 C 39.580205 26.397438 58.333513 0
M  V30 11 C 37.977716 32.115561 60.795027 0
M  V30 12 C 38.933009 29.646287 56.836335 0
M  V30 13 C 37.827144 24.605162 55.289953 0 CFG=1
M  V30 14 O 37.467325 31.621415 61.805999 0
M  V30 15 C 39.169616 26.103336 56.888022 0
M  V30 16 C 39.617182 35.729790 61.288159 0
M  V30 17 S 40.382886 28.021321 58.515002 0
M  V30 18 C 40.801200 30.508770 65.495797 0
M  V30 19 O 41.923707 34.068004 65.319318 0
M  V30 20 O 41.842560 36.021254 63.215190 0
M  V30 21 C 38.201478 24.919730 56.751781 0
M  V30 22 C 37.094609 30.313998 59.193210 0
M  V30 23 C 40.752061 32.487826 63.900581 0 CFG=2
M  V30 24 C 42.588897 28.850256 65.404366 0
M  V30 25 C 43.188284 29.553394 64.341032 0
M  V30 26 N 38.269059 29.447520 59.194509 0
M  V30 27 O 36.741653 23.701980 55.306866 0
M  V30 28 C 42.595076 30.734619 63.853513 0
M  V30 29 C 39.083335 29.155148 58.096614 0
M  V30 30 C 39.744977 29.334051 55.778589 0
M  V30 31 C 37.457774 31.798527 59.390098 0
M  V30 32 C 37.419259 25.840339 54.473532 0
M  V30 33 C 38.022804 30.834750 54.932452 0 CFG=2
M  V30 34 C 39.301578 29.952152 54.707145 0
M  V30 35 C 38.265338 32.314241 54.649176 0
M  V30 36 O 40.327341 32.288570 62.555581 0
M  V30 37 H 40.936270 28.787198 66.796363 0
M  V30 38 H 42.606280 33.553996 63.450262 0
M  V30 39 H 38.713548 33.523284 62.721936 0
M  V30 40 H 40.098128 35.252813 63.933973 0
M  V30 41 H 41.275381 34.335343 61.261054 0
M  V30 42 H 38.714569 26.368839 58.995905 0
M  V30 43 H 40.267477 25.618649 58.653502 0
M  V30 44 H 38.667341 24.122300 54.792656 0
M  V30 45 H 40.059192 25.943651 56.276936 0
M  V30 46 H 38.665301 26.978561 56.490948 0
M  V30 47 H 38.713648 35.933680 61.863523 0
M  V30 48 H 40.203670 36.647374 61.262109 0
M  V30 49 H 39.320736 35.508580 60.262382 0
M  V30 50 H 39.884812 30.870837 65.938707 0
M  V30 51 H 41.102131 34.203039 65.766094 0
M  V30 52 H 42.048436 36.336840 64.086249 0
M  V30 53 H 37.296197 25.148689 57.317213 0
M  V30 54 H 38.632428 24.030860 57.215071 0
M  V30 55 H 36.479856 30.157636 58.308612 0
M  V30 56 H 36.454954 29.994335 60.015733 0
M  V30 57 H 39.867404 32.675590 64.506571 0
M  V30 58 H 44.102769 29.185824 63.898626 0
M  V30 59 H 38.498026 29.015985 60.078760 0
M  V30 60 H 36.479808 23.528535 54.415343 0
M  V30 61 H 43.055303 31.270286 63.037796 0
M  V30 62 H 40.607054 28.684524 55.815336 0
M  V30 63 H 38.193772 32.108819 58.647859 0
M  V30 64 H 36.570715 32.408819 59.218570 0
M  V30 65 H 38.271264 26.494025 54.285364 0
M  V30 66 H 37.015364 25.569217 53.498068 0
M  V30 67 H 36.667789 26.421364 55.008788 0
M  V30 68 H 37.155003 30.439114 54.404397 0
M  V30 69 H 39.759849 29.876058 53.732533 0
M  V30 70 H 38.291245 32.475607 53.572714 0
M  V30 71 H 37.467418 32.929672 55.060999 0
M  V30 72 H 39.205976 32.658022 55.079543 0
M  V30 73 H 37.196894 30.832849 56.988753 0
M  V30 END ATOM
M  V30 BEGIN BOND
M  V30 1 1 5 4
M  V30 2 1 6 2
M  V30 3 1 8 4
M  V30 4 1 8 6
M  V30 5 1 11 5
M  V30 6 1 12 3
M  V30 7 2 14 11
M  V30 8 1 15 10
M  V30 9 1 16 8
M  V30 10 1 17 10
M  V30 11 2 18 1
M  V30 12 1 18 9
M  V30 13 1 19 2
M  V30 14 1 20 6
M  V30 15 1 21 13
M  V30 16 1 21 15
M  V30 17 1 23 2
M  V30 18 1 23 9
M  V30 19 1 24 1
M  V30 20 1 24 7
M  V30 21 2 25 24
M  V30 22 1 26 22
M  V30 23 1 27 13
M  V30 24 2 28 9
M  V30 25 1 28 25
M  V30 26 2 29 12
M  V30 27 1 29 17
M  V30 28 1 29 26
M  V30 29 1 30 12
M  V30 30 1 31 11
M  V30 31 1 31 22
M  V30 32 1 32 13
M  V30 33 1 33 3
M  V30 34 2 34 30
M  V30 35 1 34 33
M  V30 36 1 35 33
M  V30 37 1 36 4
M  V30 38 1 36 23
M  V30 39 1 37 1
M  V30 40 1 2 38 CFG=3
M  V30 41 1 4 39 CFG=1
M  V30 42 1 6 40 CFG=1
M  V30 43 1 8 41 CFG=3
M  V30 44 1 42 10
M  V30 45 1 43 10
M  V30 46 1 13 44 CFG=3
M  V30 47 1 45 15
M  V30 48 1 46 15
M  V30 49 1 47 16
M  V30 50 1 48 16
M  V30 51 1 49 16
M  V30 52 1 50 18
M  V30 53 1 51 19
M  V30 54 1 52 20
M  V30 55 1 53 21
M  V30 56 1 54 21
M  V30 57 1 55 22
M  V30 58 1 56 22
M  V30 59 1 23 57 CFG=1
M  V30 60 1 58 25
M  V30 61 1 59 26
M  V30 62 1 60 27
M  V30 63 1 61 28
M  V30 64 1 62 30
M  V30 65 1 63 31
M  V30 66 1 64 31
M  V30 67 1 65 32
M  V30 68 1 66 32
M  V30 69 1 67 32
M  V30 70 1 33 68 CFG=3
M  V30 71 1 69 34
M  V30 72 1 70 35
M  V30 73 1 71 35
M  V30 74 1 72 35
M  V30 75 1 73 3
M  V30 END BOND
M  V30 END CTAB
M  END
>  <i_epik_Tot_Q>  (1) 
0

>  <i_epik_Tot_abs_Q>  (1) 
0

>  <i_i_glide_confnum>  (1) 
4

>  <i_i_glide_lignum>  (1) 
245

>  <i_i_glide_posenum>  (1) 
335

>  <i_i_glide_rotatable_bonds>  (1) 
15

>  <i_lp_mmshare_version>  (1) 
72125

>  <i_m_source_file_index>  (1) 
92

>  <i_f3d_flags>  (1) 
0

>  <num_sample>  (1) 
100

>  <b_lp_Chiralities_Consistent>  (1) 
1

>  <r_epik_Charging_Adjusted_Penalty>  (1) 
0.41626047813520761

>  <r_epik_Ionization_Penalty>  (1) 
0.0056919315549441929

>  <r_epik_Ionization_Penalty_Charging>  (1) 
0.0055806391826036302

>  <r_epik_Ionization_Penalty_Neutral>  (1) 
0.00011129237234056257

>  <r_epik_State_Penalty>  (1) 
0.41067983895260396

>  <r_glide_ring_energy>  (1) 
0

>  <r_i_docking_score>  (1) 
-6.9731573598806342

>  <r_i_glide_ecoul>  (1) 
-6.2318501231715171

>  <r_i_glide_eff_state_penalty>  (1) 
0.41067983895260396

>  <r_i_glide_einternal>  (1) 
5.9562889731705333

>  <r_i_glide_emodel>  (1) 
-79.846040424184181

>  <r_i_glide_emodel_strain>  (1) 
0.34953450203884984

>  <r_i_glide_energy>  (1) 
-57.409173377206159

>  <r_i_glide_erotb>  (1) 
0.89707811728232589

>  <r_i_glide_esite>  (1) 
-0.08386951866327598

>  <r_i_glide_evdw>  (1) 
-51.17732325403464

>  <r_i_glide_gscore>  (1) 
-7.3838371988332385

>  <r_i_glide_gscore_strain>  (1) 
0

>  <r_i_glide_hbond>  (1) 
-0.4076173078051577

>  <r_i_glide_ligand_efficiency>  (1) 
-0.19369881555223983

>  <r_i_glide_ligand_efficiency_ln>  (1) 
-1.5213545429855775

>  <r_i_glide_ligand_efficiency_sa>  (1) 
-0.63957939715055512

>  <r_i_glide_lipo>  (1) 
-3.7675101062673382

>  <r_i_glide_metal>  (1) 
-0

>  <r_i_glide_rewards>  (1) 
-0.5282747022023333

>  <r_lp_Energy>  (1) 
38.539941999999996

>  <r_lp_tautomer_probability>  (1) 
0.49957765584955821

>  <s_epik_Chemistry_Notes>  (1) 
This compound has an ester and may undergo hydrolysis at high or low pH. This compound has an imine and may undergo hydrolysis. This compound contains an acetal/aminal-like group ( X-CH(R)-Y where X, Y are N, S, or O) that may be acid/base labile, releasing an aldehyde.

>  <s_epik_cmdline>  (1) 
J2VwaWtfcHl0aG9uJywgJy1waHQnLCAnMS4wJywgJy1waCcsICc3LjQnLCAnLXRuJywgJzgnLCAnLW1hJywgJzUwMCcsICctaW1hZScsICc8aW5maWxlLm1hZT4nLCAnLW9tYWUnLCAnPG91dGZpbGUubWFlPic=

>  <s_epik_input>  (1) 
W2NIXTFbY0hdYyhGKVtjSF1bY0hdYzFbQ0BASF0yT1tDQEBIXShbQ0BASF0oW0NIM10pW0NASF0oW09IXSlbQ0BIXTJbT0hdKU9DKD1PKVtDSDJdW0NIMl1bTkhdW0NAQEhdKEMzPU5bQ0BASF0oW0NIM10pW0NIXT1bQ0hdMylTW0NIMl1bQ0gyXVtDSDJdW0NAQEhdKFtPSF0pW0NIM10=

>  <s_glide_docking_method>  (1) 
confgen

>  <s_i_glide_gridfile>  (1) 
gpcr_5ht2c_6bqh_protein_autoprepared_prepared

>  <s_lp_Force_Field>  (1) 
S-OPLS

>  <s_lp_Variant>  (1) 
DiffSBDD_91_num_sample_100-1

>  <s_m_source_file>  (1) 
generated__ligand_DiffSBDD_2026-05-06_prepared.sdf

>  <GenAI_Model>  (1) 
DiffSBDD

>  <Protein>  (1) 
GPCR_5HT2C

$$$$
DiffSBDD_90_num_sample_100
     RDKit          3D

  0  0  0  0  0  0  0  0  0  0999 V3000
M  V30 BEGIN CTAB
M  V30 COUNTS 85 88 0 0 1
M  V30 BEGIN ATOM
M  V30 1 C 36.363580 30.034648 58.823137 0
M  V30 2 O 40.266859 36.421280 64.738427 0
M  V30 3 F 37.467387 22.986018 55.052043 0
M  V30 4 C 38.585128 29.594789 54.679417 0 CFG=1
M  V30 5 C 37.766701 36.834339 61.943359 0 CFG=2
M  V30 6 C 38.713839 34.607245 61.329559 0 CFG=1
M  V30 7 C 38.272904 32.680230 55.007138 0
M  V30 8 C 38.497508 32.070255 61.038625 0
M  V30 9 C 39.474990 30.745636 54.083210 0
M  V30 10 N 38.998505 36.758001 64.117395 0
M  V30 11 C 38.190417 24.359398 56.875817 0
M  V30 12 C 40.668789 30.993074 54.976549 0
M  V30 13 C 37.399732 35.397423 61.499265 0
M  V30 14 C 39.780756 35.391030 62.119690 0
M  V30 15 O 37.467346 37.480425 59.652800 0
M  V30 16 N 37.809979 29.689718 58.973566 0 CFG=1 CHG=1
M  V30 17 C 38.625323 33.159108 61.830134 0
M  V30 18 F 39.145393 24.353255 54.739879 0
M  V30 19 C 37.666182 26.560618 54.998194 0 CFG=2
M  V30 20 N 38.260210 28.417487 58.310547 0
M  V30 21 C 38.646006 25.797339 57.190190 0
M  V30 22 C 38.776409 30.801566 58.788938 0
M  V30 23 O 38.667427 31.905691 53.879384 0
M  V30 24 C 40.043698 30.502215 52.667027 0
M  V30 25 C 36.005087 31.398149 59.455776 0
M  V30 26 C 37.031439 25.193995 54.797483 0
M  V30 27 C 38.410903 32.112857 59.517662 0 CFG=1
M  V30 28 C 39.147816 36.700078 62.657064 0 CFG=1
M  V30 29 C 38.144139 28.616983 53.575044 0
M  V30 30 O 38.344259 38.978100 61.051812 0 CHG=-1
M  V30 31 C 38.003608 28.307166 56.863526 0 CFG=1
M  V30 32 C 37.006122 32.507867 59.075098 0
M  V30 33 O 36.753088 37.287604 62.830153 0
M  V30 34 C 39.128522 28.867351 55.972331 0
M  V30 35 C 37.697020 26.837512 56.527344 0 CFG=1
M  V30 36 C 37.108528 27.599057 54.015073 0
M  V30 37 C 37.979120 24.177576 55.359576 0
M  V30 38 C 37.866489 37.850879 60.780393 0
M  V30 39 H 35.777563 29.256621 59.310253 0
M  V30 40 H 36.044783 30.020837 57.789624 0
M  V30 41 H 40.816904 37.189190 64.592913 0
M  V30 42 H 37.657817 30.078417 54.986352 0
M  V30 43 H 38.983521 34.661549 60.277065 0
M  V30 44 H 37.532755 33.422057 54.707842 0
M  V30 45 H 37.839298 32.076945 55.805601 0
M  V30 46 H 39.125190 33.233095 55.404112 0
M  V30 47 H 38.446086 31.094818 61.493881 0
M  V30 48 H 38.827532 37.705577 64.435231 0
M  V30 49 H 37.259383 24.138491 57.401970 0
M  V30 50 H 38.931802 23.646170 57.241042 0
M  V30 51 H 41.195179 30.042207 55.052458 0
M  V30 52 H 41.460331 31.621432 54.597489 0
M  V30 53 H 40.340525 31.368724 55.942359 0
M  V30 54 H 36.795587 35.377362 60.595354 0
M  V30 55 H 36.775199 34.928191 62.253467 0
M  V30 56 H 40.607483 35.645082 61.458924 0
M  V30 57 H 40.209425 34.776783 62.908943 0
M  V30 58 H 38.671821 33.026620 62.900197 0
M  V30 59 H 38.702292 26.489338 54.679919 0
M  V30 60 H 37.646339 27.773869 58.791352 0
M  V30 61 H 38.682140 25.904424 58.274649 0
M  V30 62 H 39.668957 25.937350 56.832052 0
M  V30 63 H 38.847010 31.055978 57.732214 0
M  V30 64 H 39.741393 30.421941 59.126687 0
M  V30 65 H 40.666602 29.621626 52.625715 0
M  V30 66 H 39.278281 30.376353 51.909259 0
M  V30 67 H 40.659881 31.340751 52.343347 0
M  V30 68 H 35.976601 31.284644 60.540927 0
M  V30 69 H 34.994353 31.691490 59.162736 0
M  V30 70 H 36.094423 25.100090 55.340653 0
M  V30 71 H 36.832032 24.978018 53.746418 0
M  V30 72 H 39.109581 32.871623 59.168493 0
M  V30 73 H 39.810289 37.524671 62.386755 0
M  V30 74 H 37.682261 29.189259 52.768673 0
M  V30 75 H 39.002821 28.105712 53.140892 0
M  V30 76 H 37.107074 28.863504 56.624143 0
M  V30 77 H 36.702438 33.455907 59.515004 0
M  V30 78 H 37.066497 32.677247 57.998711 0
M  V30 79 H 36.785450 36.733896 63.594446 0
M  V30 80 H 39.709989 29.499507 56.630208 0
M  V30 81 H 39.854626 28.100923 55.695804 0
M  V30 82 H 36.714953 26.625844 56.945064 0
M  V30 83 H 36.267343 28.126347 54.392965 0
M  V30 84 H 36.748365 27.101101 53.113919 0
M  V30 85 H 37.892244 29.476739 59.960369 0
M  V30 END ATOM
M  V30 BEGIN BOND
M  V30 1 1 9 4
M  V30 2 1 10 2
M  V30 3 1 12 9
M  V30 4 1 13 5
M  V30 5 1 13 6
M  V30 6 1 14 6
M  V30 7 1 16 1
M  V30 8 1 17 6
M  V30 9 2 17 8
M  V30 10 1 20 16
M  V30 11 1 21 11
M  V30 12 1 22 16
M  V30 13 1 23 7
M  V30 14 1 23 9
M  V30 15 1 24 9
M  V30 16 1 25 1
M  V30 17 1 26 19
M  V30 18 1 27 8
M  V30 19 1 27 22
M  V30 20 1 28 5
M  V30 21 1 28 10
M  V30 22 1 28 14
M  V30 23 1 29 4
M  V30 24 1 31 20
M  V30 25 1 32 25
M  V30 26 1 32 27
M  V30 27 1 5 33 CFG=1
M  V30 28 1 34 4
M  V30 29 1 34 31
M  V30 30 1 35 19
M  V30 31 1 35 21
M  V30 32 1 35 31
M  V30 33 1 36 19
M  V30 34 1 36 29
M  V30 35 1 37 3
M  V30 36 1 37 11
M  V30 37 1 37 18
M  V30 38 1 37 26
M  V30 39 1 38 5
M  V30 40 2 38 15
M  V30 41 1 38 30
M  V30 42 1 39 1
M  V30 43 1 40 1
M  V30 44 1 41 2
M  V30 45 1 4 42 CFG=1
M  V30 46 1 6 43 CFG=3
M  V30 47 1 44 7
M  V30 48 1 45 7
M  V30 49 1 46 7
M  V30 50 1 47 8
M  V30 51 1 48 10
M  V30 52 1 49 11
M  V30 53 1 50 11
M  V30 54 1 51 12
M  V30 55 1 52 12
M  V30 56 1 53 12
M  V30 57 1 54 13
M  V30 58 1 55 13
M  V30 59 1 56 14
M  V30 60 1 57 14
M  V30 61 1 58 17
M  V30 62 1 19 59 CFG=3
M  V30 63 1 60 20
M  V30 64 1 61 21
M  V30 65 1 62 21
M  V30 66 1 63 22
M  V30 67 1 64 22
M  V30 68 1 65 24
M  V30 69 1 66 24
M  V30 70 1 67 24
M  V30 71 1 68 25
M  V30 72 1 69 25
M  V30 73 1 70 26
M  V30 74 1 71 26
M  V30 75 1 27 72 CFG=3
M  V30 76 1 28 73 CFG=3
M  V30 77 1 74 29
M  V30 78 1 75 29
M  V30 79 1 31 76 CFG=1
M  V30 80 1 77 32
M  V30 81 1 78 32
M  V30 82 1 79 33
M  V30 83 1 80 34
M  V30 84 1 81 34
M  V30 85 1 35 82 CFG=1
M  V30 86 1 83 36
M  V30 87 1 84 36
M  V30 88 1 16 85 CFG=1
M  V30 END BOND
M  V30 END CTAB
M  END
>  <i_epik_Tot_Q>  (1) 
0

>  <i_epik_Tot_abs_Q>  (1) 
2

>  <i_i_glide_confnum>  (1) 
128

>  <i_i_glide_lignum>  (1) 
237

>  <i_i_glide_posenum>  (1) 
61

>  <i_i_glide_rotatable_bonds>  (1) 
10

>  <i_lp_mmshare_version>  (1) 
72125

>  <i_m_source_file_index>  (1) 
91

>  <i_f3d_flags>  (1) 
0

>  <num_sample>  (1) 
100

>  <b_lp_Chiralities_Consistent>  (1) 
1

>  <r_epik_Charging_Adjusted_Penalty>  (1) 
1.5083745474312953

>  <r_epik_Ionization_Penalty>  (1) 
0.65750586125956467

>  <r_epik_Ionization_Penalty_Charging>  (1) 
0.6544614066189578

>  <r_epik_Ionization_Penalty_Neutral>  (1) 
0.0030444546406068235

>  <r_epik_State_Penalty>  (1) 
0.8539131408123376

>  <r_glide_ring_energy>  (1) 
0.35261698705858036

>  <r_i_docking_score>  (1) 
-6.9710202217815533

>  <r_i_glide_ecoul>  (1) 
-7.5337460816903787

>  <r_i_glide_eff_state_penalty>  (1) 
0.8539131408123376

>  <r_i_glide_einternal>  (1) 
38.200330568500121

>  <r_i_glide_emodel>  (1) 
-13.481948302944097

>  <r_i_glide_emodel_strain>  (1) 
5.7257314212484971

>  <r_i_glide_energy>  (1) 
-34.433662789341668

>  <r_i_glide_erotb>  (1) 
0.42002339013477186

>  <r_i_glide_esite>  (1) 
-0.044265035429087038

>  <r_i_glide_evdw>  (1) 
-26.899916707651286

>  <r_i_glide_gscore>  (1) 
-7.8249333625938906

>  <r_i_glide_gscore_strain>  (1) 
0.43143285531212427

>  <r_i_glide_hbond>  (1) 
-0.32000000000000001

>  <r_i_glide_ligand_efficiency>  (1) 
-0.18344790057319876

>  <r_i_glide_ligand_efficiency_ln>  (1) 
-1.5031570264546499

>  <r_i_glide_ligand_efficiency_sa>  (1) 
-0.61674733015599581

>  <r_i_glide_lipo>  (1) 
-4.5482610276318116

>  <r_i_glide_metal>  (1) 
-0

>  <r_i_glide_rewards>  (1) 
-1.2888057973437665

>  <r_lp_Energy>  (1) 
46.065079999999995

>  <s_epik_Chemistry_Notes>  (1) 
This compound has a N-S or N-O group and may undergo hydrolysis at high or low pH.

>  <s_epik_cmdline>  (1) 
J2VwaWtfcHl0aG9uJywgJy1waHQnLCAnMS4wJywgJy1waCcsICc3LjQnLCAnLXRuJywgJzgnLCAnLW1hJywgJzUwMCcsICctaW1hZScsICc8aW5maWxlLm1hZT4nLCAnLW9tYWUnLCAnPG91dGZpbGUubWFlPic=

>  <s_epik_input>  (1) 
RkMoRikoW0NIMl0xKVtDSDJdW0NIMl1bQ0BIXShbQ0BASF0xMilbQ0BIXShbQ0gyXVtDQEhdKFtDSDJdW0NIMl0yKUMoW0NIM10pKFtDSDNdKU9bQ0gzXSlbTkhdTjNbQ0gyXVtDSDJdW0NIMl1bQ0BIXShbQ0gyXTMpL1tDSF09W0NIXVxbQ0BASF0oW0NIMl1bQ0BdNChbT0hdKUMoPU8pW09IXSlbQ0gyXVtDQEBIXTRbTkhdW09IXQ==

>  <s_glide_docking_method>  (1) 
confgen

>  <s_i_glide_gridfile>  (1) 
gpcr_5ht2c_6bqh_protein_autoprepared_prepared

>  <s_lp_Force_Field>  (1) 
S-OPLS

>  <s_lp_Variant>  (1) 
DiffSBDD_90_num_sample_100-9

>  <s_m_source_file>  (1) 
generated__ligand_DiffSBDD_2026-05-06_prepared.sdf

>  <GenAI_Model>  (1) 
DiffSBDD

>  <Protein>  (1) 
GPCR_5HT2C

$$$$
DiffSBDD_0_num_sample_100
     RDKit          3D

  0  0  0  0  0  0  0  0  0  0999 V3000
M  V30 BEGIN CTAB
M  V30 COUNTS 60 62 0 0 1
M  V30 BEGIN ATOM
M  V30 1 C 38.892243 26.634200 57.325397 0
M  V30 2 C 39.192806 29.607701 54.471580 0 CFG=1
M  V30 3 C 39.867368 34.139255 61.020311 0
M  V30 4 C 37.367336 33.703527 58.209456 0
M  V30 5 C 38.998217 25.385302 56.629292 0
M  V30 6 C 38.278323 26.626367 54.484794 0
M  V30 7 C 37.777031 35.350821 60.655917 0
M  V30 8 C 40.289667 35.140857 61.919269 0
M  V30 9 C 38.612907 34.242734 60.380992 0
M  V30 10 C 39.905867 29.519254 52.080755 0 CFG=2
M  V30 11 N 38.541014 31.899921 55.365995 0 CHG=1
M  V30 12 C 38.949822 32.898547 56.374034 0
M  V30 13 C 37.714218 33.591758 56.905973 0
M  V30 14 C 39.457580 36.247284 62.185244 0
M  V30 15 F 37.396794 37.410642 61.811491 0
M  V30 16 C 38.199984 36.349859 61.554570 0
M  V30 17 C 38.163722 33.157997 59.397784 0 CFG=1
M  V30 18 C 38.709555 25.351790 55.295262 0
M  V30 19 N 36.758384 31.343059 60.687151 0
M  V30 20 C 39.648865 31.008928 54.936020 0
M  V30 21 C 38.367922 27.658347 56.700510 0
M  V30 22 C 37.982596 29.110236 55.266286 0 CFG=1
M  V30 23 N 38.815925 29.621435 53.053470 0
M  V30 24 O 39.867424 37.220986 63.053505 0
M  V30 25 C 39.867744 30.662786 51.047177 0
M  V30 26 C 39.816342 28.150141 51.382389 0
M  V30 27 C 41.084761 30.723759 50.116254 0
M  V30 28 N 37.867403 27.651153 55.451411 0
M  V30 29 S 38.132908 29.291274 57.126787 0
M  V30 30 C 37.374370 32.140992 60.116346 0
M  V30 31 Cl 39.467403 23.971411 57.453500 0
M  V30 32 H 39.258438 26.733859 58.337224 0
M  V30 33 H 40.016300 28.918853 54.648346 0
M  V30 34 H 40.507222 33.293534 60.819347 0
M  V30 35 H 36.450560 34.218022 58.453502 0
M  V30 36 H 39.124370 26.960524 53.899202 0
M  V30 37 H 37.451733 26.389557 53.814651 0
M  V30 38 H 36.813340 35.436836 60.178823 0
M  V30 39 H 41.252533 35.059516 62.402880 0
M  V30 40 H 40.839567 29.621428 52.611870 0
M  V30 41 H 37.822303 31.336379 55.806447 0
M  V30 42 H 39.587875 33.621432 55.869077 0
M  V30 43 H 39.528918 32.421238 57.154667 0
M  V30 44 H 37.069235 34.021423 56.163192 0
M  V30 45 H 39.058497 32.634919 59.077419 0
M  V30 46 H 38.782455 24.423012 54.748113 0
M  V30 47 H 40.283205 31.504856 54.202671 0
M  V30 48 H 40.267399 30.833465 55.811254 0
M  V30 49 H 37.031827 29.534147 54.939985 0
M  V30 50 H 38.216962 30.402522 52.837863 0
M  V30 51 H 40.697688 37.069441 63.483772 0
M  V30 52 H 39.015666 30.546511 50.387521 0
M  V30 53 H 39.770508 31.621456 51.556566 0
M  V30 54 H 40.612652 28.021561 50.653576 0
M  V30 55 H 39.909950 27.319257 52.072413 0
M  V30 56 H 38.869345 28.034271 50.852761 0
M  V30 57 H 41.018143 31.599290 49.473671 0
M  V30 58 H 42.027714 30.777889 50.656974 0
M  V30 59 H 41.120788 29.862141 49.452615 0
M  V30 60 H 38.124963 32.364954 54.571336 0
M  V30 END ATOM
M  V30 BEGIN BOND
M  V30 1 1 5 1
M  V30 2 2 8 3
M  V30 3 1 9 3
M  V30 4 2 9 7
M  V30 5 1 12 11
M  V30 6 2 13 4
M  V30 7 1 13 12
M  V30 8 1 14 8
M  V30 9 1 16 7
M  V30 10 2 16 14
M  V30 11 1 16 15
M  V30 12 1 17 4
M  V30 13 1 17 9
M  V30 14 2 18 5
M  V30 15 1 18 6
M  V30 16 1 20 2
M  V30 17 1 20 11
M  V30 18 2 21 1
M  V30 19 1 22 2
M  V30 20 1 23 2
M  V30 21 1 23 10
M  V30 22 1 24 14
M  V30 23 1 25 10
M  V30 24 1 26 10
M  V30 25 1 27 25
M  V30 26 1 28 6
M  V30 27 1 28 21
M  V30 28 1 28 22
M  V30 29 1 29 21
M  V30 30 1 29 22
M  V30 31 1 30 17
M  V30 32 3 30 19
M  V30 33 1 31 5
M  V30 34 1 32 1
M  V30 35 1 2 33 CFG=3
M  V30 36 1 34 3
M  V30 37 1 35 4
M  V30 38 1 36 6
M  V30 39 1 37 6
M  V30 40 1 38 7
M  V30 41 1 39 8
M  V30 42 1 10 40 CFG=1
M  V30 43 1 41 11
M  V30 44 1 42 12
M  V30 45 1 43 12
M  V30 46 1 44 13
M  V30 47 1 17 45 CFG=3
M  V30 48 1 46 18
M  V30 49 1 47 20
M  V30 50 1 48 20
M  V30 51 1 22 49 CFG=3
M  V30 52 1 50 23
M  V30 53 1 51 24
M  V30 54 1 52 25
M  V30 55 1 53 25
M  V30 56 1 54 26
M  V30 57 1 55 26
M  V30 58 1 56 26
M  V30 59 1 57 27
M  V30 60 1 58 27
M  V30 61 1 59 27
M  V30 62 1 60 11
M  V30 END BOND
M  V30 END CTAB
M  END
>  <i_epik_Tot_Q>  (1) 
1

>  <i_epik_Tot_abs_Q>  (1) 
1

>  <i_i_glide_confnum>  (1) 
173

>  <i_i_glide_lignum>  (1) 
6

>  <i_i_glide_posenum>  (1) 
302

>  <i_i_glide_rotatable_bonds>  (1) 
11

>  <i_lp_mmshare_version>  (1) 
72125

>  <i_m_source_file_index>  (1) 
1

>  <i_f3d_flags>  (1) 
0

>  <num_sample>  (1) 
100

>  <b_lp_Chiralities_Consistent>  (1) 
1

>  <r_epik_Charging_Adjusted_Penalty>  (1) 
1.8065071523224812

>  <r_epik_Ionization_Penalty>  (1) 
0.92614417087394063

>  <r_epik_Ionization_Penalty_Charging>  (1) 
0.760298405215594

>  <r_epik_Ionization_Penalty_Neutral>  (1) 
0.16584576565834661

>  <r_epik_State_Penalty>  (1) 
1.0462087471068873

>  <r_glide_ring_energy>  (1) 
0

>  <r_i_docking_score>  (1) 
-6.9708666194742515

>  <r_i_glide_ecoul>  (1) 
-4.2663564482019281

>  <r_i_glide_eff_state_penalty>  (1) 
1.0462087471068873

>  <r_i_glide_einternal>  (1) 
8.7375518953215927

>  <r_i_glide_emodel>  (1) 
-71.109494506829407

>  <r_i_glide_emodel_strain>  (1) 
1.5592860946691189

>  <r_i_glide_energy>  (1) 
-44.94651738511476

>  <r_i_glide_erotb>  (1) 
0.74887478347211667

>  <r_i_glide_esite>  (1) 
-0.059073928734858186

>  <r_i_glide_evdw>  (1) 
-40.680160936912834

>  <r_i_glide_gscore>  (1) 
-8.017075366581139

>  <r_i_glide_gscore_strain>  (1) 
0

>  <r_i_glide_hbond>  (1) 
-0.094947325104968228

>  <r_i_glide_ligand_efficiency>  (1) 
-0.22486666514433068

>  <r_i_glide_ligand_efficiency_ln>  (1) 
-1.5721440540971692

>  <r_i_glide_ligand_efficiency_sa>  (1) 
-0.70639179125217455

>  <r_i_glide_lipo>  (1) 
-4.589707429396424

>  <r_i_glide_metal>  (1) 
-0

>  <r_i_glide_rewards>  (1) 
-1.3482599527410732

>  <r_lp_Energy>  (1) 
39.043923999999997

>  <s_epik_Chemistry_Notes>  (1) 
This compound contains an acetal/aminal-like group ( X-CH(R)-Y where X, Y are N, S, or O) that may be acid/base labile, releasing an aldehyde.

>  <s_epik_cmdline>  (1) 
J2VwaWtfcHl0aG9uJywgJy1waHQnLCAnMS4wJywgJy1waCcsICc3LjQnLCAnLXRuJywgJzgnLCAnLW1hJywgJzUwMCcsICctaW1hZScsICc8aW5maWxlLm1hZT4nLCAnLW9tYWUnLCAnPG91dGZpbGUubWFlPic=

>  <s_epik_input>  (1) 
W0NIXT0xQyhDbCk9W0NIXVtDSDJdTihDMTIpW0NAQEhdKFMyKVtDQEBIXShbTkhdW0NAQEhdKFtDSDNdKVtDSDJdW0NIM10pW0NIMl1bTkhdW0NIMl0vW0NIXT1bQ0hdXFtDQEhdKEMjTiljM1tjSF1bY0hdYyhbT0hdKWMoRilbY0hdMw==

>  <s_glide_docking_method>  (1) 
confgen

>  <s_i_glide_gridfile>  (1) 
gpcr_5ht2c_6bqh_protein_autoprepared_prepared

>  <s_lp_Force_Field>  (1) 
S-OPLS

>  <s_lp_Variant>  (1) 
DiffSBDD_0_num_sample_100-6

>  <s_m_source_file>  (1) 
generated__ligand_DiffSBDD_2026-05-06_prepared.sdf

>  <GenAI_Model>  (1) 
DiffSBDD

>  <Protein>  (1) 
GPCR_5HT2C

$$$$
DiffSBDD_59_num_sample_100
     RDKit          3D

  0  0  0  0  0  0  0  0  0  0999 V3000
M  V30 BEGIN CTAB
M  V30 COUNTS 54 55 0 0 1
M  V30 BEGIN ATOM
M  V30 1 O 37.457720 38.602566 61.050560 0
M  V30 2 N 38.759073 29.542857 56.017716 0 CFG=2 CHG=1
M  V30 3 C 39.727770 30.398061 52.831210 0
M  V30 4 C 37.872421 29.622913 57.216794 0
M  V30 5 C 36.937722 36.228146 61.410185 0
M  V30 6 C 38.847499 28.039501 51.563544 0
M  V30 7 C 38.286387 28.421375 52.796672 0
M  V30 8 C 38.723709 29.609817 53.440193 0
M  V30 9 C 37.669670 33.441207 59.862001 0
M  V30 10 C 37.376906 30.927479 59.365829 0
M  V30 11 Cl 37.067409 27.442680 53.511631 0
M  V30 12 C 38.361437 30.684416 58.208534 0
M  V30 13 O 37.115225 34.033086 58.771845 0
M  V30 14 N 38.213618 34.193109 60.862862 0
M  V30 15 N 38.698827 33.409033 61.852211 0
M  V30 16 C 36.937371 37.661162 61.970836 0
M  V30 17 C 37.801369 32.124516 60.161365 0
M  V30 18 C 38.091720 30.054131 54.774626 0 CFG=2
M  V30 19 C 39.390185 28.202705 55.913022 0
M  V30 20 C 38.302853 35.651517 60.976968 0 CFG=2
M  V30 21 C 40.271660 30.011692 51.591190 0
M  V30 22 C 38.455200 32.158701 61.437208 0
M  V30 23 C 39.491468 36.096880 61.860424 0
M  V30 24 C 37.931326 31.589016 54.837892 0
M  V30 25 C 39.836137 28.834143 50.961831 0
M  V30 26 H 36.781739 38.834552 60.425134 0
M  V30 27 H 40.070999 31.304096 53.304182 0
M  V30 28 H 37.826188 28.665307 57.738577 0
M  V30 29 H 36.842431 29.835578 56.924059 0
M  V30 30 H 36.267991 36.173633 60.552229 0
M  V30 31 H 36.503090 35.579460 62.172603 0
M  V30 32 H 38.511709 27.135829 51.074065 0
M  V30 33 H 37.315193 30.038995 59.994218 0
M  V30 34 H 36.370593 31.081085 58.976219 0
M  V30 35 H 38.523323 31.622918 57.678235 0
M  V30 36 H 39.330629 30.392498 58.613074 0
M  V30 37 H 35.925483 37.965664 62.241055 0
M  V30 38 H 37.512436 37.677118 62.895198 0
M  V30 39 H 36.670083 33.366723 58.264533 0
M  V30 40 H 37.072661 29.671100 54.762276 0
M  V30 41 H 38.635747 27.430792 55.775420 0
M  V30 42 H 40.108821 28.145082 55.097546 0
M  V30 43 H 39.930767 27.959605 56.827296 0
M  V30 44 H 38.503995 36.032521 59.977919 0
M  V30 45 H 41.032977 30.620059 51.124524 0
M  V30 46 H 38.760372 31.331976 62.064312 0
M  V30 47 H 39.659110 37.170801 61.789924 0
M  V30 48 H 39.324495 35.856361 62.911041 0
M  V30 49 H 40.418278 35.620245 61.540988 0
M  V30 50 H 37.461860 31.969226 53.932350 0
M  V30 51 H 37.304140 31.895639 55.671427 0
M  V30 52 H 38.880895 32.108513 54.959764 0
M  V30 53 H 40.260246 28.541244 50.013299 0
M  V30 54 H 39.526464 30.178031 56.188128 0
M  V30 END ATOM
M  V30 BEGIN BOND
M  V30 1 1 4 2
M  V30 2 2 7 6
M  V30 3 2 8 3
M  V30 4 1 8 7
M  V30 5 1 11 7
M  V30 6 1 12 4
M  V30 7 1 12 10
M  V30 8 1 13 9
M  V30 9 1 14 9
M  V30 10 1 15 14
M  V30 11 1 16 1
M  V30 12 1 16 5
M  V30 13 2 17 9
M  V30 14 1 17 10
M  V30 15 1 18 2
M  V30 16 1 18 8
M  V30 17 1 19 2
M  V30 18 1 20 5
M  V30 19 1 20 14
M  V30 20 1 21 3
M  V30 21 2 22 15
M  V30 22 1 22 17
M  V30 23 1 23 20
M  V30 24 1 24 18
M  V30 25 1 25 6
M  V30 26 2 25 21
M  V30 27 1 26 1
M  V30 28 1 27 3
M  V30 29 1 28 4
M  V30 30 1 29 4
M  V30 31 1 30 5
M  V30 32 1 31 5
M  V30 33 1 32 6
M  V30 34 1 33 10
M  V30 35 1 34 10
M  V30 36 1 35 12
M  V30 37 1 36 12
M  V30 38 1 37 16
M  V30 39 1 38 16
M  V30 40 1 39 13
M  V30 41 1 18 40 CFG=3
M  V30 42 1 41 19
M  V30 43 1 42 19
M  V30 44 1 43 19
M  V30 45 1 20 44 CFG=3
M  V30 46 1 45 21
M  V30 47 1 46 22
M  V30 48 1 47 23
M  V30 49 1 48 23
M  V30 50 1 49 23
M  V30 51 1 50 24
M  V30 52 1 51 24
M  V30 53 1 52 24
M  V30 54 1 53 25
M  V30 55 1 2 54 CFG=1
M  V30 END BOND
M  V30 END CTAB
M  END
>  <i_epik_Tot_Q>  (1) 
1

>  <i_epik_Tot_abs_Q>  (1) 
1

>  <i_i_glide_confnum>  (1) 
344

>  <i_i_glide_lignum>  (1) 
149

>  <i_i_glide_posenum>  (1) 
92

>  <i_i_glide_rotatable_bonds>  (1) 
11

>  <i_lp_mmshare_version>  (1) 
72125

>  <i_m_source_file_index>  (1) 
60

>  <i_f3d_flags>  (1) 
0

>  <num_sample>  (1) 
100

>  <b_lp_Chiralities_Consistent>  (1) 
1

>  <r_epik_Charging_Adjusted_Penalty>  (1) 
0.34288875783321848

>  <r_epik_Ionization_Penalty>  (1) 
0.16299728195075516

>  <r_epik_Ionization_Penalty_Charging>  (1) 
0.10603582337888565

>  <r_epik_Ionization_Penalty_Neutral>  (1) 
0.05696145857186951

>  <r_epik_State_Penalty>  (1) 
0.23685293445433284

>  <r_glide_ring_energy>  (1) 
0

>  <r_i_docking_score>  (1) 
-6.9705838240384725

>  <r_i_glide_ecoul>  (1) 
-5.0235677907401319

>  <r_i_glide_eff_state_penalty>  (1) 
0.23685293445433284

>  <r_i_glide_einternal>  (1) 
4.5362040841952442

>  <r_i_glide_emodel>  (1) 
-65.635452673921449

>  <r_i_glide_emodel_strain>  (1) 
0.84411105725138214

>  <r_i_glide_energy>  (1) 
-43.483585644959341

>  <r_i_glide_erotb>  (1) 
1.1440711446639862

>  <r_i_glide_esite>  (1) 
0

>  <r_i_glide_evdw>  (1) 
-38.46001785421921

>  <r_i_glide_gscore>  (1) 
-7.207436758492805

>  <r_i_glide_gscore_strain>  (1) 
0

>  <r_i_glide_hbond>  (1) 
-0.32445628433335488

>  <r_i_glide_ligand_efficiency>  (1) 
-0.27882335296153893

>  <r_i_glide_ligand_efficiency_ln>  (1) 
-1.6522372578378117

>  <r_i_glide_ligand_efficiency_sa>  (1) 
-0.8152844298875267

>  <r_i_glide_lipo>  (1) 
-3.4929402076776541

>  <r_i_glide_metal>  (1) 
-0

>  <r_i_glide_rewards>  (1) 
-1.8575753498238017

>  <r_lp_Energy>  (1) 
26.033631999999997

>  <r_lp_tautomer_probability>  (1) 
0.67048000943507491

>  <s_epik_cmdline>  (1) 
J2VwaWtfcHl0aG9uJywgJy1waHQnLCAnMS4wJywgJy1waCcsICc3LjQnLCAnLXRuJywgJzgnLCAnLW1hJywgJzUwMCcsICctaW1hZScsICc8aW5maWxlLm1hZT4nLCAnLW9tYWUnLCAnPG91dGZpbGUubWFlPic=

>  <s_epik_input>  (1) 
W09IXVtDSDJdW0NIMl1bQ0BASF0oW0NIM10pTihDMT1PKU49W0NIXVtDQEBIXTFbQ0gyXVtDSDJdW0NIMl1OKFtDSDNdKVtDQEBIXShbQ0gzXSljMltjSF1bY0hdW2NIXVtjSF1jMkNs

>  <s_glide_docking_method>  (1) 
confgen

>  <s_i_glide_gridfile>  (1) 
gpcr_5ht2c_6bqh_protein_autoprepared_prepared

>  <s_lp_Force_Field>  (1) 
S-OPLS

>  <s_lp_Variant>  (1) 
DiffSBDD_59_num_sample_100-2

>  <s_m_source_file>  (1) 
generated__ligand_DiffSBDD_2026-05-06_prepared.sdf

>  <GenAI_Model>  (1) 
DiffSBDD

>  <Protein>  (1) 
GPCR_5HT2C

$$$$
DiffSBDD_18_num_sample_100
     RDKit          3D

  0  0  0  0  0  0  0  0  0  0999 V3000
M  V30 BEGIN CTAB
M  V30 COUNTS 70 72 0 0 1
M  V30 BEGIN ATOM
M  V30 1 O 38.732244 30.696692 60.243860 0
M  V30 2 C 40.176840 32.561187 62.933691 0
M  V30 3 C 36.328780 34.532445 61.556265 0
M  V30 4 C 40.790286 32.072099 63.959956 0
M  V30 5 O 34.690475 32.683275 60.252668 0
M  V30 6 C 39.654233 34.747645 61.800590 0 CFG=2
M  V30 7 C 39.681955 26.451232 55.018191 0
M  V30 8 N 40.195196 33.921553 62.880860 0
M  V30 9 N 40.735021 35.547962 61.255215 0
M  V30 10 C 39.149312 29.494741 58.209459 0
M  V30 11 C 40.156065 26.021714 57.414661 0
M  V30 12 O 40.394138 26.021418 54.113495 0
M  V30 13 O 41.946664 33.099461 65.755128 0
M  V30 14 C 37.711946 24.562825 57.879267 0
M  V30 15 C 37.480838 36.049571 59.914373 0
M  V30 16 C 41.300292 33.174668 64.712376 0
M  V30 17 C 37.140383 24.611538 55.393817 0
M  V30 18 C 40.128273 27.245997 57.955457 0
M  V30 19 C 35.909334 32.514903 60.230151 0
M  V30 20 N 39.068920 27.678824 55.037447 0
M  V30 21 C 37.255572 35.763396 61.410147 0 CFG=2
M  V30 22 C 39.553269 29.663750 59.688586 0 CFG=2
M  V30 23 C 38.562258 35.746871 62.252838 0 CFG=2
M  V30 24 C 39.295433 37.090514 62.236517 0
M  V30 25 O 36.667474 23.477645 55.625484 0 CHG=-1
M  V30 26 C 40.933734 34.555989 64.034594 0
M  V30 27 C 38.839152 28.486091 56.008516 0
M  V30 28 C 36.504680 31.354611 59.453525 0
M  V30 29 C 37.334693 30.390482 60.297421 0
M  V30 30 C 39.436893 28.457055 60.659441 0
M  V30 31 C 39.378823 28.407219 57.433011 0
M  V30 32 C 39.382284 25.588079 56.219916 0 CFG=1
M  V30 33 C 37.877707 25.322835 56.549058 0 CFG=2
M  V30 34 N 36.771953 33.331423 60.855385 0
M  V30 35 N 40.669171 36.821431 61.853490 0
M  V30 36 O 37.067683 25.221418 54.307737 0
M  V30 37 H 39.672600 32.027785 62.142490 0
M  V30 38 H 35.457121 34.821521 61.002395 0
M  V30 39 H 35.940623 34.336642 62.556539 0
M  V30 40 H 40.917413 31.032936 64.227306 0
M  V30 41 H 39.306473 34.086340 61.008570 0
M  V30 42 H 41.636377 35.118643 61.453798 0
M  V30 43 H 38.613145 30.329280 57.781190 0
M  V30 44 H 40.740176 25.256437 57.896289 0
M  V30 45 H 41.826252 35.101552 63.729539 0
M  V30 46 H 36.667211 24.421216 58.116567 0
M  V30 47 H 38.199700 23.588889 57.855269 0
M  V30 48 H 38.124268 25.130731 58.709232 0
M  V30 49 H 37.970365 35.197967 59.453446 0
M  V30 50 H 36.536424 36.200104 59.390146 0
M  V30 51 H 38.092638 36.929284 59.730676 0
M  V30 52 H 40.711257 27.388219 58.842628 0
M  V30 53 H 36.680424 36.607030 61.793737 0
M  V30 54 H 40.580896 30.021257 59.722261 0
M  V30 55 H 38.301403 35.621414 63.295822 0
M  V30 56 H 38.862707 37.797669 61.530559 0
M  V30 57 H 39.285146 37.574692 63.214284 0
M  V30 58 H 40.288716 35.171325 64.662046 0
M  V30 59 H 38.221863 29.370862 55.833884 0
M  V30 60 H 37.066145 31.732829 58.598682 0
M  V30 61 H 35.658900 30.798988 59.049571 0
M  V30 62 H 37.112853 29.388380 59.928841 0
M  V30 63 H 37.016512 30.421521 61.340163 0
M  V30 64 H 40.375649 27.918495 60.780138 0
M  V30 65 H 39.182312 28.793275 61.666349 0
M  V30 66 H 38.667516 27.751430 60.346086 0
M  V30 67 H 39.807207 24.613724 55.974393 0
M  V30 68 H 37.357945 26.270738 56.678347 0
M  V30 69 H 37.762094 33.142594 60.803141 0
M  V30 70 H 41.270158 36.825645 62.675979 0
M  V30 END ATOM
M  V30 BEGIN BOND
M  V30 1 2 4 2
M  V30 2 1 8 2
M  V30 3 1 8 6
M  V30 4 1 9 6
M  V30 5 2 12 7
M  V30 6 1 16 4
M  V30 7 2 16 13
M  V30 8 2 18 11
M  V30 9 2 19 5
M  V30 10 1 20 7
M  V30 11 1 21 3
M  V30 12 1 21 15
M  V30 13 1 22 1
M  V30 14 1 22 10
M  V30 15 1 23 6
M  V30 16 1 23 21
M  V30 17 1 24 23
M  V30 18 1 25 17
M  V30 19 1 26 8
M  V30 20 1 26 16
M  V30 21 2 27 20
M  V30 22 1 28 19
M  V30 23 1 29 1
M  V30 24 1 29 28
M  V30 25 1 30 22
M  V30 26 2 31 10
M  V30 27 1 31 18
M  V30 28 1 31 27
M  V30 29 1 32 7
M  V30 30 1 32 11
M  V30 31 1 33 14
M  V30 32 1 33 17
M  V30 33 1 33 32
M  V30 34 1 34 3
M  V30 35 1 34 19
M  V30 36 1 35 9
M  V30 37 1 35 24
M  V30 38 2 36 17
M  V30 39 1 37 2
M  V30 40 1 38 3
M  V30 41 1 39 3
M  V30 42 1 40 4
M  V30 43 1 6 41 CFG=3
M  V30 44 1 42 9
M  V30 45 1 43 10
M  V30 46 1 44 11
M  V30 47 1 45 26
M  V30 48 1 46 14
M  V30 49 1 47 14
M  V30 50 1 48 14
M  V30 51 1 49 15
M  V30 52 1 50 15
M  V30 53 1 51 15
M  V30 54 1 52 18
M  V30 55 1 21 53 CFG=1
M  V30 56 1 22 54 CFG=3
M  V30 57 1 23 55 CFG=1
M  V30 58 1 56 24
M  V30 59 1 57 24
M  V30 60 1 58 26
M  V30 61 1 59 27
M  V30 62 1 60 28
M  V30 63 1 61 28
M  V30 64 1 62 29
M  V30 65 1 63 29
M  V30 66 1 64 30
M  V30 67 1 65 30
M  V30 68 1 66 30
M  V30 69 1 32 67 CFG=3
M  V30 70 1 33 68 CFG=1
M  V30 71 1 69 34
M  V30 72 1 70 35
M  V30 END BOND
M  V30 END CTAB
M  END
>  <i_epik_Tot_Q>  (1) 
-1

>  <i_epik_Tot_abs_Q>  (1) 
1

>  <i_i_glide_confnum>  (1) 
2829

>  <i_i_glide_lignum>  (1) 
43

>  <i_i_glide_posenum>  (1) 
171

>  <i_i_glide_rotatable_bonds>  (1) 
12

>  <i_lp_mmshare_version>  (1) 
72125

>  <i_m_source_file_index>  (1) 
19

>  <i_f3d_flags>  (1) 
0

>  <num_sample>  (1) 
100

>  <b_lp_Chiralities_Consistent>  (1) 
1

>  <r_epik_Charging_Adjusted_Penalty>  (1) 
0.37971815023500188

>  <r_epik_Ionization_Penalty>  (1) 
0.19445293645399606

>  <r_epik_Ionization_Penalty_Charging>  (1) 
0.18991606969001057

>  <r_epik_Ionization_Penalty_Neutral>  (1) 
0.004536866763985496

>  <r_epik_State_Penalty>  (1) 
0.18980208054499129

>  <r_glide_ring_energy>  (1) 
1.845819541117304

>  <r_i_docking_score>  (1) 
-6.9701235664037977

>  <r_i_glide_ecoul>  (1) 
-0.69202480234479791

>  <r_i_glide_eff_state_penalty>  (1) 
0.18980208054499129

>  <r_i_glide_einternal>  (1) 
10.715625810217801

>  <r_i_glide_emodel>  (1) 
-65.251707999566534

>  <r_i_glide_emodel_strain>  (1) 
4.566911921124273

>  <r_i_glide_energy>  (1) 
-51.240800044240686

>  <r_i_glide_erotb>  (1) 
0.89642714384868305

>  <r_i_glide_esite>  (1) 
-0.050580748185222957

>  <r_i_glide_evdw>  (1) 
-50.548775241895889

>  <r_i_glide_gscore>  (1) 
-7.1599256469487891

>  <r_i_glide_gscore_strain>  (1) 
0.14172798028106826

>  <r_i_glide_hbond>  (1) 
0

>  <r_i_glide_ligand_efficiency>  (1) 
-0.1936145435112166

>  <r_i_glide_ligand_efficiency_ln>  (1) 
-1.5206926512125594

>  <r_i_glide_ligand_efficiency_sa>  (1) 
-0.63930113700198055

>  <r_i_glide_lipo>  (1) 
-3.3326724708209174

>  <r_i_glide_metal>  (1) 
-0

>  <r_i_glide_rewards>  (1) 
-2.1835850696258858

>  <r_lp_Energy>  (1) 
26.239971999999998

>  <r_lp_tautomer_probability>  (1) 
0.98846045845713826

>  <s_epik_Chemistry_Notes>  (1) 
This compound has an imine and may undergo hydrolysis. This compound contains an acetal/aminal-like group ( X-CH(R)-Y where X, Y are N, S, or O) that may be acid/base labile, releasing an aldehyde.

>  <s_epik_cmdline>  (1) 
J2VwaWtfcHl0aG9uJywgJy1waHQnLCAnMS4wJywgJy1waCcsICc3LjQnLCAnLXRuJywgJzgnLCAnLW1hJywgJzUwMCcsICctaW1hZScsICc8aW5maWxlLm1hZT4nLCAnLW9tYWUnLCAnPG91dGZpbGUubWFlPic=

>  <s_epik_input>  (1) 
W09IXUMoPU8pW0NASF0oW0NIM10pW0NAQEhdMVtDSF09W0NIXS9DKFtDSF09TkMxPU8pPVtDSF1cW0NASF0oW0NIM10pT1tDSDJdW0NIMl1DKD1PKVtOSF1bQ0gyXVtDQEhdKFtDSDNdKVtDQEBIXTJbQ0gyXVtOSF1bTkhdW0NASF0ybjNbY0hdW2NIXWMoW09IXSlbY0hdMw==

>  <s_glide_docking_method>  (1) 
confgen

>  <s_i_glide_gridfile>  (1) 
gpcr_5ht2c_6bqh_protein_autoprepared_prepared

>  <s_lp_Force_Field>  (1) 
S-OPLS

>  <s_lp_Variant>  (1) 
DiffSBDD_18_num_sample_100-3

>  <s_m_source_file>  (1) 
generated__ligand_DiffSBDD_2026-05-06_prepared.sdf

>  <GenAI_Model>  (1) 
DiffSBDD

>  <Protein>  (1) 
GPCR_5HT2C

$$$$
DiffSBDD_63_num_sample_100
     RDKit          3D

  0  0  0  0  0  0  0  0  0  0999 V3000
M  V30 BEGIN CTAB
M  V30 COUNTS 66 69 0 0 1
M  V30 BEGIN ATOM
M  V30 1 C 36.608238 29.950750 58.718592 0
M  V30 2 O 38.114509 27.387919 54.777211 0
M  V30 3 C 38.246606 28.721774 54.365672 0 CFG=2
M  V30 4 O 41.149063 27.739540 58.557896 0
M  V30 5 C 37.180027 31.952463 60.133790 0
M  V30 6 C 41.034676 27.202615 57.255277 0
M  V30 7 C 39.203867 28.411047 50.711241 0
M  V30 8 C 39.286592 26.815482 55.368140 0 CFG=1
M  V30 9 F 41.467399 36.776438 62.620334 0
M  V30 10 C 40.396308 36.060332 62.275911 0
M  V30 11 C 39.617117 33.675385 62.203012 0
M  V30 12 S 37.335266 32.362974 61.881260 0
M  V30 13 C 38.466802 32.101187 59.308096 0
M  V30 14 C 38.373034 28.289232 51.995637 0
M  V30 15 N 39.081411 28.817323 53.161189 0
M  V30 16 O 39.468217 29.786256 50.487379 0
M  V30 17 C 40.535171 34.634018 62.387347 0
M  V30 18 C 40.267296 30.336154 51.516179 0
M  V30 19 F 36.338509 34.821466 61.023868 0
M  V30 20 C 37.604547 34.972863 61.451818 0
M  V30 21 C 39.327139 36.755099 61.871839 0
M  V30 22 C 38.703559 29.542827 55.607113 0 CFG=2
M  V30 23 C 39.704838 27.636171 56.615789 0 CFG=2
M  V30 24 C 36.744123 30.496151 60.124806 0
M  V30 25 C 39.589123 30.169155 52.899191 0
M  V30 26 C 38.994508 25.323546 55.625232 0
M  V30 27 C 38.225762 31.538081 57.896101 0
M  V30 28 O 39.878724 28.976767 56.177264 0
M  V30 29 O 38.145756 25.112922 56.738180 0
M  V30 30 F 40.063710 32.422910 62.410294 0
M  V30 31 N 37.815826 30.130729 57.917782 0
M  V30 32 N 38.275269 33.807660 61.841862 0
M  V30 33 C 38.048591 36.241061 61.454229 0
M  V30 34 F 39.461016 38.092345 61.853510 0
M  V30 35 C 37.526123 29.624504 56.587445 0
M  V30 36 H 35.749423 30.421412 58.253499 0
M  V30 37 H 36.363593 28.890465 58.772847 0
M  V30 38 H 37.245341 29.060201 54.091983 0
M  V30 39 H 42.002645 27.522192 58.904176 0
M  V30 40 H 36.398298 32.573465 59.694152 0
M  V30 41 H 41.067156 26.120721 57.360314 0
M  V30 42 H 41.888231 27.506084 56.653503 0
M  V30 43 H 40.131733 27.842750 50.785401 0
M  V30 44 H 38.667429 28.021478 49.853531 0
M  V30 45 H 40.093907 26.857028 54.635544 0
M  V30 46 H 38.766876 33.146378 59.237723 0
M  V30 47 H 39.282967 31.564221 59.793221 0
M  V30 48 H 38.115083 27.242053 52.161671 0
M  V30 49 H 37.431334 28.820875 51.857914 0
M  V30 50 H 41.516088 34.286734 62.677979 0
M  V30 51 H 41.230516 29.831024 51.453510 0
M  V30 52 H 40.446497 31.390093 51.308911 0
M  V30 53 H 38.930884 30.565026 55.312671 0
M  V30 54 H 38.928631 27.570253 57.377845 0
M  V30 55 H 35.795407 30.421427 60.653532 0
M  V30 56 H 37.492407 29.910138 60.653503 0
M  V30 57 H 38.790091 30.895671 53.053381 0
M  V30 58 H 40.340718 30.419662 53.648720 0
M  V30 59 H 39.927726 24.796704 55.815645 0
M  V30 60 H 38.551965 24.864400 54.740821 0
M  V30 61 H 39.142183 31.647863 57.316752 0
M  V30 62 H 37.467556 32.139417 57.391408 0
M  V30 63 H 38.521247 25.532241 57.497356 0
M  V30 64 H 37.339648 36.982503 61.113108 0
M  V30 65 H 36.721452 30.202123 56.130515 0
M  V30 66 H 37.130719 28.623022 56.712914 0
M  V30 END ATOM
M  V30 BEGIN BOND
M  V30 1 1 3 2
M  V30 2 1 6 4
M  V30 3 1 8 2
M  V30 4 1 10 9
M  V30 5 1 12 5
M  V30 6 1 13 5
M  V30 7 1 14 7
M  V30 8 1 15 3
M  V30 9 1 15 14
M  V30 10 1 16 7
M  V30 11 1 17 10
M  V30 12 2 17 11
M  V30 13 1 18 16
M  V30 14 1 20 19
M  V30 15 2 21 10
M  V30 16 1 22 3
M  V30 17 1 23 6
M  V30 18 1 23 8
M  V30 19 1 24 1
M  V30 20 1 24 5
M  V30 21 1 25 15
M  V30 22 1 25 18
M  V30 23 1 26 8
M  V30 24 1 27 13
M  V30 25 1 28 22
M  V30 26 1 28 23
M  V30 27 1 29 26
M  V30 28 1 30 11
M  V30 29 1 31 1
M  V30 30 1 31 27
M  V30 31 1 32 11
M  V30 32 1 32 12
M  V30 33 1 32 20
M  V30 34 2 33 20
M  V30 35 1 33 21
M  V30 36 1 34 21
M  V30 37 1 35 22
M  V30 38 1 35 31
M  V30 39 1 36 1
M  V30 40 1 37 1
M  V30 41 1 3 38 CFG=3
M  V30 42 1 39 4
M  V30 43 1 40 5
M  V30 44 1 41 6
M  V30 45 1 42 6
M  V30 46 1 43 7
M  V30 47 1 44 7
M  V30 48 1 8 45 CFG=3
M  V30 49 1 46 13
M  V30 50 1 47 13
M  V30 51 1 48 14
M  V30 52 1 49 14
M  V30 53 1 50 17
M  V30 54 1 51 18
M  V30 55 1 52 18
M  V30 56 1 22 53 CFG=3
M  V30 57 1 23 54 CFG=1
M  V30 58 1 55 24
M  V30 59 1 56 24
M  V30 60 1 57 25
M  V30 61 1 58 25
M  V30 62 1 59 26
M  V30 63 1 60 26
M  V30 64 1 61 27
M  V30 65 1 62 27
M  V30 66 1 63 29
M  V30 67 1 64 33
M  V30 68 1 65 35
M  V30 69 1 66 35
M  V30 END BOND
M  V30 END CTAB
M  END
>  <i_epik_Tot_Q>  (1) 
0

>  <i_epik_Tot_abs_Q>  (1) 
0

>  <i_i_glide_confnum>  (1) 
288

>  <i_i_glide_lignum>  (1) 
160

>  <i_i_glide_posenum>  (1) 
148

>  <i_i_glide_rotatable_bonds>  (1) 
9

>  <i_lp_mmshare_version>  (1) 
72125

>  <i_m_source_file_index>  (1) 
64

>  <i_f3d_flags>  (1) 
0

>  <num_sample>  (1) 
100

>  <b_lp_Chiralities_Consistent>  (1) 
1

>  <r_epik_Charging_Adjusted_Penalty>  (1) 
0.48877855165897433

>  <r_epik_Ionization_Penalty>  (1) 
0.48879775138492404

>  <r_epik_Ionization_Penalty_Charging>  (1) 
0

>  <r_epik_Ionization_Penalty_Neutral>  (1) 
0.48879775138492404

>  <r_epik_State_Penalty>  (1) 
0.48877855165897433

>  <r_glide_ring_energy>  (1) 
0.0045149093831275133

>  <r_i_docking_score>  (1) 
-6.9658174404767434

>  <r_i_glide_ecoul>  (1) 
-2.6300754304250606

>  <r_i_glide_eff_state_penalty>  (1) 
0.48877855165897433

>  <r_i_glide_einternal>  (1) 
9.4908512748834042

>  <r_i_glide_emodel>  (1) 
-55.857862611402169

>  <r_i_glide_emodel_strain>  (1) 
0.26863190423280514

>  <r_i_glide_energy>  (1) 
-45.291439476246701

>  <r_i_glide_erotb>  (1) 
0.52162944545335954

>  <r_i_glide_esite>  (1) 
0

>  <r_i_glide_evdw>  (1) 
-42.661364045821642

>  <r_i_glide_gscore>  (1) 
-7.4545959921357179

>  <r_i_glide_gscore_strain>  (1) 
0

>  <r_i_glide_hbond>  (1) 
0

>  <r_i_glide_ligand_efficiency>  (1) 
-0.19902335544219266

>  <r_i_glide_ligand_efficiency_ln>  (1) 
-1.5291515261732174

>  <r_i_glide_ligand_efficiency_sa>  (1) 
-0.65101859292764541

>  <r_i_glide_lipo>  (1) 
-3.679909674566519

>  <r_i_glide_metal>  (1) 
-0

>  <r_i_glide_rewards>  (1) 
-1.7687362461677174

>  <r_lp_Energy>  (1) 
32.449697999999998

>  <s_epik_Chemistry_Notes>  (1) 
This compound contains an acetal/aminal-like group ( X-CH(R)-Y where X, Y are N, S, or O) that may be acid/base labile, releasing an aldehyde. This compound has a N-S or N-O group and may undergo hydrolysis at high or low pH.

>  <s_epik_cmdline>  (1) 
J2VwaWtfcHl0aG9uJywgJy1waHQnLCAnMS4wJywgJy1waCcsICc3LjQnLCAnLXRuJywgJzgnLCAnLW1hJywgJzUwMCcsICctaW1hZScsICc8aW5maWxlLm1hZT4nLCAnLW9tYWUnLCAnPG91dGZpbGUubWFlPic=

>  <s_epik_input>  (1) 
RkMxPUMoRilbQ0hdPUMoRilOKEMoRik9W0NIXTEpU1tDSF0yW0NIMl1bQ0gyXU4oW0NIMl1bQ0gyXTIpW0NIMl1bQ0BIXTNPW0NASF0oW0NIMl1bT0hdKVtDQEBIXShbQ0gyXVtPSF0pT1tDQEBIXTNONFtDSDJdW0NIMl1PW0NIMl1bQ0gyXTQ=

>  <s_glide_docking_method>  (1) 
confgen

>  <s_i_glide_gridfile>  (1) 
gpcr_5ht2c_6bqh_protein_autoprepared_prepared

>  <s_lp_Force_Field>  (1) 
S-OPLS

>  <s_lp_Variant>  (1) 
DiffSBDD_63_num_sample_100-3

>  <s_m_source_file>  (1) 
generated__ligand_DiffSBDD_2026-05-06_prepared.sdf

>  <GenAI_Model>  (1) 
DiffSBDD

>  <Protein>  (1) 
GPCR_5HT2C

$$$$
DiffSBDD_42_num_sample_100
     RDKit          3D

  0  0  0  0  0  0  0  0  0  0999 V3000
M  V30 BEGIN CTAB
M  V30 COUNTS 70 74 0 0 1
M  V30 BEGIN ATOM
M  V30 1 O 38.725523 28.438163 53.174716 0
M  V30 2 C 40.589198 30.657430 50.884962 0
M  V30 3 C 37.247216 35.271962 61.091739 0
M  V30 4 C 39.568883 27.198612 58.908257 0
M  V30 5 O 38.723817 32.522793 61.223297 0
M  V30 6 C 39.798717 29.618028 51.616759 0
M  V30 7 C 37.609537 30.743301 59.838774 0
M  V30 8 C 40.438753 29.262300 62.069903 0
M  V30 9 C 39.767249 30.449711 54.113481 0
M  V30 10 C 39.607937 28.577181 58.294972 0 CFG=2
M  V30 11 C 38.667001 27.857649 51.941938 0
M  V30 12 C 39.467414 29.564898 52.945892 0
M  V30 13 O 39.659808 29.759784 59.071626 0
M  V30 14 C 37.290320 36.421431 63.200155 0
M  V30 15 C 38.789298 29.841005 60.187381 0 CFG=1
M  V30 16 C 37.976204 36.872175 64.255557 0
M  V30 17 C 38.605915 30.662767 56.298038 0
M  V30 18 Cl 40.267050 35.221428 60.653429 0
M  V30 19 C 36.526576 34.400535 60.422257 0
M  V30 20 O 36.741007 30.370983 59.054374 0
M  V30 21 N 38.531980 30.851961 54.831153 0 CFG=1 CHG=1
M  V30 22 C 39.417511 35.843941 62.025671 0
M  V30 23 C 39.564614 30.312263 61.394750 0
M  V30 24 C 41.028213 29.732913 63.413741 0
M  V30 25 C 37.950617 35.845558 62.042437 0
M  V30 26 P 38.667427 28.878632 56.791138 0 CFG=2
M  V30 27 C 39.489824 36.886988 64.333299 0
M  V30 28 C 40.301878 32.123809 63.008312 0
M  V30 29 C 40.121024 36.326118 63.068690 0
M  V30 30 O 38.024293 27.803858 55.986612 0
M  V30 31 C 37.538154 32.124322 60.517365 0 CFG=2
M  V30 32 C 41.475850 31.201624 63.375752 0
M  V30 33 C 39.512303 31.582590 61.833113 0
M  V30 34 C 37.149591 33.300891 59.580807 0
M  V30 35 C 38.115183 32.228808 54.491802 0
M  V30 36 N 39.287829 28.511884 50.960688 0
M  V30 37 O 40.265757 28.666315 57.024668 0
M  V30 38 H 40.667252 31.577028 51.463103 0
M  V30 39 H 40.111396 30.912405 49.938575 0
M  V30 40 H 41.597136 30.308641 50.658005 0
M  V30 41 H 40.267133 27.179292 59.741757 0
M  V30 42 H 39.852780 26.438695 58.179788 0
M  V30 43 H 38.570702 26.970493 59.278358 0
M  V30 44 H 41.239116 28.992601 61.381625 0
M  V30 45 H 39.854646 28.356350 62.236901 0
M  V30 46 H 40.446595 29.920511 54.780493 0
M  V30 47 H 40.326750 31.325218 53.788110 0
M  V30 48 H 38.136458 26.928107 51.797126 0
M  V30 49 H 36.209486 36.433436 63.238076 0
M  V30 50 H 38.378566 28.864375 60.433572 0
M  V30 51 H 37.444087 37.221423 65.117824 0
M  V30 52 H 37.712793 31.091082 56.753788 0
M  V30 53 H 39.463568 31.190176 56.717668 0
M  V30 54 H 35.447357 34.421105 60.463204 0
M  V30 55 H 40.273239 29.617541 64.192730 0
M  V30 56 H 41.860516 29.089186 63.699669 0
M  V30 57 H 39.831826 37.910648 64.479404 0
M  V30 58 H 39.822257 36.302892 65.191980 0
M  V30 59 H 40.665611 33.125199 62.778929 0
M  V30 60 H 39.624501 32.222135 63.852846 0
M  V30 61 H 41.200937 36.317275 63.033472 0
M  V30 62 H 36.753234 32.018236 61.267848 0
M  V30 63 H 42.280057 31.321114 62.650662 0
M  V30 64 H 41.890840 31.494930 64.341088 0
M  V30 65 H 36.428452 32.999629 58.819690 0
M  V30 66 H 38.029444 33.674792 59.054648 0
M  V30 67 H 38.708830 32.963600 55.038980 0
M  V30 68 H 37.067409 32.384103 54.741612 0
M  V30 69 H 38.246092 32.420978 53.428539 0
M  V30 70 H 37.804976 30.227247 54.507125 0
M  V30 END ATOM
M  V30 BEGIN BOND
M  V30 1 1 6 2
M  V30 2 1 10 4
M  V30 3 1 11 1
M  V30 4 1 12 1
M  V30 5 2 12 6
M  V30 6 1 12 9
M  V30 7 1 10 13 CFG=1
M  V30 8 1 15 7
M  V30 9 1 15 13
M  V30 10 2 16 14
M  V30 11 2 19 3
M  V30 12 2 20 7
M  V30 13 1 21 9
M  V30 14 1 21 17
M  V30 15 1 22 18
M  V30 16 1 23 8
M  V30 17 1 23 15
M  V30 18 1 24 8
M  V30 19 2 25 3
M  V30 20 1 25 14
M  V30 21 1 25 22
M  V30 22 1 26 10
M  V30 23 1 26 17 CFG=3
M  V30 24 1 27 16
M  V30 25 2 29 22
M  V30 26 1 29 27
M  V30 27 2 30 26
M  V30 28 1 31 5
M  V30 29 1 31 7
M  V30 30 1 32 24
M  V30 31 1 32 28
M  V30 32 1 33 5
M  V30 33 2 33 23
M  V30 34 1 33 28
M  V30 35 1 34 19
M  V30 36 1 34 31
M  V30 37 1 35 21
M  V30 38 1 36 6
M  V30 39 2 36 11
M  V30 40 1 37 10
M  V30 41 1 37 26
M  V30 42 1 38 2
M  V30 43 1 39 2
M  V30 44 1 40 2
M  V30 45 1 41 4
M  V30 46 1 42 4
M  V30 47 1 43 4
M  V30 48 1 44 8
M  V30 49 1 45 8
M  V30 50 1 46 9
M  V30 51 1 47 9
M  V30 52 1 48 11
M  V30 53 1 49 14
M  V30 54 1 15 50 CFG=1
M  V30 55 1 51 16
M  V30 56 1 52 17
M  V30 57 1 53 17
M  V30 58 1 54 19
M  V30 59 1 55 24
M  V30 60 1 56 24
M  V30 61 1 57 27
M  V30 62 1 58 27
M  V30 63 1 59 28
M  V30 64 1 60 28
M  V30 65 1 61 29
M  V30 66 1 31 62 CFG=1
M  V30 67 1 63 32
M  V30 68 1 64 32
M  V30 69 1 65 34
M  V30 70 1 66 34
M  V30 71 1 67 35
M  V30 72 1 68 35
M  V30 73 1 69 35
M  V30 74 1 21 70 CFG=3
M  V30 END BOND
M  V30 END CTAB
M  END
>  <i_epik_Tot_Q>  (1) 
1

>  <i_epik_Tot_abs_Q>  (1) 
1

>  <i_i_glide_confnum>  (1) 
570

>  <i_i_glide_lignum>  (1) 
105

>  <i_i_glide_posenum>  (1) 
5

>  <i_i_glide_rotatable_bonds>  (1) 
8

>  <i_lp_mmshare_version>  (1) 
72125

>  <i_m_source_file_index>  (1) 
43

>  <i_f3d_flags>  (1) 
0

>  <num_sample>  (1) 
100

>  <b_lp_Chiralities_Consistent>  (1) 
1

>  <r_epik_Charging_Adjusted_Penalty>  (1) 
0.2152556309207356

>  <r_epik_Ionization_Penalty>  (1) 
0.1076280395274669

>  <r_epik_Ionization_Penalty_Charging>  (1) 
0.10762781546036781

>  <r_epik_Ionization_Penalty_Neutral>  (1) 
2.2406709908736756e-07

>  <r_epik_State_Penalty>  (1) 
0.10762781546036779

>  <r_glide_ring_energy>  (1) 
0

>  <r_i_docking_score>  (1) 
-6.9599568145515027

>  <r_i_glide_ecoul>  (1) 
-2.6666527201280554

>  <r_i_glide_eff_state_penalty>  (1) 
0.10762781546036779

>  <r_i_glide_einternal>  (1) 
11.093901842134725

>  <r_i_glide_emodel>  (1) 
-67.431501159430667

>  <r_i_glide_emodel_strain>  (1) 
3.3979360464926316

>  <r_i_glide_energy>  (1) 
-52.342922966239428

>  <r_i_glide_erotb>  (1) 
0.55194975081301367

>  <r_i_glide_esite>  (1) 
-0.021861134753120025

>  <r_i_glide_evdw>  (1) 
-49.676270246111372

>  <r_i_glide_gscore>  (1) 
-7.0675846300118703

>  <r_i_glide_gscore_strain>  (1) 
0

>  <r_i_glide_hbond>  (1) 
0

>  <r_i_glide_ligand_efficiency>  (1) 
-0.18810694093382441

>  <r_i_glide_ligand_efficiency_ln>  (1) 
-1.5094514685385443

>  <r_i_glide_ligand_efficiency_sa>  (1) 
-0.62681405902596443

>  <r_i_glide_lipo>  (1) 
-3.754409816023057

>  <r_i_glide_metal>  (1) 
-0

>  <r_i_glide_rewards>  (1) 
-0.95945200972393141

>  <r_lp_Energy>  (1) 
6.0054069999999999

>  <r_lp_tautomer_probability>  (1) 
0.99995000000000001

>  <s_epik_cmdline>  (1) 
J2VwaWtfcHl0aG9uJywgJy1waHQnLCAnMS4wJywgJy1waCcsICc3LjQnLCAnLXRuJywgJzgnLCAnLW1hJywgJzUwMCcsICctaW1hZScsICc8aW5maWxlLm1hZT4nLCAnLW9tYWUnLCAnPG91dGZpbGUubWFlPic=

>  <s_epik_input>  (1) 
bjFbY0hdb2MoYzFbQ0gzXSlbQ0gyXU4oW0NIM10pW0NIMl1bUEBAXSg9TykoTzIpW0NAXTIoW0NIM10pT1tDQEBIXTNDKD1PKVtDQEBIXShPQyg9QzM0KVtDSDJdW0NIMl1bQ0gyXVtDSDJdNClbQ0gyXVtDSF09Qz1DNVtDSF09W0NIXVtDSDJdW0NIXT1DNUNs

>  <s_glide_docking_method>  (1) 
confgen

>  <s_i_glide_gridfile>  (1) 
gpcr_5ht2c_6bqh_protein_autoprepared_prepared

>  <s_lp_Force_Field>  (1) 
S-OPLS

>  <s_lp_Variant>  (1) 
DiffSBDD_42_num_sample_100-2

>  <s_m_source_file>  (1) 
generated__ligand_DiffSBDD_2026-05-06_prepared.sdf

>  <GenAI_Model>  (1) 
DiffSBDD

>  <Protein>  (1) 
GPCR_5HT2C

$$$$
DiffSBDD_69_num_sample_100
     RDKit          3D

  0  0  0  0  0  0  0  0  0  0999 V3000
M  V30 BEGIN CTAB
M  V30 COUNTS 67 72 0 0 1
M  V30 BEGIN ATOM
M  V30 1 C 42.975663 31.436356 65.863490 0
M  V30 2 C 39.776281 27.789023 51.872195 0 CFG=1
M  V30 3 C 37.857416 30.838322 59.514030 0
M  V30 4 C 39.239167 29.060324 52.489695 0 CFG=1
M  V30 5 C 37.351539 32.929121 60.658933 0
M  V30 6 C 40.460283 36.721331 61.927285 0
M  V30 7 C 37.747761 29.957521 58.292545 0
M  V30 8 C 41.841132 33.346321 63.235569 0
M  V30 9 N 38.267442 30.593245 57.097069 0
M  V30 10 C 38.825813 30.270472 54.745574 0
M  V30 11 C 38.675485 31.213063 61.785693 0
M  V30 12 O 38.267475 28.455265 56.019032 0
M  V30 13 C 38.952010 36.996210 61.857000 0
M  V30 14 C 39.433075 30.734661 63.024761 0 CFG=1
M  V30 15 C 37.247038 32.108327 59.523534 0
M  V30 16 C 43.783161 31.259687 67.003356 0
M  V30 17 O 39.170525 27.436002 50.625065 0
M  V30 18 C 43.215467 30.667593 64.699385 0
M  V30 19 C 38.406032 28.258640 51.516393 0 CFG=1
M  V30 20 C 42.352904 30.855617 63.453435 0 CFG=1
M  V30 21 C 38.064477 32.482854 61.787162 0
M  V30 22 N 38.139780 36.021436 62.252471 0
M  V30 23 C 41.639371 29.591517 63.052272 0
M  V30 24 C 45.066015 29.546759 65.832028 0
M  V30 25 C 38.878270 29.113209 53.947248 0
M  V30 26 O 38.537344 38.076872 61.453500 0
M  V30 27 C 44.827408 30.315098 66.987613 0
M  V30 28 C 40.329966 29.538296 62.851446 0
M  V30 29 O 43.553358 32.004978 68.123125 0
M  V30 30 C 41.427246 32.086799 63.444879 0
M  V30 31 C 40.881906 35.240754 61.865153 0
M  V30 32 C 38.570763 30.389470 60.643383 0
M  V30 33 O 40.094794 31.818258 63.691398 0
M  V30 34 C 44.264283 29.722441 64.689321 0
M  V30 35 C 40.930974 34.556712 63.240224 0
M  V30 36 C 38.456239 29.813300 55.968354 0
M  V30 37 C 38.539419 28.043271 54.732028 0
M  V30 38 H 42.176001 32.161151 65.882879 0
M  V30 39 H 39.867572 26.933798 52.538355 0
M  V30 40 H 39.656857 30.002242 52.138295 0
M  V30 41 H 36.883409 33.902215 60.665476 0
M  V30 42 H 40.857799 37.200050 62.823168 0
M  V30 43 H 40.946079 37.225864 61.093221 0
M  V30 44 H 38.276831 29.020898 58.471128 0
M  V30 45 H 36.697691 29.707630 58.133660 0
M  V30 46 H 42.883890 33.534576 63.053499 0
M  V30 47 H 38.306588 31.602840 57.079258 0
M  V30 48 H 39.027734 31.294724 54.467584 0
M  V30 49 H 38.662770 30.421429 63.725675 0
M  V30 50 H 36.697110 32.451383 58.656754 0
M  V30 51 H 37.554182 27.733570 51.943865 0
M  V30 52 H 43.065177 31.051542 62.653534 0
M  V30 53 H 38.142508 33.112804 62.653492 0
M  V30 54 H 38.525273 35.148916 62.578242 0
M  V30 55 H 37.140480 36.158839 62.225519 0
M  V30 56 H 42.242572 28.704048 62.923320 0
M  V30 57 H 45.867307 28.822709 65.822631 0
M  V30 58 H 45.447017 30.178255 67.861224 0
M  V30 59 H 39.862868 28.607533 62.565264 0
M  V30 60 H 44.152949 31.813793 68.827394 0
M  V30 61 H 41.867408 35.211118 61.411540 0
M  V30 62 H 40.250971 34.673376 61.178713 0
M  V30 63 H 39.033325 29.414421 60.630982 0
M  V30 64 H 44.453381 29.132803 63.803285 0
M  V30 65 H 39.928224 34.290728 63.564544 0
M  V30 66 H 41.325585 35.243463 63.989946 0
M  V30 67 H 38.443817 26.981996 54.556657 0
M  V30 END ATOM
M  V30 BEGIN BOND
M  V30 1 1 4 2
M  V30 2 1 7 3
M  V30 3 1 9 7
M  V30 4 1 13 6
M  V30 5 1 14 11
M  V30 6 1 15 3
M  V30 7 2 15 5
M  V30 8 2 16 1
M  V30 9 1 17 2
M  V30 10 1 18 1
M  V30 11 1 19 2
M  V30 12 1 19 4
M  V30 13 1 19 17
M  V30 14 1 20 18
M  V30 15 1 21 5
M  V30 16 2 21 11
M  V30 17 1 22 13
M  V30 18 1 23 20
M  V30 19 1 25 4
M  V30 20 1 25 10
M  V30 21 2 26 13
M  V30 22 1 27 16
M  V30 23 2 27 24
M  V30 24 1 28 14
M  V30 25 2 28 23
M  V30 26 1 29 16
M  V30 27 2 30 8
M  V30 28 1 30 20
M  V30 29 1 31 6
M  V30 30 2 32 3
M  V30 31 1 32 11
M  V30 32 1 33 14
M  V30 33 1 33 30
M  V30 34 2 34 18
M  V30 35 1 34 24
M  V30 36 1 35 8
M  V30 37 1 35 31
M  V30 38 1 36 9
M  V30 39 2 36 10
M  V30 40 1 36 12
M  V30 41 1 37 12
M  V30 42 2 37 25
M  V30 43 1 38 1
M  V30 44 1 2 39 CFG=1
M  V30 45 1 4 40 CFG=3
M  V30 46 1 41 5
M  V30 47 1 42 6
M  V30 48 1 43 6
M  V30 49 1 44 7
M  V30 50 1 45 7
M  V30 51 1 46 8
M  V30 52 1 47 9
M  V30 53 1 48 10
M  V30 54 1 14 49 CFG=1
M  V30 55 1 50 15
M  V30 56 1 19 51 CFG=1
M  V30 57 1 20 52 CFG=3
M  V30 58 1 53 21
M  V30 59 1 54 22
M  V30 60 1 55 22
M  V30 61 1 56 23
M  V30 62 1 57 24
M  V30 63 1 58 27
M  V30 64 1 59 28
M  V30 65 1 60 29
M  V30 66 1 61 31
M  V30 67 1 62 31
M  V30 68 1 63 32
M  V30 69 1 64 34
M  V30 70 1 65 35
M  V30 71 1 66 35
M  V30 72 1 67 37
M  V30 END BOND
M  V30 END CTAB
M  END
>  <i_epik_Tot_Q>  (1) 
0

>  <i_epik_Tot_abs_Q>  (1) 
0

>  <i_i_glide_confnum>  (1) 
294

>  <i_i_glide_lignum>  (1) 
177

>  <i_i_glide_posenum>  (1) 
355

>  <i_i_glide_rotatable_bonds>  (1) 
11

>  <i_lp_mmshare_version>  (1) 
72125

>  <i_m_source_file_index>  (1) 
70

>  <i_f3d_flags>  (1) 
0

>  <num_sample>  (1) 
100

>  <b_lp_Chiralities_Consistent>  (1) 
1

>  <r_epik_Charging_Adjusted_Penalty>  (1) 
0

>  <r_epik_Ionization_Penalty>  (1) 
0.0027858750297933624

>  <r_epik_Ionization_Penalty_Charging>  (1) 
0

>  <r_epik_Ionization_Penalty_Neutral>  (1) 
0.0027858750297933624

>  <r_epik_State_Penalty>  (1) 
-0

>  <r_glide_ring_energy>  (1) 
1.6699314456563892

>  <r_i_docking_score>  (1) 
-6.9591874791556698

>  <r_i_glide_ecoul>  (1) 
-2.6522308355128197

>  <r_i_glide_eff_state_penalty>  (1) 
-0

>  <r_i_glide_einternal>  (1) 
7.0874240963358464

>  <r_i_glide_emodel>  (1) 
-67.785583654094879

>  <r_i_glide_emodel_strain>  (1) 
1.7789808445308495

>  <r_i_glide_energy>  (1) 
-49.636250803718589

>  <r_i_glide_erotb>  (1) 
0.7388310729384443

>  <r_i_glide_esite>  (1) 
-0.073693752460970152

>  <r_i_glide_evdw>  (1) 
-46.984019968205772

>  <r_i_glide_gscore>  (1) 
-6.9591874791556698

>  <r_i_glide_gscore_strain>  (1) 
0

>  <r_i_glide_hbond>  (1) 
0

>  <r_i_glide_ligand_efficiency>  (1) 
-0.18808614808528837

>  <r_i_glide_ligand_efficiency_ln>  (1) 
-1.5092846177269688

>  <r_i_glide_ligand_efficiency_sa>  (1) 
-0.62674477264171469

>  <r_i_glide_lipo>  (1) 
-4.0173133603712117

>  <r_i_glide_metal>  (1) 
-0

>  <r_i_glide_rewards>  (1) 
-0.85997581552472002

>  <r_lp_Energy>  (1) 
39.698884999999997

>  <r_lp_tautomer_probability>  (1) 
1

>  <s_epik_cmdline>  (1) 
J2VwaWtfcHl0aG9uJywgJy1waHQnLCAnMS4wJywgJy1waCcsICc3LjQnLCAnLXRuJywgJzgnLCAnLW1hJywgJzUwMCcsICctaW1hZScsICc8aW5maWxlLm1hZT4nLCAnLW9tYWUnLCAnPG91dGZpbGUubWFlPic=

>  <s_epik_input>  (1) 
W05IMl1DKD1PKVtDSDJdW0NIMl1bQ0gyXS9bQ0hdPUMoTzEpL1tDQEBIXShjKFtjSF1jMltPSF0pW2NIXVtjSF1bY0hdMilbQ0hdPVtDSF1bQ0BASF0xYyhbY0hdMylbY0hdW2NIXVtjSF1jM1tDSDJdW05IXWMob1tjSF00KVtjSF1jNFtDQEBIXTVbQ0hdKE82KVtDSF01Ng==

>  <s_glide_docking_method>  (1) 
confgen

>  <s_i_glide_gridfile>  (1) 
gpcr_5ht2c_6bqh_protein_autoprepared_prepared

>  <s_lp_Force_Field>  (1) 
S-OPLS

>  <s_lp_Variant>  (1) 
DiffSBDD_69_num_sample_100-1

>  <s_m_source_file>  (1) 
generated__ligand_DiffSBDD_2026-05-06_prepared.sdf

>  <GenAI_Model>  (1) 
DiffSBDD

>  <Protein>  (1) 
GPCR_5HT2C

$$$$
DiffSBDD_84_num_sample_100
     RDKit          3D

  0  0  0  0  0  0  0  0  0  0999 V3000
M  V30 BEGIN CTAB
M  V30 COUNTS 48 50 0 0 1
M  V30 BEGIN ATOM
M  V30 1 C 39.465538 29.794711 52.782717 0
M  V30 2 C 38.394052 31.263713 61.234297 0
M  V30 3 C 37.607720 31.511095 59.928405 0 CFG=2
M  V30 4 C 39.482525 29.042051 55.880258 0
M  V30 5 C 39.073544 29.578752 59.631549 0 CFG=1
M  V30 6 C 39.620844 30.906528 53.687669 0
M  V30 7 C 39.525957 28.351802 50.871144 0
M  V30 8 N 38.955987 28.335988 56.793784 0
M  V30 9 Cl 40.664909 30.821128 50.565712 0
M  V30 10 C 39.548969 30.324301 60.880059 0
M  V30 11 C 37.747418 26.711595 53.894241 0
M  V30 12 O 35.468872 31.818393 61.049817 0
M  V30 13 C 38.692086 29.624110 54.731367 0 CFG=1
M  V30 14 C 38.864233 28.957190 53.463901 0
M  V30 15 C 39.849745 29.604125 51.457528 0
M  V30 16 C 38.485485 27.694225 53.008484 0
M  V30 17 C 36.130216 31.090429 60.035308 0
M  V30 18 C 38.830042 27.373993 51.660882 0
M  V30 19 C 39.820205 27.809915 57.826886 0 CFG=1
M  V30 20 C 38.343237 30.687226 58.858888 0
M  V30 21 C 40.225570 28.871588 58.879976 0
M  V30 22 N 39.108256 26.686921 58.450832 0 CHG=1
M  V30 23 H 38.751592 32.194176 61.677425 0
M  V30 24 H 37.764425 30.784157 61.983853 0
M  V30 25 H 37.653606 32.568078 59.659698 0
M  V30 26 H 40.552032 29.269880 55.866757 0
M  V30 27 H 38.338349 28.839222 59.951852 0
M  V30 28 H 39.046074 31.787510 53.401928 0
M  V30 29 H 40.658390 31.094429 53.965985 0
M  V30 30 H 39.794670 28.139867 49.853691 0
M  V30 31 H 40.438424 30.914596 60.655173 0
M  V30 32 H 39.797806 29.654866 61.702719 0
M  V30 33 H 37.087154 26.083498 53.297593 0
M  V30 34 H 38.455887 26.064758 54.411674 0
M  V30 35 H 37.138496 27.228362 54.635270 0
M  V30 36 H 35.328313 32.700585 60.736659 0
M  V30 37 H 37.652436 29.870141 54.955621 0
M  V30 38 H 36.059817 30.026413 60.253132 0
M  V30 39 H 35.614320 31.250226 59.088115 0
M  V30 40 H 38.572983 26.421486 51.236381 0
M  V30 41 H 40.730028 27.390937 57.388739 0
M  V30 42 H 37.664067 30.306392 58.095171 0
M  V30 43 H 39.067250 31.327071 58.352921 0
M  V30 44 H 40.868161 29.620164 58.418218 0
M  V30 45 H 40.858844 28.376686 59.618114 0
M  V30 46 H 39.686812 26.276717 59.169131 0
M  V30 47 H 38.248110 27.030282 58.853001 0
M  V30 48 H 38.897050 25.997598 57.744074 0
M  V30 END ATOM
M  V30 BEGIN BOND
M  V30 1 1 3 2
M  V30 2 1 6 1
M  V30 3 2 8 4
M  V30 4 1 10 2
M  V30 5 1 10 5
M  V30 6 1 13 4
M  V30 7 1 13 6
M  V30 8 1 14 1
M  V30 9 1 14 13
M  V30 10 2 15 1
M  V30 11 1 15 7
M  V30 12 1 15 9
M  V30 13 1 16 11
M  V30 14 2 16 14
M  V30 15 1 17 3
M  V30 16 1 17 12
M  V30 17 2 18 7
M  V30 18 1 18 16
M  V30 19 1 19 8
M  V30 20 1 20 3
M  V30 21 1 20 5
M  V30 22 1 21 5
M  V30 23 1 21 19
M  V30 24 1 22 19
M  V30 25 1 23 2
M  V30 26 1 24 2
M  V30 27 1 3 25 CFG=3
M  V30 28 1 26 4
M  V30 29 1 5 27 CFG=1
M  V30 30 1 28 6
M  V30 31 1 29 6
M  V30 32 1 30 7
M  V30 33 1 31 10
M  V30 34 1 32 10
M  V30 35 1 33 11
M  V30 36 1 34 11
M  V30 37 1 35 11
M  V30 38 1 36 12
M  V30 39 1 13 37 CFG=1
M  V30 40 1 38 17
M  V30 41 1 39 17
M  V30 42 1 40 18
M  V30 43 1 19 41 CFG=3
M  V30 44 1 42 20
M  V30 45 1 43 20
M  V30 46 1 44 21
M  V30 47 1 45 21
M  V30 48 1 46 22
M  V30 49 1 47 22
M  V30 50 1 48 22
M  V30 END BOND
M  V30 END CTAB
M  END
>  <i_epik_Tot_Q>  (1) 
1

>  <i_epik_Tot_abs_Q>  (1) 
1

>  <i_i_glide_confnum>  (1) 
145

>  <i_i_glide_lignum>  (1) 
218

>  <i_i_glide_posenum>  (1) 
114

>  <i_i_glide_rotatable_bonds>  (1) 
6

>  <i_lp_mmshare_version>  (1) 
72125

>  <i_m_source_file_index>  (1) 
85

>  <i_f3d_flags>  (1) 
0

>  <num_sample>  (1) 
100

>  <b_lp_Chiralities_Consistent>  (1) 
1

>  <r_epik_Charging_Adjusted_Penalty>  (1) 
0.46451758934955678

>  <r_epik_Ionization_Penalty>  (1) 
0.053840736014893024

>  <r_epik_Ionization_Penalty_Charging>  (1) 
0.053837750396952835

>  <r_epik_Ionization_Penalty_Neutral>  (1) 
2.9856179401856363e-06

>  <r_epik_State_Penalty>  (1) 
0.41067983895260396

>  <r_glide_ring_energy>  (1) 
0.7268266284921937

>  <r_i_docking_score>  (1) 
-6.9591354299578541

>  <r_i_glide_ecoul>  (1) 
-2.6980192942414805

>  <r_i_glide_eff_state_penalty>  (1) 
0.41067983895260396

>  <r_i_glide_einternal>  (1) 
3.5327288107278569

>  <r_i_glide_emodel>  (1) 
-54.384599627392596

>  <r_i_glide_emodel_strain>  (1) 
0.27637146760824294

>  <r_i_glide_energy>  (1) 
-38.01532211101545

>  <r_i_glide_erotb>  (1) 
0.90212786361762021

>  <r_i_glide_esite>  (1) 
0

>  <r_i_glide_evdw>  (1) 
-35.317302816773967

>  <r_i_glide_gscore>  (1) 
-7.3698152689104584

>  <r_i_glide_gscore_strain>  (1) 
0

>  <r_i_glide_hbond>  (1) 
-0.082352893911172773

>  <r_i_glide_ligand_efficiency>  (1) 
-0.31632433772535701

>  <r_i_glide_ligand_efficiency_ln>  (1) 
-1.7010665397141345

>  <r_i_glide_ligand_efficiency_sa>  (1) 
-0.88635323554996803

>  <r_i_glide_lipo>  (1) 
-3.5913229454557762

>  <r_i_glide_metal>  (1) 
-0

>  <r_i_glide_rewards>  (1) 
-2.4276992581862085

>  <r_lp_Energy>  (1) 
11.505056

>  <r_lp_tautomer_probability>  (1) 
0.49999300000000002

>  <s_epik_Chemistry_Notes>  (1) 
This compound has an imine and may undergo hydrolysis. This compound contains an acetal/aminal-like group ( X-CH(R)-Y where X, Y are N, S, or O) that may be acid/base labile, releasing an aldehyde.

>  <s_epik_cmdline>  (1) 
J2VwaWtfcHl0aG9uJywgJy1waHQnLCAnMS4wJywgJy1waCcsICc3LjQnLCAnLXRuJywgJzgnLCAnLW1hJywgJzUwMCcsICctaW1hZScsICc8aW5maWxlLm1hZT4nLCAnLW9tYWUnLCAnPG91dGZpbGUubWFlPic=

>  <s_epik_input>  (1) 
Q2xjMVtjSF1bY0hdYyhbQ0gzXSljKGMxMilbQ0BIXShbQ0gyXTIpL1tDSF09Ti9bQ0BIXShbTkgyXSlbQ0gyXVtDQEhdKFtDSDJdMylbQ0gyXVtDSDJdW0NAQEhdM1tDSDJdW09IXQ==

>  <s_glide_docking_method>  (1) 
confgen

>  <s_i_glide_gridfile>  (1) 
gpcr_5ht2c_6bqh_protein_autoprepared_prepared

>  <s_lp_Force_Field>  (1) 
S-OPLS

>  <s_lp_Variant>  (1) 
DiffSBDD_84_num_sample_100-1

>  <s_m_source_file>  (1) 
generated__ligand_DiffSBDD_2026-05-06_prepared.sdf

>  <GenAI_Model>  (1) 
DiffSBDD

>  <Protein>  (1) 
GPCR_5HT2C

$$$$
DiffSBDD_91_num_sample_100
     RDKit          3D

  0  0  0  0  0  0  0  0  0  0999 V3000
M  V30 BEGIN CTAB
M  V30 COUNTS 73 75 0 0 1
M  V30 BEGIN ATOM
M  V30 1 C 41.344171 29.495876 65.868214 0
M  V30 2 C 41.398220 33.816982 63.737439 0 CFG=1
M  V30 3 N 37.937329 30.457851 56.352550 0
M  V30 4 C 39.196966 33.355668 61.913525 0 CFG=2
M  V30 5 O 38.679884 33.016198 60.659801 0
M  V30 6 C 40.602333 35.004907 63.167383 0 CFG=2
M  V30 7 F 43.057698 27.843155 65.632710 0
M  V30 8 C 40.008209 34.666213 61.782760 0 CFG=2
M  V30 9 C 41.189770 31.302330 64.230572 0
M  V30 10 C 39.561902 26.391779 58.341065 0
M  V30 11 C 37.667406 32.110408 60.663160 0
M  V30 12 C 38.903952 29.620100 56.833307 0
M  V30 13 C 38.017058 24.664315 55.159853 0 CFG=1
M  V30 14 O 37.150913 31.621462 61.672163 0
M  V30 15 C 39.193096 26.143014 56.876603 0
M  V30 16 C 39.079842 35.789777 61.279341 0
M  V30 17 S 40.304046 28.035510 58.593991 0
M  V30 18 C 40.713104 30.663368 65.395762 0
M  V30 19 O 41.743992 34.136490 65.071921 0
M  V30 20 O 41.467413 36.110530 63.025891 0
M  V30 21 C 38.327694 24.898332 56.650182 0
M  V30 22 C 36.919662 30.233012 59.080390 0
M  V30 23 C 40.504085 32.558493 63.715668 0 CFG=2
M  V30 24 C 42.451924 28.965646 65.178883 0
M  V30 25 C 42.929686 29.602880 64.017446 0
M  V30 26 N 38.130862 29.422553 59.156401 0
M  V30 27 O 37.067413 23.622927 55.054601 0
M  V30 28 C 42.299145 30.770527 63.543446 0
M  V30 29 C 39.003791 29.140504 58.103200 0
M  V30 30 C 39.771271 29.318600 55.816858 0
M  V30 31 C 37.197265 31.739572 59.255704 0
M  V30 32 C 37.462848 25.896493 54.433762 0
M  V30 33 C 38.069775 30.791050 54.884552 0 CFG=2
M  V30 34 C 39.370057 29.926980 54.723590 0
M  V30 35 C 38.317636 32.272421 54.619177 0
M  V30 36 O 40.047426 32.352970 62.383023 0
M  V30 37 H 40.977844 29.006470 66.759034 0
M  V30 38 H 42.301100 33.645711 63.150829 0
M  V30 39 H 38.380099 33.485490 62.623163 0
M  V30 40 H 39.802508 35.284725 63.852857 0
M  V30 41 H 40.811095 34.500416 61.062831 0
M  V30 42 H 38.680778 26.311244 58.978150 0
M  V30 43 H 40.267078 25.624405 58.653513 0
M  V30 44 H 38.930714 24.358248 54.653516 0
M  V30 45 H 40.100708 26.090599 56.273458 0
M  V30 46 H 38.621332 26.993017 56.519084 0
M  V30 47 H 38.211005 35.908614 61.927460 0
M  V30 48 H 39.598824 36.746717 61.254404 0
M  V30 49 H 38.718568 35.591802 60.269901 0
M  V30 50 H 39.863353 31.067180 65.925212 0
M  V30 51 H 42.299266 34.901812 65.053203 0
M  V30 52 H 41.467383 36.625116 63.824185 0
M  V30 53 H 37.397184 25.011073 57.209028 0
M  V30 54 H 38.830733 24.021523 57.060705 0
M  V30 55 H 36.357929 30.021760 58.171925 0
M  V30 56 H 36.258974 29.898544 59.879678 0
M  V30 57 H 39.638471 32.745311 64.344689 0
M  V30 58 H 43.779498 29.195089 63.489023 0
M  V30 59 H 38.323915 29.001096 60.053596 0
M  V30 60 H 36.254812 23.913149 55.440086 0
M  V30 61 H 42.665961 31.257349 62.653454 0
M  V30 62 H 40.640637 28.683124 55.896284 0
M  V30 63 H 37.934051 32.076743 58.526308 0
M  V30 64 H 36.282781 32.298001 59.053693 0
M  V30 65 H 38.238407 26.645544 54.271925 0
M  V30 66 H 37.067382 25.631282 53.453506 0
M  V30 67 H 36.667397 26.365609 55.012739 0
M  V30 68 H 37.238508 30.385292 54.307522 0
M  V30 69 H 39.875134 29.855922 53.772256 0
M  V30 70 H 38.483702 32.421419 53.553701 0
M  V30 71 H 37.467400 32.881340 54.919617 0
M  V30 72 H 39.192713 32.634811 55.158810 0
M  V30 73 H 37.161374 30.807072 56.906456 0
M  V30 END ATOM
M  V30 BEGIN BOND
M  V30 1 1 5 4
M  V30 2 1 6 2
M  V30 3 1 8 4
M  V30 4 1 8 6
M  V30 5 1 11 5
M  V30 6 1 12 3
M  V30 7 2 14 11
M  V30 8 1 15 10
M  V30 9 1 16 8
M  V30 10 1 17 10
M  V30 11 2 18 1
M  V30 12 1 18 9
M  V30 13 1 19 2
M  V30 14 1 20 6
M  V30 15 1 21 13
M  V30 16 1 21 15
M  V30 17 1 23 2
M  V30 18 1 23 9
M  V30 19 1 24 1
M  V30 20 1 24 7
M  V30 21 2 25 24
M  V30 22 1 26 22
M  V30 23 1 27 13
M  V30 24 2 28 9
M  V30 25 1 28 25
M  V30 26 2 29 12
M  V30 27 1 29 17
M  V30 28 1 29 26
M  V30 29 1 30 12
M  V30 30 1 31 11
M  V30 31 1 31 22
M  V30 32 1 32 13
M  V30 33 1 33 3
M  V30 34 2 34 30
M  V30 35 1 34 33
M  V30 36 1 35 33
M  V30 37 1 36 4
M  V30 38 1 36 23
M  V30 39 1 37 1
M  V30 40 1 2 38 CFG=3
M  V30 41 1 4 39 CFG=1
M  V30 42 1 6 40 CFG=1
M  V30 43 1 8 41 CFG=3
M  V30 44 1 42 10
M  V30 45 1 43 10
M  V30 46 1 13 44 CFG=3
M  V30 47 1 45 15
M  V30 48 1 46 15
M  V30 49 1 47 16
M  V30 50 1 48 16
M  V30 51 1 49 16
M  V30 52 1 50 18
M  V30 53 1 51 19
M  V30 54 1 52 20
M  V30 55 1 53 21
M  V30 56 1 54 21
M  V30 57 1 55 22
M  V30 58 1 56 22
M  V30 59 1 23 57 CFG=1
M  V30 60 1 58 25
M  V30 61 1 59 26
M  V30 62 1 60 27
M  V30 63 1 61 28
M  V30 64 1 62 30
M  V30 65 1 63 31
M  V30 66 1 64 31
M  V30 67 1 65 32
M  V30 68 1 66 32
M  V30 69 1 67 32
M  V30 70 1 33 68 CFG=3
M  V30 71 1 69 34
M  V30 72 1 70 35
M  V30 73 1 71 35
M  V30 74 1 72 35
M  V30 75 1 73 3
M  V30 END BOND
M  V30 END CTAB
M  END
>  <i_epik_Tot_Q>  (1) 
0

>  <i_epik_Tot_abs_Q>  (1) 
0

>  <i_i_glide_confnum>  (1) 
4

>  <i_i_glide_lignum>  (1) 
245

>  <i_i_glide_posenum>  (1) 
335

>  <i_i_glide_rotatable_bonds>  (1) 
15

>  <i_lp_mmshare_version>  (1) 
72125

>  <i_m_source_file_index>  (1) 
92

>  <i_f3d_flags>  (1) 
0

>  <num_sample>  (1) 
100

>  <b_lp_Chiralities_Consistent>  (1) 
1

>  <r_epik_Charging_Adjusted_Penalty>  (1) 
0.41626047813520761

>  <r_epik_Ionization_Penalty>  (1) 
0.0056919315549441929

>  <r_epik_Ionization_Penalty_Charging>  (1) 
0.0055806391826036302

>  <r_epik_Ionization_Penalty_Neutral>  (1) 
0.00011129237234056257

>  <r_epik_State_Penalty>  (1) 
0.41067983895260396

>  <r_glide_ring_energy>  (1) 
0

>  <r_i_docking_score>  (1) 
-6.9588349120394932

>  <r_i_glide_ecoul>  (1) 
-7.4512906383724609

>  <r_i_glide_eff_state_penalty>  (1) 
0.41067983895260396

>  <r_i_glide_einternal>  (1) 
6.1042910065779168

>  <r_i_glide_emodel>  (1) 
-78.988461255797759

>  <r_i_glide_emodel_strain>  (1) 
1.0811992770840249

>  <r_i_glide_energy>  (1) 
-57.407235556205706

>  <r_i_glide_erotb>  (1) 
0.89707811728232589

>  <r_i_glide_esite>  (1) 
-0.081770633512809499

>  <r_i_glide_evdw>  (1) 
-49.955944917833243

>  <r_i_glide_gscore>  (1) 
-7.3695147509920975

>  <r_i_glide_gscore_strain>  (1) 
0

>  <r_i_glide_hbond>  (1) 
-0.53648491169083246

>  <r_i_glide_ligand_efficiency>  (1) 
-0.19330096977887481

>  <r_i_glide_ligand_efficiency_ln>  (1) 
-1.5182297718144637

>  <r_i_glide_ligand_efficiency_sa>  (1) 
-0.63826573935062358

>  <r_i_glide_lipo>  (1) 
-3.623442566338742

>  <r_i_glide_metal>  (1) 
-0

>  <r_i_glide_rewards>  (1) 
-0.40940391508450752

>  <r_lp_Energy>  (1) 
38.539941999999996

>  <r_lp_tautomer_probability>  (1) 
0.49957765584955821

>  <s_epik_Chemistry_Notes>  (1) 
This compound has an ester and may undergo hydrolysis at high or low pH. This compound has an imine and may undergo hydrolysis. This compound contains an acetal/aminal-like group ( X-CH(R)-Y where X, Y are N, S, or O) that may be acid/base labile, releasing an aldehyde.

>  <s_epik_cmdline>  (1) 
J2VwaWtfcHl0aG9uJywgJy1waHQnLCAnMS4wJywgJy1waCcsICc3LjQnLCAnLXRuJywgJzgnLCAnLW1hJywgJzUwMCcsICctaW1hZScsICc8aW5maWxlLm1hZT4nLCAnLW9tYWUnLCAnPG91dGZpbGUubWFlPic=

>  <s_epik_input>  (1) 
W2NIXTFbY0hdYyhGKVtjSF1bY0hdYzFbQ0BASF0yT1tDQEBIXShbQ0BASF0oW0NIM10pW0NASF0oW09IXSlbQ0BIXTJbT0hdKU9DKD1PKVtDSDJdW0NIMl1bTkhdW0NAQEhdKEMzPU5bQ0BASF0oW0NIM10pW0NIXT1bQ0hdMylTW0NIMl1bQ0gyXVtDSDJdW0NAQEhdKFtPSF0pW0NIM10=

>  <s_glide_docking_method>  (1) 
confgen

>  <s_i_glide_gridfile>  (1) 
gpcr_5ht2c_6bqh_protein_autoprepared_prepared

>  <s_lp_Force_Field>  (1) 
S-OPLS

>  <s_lp_Variant>  (1) 
DiffSBDD_91_num_sample_100-1

>  <s_m_source_file>  (1) 
generated__ligand_DiffSBDD_2026-05-06_prepared.sdf

>  <GenAI_Model>  (1) 
DiffSBDD

>  <Protein>  (1) 
GPCR_5HT2C

$$$$
DiffSBDD_42_num_sample_100
     RDKit          3D

  0  0  0  0  0  0  0  0  0  0999 V3000
M  V30 BEGIN CTAB
M  V30 COUNTS 70 74 0 0 1
M  V30 BEGIN ATOM
M  V30 1 O 40.267399 30.872344 51.800455 0
M  V30 2 C 38.777729 27.640562 52.776990 0
M  V30 3 C 37.224164 35.272890 61.092187 0
M  V30 4 C 39.587923 27.221450 58.932749 0
M  V30 5 O 38.687647 32.545322 61.224896 0
M  V30 6 C 39.359052 28.869052 52.150054 0
M  V30 7 C 37.593882 30.751934 59.843357 0
M  V30 8 C 40.435635 29.307047 62.084927 0
M  V30 9 C 39.908247 30.439405 54.188529 0
M  V30 10 C 39.610615 28.597424 58.314933 0 CFG=2
M  V30 11 C 40.073119 30.174155 50.645660 0
M  V30 12 C 39.809092 30.012279 52.757143 0
M  V30 13 O 39.647109 29.783300 59.086208 0
M  V30 14 C 37.268156 36.421430 63.200201 0
M  V30 15 C 38.777256 29.859625 60.201582 0 CFG=1
M  V30 16 C 37.953674 36.874821 64.254862 0
M  V30 17 C 38.597126 30.644342 56.273651 0
M  V30 18 Cl 40.246259 35.221436 60.653503 0
M  V30 19 C 36.497293 34.401688 60.428474 0
M  V30 20 O 36.733708 30.371810 59.053493 0
M  V30 21 N 38.600807 30.789776 54.799206 0 CFG=1 CHG=1
M  V30 22 C 39.395783 35.848137 62.024628 0
M  V30 23 C 39.549509 30.344555 61.406351 0
M  V30 24 C 41.019580 29.788873 63.428671 0
M  V30 25 C 37.928324 35.847603 62.042087 0
M  V30 26 P 38.663048 28.875132 56.808131 0 CFG=2
M  V30 27 C 39.467387 36.896713 64.330581 0
M  V30 28 C 40.269717 32.171356 63.010297 0
M  V30 29 C 40.099147 36.333894 63.066856 0
M  V30 30 O 38.074673 27.791642 55.974090 0
M  V30 31 C 37.508027 32.132587 60.518400 0 CFG=2
M  V30 32 C 41.452819 31.261914 63.380651 0
M  V30 33 C 39.485082 31.616372 61.838598 0
M  V30 34 C 37.112042 33.303109 59.581027 0
M  V30 35 C 38.134117 32.137706 54.408468 0
M  V30 36 N 39.522465 28.967227 50.780261 0
M  V30 37 O 40.265115 28.694534 57.046939 0
M  V30 38 H 39.431289 27.245543 53.554773 0
M  V30 39 H 38.629981 26.848316 52.042240 0
M  V30 40 H 37.807722 27.848781 53.228615 0
M  V30 41 H 40.267408 27.221132 59.782679 0
M  V30 42 H 39.902745 26.466189 58.211845 0
M  V30 43 H 38.586594 26.974483 59.281584 0
M  V30 44 H 41.241687 29.051683 61.397127 0
M  V30 45 H 39.865974 28.391651 62.247918 0
M  V30 46 H 40.365789 29.621422 54.737214 0
M  V30 47 H 40.605009 31.271027 54.289943 0
M  V30 48 H 40.349035 30.601497 49.692949 0
M  V30 49 H 36.187089 36.429123 63.239366 0
M  V30 50 H 38.374578 28.879324 60.448998 0
M  V30 51 H 37.420734 37.221430 65.118470 0
M  V30 52 H 37.673978 31.063248 56.674930 0
M  V30 53 H 39.422913 31.199027 56.721361 0
M  V30 54 H 35.418814 34.421476 60.479215 0
M  V30 55 H 40.267403 29.669049 64.209958 0
M  V30 56 H 41.859025 29.155184 63.717025 0
M  V30 57 H 39.803449 37.922802 64.474103 0
M  V30 58 H 39.800956 36.318080 65.191990 0
M  V30 59 H 40.626491 33.173252 62.773789 0
M  V30 60 H 39.590301 32.271049 63.853548 0
M  V30 61 H 41.179092 36.326259 63.031605 0
M  V30 62 H 36.722081 32.019705 61.266011 0
M  V30 63 H 42.252871 31.382532 62.649979 0
M  V30 64 H 41.868263 31.566249 64.341525 0
M  V30 65 H 36.383786 32.998546 58.828042 0
M  V30 66 H 37.986986 33.675472 59.045633 0
M  V30 67 H 38.687138 32.908940 54.946894 0
M  V30 68 H 37.076519 32.253027 54.646785 0
M  V30 69 H 38.267404 32.319648 53.343757 0
M  V30 70 H 37.926603 30.121969 54.451034 0
M  V30 END ATOM
M  V30 BEGIN BOND
M  V30 1 1 6 2
M  V30 2 1 10 4
M  V30 3 1 11 1
M  V30 4 1 12 1
M  V30 5 2 12 6
M  V30 6 1 12 9
M  V30 7 1 10 13 CFG=1
M  V30 8 1 15 7
M  V30 9 1 15 13
M  V30 10 2 16 14
M  V30 11 2 19 3
M  V30 12 2 20 7
M  V30 13 1 21 9
M  V30 14 1 21 17
M  V30 15 1 22 18
M  V30 16 1 23 8
M  V30 17 1 23 15
M  V30 18 1 24 8
M  V30 19 2 25 3
M  V30 20 1 25 14
M  V30 21 1 25 22
M  V30 22 1 26 10
M  V30 23 1 26 17 CFG=3
M  V30 24 1 27 16
M  V30 25 2 29 22
M  V30 26 1 29 27
M  V30 27 2 30 26
M  V30 28 1 31 5
M  V30 29 1 31 7
M  V30 30 1 32 24
M  V30 31 1 32 28
M  V30 32 1 33 5
M  V30 33 2 33 23
M  V30 34 1 33 28
M  V30 35 1 34 19
M  V30 36 1 34 31
M  V30 37 1 35 21
M  V30 38 1 36 6
M  V30 39 2 36 11
M  V30 40 1 37 10
M  V30 41 1 37 26
M  V30 42 1 38 2
M  V30 43 1 39 2
M  V30 44 1 40 2
M  V30 45 1 41 4
M  V30 46 1 42 4
M  V30 47 1 43 4
M  V30 48 1 44 8
M  V30 49 1 45 8
M  V30 50 1 46 9
M  V30 51 1 47 9
M  V30 52 1 48 11
M  V30 53 1 49 14
M  V30 54 1 15 50 CFG=1
M  V30 55 1 51 16
M  V30 56 1 52 17
M  V30 57 1 53 17
M  V30 58 1 54 19
M  V30 59 1 55 24
M  V30 60 1 56 24
M  V30 61 1 57 27
M  V30 62 1 58 27
M  V30 63 1 59 28
M  V30 64 1 60 28
M  V30 65 1 61 29
M  V30 66 1 31 62 CFG=1
M  V30 67 1 63 32
M  V30 68 1 64 32
M  V30 69 1 65 34
M  V30 70 1 66 34
M  V30 71 1 67 35
M  V30 72 1 68 35
M  V30 73 1 69 35
M  V30 74 1 21 70 CFG=3
M  V30 END BOND
M  V30 END CTAB
M  END
>  <i_epik_Tot_Q>  (1) 
1

>  <i_epik_Tot_abs_Q>  (1) 
1

>  <i_i_glide_confnum>  (1) 
350

>  <i_i_glide_lignum>  (1) 
105

>  <i_i_glide_posenum>  (1) 
239

>  <i_i_glide_rotatable_bonds>  (1) 
8

>  <i_lp_mmshare_version>  (1) 
72125

>  <i_m_source_file_index>  (1) 
43

>  <i_f3d_flags>  (1) 
0

>  <num_sample>  (1) 
100

>  <b_lp_Chiralities_Consistent>  (1) 
1

>  <r_epik_Charging_Adjusted_Penalty>  (1) 
0.2152556309207356

>  <r_epik_Ionization_Penalty>  (1) 
0.1076280395274669

>  <r_epik_Ionization_Penalty_Charging>  (1) 
0.10762781546036781

>  <r_epik_Ionization_Penalty_Neutral>  (1) 
2.2406709908736756e-07

>  <r_epik_State_Penalty>  (1) 
0.10762781546036779

>  <r_glide_ring_energy>  (1) 
0

>  <r_i_docking_score>  (1) 
-6.9474097524006648

>  <r_i_glide_ecoul>  (1) 
-1.6395416752994594

>  <r_i_glide_eff_state_penalty>  (1) 
0.10762781546036779

>  <r_i_glide_einternal>  (1) 
8.3669057284412975

>  <r_i_glide_emodel>  (1) 
-67.179738088939317

>  <r_i_glide_emodel_strain>  (1) 
3.4762014561221406

>  <r_i_glide_energy>  (1) 
-50.848593788354314

>  <r_i_glide_erotb>  (1) 
0.55194975081301367

>  <r_i_glide_esite>  (1) 
-0.022752526098608727

>  <r_i_glide_evdw>  (1) 
-49.209052113054852

>  <r_i_glide_gscore>  (1) 
-7.0550375678610324

>  <r_i_glide_gscore_strain>  (1) 
0

>  <r_i_glide_hbond>  (1) 
0

>  <r_i_glide_ligand_efficiency>  (1) 
-0.1877678311459639

>  <r_i_glide_ligand_efficiency_ln>  (1) 
-1.5067303049028979

>  <r_i_glide_ligand_efficiency_sa>  (1) 
-0.62568406998074866

>  <r_i_glide_lipo>  (1) 
-3.9076370318610461

>  <r_i_glide_metal>  (1) 
-0

>  <r_i_glide_rewards>  (1) 
-0.97021390376672945

>  <r_lp_Energy>  (1) 
6.0054069999999999

>  <r_lp_tautomer_probability>  (1) 
0.99995000000000001

>  <s_epik_cmdline>  (1) 
J2VwaWtfcHl0aG9uJywgJy1waHQnLCAnMS4wJywgJy1waCcsICc3LjQnLCAnLXRuJywgJzgnLCAnLW1hJywgJzUwMCcsICctaW1hZScsICc8aW5maWxlLm1hZT4nLCAnLW9tYWUnLCAnPG91dGZpbGUubWFlPic=

>  <s_epik_input>  (1) 
bjFbY0hdb2MoYzFbQ0gzXSlbQ0gyXU4oW0NIM10pW0NIMl1bUEBAXSg9TykoTzIpW0NAXTIoW0NIM10pT1tDQEBIXTNDKD1PKVtDQEBIXShPQyg9QzM0KVtDSDJdW0NIMl1bQ0gyXVtDSDJdNClbQ0gyXVtDSF09Qz1DNVtDSF09W0NIXVtDSDJdW0NIXT1DNUNs

>  <s_glide_docking_method>  (1) 
confgen

>  <s_i_glide_gridfile>  (1) 
gpcr_5ht2c_6bqh_protein_autoprepared_prepared

>  <s_lp_Force_Field>  (1) 
S-OPLS

>  <s_lp_Variant>  (1) 
DiffSBDD_42_num_sample_100-2

>  <s_m_source_file>  (1) 
generated__ligand_DiffSBDD_2026-05-06_prepared.sdf

>  <GenAI_Model>  (1) 
DiffSBDD

>  <Protein>  (1) 
GPCR_5HT2C

$$$$
DiffSBDD_93_num_sample_100
     RDKit          3D

  0  0  0  0  0  0  0  0  0  0999 V3000
M  V30 BEGIN CTAB
M  V30 COUNTS 74 77 0 0 1
M  V30 BEGIN ATOM
M  V30 1 C 38.968374 28.588009 56.396851 0
M  V30 2 S 37.052667 32.059814 61.663328 0
M  V30 3 C 37.647641 26.429213 56.512513 0 CFG=2
M  V30 4 O 41.467387 29.092667 61.493167 0
M  V30 5 C 38.779184 36.710404 61.370690 0
M  V30 6 C 38.890472 29.200377 60.410202 0 CFG=1
M  V30 7 C 40.030632 33.821397 61.427353 0
M  V30 8 C 38.498022 33.361500 59.554220 0
M  V30 9 C 38.529977 25.901456 55.376326 0
M  V30 10 N 36.663440 31.597074 59.053500 0 CHG=1
M  V30 11 C 39.922699 36.820075 62.373199 0
M  V30 12 C 37.854690 27.933530 56.727587 0
M  V30 13 C 39.081128 30.087783 56.506269 0
M  V30 14 C 37.398662 30.438496 58.501856 0 CFG=1
M  V30 15 C 39.967315 26.280973 55.665964 0
M  V30 16 Cl 41.518717 28.021432 56.944016 0
M  V30 17 O 41.694565 36.021337 63.755014 0
M  V30 18 C 40.132473 27.800889 55.846780 0 CFG=2
M  V30 19 C 39.995624 30.811997 55.530133 0
M  V30 20 C 38.343092 30.927020 62.252324 0
M  V30 21 C 40.046014 28.627837 59.628797 0
M  V30 22 C 38.394386 30.864466 57.414907 0
M  V30 23 C 41.127206 34.721351 61.903109 0
M  V30 24 C 39.379573 30.350987 61.295270 0 CFG=1
M  V30 25 C 37.164393 32.658440 59.955700 0 CFG=1
M  V30 26 C 40.585324 35.608231 62.988025 0 CFG=2
M  V30 27 C 40.464994 29.761725 62.220917 0
M  V30 28 C 41.034024 28.054378 60.630998 0
M  V30 29 C 38.442188 35.643101 60.590685 0
M  V30 30 S 35.826258 33.841923 59.701314 0 CHG=-1
M  V30 31 N 39.019868 34.350877 60.517896 0
M  V30 32 C 37.723119 25.580873 57.778861 0
M  V30 33 C 37.620328 29.369856 59.576155 0
M  V30 34 H 36.638003 26.310641 56.131671 0
M  V30 35 H 38.194435 37.611409 61.257773 0
M  V30 36 H 38.667404 28.387807 61.098748 0
M  V30 37 H 39.533195 33.374154 62.283456 0
M  V30 38 H 40.550944 33.016654 60.916045 0
M  V30 39 H 38.347420 33.875320 58.603860 0
M  V30 40 H 39.266615 32.624790 59.340229 0
M  V30 41 H 38.429380 24.820837 55.260867 0
M  V30 42 H 38.216378 26.343184 54.426485 0
M  V30 43 H 35.855778 31.230667 59.531867 0
M  V30 44 H 39.562495 37.453512 63.185330 0
M  V30 45 H 40.667635 37.417519 61.855410 0
M  V30 46 H 37.038838 28.462812 57.089881 0
M  V30 47 H 36.539250 30.102713 57.933508 0
M  V30 48 H 40.280555 25.756037 56.568603 0
M  V30 49 H 40.625932 25.929652 54.869918 0
M  V30 50 H 41.475375 36.799243 64.256351 0
M  V30 51 H 40.267392 28.244523 54.877735 0
M  V30 52 H 39.427995 31.000089 54.618601 0
M  V30 53 H 40.272334 31.791732 55.912648 0
M  V30 54 H 40.886768 30.271465 55.223599 0
M  V30 55 H 38.850361 31.471396 63.048881 0
M  V30 56 H 37.867422 30.092021 62.755284 0
M  V30 57 H 40.509956 29.404218 59.020304 0
M  V30 58 H 39.705964 27.825924 58.975447 0
M  V30 59 H 38.563870 31.927608 57.368808 0
M  V30 60 H 41.602313 35.272121 61.089135 0
M  V30 61 H 41.880582 34.065208 62.333808 0
M  V30 62 H 39.822499 31.112660 60.670521 0
M  V30 63 H 39.891755 35.084377 63.644655 0
M  V30 64 H 40.945081 30.551722 62.799848 0
M  V30 65 H 40.037614 29.063548 62.941456 0
M  V30 66 H 41.867430 27.621433 60.090095 0
M  V30 67 H 40.580420 27.257288 61.216625 0
M  V30 68 H 37.617051 35.750616 59.904117 0
M  V30 69 H 36.750514 25.613176 58.253516 0
M  V30 70 H 37.920990 24.532365 57.550954 0
M  V30 71 H 38.489272 25.921735 58.473791 0
M  V30 72 H 37.467448 28.421474 59.105238 0
M  V30 73 H 36.774941 29.457591 60.253477 0
M  V30 74 H 36.259195 32.034655 58.216441 0
M  V30 END ATOM
M  V30 BEGIN BOND
M  V30 1 1 9 3
M  V30 2 1 11 5
M  V30 3 2 12 1
M  V30 4 1 12 3
M  V30 5 1 13 1
M  V30 6 1 14 10
M  V30 7 1 15 9
M  V30 8 1 18 1
M  V30 9 1 18 15
M  V30 10 1 18 16
M  V30 11 1 19 13
M  V30 12 1 20 2
M  V30 13 1 21 6
M  V30 14 2 22 13
M  V30 15 1 22 14
M  V30 16 1 23 7
M  V30 17 1 24 6
M  V30 18 1 24 20
M  V30 19 1 25 2
M  V30 20 1 25 8
M  V30 21 1 25 10
M  V30 22 1 26 11
M  V30 23 1 26 17
M  V30 24 1 26 23
M  V30 25 1 27 4
M  V30 26 1 27 24
M  V30 27 1 28 4
M  V30 28 1 28 21
M  V30 29 2 29 5
M  V30 30 1 25 30 CFG=1
M  V30 31 1 31 7
M  V30 32 1 31 8
M  V30 33 1 31 29
M  V30 34 1 32 3
M  V30 35 1 33 6
M  V30 36 1 33 14
M  V30 37 1 3 34 CFG=3
M  V30 38 1 35 5
M  V30 39 1 6 36 CFG=1
M  V30 40 1 37 7
M  V30 41 1 38 7
M  V30 42 1 39 8
M  V30 43 1 40 8
M  V30 44 1 41 9
M  V30 45 1 42 9
M  V30 46 1 43 10
M  V30 47 1 44 11
M  V30 48 1 45 11
M  V30 49 1 46 12
M  V30 50 1 14 47 CFG=3
M  V30 51 1 48 15
M  V30 52 1 49 15
M  V30 53 1 50 17
M  V30 54 1 18 51 CFG=3
M  V30 55 1 52 19
M  V30 56 1 53 19
M  V30 57 1 54 19
M  V30 58 1 55 20
M  V30 59 1 56 20
M  V30 60 1 57 21
M  V30 61 1 58 21
M  V30 62 1 59 22
M  V30 63 1 60 23
M  V30 64 1 61 23
M  V30 65 1 24 62 CFG=3
M  V30 66 1 26 63 CFG=1
M  V30 67 1 64 27
M  V30 68 1 65 27
M  V30 69 1 66 28
M  V30 70 1 67 28
M  V30 71 1 68 29
M  V30 72 1 69 32
M  V30 73 1 70 32
M  V30 74 1 71 32
M  V30 75 1 72 33
M  V30 76 1 73 33
M  V30 77 1 74 10
M  V30 END BOND
M  V30 END CTAB
M  END
>  <i_epik_Tot_Q>  (1) 
0

>  <i_epik_Tot_abs_Q>  (1) 
2

>  <i_i_glide_confnum>  (1) 
1

>  <i_i_glide_lignum>  (1) 
258

>  <i_i_glide_posenum>  (1) 
88

>  <i_i_glide_rotatable_bonds>  (1) 
5

>  <i_lp_mmshare_version>  (1) 
72125

>  <i_m_source_file_index>  (1) 
94

>  <i_f3d_flags>  (1) 
0

>  <num_sample>  (1) 
100

>  <b_lp_Chiralities_Consistent>  (1) 
1

>  <r_epik_Charging_Adjusted_Penalty>  (1) 
0.80501984278308969

>  <r_epik_Ionization_Penalty>  (1) 
0.072421558423421364

>  <r_epik_Ionization_Penalty_Charging>  (1) 
0.072408791886815996

>  <r_epik_Ionization_Penalty_Neutral>  (1) 
1.2766536605372598e-05

>  <r_epik_State_Penalty>  (1) 
0.73261105089627365

>  <r_glide_ring_energy>  (1) 
1.2305908303779962

>  <r_i_docking_score>  (1) 
-6.9405339922103684

>  <r_i_glide_ecoul>  (1) 
-10.306064474150197

>  <r_i_glide_eff_state_penalty>  (1) 
0.73261105089627365

>  <r_i_glide_einternal>  (1) 
18.159083494778958

>  <r_i_glide_emodel>  (1) 
-27.232473221486252

>  <r_i_glide_emodel_strain>  (1) 
4.379128148495127

>  <r_i_glide_energy>  (1) 
-31.079701411423585

>  <r_i_glide_erotb>  (1) 
0.31140238833871409

>  <r_i_glide_esite>  (1) 
-0.10000000000000001

>  <r_i_glide_evdw>  (1) 
-20.773636937273388

>  <r_i_glide_gscore>  (1) 
-7.6731450431066417

>  <r_i_glide_gscore_strain>  (1) 
0.094782037123781748

>  <r_i_glide_hbond>  (1) 
-0.77155712770683416

>  <r_i_glide_ligand_efficiency>  (1) 
-0.21031921188516267

>  <r_i_glide_ligand_efficiency_ln>  (1) 
-1.5435388237058363

>  <r_i_glide_ligand_efficiency_sa>  (1) 
-0.67460609237932556

>  <r_i_glide_lipo>  (1) 
-3.9583598546230268

>  <r_i_glide_metal>  (1) 
-0

>  <r_i_glide_rewards>  (1) 
-0.6648209682530789

>  <r_lp_Energy>  (1) 
40.875704999999996

>  <s_epik_Chemistry_Notes>  (1) 
This compound has an imine and may undergo hydrolysis.

>  <s_epik_cmdline>  (1) 
J2VwaWtfcHl0aG9uJywgJy1waHQnLCAnMS4wJywgJy1waCcsICc3LjQnLCAnLXRuJywgJzgnLCAnLW1hJywgJzUwMCcsICctaW1hZScsICc8aW5maWxlLm1hZT4nLCAnLW9tYWUnLCAnPG91dGZpbGUubWFlPic=

>  <s_epik_input>  (1) 
Q2xbQ0BIXTFbQ0gyXVtDSDJdW0NAQEhdKFtDSDNdKVtDSF09QzEvQyhbQ0gzXSk9W0NIXVxbQ0BASF0oW0NIMl0yKVtOSF1bQ0BAXShbU0hdKShTW0NIMl1bQ0BIXShbQ0BASF0yMylbQ0gyXU9bQ0gyXVtDSDJdMylbQ0gyXU4oW0NIMl1bQ0gyXTQpW0NIXT1bQ0hdW0NIMl1bQ0BASF00W09IXQ==

>  <s_glide_docking_method>  (1) 
confgen

>  <s_i_glide_gridfile>  (1) 
gpcr_5ht2c_6bqh_protein_autoprepared_prepared

>  <s_lp_Force_Field>  (1) 
S-OPLS

>  <s_lp_Variant>  (1) 
DiffSBDD_93_num_sample_100-10

>  <s_m_source_file>  (1) 
generated__ligand_DiffSBDD_2026-05-06_prepared.sdf

>  <GenAI_Model>  (1) 
DiffSBDD

>  <Protein>  (1) 
GPCR_5HT2C

$$$$
DiffSBDD_0_num_sample_100
     RDKit          3D

  0  0  0  0  0  0  0  0  0  0999 V3000
M  V30 BEGIN CTAB
M  V30 COUNTS 60 62 0 0 1
M  V30 BEGIN ATOM
M  V30 1 C 39.025655 29.525188 60.121058 0
M  V30 2 C 38.884347 28.825308 56.085724 0 CFG=1
M  V30 3 C 39.705287 34.392436 61.132386 0
M  V30 4 C 37.360915 33.827116 58.430064 0
M  V30 5 C 40.302893 29.040701 60.564733 0
M  V30 6 C 40.270683 27.416416 58.548750 0
M  V30 7 C 37.550368 35.534355 60.999679 0
M  V30 8 C 40.207710 35.434716 61.938409 0
M  V30 9 C 38.376121 34.441279 60.660480 0
M  V30 10 C 38.595020 28.570421 53.578195 0 CFG=2
M  V30 11 N 38.515587 31.287682 56.382708 0
M  V30 12 C 39.014110 32.470906 57.055283 0
M  V30 13 C 37.877590 33.455700 57.238983 0
M  V30 14 C 39.381978 36.526807 62.274004 0
M  V30 15 F 37.255049 37.621417 62.126685 0
M  V30 16 C 38.051833 36.574838 61.804029 0
M  V30 17 C 37.835342 33.318289 59.787964 0 CFG=1
M  V30 18 C 40.906368 28.047414 59.846819 0
M  V30 19 N 35.934149 32.008456 61.053496 0
M  V30 20 C 39.501441 30.215377 56.385757 0
M  V30 21 C 38.417361 28.905100 59.133222 0
M  V30 22 C 38.123212 28.133220 57.246844 0 CFG=1
M  V30 23 N 37.996898 28.880070 54.900703 0 CHG=1
M  V30 24 O 39.867404 37.538547 63.053507 0
M  V30 25 C 39.348306 29.791712 53.002372 0
M  V30 26 C 37.478575 28.058137 52.653541 0
M  V30 27 C 39.877059 29.608420 51.570890 0
M  V30 28 N 38.851312 27.801075 58.494024 0
M  V30 29 S 36.990544 29.228053 58.253503 0
M  V30 30 C 36.766178 32.586794 60.491538 0
M  V30 31 Cl 41.067353 29.714112 61.956771 0
M  V30 32 H 38.590775 30.407131 60.564688 0
M  V30 33 H 39.712409 28.166359 55.826098 0
M  V30 34 H 40.338652 33.556448 60.876117 0
M  V30 35 H 36.547760 34.537005 58.447489 0
M  V30 36 H 40.831549 27.747421 57.676469 0
M  V30 37 H 40.334541 26.329659 58.599799 0
M  V30 38 H 36.531873 35.574568 60.642363 0
M  V30 39 H 41.225835 35.395662 62.297726 0
M  V30 40 H 39.300457 27.745974 53.693702 0
M  V30 41 H 38.214506 31.556713 55.456664 0
M  V30 42 H 39.796585 32.931140 56.451156 0
M  V30 43 H 39.467397 32.197450 57.996997 0
M  V30 44 H 37.467399 33.877155 56.334070 0
M  V30 45 H 38.623932 32.581814 59.689206 0
M  V30 46 H 41.867399 27.669359 60.153043 0
M  V30 47 H 40.267414 30.470269 55.660700 0
M  V30 48 H 40.003541 30.168147 57.351578 0
M  V30 49 H 37.579293 27.244225 56.925832 0
M  V30 50 H 37.290850 28.176057 55.057020 0
M  V30 51 H 40.700013 37.377502 63.479359 0
M  V30 52 H 38.713230 30.674946 53.053509 0
M  V30 53 H 40.211188 30.021352 53.623207 0
M  V30 54 H 37.867473 27.719988 51.692607 0
M  V30 55 H 36.967381 27.203158 53.096932 0
M  V30 56 H 36.727883 28.821426 52.458995 0
M  V30 57 H 40.493303 30.459388 51.277041 0
M  V30 58 H 40.491127 28.711047 51.484186 0
M  V30 59 H 39.067299 29.534037 50.844656 0
M  V30 60 H 37.529613 29.776498 54.894839 0
M  V30 END ATOM
M  V30 BEGIN BOND
M  V30 1 1 5 1
M  V30 2 2 8 3
M  V30 3 1 9 3
M  V30 4 2 9 7
M  V30 5 1 12 11
M  V30 6 2 13 4
M  V30 7 1 13 12
M  V30 8 1 14 8
M  V30 9 1 16 7
M  V30 10 2 16 14
M  V30 11 1 16 15
M  V30 12 1 17 4
M  V30 13 1 17 9
M  V30 14 2 18 5
M  V30 15 1 18 6
M  V30 16 1 20 2
M  V30 17 1 20 11
M  V30 18 2 21 1
M  V30 19 1 22 2
M  V30 20 1 23 2
M  V30 21 1 23 10
M  V30 22 1 24 14
M  V30 23 1 25 10
M  V30 24 1 26 10
M  V30 25 1 27 25
M  V30 26 1 28 6
M  V30 27 1 28 21
M  V30 28 1 28 22
M  V30 29 1 29 21
M  V30 30 1 29 22
M  V30 31 1 30 17
M  V30 32 3 30 19
M  V30 33 1 31 5
M  V30 34 1 32 1
M  V30 35 1 2 33 CFG=3
M  V30 36 1 34 3
M  V30 37 1 35 4
M  V30 38 1 36 6
M  V30 39 1 37 6
M  V30 40 1 38 7
M  V30 41 1 39 8
M  V30 42 1 10 40 CFG=1
M  V30 43 1 41 11
M  V30 44 1 42 12
M  V30 45 1 43 12
M  V30 46 1 44 13
M  V30 47 1 17 45 CFG=3
M  V30 48 1 46 18
M  V30 49 1 47 20
M  V30 50 1 48 20
M  V30 51 1 22 49 CFG=3
M  V30 52 1 50 23
M  V30 53 1 51 24
M  V30 54 1 52 25
M  V30 55 1 53 25
M  V30 56 1 54 26
M  V30 57 1 55 26
M  V30 58 1 56 26
M  V30 59 1 57 27
M  V30 60 1 58 27
M  V30 61 1 59 27
M  V30 62 1 60 23
M  V30 END BOND
M  V30 END CTAB
M  END
>  <i_epik_Tot_Q>  (1) 
1

>  <i_epik_Tot_abs_Q>  (1) 
1

>  <i_i_glide_confnum>  (1) 
63

>  <i_i_glide_lignum>  (1) 
4

>  <i_i_glide_posenum>  (1) 
328

>  <i_i_glide_rotatable_bonds>  (1) 
11

>  <i_lp_mmshare_version>  (1) 
72125

>  <i_m_source_file_index>  (1) 
1

>  <i_f3d_flags>  (1) 
0

>  <num_sample>  (1) 
100

>  <b_lp_Chiralities_Consistent>  (1) 
1

>  <r_epik_Charging_Adjusted_Penalty>  (1) 
1.026714880071514

>  <r_epik_Ionization_Penalty>  (1) 
0.57488375576365369

>  <r_epik_Ionization_Penalty_Charging>  (1) 
0.45778339447339428

>  <r_epik_Ionization_Penalty_Neutral>  (1) 
0.11710036129025943

>  <r_epik_State_Penalty>  (1) 
0.56893148559811979

>  <r_glide_ring_energy>  (1) 
0

>  <r_i_docking_score>  (1) 
-6.9394173605246374

>  <r_i_glide_ecoul>  (1) 
-5.1689115865710153

>  <r_i_glide_eff_state_penalty>  (1) 
0.56893148559811979

>  <r_i_glide_einternal>  (1) 
4.7596395778494429

>  <r_i_glide_emodel>  (1) 
-71.082942412858117

>  <r_i_glide_emodel_strain>  (1) 
0.036359411285914689

>  <r_i_glide_energy>  (1) 
-49.286535550082739

>  <r_i_glide_erotb>  (1) 
0.74887478347211667

>  <r_i_glide_esite>  (1) 
-0.019707482936478771

>  <r_i_glide_evdw>  (1) 
-44.117623963511726

>  <r_i_glide_gscore>  (1) 
-7.5083488461227574

>  <r_i_glide_gscore_strain>  (1) 
0

>  <r_i_glide_hbond>  (1) 
-0.27262689885218339

>  <r_i_glide_ligand_efficiency>  (1) 
-0.22385217292014958

>  <r_i_glide_ligand_efficiency_ln>  (1) 
-1.5650512823999929

>  <r_i_glide_ligand_efficiency_sa>  (1) 
-0.70320488500713063

>  <r_i_glide_lipo>  (1) 
-3.5885638923062331

>  <r_i_glide_metal>  (1) 
-0

>  <r_i_glide_rewards>  (1) 
-1.3951074193387401

>  <r_lp_Energy>  (1) 
38.461821999999998

>  <r_lp_tautomer_probability>  (1) 
0.99999999999736477

>  <s_epik_Chemistry_Notes>  (1) 
This compound contains an acetal/aminal-like group ( X-CH(R)-Y where X, Y are N, S, or O) that may be acid/base labile, releasing an aldehyde.

>  <s_epik_cmdline>  (1) 
J2VwaWtfcHl0aG9uJywgJy1waHQnLCAnMS4wJywgJy1waCcsICc3LjQnLCAnLXRuJywgJzgnLCAnLW1hJywgJzUwMCcsICctaW1hZScsICc8aW5maWxlLm1hZT4nLCAnLW9tYWUnLCAnPG91dGZpbGUubWFlPic=

>  <s_epik_input>  (1) 
W0NIXT0xQyhDbCk9W0NIXVtDSDJdTihDMTIpW0NAQEhdKFMyKVtDQEBIXShbTkhdW0NAQEhdKFtDSDNdKVtDSDJdW0NIM10pW0NIMl1bTkhdW0NIMl0vW0NIXT1bQ0hdXFtDQEhdKEMjTiljM1tjSF1bY0hdYyhbT0hdKWMoRilbY0hdMw==

>  <s_glide_docking_method>  (1) 
confgen

>  <s_i_glide_gridfile>  (1) 
gpcr_5ht2c_6bqh_protein_autoprepared_prepared

>  <s_lp_Force_Field>  (1) 
S-OPLS

>  <s_lp_Variant>  (1) 
DiffSBDD_0_num_sample_100-4

>  <s_m_source_file>  (1) 
generated__ligand_DiffSBDD_2026-05-06_prepared.sdf

>  <GenAI_Model>  (1) 
DiffSBDD

>  <Protein>  (1) 
GPCR_5HT2C

$$$$
DiffSBDD_91_num_sample_100
     RDKit          3D

  0  0  0  0  0  0  0  0  0  0999 V3000
M  V30 BEGIN CTAB
M  V30 COUNTS 73 75 0 0 1
M  V30 BEGIN ATOM
M  V30 1 C 43.089853 29.486080 64.444836 0
M  V30 2 C 41.694216 33.736577 64.016489 0 CFG=1
M  V30 3 N 38.904127 28.923034 54.089297 0
M  V30 4 C 39.717127 33.305653 61.935841 0 CFG=2
M  V30 5 O 39.422314 32.924240 60.622108 0
M  V30 6 C 40.979417 34.928373 63.360091 0 CFG=2
M  V30 7 F 42.949257 27.669168 65.993553 0
M  V30 8 C 40.584044 34.586544 61.911570 0 CFG=2
M  V30 9 C 41.368466 31.218429 64.472746 0
M  V30 10 C 39.246221 28.052508 57.313446 0
M  V30 11 C 38.435517 31.997671 60.499695 0
M  V30 12 C 39.033460 30.126070 54.730799 0
M  V30 13 C 37.226836 24.782983 56.671386 0 CFG=1
M  V30 14 O 37.574377 31.757424 61.351049 0
M  V30 15 C 38.720355 26.649220 57.585034 0
M  V30 16 C 39.785256 35.730606 61.270309 0
M  V30 17 S 37.868043 29.177270 56.997042 0
M  V30 18 C 42.557076 30.683783 63.929568 0
M  V30 19 O 41.916989 34.069594 65.371401 0
M  V30 20 O 41.867462 36.021058 63.327002 0
M  V30 21 C 38.157112 25.953404 56.327256 0
M  V30 22 C 38.150576 32.060355 57.913865 0
M  V30 23 C 40.780286 32.498279 63.908839 0 CFG=2
M  V30 24 C 42.437778 28.821942 65.501620 0
M  V30 25 C 41.252692 29.356405 66.046459 0
M  V30 26 N 38.769212 31.648492 56.631426 0
M  V30 27 O 36.925907 24.062554 55.493279 0
M  V30 28 C 40.718644 30.553016 65.534157 0
M  V30 29 C 38.626035 30.400114 55.994772 0
M  V30 30 C 39.630160 31.011334 53.894113 0
M  V30 31 C 38.492518 31.233795 59.176673 0
M  V30 32 C 37.849404 23.849087 57.716319 0
M  V30 33 C 39.418005 28.913950 52.659746 0 CFG=2
M  V30 34 C 39.868485 30.419587 52.742117 0
M  V30 35 C 38.327535 28.638740 51.627933 0
M  V30 36 O 40.455632 32.288845 62.541651 0
M  V30 37 H 43.996030 29.074544 64.027581 0
M  V30 38 H 42.646708 33.543980 63.522019 0
M  V30 39 H 38.800915 33.476239 62.506988 0
M  V30 40 H 40.093793 35.215067 63.928089 0
M  V30 41 H 41.482804 34.382743 61.333938 0
M  V30 42 H 39.809912 28.426043 58.166695 0
M  V30 43 H 39.927159 28.037107 56.463716 0
M  V30 44 H 36.287908 25.180431 57.059877 0
M  V30 45 H 37.949598 26.718873 58.353248 0
M  V30 46 H 39.525010 26.041208 58.003649 0
M  V30 47 H 38.858092 35.917171 61.813168 0
M  V30 48 H 40.361555 36.655675 61.249999 0
M  V30 49 H 39.515720 35.494685 60.246249 0
M  V30 50 H 43.057904 31.189658 63.116645 0
M  V30 51 H 42.485142 34.825109 65.377811 0
M  V30 52 H 41.728358 36.586295 64.079084 0
M  V30 53 H 38.989710 25.614937 55.707922 0
M  V30 54 H 37.599396 26.660885 55.714994 0
M  V30 55 H 38.470977 33.091978 58.067992 0
M  V30 56 H 37.067403 32.123595 57.834286 0
M  V30 57 H 39.864295 32.703543 64.455524 0
M  V30 58 H 40.752761 28.847755 66.855800 0
M  V30 59 H 39.189913 32.394059 56.097635 0
M  V30 60 H 37.730175 23.761973 55.097498 0
M  V30 61 H 39.808047 30.957928 65.951146 0
M  V30 62 H 39.866704 32.021952 54.134104 0
M  V30 63 H 37.788481 30.411567 59.275751 0
M  V30 64 H 39.464077 30.768940 59.081831 0
M  V30 65 H 37.867150 24.336565 58.687191 0
M  V30 66 H 37.284657 22.926733 57.854839 0
M  V30 67 H 38.880926 23.606978 57.456691 0
M  V30 68 H 40.263716 28.245223 52.498290 0
M  V30 69 H 40.340601 30.906482 51.899922 0
M  V30 70 H 38.667135 28.886966 50.623161 0
M  V30 71 H 38.027892 27.592044 51.630889 0
M  V30 72 H 37.444053 29.220995 51.846907 0
M  V30 73 H 38.386937 28.144394 54.470948 0
M  V30 END ATOM
M  V30 BEGIN BOND
M  V30 1 1 5 4
M  V30 2 1 6 2
M  V30 3 1 8 4
M  V30 4 1 8 6
M  V30 5 1 11 5
M  V30 6 1 12 3
M  V30 7 2 14 11
M  V30 8 1 15 10
M  V30 9 1 16 8
M  V30 10 1 17 10
M  V30 11 2 18 1
M  V30 12 1 18 9
M  V30 13 1 19 2
M  V30 14 1 20 6
M  V30 15 1 21 13
M  V30 16 1 21 15
M  V30 17 1 23 2
M  V30 18 1 23 9
M  V30 19 1 24 1
M  V30 20 1 24 7
M  V30 21 2 25 24
M  V30 22 1 26 22
M  V30 23 1 27 13
M  V30 24 2 28 9
M  V30 25 1 28 25
M  V30 26 2 29 12
M  V30 27 1 29 17
M  V30 28 1 29 26
M  V30 29 1 30 12
M  V30 30 1 31 11
M  V30 31 1 31 22
M  V30 32 1 32 13
M  V30 33 1 33 3
M  V30 34 2 34 30
M  V30 35 1 34 33
M  V30 36 1 35 33
M  V30 37 1 36 4
M  V30 38 1 36 23
M  V30 39 1 37 1
M  V30 40 1 2 38 CFG=3
M  V30 41 1 4 39 CFG=1
M  V30 42 1 6 40 CFG=1
M  V30 43 1 8 41 CFG=3
M  V30 44 1 42 10
M  V30 45 1 43 10
M  V30 46 1 13 44 CFG=1
M  V30 47 1 45 15
M  V30 48 1 46 15
M  V30 49 1 47 16
M  V30 50 1 48 16
M  V30 51 1 49 16
M  V30 52 1 50 18
M  V30 53 1 51 19
M  V30 54 1 52 20
M  V30 55 1 53 21
M  V30 56 1 54 21
M  V30 57 1 55 22
M  V30 58 1 56 22
M  V30 59 1 23 57 CFG=1
M  V30 60 1 58 25
M  V30 61 1 59 26
M  V30 62 1 60 27
M  V30 63 1 61 28
M  V30 64 1 62 30
M  V30 65 1 63 31
M  V30 66 1 64 31
M  V30 67 1 65 32
M  V30 68 1 66 32
M  V30 69 1 67 32
M  V30 70 1 33 68 CFG=1
M  V30 71 1 69 34
M  V30 72 1 70 35
M  V30 73 1 71 35
M  V30 74 1 72 35
M  V30 75 1 73 3
M  V30 END BOND
M  V30 END CTAB
M  END
>  <i_epik_Tot_Q>  (1) 
0

>  <i_epik_Tot_abs_Q>  (1) 
0

>  <i_i_glide_confnum>  (1) 
3516

>  <i_i_glide_lignum>  (1) 
246

>  <i_i_glide_posenum>  (1) 
112

>  <i_i_glide_rotatable_bonds>  (1) 
15

>  <i_lp_mmshare_version>  (1) 
72125

>  <i_m_source_file_index>  (1) 
92

>  <i_f3d_flags>  (1) 
0

>  <num_sample>  (1) 
100

>  <b_lp_Chiralities_Consistent>  (1) 
1

>  <r_epik_Charging_Adjusted_Penalty>  (1) 
0.41626047813520761

>  <r_epik_Ionization_Penalty>  (1) 
0.0056919315549441929

>  <r_epik_Ionization_Penalty_Charging>  (1) 
0.0055806391826036302

>  <r_epik_Ionization_Penalty_Neutral>  (1) 
0.00011129237234056257

>  <r_epik_State_Penalty>  (1) 
0.41067983895260396

>  <r_glide_ring_energy>  (1) 
0

>  <r_i_docking_score>  (1) 
-6.9328574386950237

>  <r_i_glide_ecoul>  (1) 
-4.5313961105793803

>  <r_i_glide_eff_state_penalty>  (1) 
0.41067983895260396

>  <r_i_glide_einternal>  (1) 
15.08167069634656

>  <r_i_glide_emodel>  (1) 
-64.304714814840068

>  <r_i_glide_emodel_strain>  (1) 
2.3496191052382187

>  <r_i_glide_energy>  (1) 
-52.152327111614284

>  <r_i_glide_erotb>  (1) 
0.89707811728232589

>  <r_i_glide_esite>  (1) 
-0.05578981789065203

>  <r_i_glide_evdw>  (1) 
-47.620931001034904

>  <r_i_glide_gscore>  (1) 
-7.343537277647628

>  <r_i_glide_gscore_strain>  (1) 
0

>  <r_i_glide_hbond>  (1) 
-0.28187818270227072

>  <r_i_glide_ligand_efficiency>  (1) 
-0.19257937329708399

>  <r_i_glide_ligand_efficiency_ln>  (1) 
-1.5125621889609238

>  <r_i_glide_ligand_efficiency_sa>  (1) 
-0.63588308026469198

>  <r_i_glide_lipo>  (1) 
-4.3916307844278206

>  <r_i_glide_metal>  (1) 
-0

>  <r_i_glide_rewards>  (1) 
-0.45056064327055739

>  <r_lp_Energy>  (1) 
23.896531

>  <r_lp_tautomer_probability>  (1) 
0.49957765584955821

>  <s_epik_Chemistry_Notes>  (1) 
This compound has an ester and may undergo hydrolysis at high or low pH. This compound has an imine and may undergo hydrolysis. This compound contains an acetal/aminal-like group ( X-CH(R)-Y where X, Y are N, S, or O) that may be acid/base labile, releasing an aldehyde.

>  <s_epik_cmdline>  (1) 
J2VwaWtfcHl0aG9uJywgJy1waHQnLCAnMS4wJywgJy1waCcsICc3LjQnLCAnLXRuJywgJzgnLCAnLW1hJywgJzUwMCcsICctaW1hZScsICc8aW5maWxlLm1hZT4nLCAnLW9tYWUnLCAnPG91dGZpbGUubWFlPic=

>  <s_epik_input>  (1) 
W2NIXTFbY0hdYyhGKVtjSF1bY0hdYzFbQ0BASF0yT1tDQEBIXShbQ0BASF0oW0NIM10pW0NASF0oW09IXSlbQ0BIXTJbT0hdKU9DKD1PKVtDSDJdW0NIMl1bTkhdW0NAQEhdKEMzPU5bQ0BASF0oW0NIM10pW0NIXT1bQ0hdMylTW0NIMl1bQ0gyXVtDSDJdW0NAQEhdKFtPSF0pW0NIM10=

>  <s_glide_docking_method>  (1) 
confgen

>  <s_i_glide_gridfile>  (1) 
gpcr_5ht2c_6bqh_protein_autoprepared_prepared

>  <s_lp_Force_Field>  (1) 
S-OPLS

>  <s_lp_Variant>  (1) 
DiffSBDD_91_num_sample_100-2

>  <s_m_source_file>  (1) 
generated__ligand_DiffSBDD_2026-05-06_prepared.sdf

>  <GenAI_Model>  (1) 
DiffSBDD

>  <Protein>  (1) 
GPCR_5HT2C

$$$$
DiffSBDD_0_num_sample_100
     RDKit          3D

  0  0  0  0  0  0  0  0  0  0999 V3000
M  V30 BEGIN CTAB
M  V30 COUNTS 60 62 0 0 1
M  V30 BEGIN ATOM
M  V30 1 C 37.777018 29.653849 57.762256 0
M  V30 2 C 39.701306 30.320856 54.409956 0 CFG=1
M  V30 3 C 39.669181 34.282013 61.502637 0
M  V30 4 C 37.629578 33.472938 58.623793 0
M  V30 5 C 38.772226 29.260875 58.729358 0
M  V30 6 C 40.127633 28.249431 56.775716 0
M  V30 7 C 37.635121 35.531736 60.987452 0
M  V30 8 C 40.160687 35.380830 62.234333 0
M  V30 9 C 38.406383 34.355346 60.877252 0
M  V30 10 C 39.904797 29.920294 51.952643 0 CFG=2
M  V30 11 N 38.277027 32.277439 55.378617 0 CHG=1
M  V30 12 C 38.277421 33.514751 56.181168 0
M  V30 13 C 38.516968 33.221870 57.650255 0
M  V30 14 C 39.390858 36.555554 62.343911 0
M  V30 15 F 37.383269 37.758848 61.823378 0
M  V30 16 C 38.126096 36.630524 61.719470 0
M  V30 17 C 37.882756 33.168540 60.086116 0 CFG=1
M  V30 18 C 39.883228 28.601045 58.289396 0
M  V30 19 N 35.810495 32.024078 61.228555 0
M  V30 20 C 39.565288 31.535946 55.380312 0
M  V30 21 C 37.908499 29.252198 56.513790 0
M  V30 22 C 38.810899 29.099814 54.699809 0 CFG=1
M  V30 23 N 39.467392 30.791360 53.053198 0
M  V30 24 O 39.867200 37.621560 63.053587 0
M  V30 25 C 40.223065 30.885103 50.808676 0
M  V30 26 C 38.868227 28.868208 51.506409 0
M  V30 27 C 41.259742 30.400909 49.806979 0
M  V30 28 N 38.875192 28.458072 56.028337 0
M  V30 29 S 37.067412 29.621423 55.053505 0
M  V30 30 C 36.719265 32.532436 60.724218 0
M  V30 31 Cl 38.586090 29.646043 60.397236 0
M  V30 32 H 36.967406 30.312868 58.044056 0
M  V30 33 H 40.745649 30.021451 54.458184 0
M  V30 34 H 40.260876 33.383015 61.420310 0
M  V30 35 H 36.673950 33.914710 58.377660 0
M  V30 36 H 40.959796 28.821431 56.374485 0
M  V30 37 H 40.401789 27.196738 56.700430 0
M  V30 38 H 36.668266 35.592108 60.510528 0
M  V30 39 H 41.128812 35.321288 62.710610 0
M  V30 40 H 40.826223 29.417012 52.229938 0
M  V30 41 H 37.539415 31.678856 55.732410 0
M  V30 42 H 37.328467 34.021352 56.056826 0
M  V30 43 H 39.043405 34.185667 55.799042 0
M  V30 44 H 39.467197 32.785306 57.905849 0
M  V30 45 H 38.664008 32.409312 60.113604 0
M  V30 46 H 40.650660 28.307389 58.991588 0
M  V30 47 H 40.267583 32.287439 55.098817 0
M  V30 48 H 39.837810 31.227800 56.387798 0
M  V30 49 H 38.839616 28.309020 53.960699 0
M  V30 50 H 39.949142 31.673781 52.932073 0
M  V30 51 H 40.646958 37.466446 63.571883 0
M  V30 52 H 39.322539 31.215771 50.287838 0
M  V30 53 H 40.667374 31.749494 51.269127 0
M  V30 54 H 38.899332 28.715005 50.427162 0
M  V30 55 H 39.067396 27.891722 51.944848 0
M  V30 56 H 37.850590 29.154669 51.766597 0
M  V30 57 H 41.549864 31.216029 49.145314 0
M  V30 58 H 42.159194 30.072879 50.325259 0
M  V30 59 H 40.874026 29.589480 49.192461 0
M  V30 60 H 38.041090 32.509177 54.424394 0
M  V30 END ATOM
M  V30 BEGIN BOND
M  V30 1 1 5 1
M  V30 2 2 8 3
M  V30 3 1 9 3
M  V30 4 2 9 7
M  V30 5 1 12 11
M  V30 6 2 13 4
M  V30 7 1 13 12
M  V30 8 1 14 8
M  V30 9 1 16 7
M  V30 10 2 16 14
M  V30 11 1 16 15
M  V30 12 1 17 4
M  V30 13 1 17 9
M  V30 14 2 18 5
M  V30 15 1 18 6
M  V30 16 1 20 2
M  V30 17 1 20 11
M  V30 18 2 21 1
M  V30 19 1 22 2
M  V30 20 1 23 2
M  V30 21 1 23 10
M  V30 22 1 24 14
M  V30 23 1 25 10
M  V30 24 1 26 10
M  V30 25 1 27 25
M  V30 26 1 28 6
M  V30 27 1 28 21
M  V30 28 1 28 22
M  V30 29 1 29 21
M  V30 30 1 29 22
M  V30 31 1 30 17
M  V30 32 3 30 19
M  V30 33 1 31 5
M  V30 34 1 32 1
M  V30 35 1 2 33 CFG=3
M  V30 36 1 34 3
M  V30 37 1 35 4
M  V30 38 1 36 6
M  V30 39 1 37 6
M  V30 40 1 38 7
M  V30 41 1 39 8
M  V30 42 1 10 40 CFG=1
M  V30 43 1 41 11
M  V30 44 1 42 12
M  V30 45 1 43 12
M  V30 46 1 44 13
M  V30 47 1 17 45 CFG=3
M  V30 48 1 46 18
M  V30 49 1 47 20
M  V30 50 1 48 20
M  V30 51 1 22 49 CFG=3
M  V30 52 1 50 23
M  V30 53 1 51 24
M  V30 54 1 52 25
M  V30 55 1 53 25
M  V30 56 1 54 26
M  V30 57 1 55 26
M  V30 58 1 56 26
M  V30 59 1 57 27
M  V30 60 1 58 27
M  V30 61 1 59 27
M  V30 62 1 60 11
M  V30 END BOND
M  V30 END CTAB
M  END
>  <i_epik_Tot_Q>  (1) 
1

>  <i_epik_Tot_abs_Q>  (1) 
1

>  <i_i_glide_confnum>  (1) 
744

>  <i_i_glide_lignum>  (1) 
5

>  <i_i_glide_posenum>  (1) 
262

>  <i_i_glide_rotatable_bonds>  (1) 
11

>  <i_lp_mmshare_version>  (1) 
72125

>  <i_m_source_file_index>  (1) 
1

>  <i_f3d_flags>  (1) 
0

>  <num_sample>  (1) 
100

>  <b_lp_Chiralities_Consistent>  (1) 
1

>  <r_epik_Charging_Adjusted_Penalty>  (1) 
1.8065071523224812

>  <r_epik_Ionization_Penalty>  (1) 
0.92614417087394063

>  <r_epik_Ionization_Penalty_Charging>  (1) 
0.760298405215594

>  <r_epik_Ionization_Penalty_Neutral>  (1) 
0.16584576565834661

>  <r_epik_State_Penalty>  (1) 
1.0462087471068873

>  <r_glide_ring_energy>  (1) 
0

>  <r_i_docking_score>  (1) 
-6.9271966899616579

>  <r_i_glide_ecoul>  (1) 
-8.713063370587756

>  <r_i_glide_eff_state_penalty>  (1) 
1.0462087471068873

>  <r_i_glide_einternal>  (1) 
15.223159931518911

>  <r_i_glide_emodel>  (1) 
-63.21481334707984

>  <r_i_glide_emodel_strain>  (1) 
0.847126862399179

>  <r_i_glide_energy>  (1) 
-45.100949392669001

>  <r_i_glide_erotb>  (1) 
0.74887478347211667

>  <r_i_glide_esite>  (1) 
-0.071071071801286842

>  <r_i_glide_evdw>  (1) 
-36.387886022081247

>  <r_i_glide_gscore>  (1) 
-7.9734054370685454

>  <r_i_glide_gscore_strain>  (1) 
0

>  <r_i_glide_hbond>  (1) 
-0.41769574451109331

>  <r_i_glide_ligand_efficiency>  (1) 
-0.22345795774069865

>  <r_i_glide_ligand_efficiency_ln>  (1) 
-1.5622951466694661

>  <r_i_glide_ligand_efficiency_sa>  (1) 
-0.7019665050695244

>  <r_i_glide_lipo>  (1) 
-3.7513949874229642

>  <r_i_glide_metal>  (1) 
-0

>  <r_i_glide_rewards>  (1) 
-1.3557646101130911

>  <r_lp_Energy>  (1) 
41.265557999999999

>  <s_epik_Chemistry_Notes>  (1) 
This compound contains an acetal/aminal-like group ( X-CH(R)-Y where X, Y are N, S, or O) that may be acid/base labile, releasing an aldehyde.

>  <s_epik_cmdline>  (1) 
J2VwaWtfcHl0aG9uJywgJy1waHQnLCAnMS4wJywgJy1waCcsICc3LjQnLCAnLXRuJywgJzgnLCAnLW1hJywgJzUwMCcsICctaW1hZScsICc8aW5maWxlLm1hZT4nLCAnLW9tYWUnLCAnPG91dGZpbGUubWFlPic=

>  <s_epik_input>  (1) 
W0NIXT0xQyhDbCk9W0NIXVtDSDJdTihDMTIpW0NAQEhdKFMyKVtDQEBIXShbTkhdW0NAQEhdKFtDSDNdKVtDSDJdW0NIM10pW0NIMl1bTkhdW0NIMl1cW0NIXT1bQ0hdXFtDQEhdKEMjTiljM1tjSF1bY0hdYyhbT0hdKWMoRilbY0hdMw==

>  <s_glide_docking_method>  (1) 
confgen

>  <s_i_glide_gridfile>  (1) 
gpcr_5ht2c_6bqh_protein_autoprepared_prepared

>  <s_lp_Force_Field>  (1) 
S-OPLS

>  <s_lp_Variant>  (1) 
DiffSBDD_0_num_sample_100-5

>  <s_m_source_file>  (1) 
generated__ligand_DiffSBDD_2026-05-06_prepared.sdf

>  <GenAI_Model>  (1) 
DiffSBDD

>  <Protein>  (1) 
GPCR_5HT2C

$$$$
DiffSBDD_29_num_sample_100
     RDKit          3D

  0  0  0  0  0  0  0  0  0  0999 V3000
M  V30 BEGIN CTAB
M  V30 COUNTS 85 89 0 0 1
M  V30 BEGIN ATOM
M  V30 1 F 38.307584 27.390881 52.087418 0
M  V30 2 C 40.285206 28.605045 57.979255 0
M  V30 3 C 38.438256 29.053240 54.474858 0
M  V30 4 C 38.532558 33.159565 60.558074 0 CFG=2
M  V30 5 C 39.801057 36.222856 64.231583 0
M  V30 6 C 37.937316 32.316104 61.704087 0
M  V30 7 C 39.497900 29.046836 51.033482 0
M  V30 8 N 38.902190 28.696366 57.509581 0
M  V30 9 C 37.093975 35.343815 60.751358 0 CFG=1
M  V30 10 C 42.110222 34.260210 64.035161 0
M  V30 11 C 36.567748 29.346875 58.253866 0
M  V30 12 C 41.025338 34.245856 62.967667 0 CFG=2
M  V30 13 C 38.937904 28.576095 52.098293 0
M  V30 14 C 37.512976 30.216395 59.049961 0 CFG=2
M  V30 15 C 40.253580 26.148994 57.418615 0
M  V30 16 C 37.372614 37.355156 59.183429 0
M  V30 17 C 38.535110 34.738789 60.764453 0 CFG=1
M  V30 18 C 38.193006 31.467330 58.485992 0 CFG=1
M  V30 19 C 39.754864 30.633621 53.006794 0
M  V30 20 N 38.845451 26.299177 57.085826 0
M  V30 21 N 39.035179 29.352212 53.189044 0
M  V30 22 F 39.505881 28.421535 49.855890 0
M  V30 23 S 41.275401 35.221196 61.461891 0
M  V30 24 C 38.540657 27.632815 56.565767 0 CFG=2
M  V30 25 C 40.620263 27.197603 58.471492 0
M  V30 26 C 37.293732 37.828416 61.703367 0
M  V30 27 O 37.867407 31.651946 57.124562 0
M  V30 28 C 39.512197 35.457559 61.740721 0 CFG=2
M  V30 29 C 37.844431 32.801325 59.195186 0
M  V30 30 C 42.157882 35.557080 64.853267 0
M  V30 31 C 40.767318 35.940521 65.384846 0
M  V30 32 C 39.157322 27.894754 55.181352 0
M  V30 33 O 36.339619 34.896443 61.853156 0
M  V30 34 C 39.761922 35.083855 63.203805 0 CFG=2
M  V30 35 C 37.944616 28.824380 58.603514 0 CFG=2
M  V30 36 C 36.919974 36.876287 60.552455 0
M  V30 37 O 39.867282 32.737697 60.456832 0
M  V30 38 S 40.267687 30.578746 51.161919 0
M  V30 39 H 40.960647 28.825947 57.157235 0
M  V30 40 H 40.477639 29.342923 58.757297 0
M  V30 41 H 37.385151 28.806461 54.328595 0
M  V30 42 H 38.469137 29.948190 55.095551 0
M  V30 43 H 38.802689 36.421330 64.620811 0
M  V30 44 H 40.113273 37.148819 63.748962 0
M  V30 45 H 36.847782 32.325773 61.686390 0
M  V30 46 H 38.263537 31.279221 61.645103 0
M  V30 47 H 38.254199 32.644543 62.681180 0
M  V30 48 H 36.568926 34.919981 59.898828 0
M  V30 49 H 41.909224 33.448122 64.736612 0
M  V30 50 H 43.067209 34.022011 63.597707 0
M  V30 51 H 35.713399 28.931019 58.784713 0
M  V30 52 H 36.367767 29.623130 57.221495 0
M  V30 53 H 40.781095 33.222395 62.687667 0
M  V30 54 H 37.234348 30.295241 60.093669 0
M  V30 55 H 40.871798 26.261078 56.526516 0
M  V30 56 H 40.422125 25.145127 57.807554 0
M  V30 57 H 38.405383 37.221399 59.015854 0
M  V30 58 H 36.837504 36.845149 58.382641 0
M  V30 59 H 37.292036 38.421471 59.086334 0
M  V30 60 H 38.956436 35.100397 59.853517 0
M  V30 61 H 39.259213 31.292382 58.503227 0
M  V30 62 H 39.095056 31.480629 53.196753 0
M  V30 63 H 40.628277 30.701830 53.656519 0
M  V30 64 H 38.573932 25.606214 56.403687 0
M  V30 65 H 37.467442 27.650186 56.424078 0
M  V30 66 H 41.692900 27.139507 58.658107 0
M  V30 67 H 40.104116 26.993987 59.410609 0
M  V30 68 H 38.282458 38.264821 61.574300 0
M  V30 69 H 36.603570 38.671323 61.733231 0
M  V30 70 H 37.244165 37.336981 62.675202 0
M  V30 71 H 36.904504 31.695332 57.053559 0
M  V30 72 H 39.410453 36.527196 61.661275 0
M  V30 73 H 36.759288 32.850262 59.294333 0
M  V30 74 H 38.101245 33.596873 58.492301 0
M  V30 75 H 42.832953 35.434564 65.695842 0
M  V30 76 H 42.572150 36.356334 64.236124 0
M  V30 77 H 40.377135 35.136617 66.008754 0
M  V30 78 H 40.838121 36.815269 66.031518 0
M  V30 79 H 40.222791 28.105314 55.253065 0
M  V30 80 H 39.068848 26.993928 54.571685 0
M  V30 81 H 35.420095 34.968554 61.648112 0
M  V30 82 H 39.067300 34.324017 63.453406 0
M  V30 83 H 37.976240 28.080715 59.393418 0
M  V30 84 H 35.867078 37.030628 60.463476 0
M  V30 85 H 40.338681 33.387744 59.958011 0
M  V30 END ATOM
M  V30 BEGIN BOND
M  V30 1 1 6 4
M  V30 2 1 8 2
M  V30 3 1 12 10
M  V30 4 1 13 1
M  V30 5 2 13 7
M  V30 6 1 14 11
M  V30 7 1 17 4
M  V30 8 1 17 9
M  V30 9 1 18 14
M  V30 10 1 20 15
M  V30 11 1 21 3
M  V30 12 1 21 13
M  V30 13 1 21 19
M  V30 14 1 22 7
M  V30 15 1 23 12
M  V30 16 1 24 8
M  V30 17 1 24 20
M  V30 18 1 25 2
M  V30 19 1 25 15
M  V30 20 1 27 18
M  V30 21 1 28 17
M  V30 22 1 28 23
M  V30 23 1 29 4
M  V30 24 1 29 18
M  V30 25 1 30 10
M  V30 26 1 31 5
M  V30 27 1 31 30
M  V30 28 1 32 3
M  V30 29 1 32 24
M  V30 30 1 33 9
M  V30 31 1 34 5
M  V30 32 1 34 12
M  V30 33 1 34 28
M  V30 34 1 35 8
M  V30 35 1 35 11
M  V30 36 1 35 14
M  V30 37 1 36 9
M  V30 38 1 36 16
M  V30 39 1 36 26
M  V30 40 1 4 37 CFG=3
M  V30 41 1 38 7
M  V30 42 1 38 19
M  V30 43 1 39 2
M  V30 44 1 40 2
M  V30 45 1 41 3
M  V30 46 1 42 3
M  V30 47 1 43 5
M  V30 48 1 44 5
M  V30 49 1 45 6
M  V30 50 1 46 6
M  V30 51 1 47 6
M  V30 52 1 9 48 CFG=3
M  V30 53 1 49 10
M  V30 54 1 50 10
M  V30 55 1 51 11
M  V30 56 1 52 11
M  V30 57 1 12 53 CFG=3
M  V30 58 1 14 54 CFG=1
M  V30 59 1 55 15
M  V30 60 1 56 15
M  V30 61 1 57 16
M  V30 62 1 58 16
M  V30 63 1 59 16
M  V30 64 1 17 60 CFG=3
M  V30 65 1 18 61 CFG=3
M  V30 66 1 62 19
M  V30 67 1 63 19
M  V30 68 1 64 20
M  V30 69 1 24 65 CFG=3
M  V30 70 1 66 25
M  V30 71 1 67 25
M  V30 72 1 68 26
M  V30 73 1 69 26
M  V30 74 1 70 26
M  V30 75 1 71 27
M  V30 76 1 28 72 CFG=1
M  V30 77 1 73 29
M  V30 78 1 74 29
M  V30 79 1 75 30
M  V30 80 1 76 30
M  V30 81 1 77 31
M  V30 82 1 78 31
M  V30 83 1 79 32
M  V30 84 1 80 32
M  V30 85 1 81 33
M  V30 86 1 34 82 CFG=1
M  V30 87 1 35 83 CFG=1
M  V30 88 1 84 36
M  V30 89 1 85 37
M  V30 END BOND
M  V30 END CTAB
M  END
>  <i_epik_Tot_Q>  (1) 
0

>  <i_epik_Tot_abs_Q>  (1) 
0

>  <i_i_glide_confnum>  (1) 
2397

>  <i_i_glide_lignum>  (1) 
73

>  <i_i_glide_posenum>  (1) 
381

>  <i_i_glide_rotatable_bonds>  (1) 
14

>  <i_lp_mmshare_version>  (1) 
72125

>  <i_m_source_file_index>  (1) 
30

>  <i_f3d_flags>  (1) 
0

>  <num_sample>  (1) 
100

>  <b_lp_Chiralities_Consistent>  (1) 
1

>  <r_epik_Charging_Adjusted_Penalty>  (1) 
0.89739717629826321

>  <r_epik_Ionization_Penalty>  (1) 
1.0966562263345743

>  <r_epik_Ionization_Penalty_Charging>  (1) 
8.0809776118824917e-09

>  <r_epik_Ionization_Penalty_Neutral>  (1) 
1.0966562182535966

>  <r_epik_State_Penalty>  (1) 
0.89739716821728555

>  <r_glide_ring_energy>  (1) 
1.6720993256359071

>  <r_i_docking_score>  (1) 
-6.9269455297571083

>  <r_i_glide_ecoul>  (1) 
-4.7912651984073769

>  <r_i_glide_eff_state_penalty>  (1) 
0.89739716821728555

>  <r_i_glide_einternal>  (1) 
28.864192234513414

>  <r_i_glide_emodel>  (1) 
-33.077282325077547

>  <r_i_glide_emodel_strain>  (1) 
1.1742225549963763

>  <r_i_glide_energy>  (1) 
-35.468416774131668

>  <r_i_glide_erotb>  (1) 
0.47112220270256994

>  <r_i_glide_esite>  (1) 
0

>  <r_i_glide_evdw>  (1) 
-30.677151575724288

>  <r_i_glide_gscore>  (1) 
-7.8243426979743935

>  <r_i_glide_gscore_strain>  (1) 
0

>  <r_i_glide_hbond>  (1) 
-0.16

>  <r_i_glide_ligand_efficiency>  (1) 
-0.18228804025676601

>  <r_i_glide_ligand_efficiency_ln>  (1) 
-1.4936532263081002

>  <r_i_glide_ligand_efficiency_sa>  (1) 
-0.61284790829682678

>  <r_i_glide_lipo>  (1) 
-4.33574012873079

>  <r_i_glide_metal>  (1) 
-0

>  <r_i_glide_rewards>  (1) 
-1.5471774133988521

>  <r_lp_Energy>  (1) 
28.047854999999998

>  <s_epik_Chemistry_Notes>  (1) 
This compound has an imine and may undergo hydrolysis. This compound contains an acetal/aminal-like group ( X-CH(R)-Y where X, Y are N, S, or O) that may be acid/base labile, releasing an aldehyde.

>  <s_epik_cmdline>  (1) 
J2VwaWtfcHl0aG9uJywgJy1waHQnLCAnMS4wJywgJy1waCcsICc3LjQnLCAnLXRuJywgJzgnLCAnLW1hJywgJzUwMCcsICctaW1hZScsICc8aW5maWxlLm1hZT4nLCAnLW9tYWUnLCAnPG91dGZpbGUubWFlPic=

>  <s_epik_input>  (1) 
RkMxPUMoRilOKFtDSDJdUzEpW0NIMl1bQ0gyXVtDQEhdMltOSF1bQ0gyXVtDSDJdW0NIMl1OMltDQEBIXTNbQ0gyXVtDQEBIXTNbQ0BASF0oW09IXSlbQ0gyXVtDQEBdKFtDSDNdKShbT0hdKVtDQEBIXShbQ0BASF0oW09IXSlbQ0hdKFtDSDNdKVtDSDNdKVtDQEhdKFM0KVtDQEBIXShbQ0BASF00NSlbQ0gyXVtDSDJdW0NIMl1bQ0gyXTU=

>  <s_glide_docking_method>  (1) 
confgen

>  <s_i_glide_gridfile>  (1) 
gpcr_5ht2c_6bqh_protein_autoprepared_prepared

>  <s_lp_Force_Field>  (1) 
S-OPLS

>  <s_lp_Variant>  (1) 
DiffSBDD_29_num_sample_100-3

>  <s_m_source_file>  (1) 
generated__ligand_DiffSBDD_2026-05-06_prepared.sdf

>  <GenAI_Model>  (1) 
DiffSBDD

>  <Protein>  (1) 
GPCR_5HT2C

$$$$
DiffSBDD_40_num_sample_100
     RDKit          3D

  0  0  0  0  0  0  0  0  0  0999 V3000
M  V30 BEGIN CTAB
M  V30 COUNTS 73 75 0 0 1
M  V30 BEGIN ATOM
M  V30 1 C 43.355553 27.635680 57.554004 0
M  V30 2 C 40.872105 35.467391 62.677108 0 CFG=1
M  V30 3 N 39.867399 28.927275 50.443848 0
M  V30 4 C 40.172964 33.044524 61.930414 0
M  V30 5 C 39.000363 25.799467 54.702766 0
M  V30 6 C 37.686606 30.842025 58.603933 0
M  V30 7 N 38.621595 28.523148 52.411450 0 CHG=1
M  V30 8 C 38.704054 33.869753 59.633017 0
M  V30 9 O 36.368270 33.449793 59.053500 0
M  V30 10 C 38.019640 32.133287 57.827584 0
M  V30 11 C 39.457169 36.026135 62.747078 0
M  V30 12 C 41.463410 35.125881 64.061773 0
M  V30 13 N 39.867403 30.274682 52.382999 0
M  V30 14 C 39.716678 28.494878 58.049446 0 CFG=2
M  V30 15 C 40.973641 34.320450 61.638395 0
M  V30 16 C 38.276179 27.945556 55.930227 0 CFG=1
M  V30 17 C 39.462480 27.048032 55.474197 0 CFG=1
M  V30 18 S 40.783063 31.831385 62.890162 0
M  V30 19 C 38.446551 29.129602 53.639671 0
M  V30 20 N 40.849505 27.803829 57.376626 0 CFG=1 CHG=1
M  V30 21 S 38.570087 32.930879 61.188825 0
M  V30 22 C 42.007594 27.517656 58.265318 0
M  V30 23 C 39.253120 30.260053 53.611215 0
M  V30 24 C 37.689389 33.456532 58.554608 0 CFG=2
M  V30 25 C 40.376086 26.622726 56.622081 0
M  V30 26 O 39.224949 37.280941 62.253501 0
M  V30 27 C 39.098680 27.636935 59.183543 0
M  V30 28 N 39.148375 36.821431 63.667418 0
M  V30 29 C 39.474939 29.224897 51.678943 0
M  V30 30 C 38.688584 29.019255 56.995227 0 CFG=1
M  V30 31 C 37.538818 28.571519 54.697657 0
M  V30 32 C 37.437604 29.631839 57.686420 0
M  V30 33 H 44.176833 27.534373 58.256840 0
M  V30 34 H 43.495085 26.822031 56.848619 0
M  V30 35 H 43.471583 28.596630 57.053411 0
M  V30 36 H 41.489339 36.277760 62.285212 0
M  V30 37 H 39.520436 28.119566 49.944922 0
M  V30 38 H 40.508509 29.510373 49.924356 0
M  V30 39 H 38.392137 25.145668 55.328924 0
M  V30 40 H 38.412845 26.048603 53.820926 0
M  V30 41 H 39.859848 25.221436 54.361205 0
M  V30 42 H 38.449038 30.635785 59.352904 0
M  V30 43 H 36.765138 30.984966 59.167688 0
M  V30 44 H 39.692129 33.727995 59.197704 0
M  V30 45 H 38.583088 34.927856 59.866106 0
M  V30 46 H 35.833617 33.001007 58.403142 0
M  V30 47 H 37.467407 32.135561 56.888414 0
M  V30 48 H 39.067403 32.123057 57.528189 0
M  V30 49 H 41.581418 36.021422 64.673292 0
M  V30 50 H 40.827474 34.434858 64.614762 0
M  V30 51 H 42.450177 34.672292 63.968836 0
M  V30 52 H 40.515388 30.983127 52.058636 0
M  V30 53 H 40.152452 29.374169 58.525675 0
M  V30 54 H 42.013861 34.021433 61.528105 0
M  V30 55 H 40.728717 34.762917 60.681645 0
M  V30 56 H 37.563828 27.291248 56.436351 0
M  V30 57 H 40.102752 27.621379 54.812167 0
M  V30 58 H 42.011486 28.199067 59.116310 0
M  V30 59 H 41.924866 26.508248 58.653501 0
M  V30 60 H 39.424911 31.028649 54.352895 0
M  V30 61 H 37.713313 34.232940 57.789398 0
M  V30 62 H 39.891305 25.897506 57.275955 0
M  V30 63 H 41.220170 26.110023 56.177671 0
M  V30 64 H 38.449892 28.231927 59.824938 0
M  V30 65 H 38.501997 26.809636 58.800598 0
M  V30 66 H 39.860758 27.221448 59.842173 0
M  V30 67 H 39.190476 29.820702 56.453456 0
M  V30 68 H 36.916731 27.803397 54.236586 0
M  V30 69 H 36.839354 29.355886 54.974894 0
M  V30 70 H 36.918630 28.860254 58.254577 0
M  V30 71 H 36.696286 29.951434 56.959208 0
M  V30 72 H 41.199296 28.455644 56.690296 0
M  V30 73 H 38.165353 27.669964 52.109749 0
M  V30 END ATOM
M  V30 BEGIN BOND
M  V30 1 1 10 6
M  V30 2 1 11 2
M  V30 3 1 12 2
M  V30 4 1 15 2
M  V30 5 1 15 4
M  V30 6 1 17 5
M  V30 7 1 17 16
M  V30 8 2 18 4
M  V30 9 1 19 7
M  V30 10 1 20 14
M  V30 11 1 21 4
M  V30 12 1 21 8
M  V30 13 1 22 1
M  V30 14 1 22 20
M  V30 15 1 23 13
M  V30 16 2 23 19
M  V30 17 1 24 8
M  V30 18 1 24 9
M  V30 19 1 24 10
M  V30 20 1 25 17
M  V30 21 1 25 20
M  V30 22 1 26 11
M  V30 23 1 27 14
M  V30 24 2 28 11
M  V30 25 1 28 26
M  V30 26 1 29 3
M  V30 27 2 29 7
M  V30 28 1 29 13
M  V30 29 1 30 14
M  V30 30 1 30 16
M  V30 31 1 31 16
M  V30 32 1 31 19
M  V30 33 1 32 6
M  V30 34 1 32 30
M  V30 35 1 33 1
M  V30 36 1 34 1
M  V30 37 1 35 1
M  V30 38 1 2 36 CFG=3
M  V30 39 1 37 3
M  V30 40 1 38 3
M  V30 41 1 39 5
M  V30 42 1 40 5
M  V30 43 1 41 5
M  V30 44 1 42 6
M  V30 45 1 43 6
M  V30 46 1 44 8
M  V30 47 1 45 8
M  V30 48 1 46 9
M  V30 49 1 47 10
M  V30 50 1 48 10
M  V30 51 1 49 12
M  V30 52 1 50 12
M  V30 53 1 51 12
M  V30 54 1 52 13
M  V30 55 1 14 53 CFG=1
M  V30 56 1 54 15
M  V30 57 1 55 15
M  V30 58 1 16 56 CFG=1
M  V30 59 1 17 57 CFG=3
M  V30 60 1 58 22
M  V30 61 1 59 22
M  V30 62 1 60 23
M  V30 63 1 24 61 CFG=3
M  V30 64 1 62 25
M  V30 65 1 63 25
M  V30 66 1 64 27
M  V30 67 1 65 27
M  V30 68 1 66 27
M  V30 69 1 30 67 CFG=3
M  V30 70 1 68 31
M  V30 71 1 69 31
M  V30 72 1 70 32
M  V30 73 1 71 32
M  V30 74 1 20 72 CFG=3
M  V30 75 1 73 7
M  V30 END BOND
M  V30 END CTAB
M  END
>  <i_epik_Tot_Q>  (1) 
2

>  <i_epik_Tot_abs_Q>  (1) 
2

>  <i_i_glide_confnum>  (1) 
815

>  <i_i_glide_lignum>  (1) 
102

>  <i_i_glide_posenum>  (1) 
377

>  <i_i_glide_rotatable_bonds>  (1) 
14

>  <i_lp_mmshare_version>  (1) 
72125

>  <i_m_source_file_index>  (1) 
41

>  <i_f3d_flags>  (1) 
0

>  <num_sample>  (1) 
100

>  <b_lp_Chiralities_Consistent>  (1) 
1

>  <r_epik_Charging_Adjusted_Penalty>  (1) 
0.0037096170623772918

>  <r_epik_Ionization_Penalty>  (1) 
0.054330814931534903

>  <r_epik_Ionization_Penalty_Charging>  (1) 
0.0037096170623772918

>  <r_epik_Ionization_Penalty_Neutral>  (1) 
0.050621197869157614

>  <r_epik_State_Penalty>  (1) 
-0

>  <r_glide_ring_energy>  (1) 
0

>  <r_i_docking_score>  (1) 
-6.9236197864800086

>  <r_i_glide_ecoul>  (1) 
-4.9691691384054479

>  <r_i_glide_eff_state_penalty>  (1) 
-0

>  <r_i_glide_einternal>  (1) 
11.17738902961365

>  <r_i_glide_emodel>  (1) 
-62.880331345523899

>  <r_i_glide_emodel_strain>  (1) 
2.0017101993419999

>  <r_i_glide_energy>  (1) 
-49.412753207737452

>  <r_i_glide_erotb>  (1) 
0.95438045441749597

>  <r_i_glide_esite>  (1) 
0

>  <r_i_glide_evdw>  (1) 
-44.443584069332005

>  <r_i_glide_gscore>  (1) 
-6.9236197864800086

>  <r_i_glide_gscore_strain>  (1) 
0

>  <r_i_glide_hbond>  (1) 
-0.16

>  <r_i_glide_ligand_efficiency>  (1) 
-0.21636311832750027

>  <r_i_glide_ligand_efficiency_ln>  (1) 
-1.5503872009402409

>  <r_i_glide_ligand_efficiency_sa>  (1) 
-0.68691008328038805

>  <r_i_glide_lipo>  (1) 
-2.9685886336557274

>  <r_i_glide_metal>  (1) 
-0

>  <r_i_glide_rewards>  (1) 
-1.7818570330143606

>  <r_lp_Energy>  (1) 
37.242804999999997

>  <r_lp_tautomer_probability>  (1) 
1

>  <s_epik_Chemistry_Notes>  (1) 
This compound has an imine and may undergo hydrolysis.

>  <s_epik_cmdline>  (1) 
J2VwaWtfcHl0aG9uJywgJy1waHQnLCAnMS4wJywgJy1waCcsICc3LjQnLCAnLXRuJywgJzgnLCAnLW1hJywgJzUwMCcsICctaW1hZScsICc8aW5maWxlLm1hZT4nLCAnLW9tYWUnLCAnPG91dGZpbGUubWFlPic=

>  <s_epik_input>  (1) 
W2NIXTFbbkhdYyhbTkgyXSluYzFbQ0gyXVtDQEBIXShbQ0BIXShbQ0gzXSlbQ0gyXU4oW0NAQEhdMltDSDNdKVtDSDJdW0NIM10pW0NAQEhdMltDSDJdW0NIMl1bQ0gyXVtDQEBIXShbT0hdKVtDSDJdU0MoPVMpW0NIMl1bQ0BIXShbQ0gzXSlDMz1OTzM=

>  <s_glide_docking_method>  (1) 
confgen

>  <s_i_glide_gridfile>  (1) 
gpcr_5ht2c_6bqh_protein_autoprepared_prepared

>  <s_lp_Force_Field>  (1) 
S-OPLS

>  <s_lp_Variant>  (1) 
DiffSBDD_40_num_sample_100-3

>  <s_m_source_file>  (1) 
generated__ligand_DiffSBDD_2026-05-06_prepared.sdf

>  <GenAI_Model>  (1) 
DiffSBDD

>  <Protein>  (1) 
GPCR_5HT2C

$$$$
DiffSBDD_0_num_sample_100
     RDKit          3D

  0  0  0  0  0  0  0  0  0  0999 V3000
M  V30 BEGIN CTAB
M  V30 COUNTS 60 62 0 0 1
M  V30 BEGIN ATOM
M  V30 1 C 38.334669 27.308348 57.653467 0
M  V30 2 C 39.296099 29.131064 54.357569 0 CFG=1
M  V30 3 C 39.989269 31.698397 61.881731 0
M  V30 4 C 38.371583 32.376273 58.648221 0
M  V30 5 C 39.305908 27.766659 58.608038 0
M  V30 6 C 41.005990 27.863719 56.674523 0
M  V30 7 C 39.296647 33.924477 61.151169 0
M  V30 8 C 40.890794 32.280803 62.794391 0
M  V30 9 C 39.190199 32.518436 61.058348 0
M  V30 10 C 39.699704 29.161772 51.872665 0 CFG=2
M  V30 11 N 38.865787 31.339381 55.316374 0
M  V30 12 C 38.042448 32.214248 56.143757 0
M  V30 13 C 37.875936 31.733160 57.579558 0
M  V30 14 C 40.995797 33.682914 62.885255 0
M  V30 15 F 40.304177 35.852795 62.150318 0
M  V30 16 C 40.200066 34.504470 62.063351 0
M  V30 17 C 38.212624 31.887601 60.078765 0 CFG=1
M  V30 18 C 40.567399 28.035918 58.171614 0
M  V30 19 N 35.749922 32.105872 60.978687 0
M  V30 20 C 38.470660 29.936415 55.384067 0
M  V30 21 C 38.713875 27.060052 56.415744 0
M  V30 22 C 39.446963 27.592438 54.598791 0 CFG=1
M  V30 23 N 38.770866 29.409963 53.006619 0 CHG=1
M  V30 24 O 41.867186 34.245451 63.771235 0
M  V30 25 C 39.941735 30.445907 51.055442 0
M  V30 26 C 39.177679 28.007598 51.013272 0
M  V30 27 C 41.138943 30.348796 50.105479 0
M  V30 28 N 39.961942 27.147560 55.916644 0
M  V30 29 S 37.853923 26.690300 54.987163 0
M  V30 30 C 36.831618 32.014264 60.576020 0
M  V30 31 Cl 38.873235 28.021474 60.253438 0
M  V30 32 H 37.294823 27.229545 57.928903 0
M  V30 33 H 40.268295 29.599051 54.384950 0
M  V30 34 H 39.908393 30.622705 61.815703 0
M  V30 35 H 38.921608 33.295073 58.506340 0
M  V30 36 H 41.240896 28.821240 56.223999 0
M  V30 37 H 41.912198 27.259668 56.663664 0
M  V30 38 H 38.685972 34.556484 60.523474 0
M  V30 39 H 41.500294 31.651650 63.427146 0
M  V30 40 H 40.667111 28.859537 52.253284 0
M  V30 41 H 39.824812 31.442602 55.620703 0
M  V30 42 H 37.067420 32.282522 55.675215 0
M  V30 43 H 38.465474 33.218588 56.126230 0
M  V30 44 H 37.321503 30.816122 57.721278 0
M  V30 45 H 38.402523 30.814276 60.056588 0
M  V30 46 H 41.314790 28.398714 58.862772 0
M  V30 47 H 38.697738 29.603967 56.392322 0
M  V30 48 H 37.397359 29.815422 55.225397 0
M  V30 49 H 39.965078 27.063595 53.798654 0
M  V30 50 H 37.911097 28.898356 52.869964 0
M  V30 51 H 41.823199 35.191185 63.770008 0
M  V30 52 H 39.067409 30.699372 50.462977 0
M  V30 53 H 40.117722 31.280882 51.734064 0
M  V30 54 H 39.902166 27.716706 50.253885 0
M  V30 55 H 38.960997 27.120273 51.608323 0
M  V30 56 H 38.267415 28.298184 50.499662 0
M  V30 57 H 41.323731 31.301252 49.616787 0
M  V30 58 H 42.046210 30.075324 50.643799 0
M  V30 59 H 40.969247 29.621421 49.313339 0
M  V30 60 H 38.557616 30.398804 53.024075 0
M  V30 END ATOM
M  V30 BEGIN BOND
M  V30 1 1 5 1
M  V30 2 2 8 3
M  V30 3 1 9 3
M  V30 4 2 9 7
M  V30 5 1 12 11
M  V30 6 2 13 4
M  V30 7 1 13 12
M  V30 8 1 14 8
M  V30 9 1 16 7
M  V30 10 2 16 14
M  V30 11 1 16 15
M  V30 12 1 17 4
M  V30 13 1 17 9
M  V30 14 2 18 5
M  V30 15 1 18 6
M  V30 16 1 20 2
M  V30 17 1 20 11
M  V30 18 2 21 1
M  V30 19 1 22 2
M  V30 20 1 23 2
M  V30 21 1 23 10
M  V30 22 1 24 14
M  V30 23 1 25 10
M  V30 24 1 26 10
M  V30 25 1 27 25
M  V30 26 1 28 6
M  V30 27 1 28 21
M  V30 28 1 28 22
M  V30 29 1 29 21
M  V30 30 1 29 22
M  V30 31 1 30 17
M  V30 32 3 30 19
M  V30 33 1 31 5
M  V30 34 1 32 1
M  V30 35 1 2 33 CFG=3
M  V30 36 1 34 3
M  V30 37 1 35 4
M  V30 38 1 36 6
M  V30 39 1 37 6
M  V30 40 1 38 7
M  V30 41 1 39 8
M  V30 42 1 10 40 CFG=1
M  V30 43 1 41 11
M  V30 44 1 42 12
M  V30 45 1 43 12
M  V30 46 1 44 13
M  V30 47 1 17 45 CFG=3
M  V30 48 1 46 18
M  V30 49 1 47 20
M  V30 50 1 48 20
M  V30 51 1 22 49 CFG=3
M  V30 52 1 50 23
M  V30 53 1 51 24
M  V30 54 1 52 25
M  V30 55 1 53 25
M  V30 56 1 54 26
M  V30 57 1 55 26
M  V30 58 1 56 26
M  V30 59 1 57 27
M  V30 60 1 58 27
M  V30 61 1 59 27
M  V30 62 1 60 23
M  V30 END BOND
M  V30 END CTAB
M  END
>  <i_epik_Tot_Q>  (1) 
1

>  <i_epik_Tot_abs_Q>  (1) 
1

>  <i_i_glide_confnum>  (1) 
284

>  <i_i_glide_lignum>  (1) 
3

>  <i_i_glide_posenum>  (1) 
46

>  <i_i_glide_rotatable_bonds>  (1) 
11

>  <i_lp_mmshare_version>  (1) 
72125

>  <i_m_source_file_index>  (1) 
1

>  <i_f3d_flags>  (1) 
0

>  <num_sample>  (1) 
100

>  <b_lp_Chiralities_Consistent>  (1) 
1

>  <r_epik_Charging_Adjusted_Penalty>  (1) 
1.026714880071514

>  <r_epik_Ionization_Penalty>  (1) 
0.57488375576365369

>  <r_epik_Ionization_Penalty_Charging>  (1) 
0.45778339447339428

>  <r_epik_Ionization_Penalty_Neutral>  (1) 
0.11710036129025943

>  <r_epik_State_Penalty>  (1) 
0.56893148559811979

>  <r_glide_ring_energy>  (1) 
0

>  <r_i_docking_score>  (1) 
-6.9187018312578443

>  <r_i_glide_ecoul>  (1) 
-1.7048168696458665

>  <r_i_glide_eff_state_penalty>  (1) 
0.56893148559811979

>  <r_i_glide_einternal>  (1) 
8.6798593568912938

>  <r_i_glide_emodel>  (1) 
-66.798886402745879

>  <r_i_glide_emodel_strain>  (1) 
0.050166860459256668

>  <r_i_glide_energy>  (1) 
-45.317824675513855

>  <r_i_glide_erotb>  (1) 
0.74887478347211667

>  <r_i_glide_esite>  (1) 
-0.044226467582204977

>  <r_i_glide_evdw>  (1) 
-43.613007805867987

>  <r_i_glide_gscore>  (1) 
-7.4876333168559643

>  <r_i_glide_gscore_strain>  (1) 
0

>  <r_i_glide_hbond>  (1) 
0

>  <r_i_glide_ligand_efficiency>  (1) 
-0.22318393004057563

>  <r_i_glide_ligand_efficiency_ln>  (1) 
-1.5603792956956022

>  <r_i_glide_ligand_efficiency_sa>  (1) 
-0.70110567975413862

>  <r_i_glide_lipo>  (1) 
-4.251063476419823

>  <r_i_glide_metal>  (1) 
-0

>  <r_i_glide_rewards>  (1) 
-1.5048452355857729

>  <r_lp_Energy>  (1) 
39.675871999999998

>  <r_lp_tautomer_probability>  (1) 
0.99999999999736477

>  <s_epik_Chemistry_Notes>  (1) 
This compound contains an acetal/aminal-like group ( X-CH(R)-Y where X, Y are N, S, or O) that may be acid/base labile, releasing an aldehyde.

>  <s_epik_cmdline>  (1) 
J2VwaWtfcHl0aG9uJywgJy1waHQnLCAnMS4wJywgJy1waCcsICc3LjQnLCAnLXRuJywgJzgnLCAnLW1hJywgJzUwMCcsICctaW1hZScsICc8aW5maWxlLm1hZT4nLCAnLW9tYWUnLCAnPG91dGZpbGUubWFlPic=

>  <s_epik_input>  (1) 
W0NIXT0xQyhDbCk9W0NIXVtDSDJdTihDMTIpW0NAQEhdKFMyKVtDQEBIXShbTkhdW0NAQEhdKFtDSDNdKVtDSDJdW0NIM10pW0NIMl1bTkhdW0NIMl1cW0NIXT1bQ0hdXFtDQEhdKEMjTiljM1tjSF1bY0hdYyhbT0hdKWMoRilbY0hdMw==

>  <s_glide_docking_method>  (1) 
confgen

>  <s_i_glide_gridfile>  (1) 
gpcr_5ht2c_6bqh_protein_autoprepared_prepared

>  <s_lp_Force_Field>  (1) 
S-OPLS

>  <s_lp_Variant>  (1) 
DiffSBDD_0_num_sample_100-3

>  <s_m_source_file>  (1) 
generated__ligand_DiffSBDD_2026-05-06_prepared.sdf

>  <GenAI_Model>  (1) 
DiffSBDD

>  <Protein>  (1) 
GPCR_5HT2C

$$$$
DiffSBDD_30_num_sample_100
     RDKit          3D

  0  0  0  0  0  0  0  0  0  0999 V3000
M  V30 BEGIN CTAB
M  V30 COUNTS 70 73 0 0 1
M  V30 BEGIN ATOM
M  V30 1 C 38.460988 31.992528 60.320870 0
M  V30 2 C 37.893955 35.662197 61.581383 0 CFG=2
M  V30 3 O 36.148573 31.910491 61.049700 0
M  V30 4 C 37.749025 25.273032 57.469670 0
M  V30 5 C 37.223106 24.201693 56.731690 0
M  V30 6 N 36.681633 33.882829 58.701432 0
M  V30 7 C 37.445113 25.498420 54.684775 0
M  V30 8 C 36.906518 34.082580 60.138802 0 CFG=1
M  V30 9 O 35.867398 36.821460 63.453480 0
M  V30 10 O 40.009326 34.699998 62.273690 0
M  V30 11 C 39.008407 28.315655 52.296832 0
M  V30 12 C 39.379962 35.722444 62.008519 0
M  V30 13 C 40.043844 37.097037 62.086685 0
M  V30 14 C 40.219806 28.592906 51.435557 0
M  V30 15 C 39.777223 28.356724 54.777860 0 CFG=2
M  V30 16 C 38.651067 32.918751 55.695018 0
M  V30 17 N 37.867401 32.757315 56.931591 0 CHG=1
M  V30 18 C 39.314309 27.426512 51.118343 0
M  V30 19 C 38.535421 30.421895 55.175026 0 CFG=1
M  V30 20 C 37.068267 24.314261 55.341359 0
M  V30 21 C 39.873148 29.869528 54.695634 0
M  V30 22 N 39.286964 27.626963 53.589676 0 CFG=1 CHG=1
M  V30 23 C 38.124531 26.461343 56.817755 0
M  V30 24 C 37.869759 33.907873 57.841212 0
M  V30 25 C 37.975619 26.580662 55.415643 0
M  V30 26 C 38.223355 31.846988 54.689118 0
M  V30 27 C 36.961870 37.444920 62.818595 0
M  V30 28 C 37.266675 32.762920 60.903531 0 CFG=2
M  V30 29 C 38.392253 27.826019 54.712323 0 CFG=1
M  V30 30 O 38.638122 27.499262 57.541907 0
M  V30 31 S 37.280581 29.250127 54.653479 0
M  V30 32 O 37.899119 35.049374 60.330646 0
M  V30 33 O 37.282944 36.921231 61.554377 0
M  V30 34 H 39.335834 32.635449 60.219409 0
M  V30 35 H 38.744643 31.176694 60.986810 0
M  V30 36 H 38.234294 31.548772 59.353692 0
M  V30 37 H 37.320351 35.041900 62.253504 0
M  V30 38 H 35.847947 31.642319 60.194254 0
M  V30 39 H 37.867345 25.181840 58.539302 0
M  V30 40 H 36.939182 23.289053 57.234478 0
M  V30 41 H 36.092641 33.072797 58.512697 0
M  V30 42 H 37.323537 25.578901 53.614401 0
M  V30 43 H 35.979484 34.489671 60.549878 0
M  V30 44 H 36.134023 35.998612 63.836086 0
M  V30 45 H 38.143686 28.966832 52.215444 0
M  V30 46 H 40.110180 37.431700 63.121950 0
M  V30 47 H 41.055238 37.033680 61.684402 0
M  V30 48 H 39.501623 37.843110 61.508117 0
M  V30 49 H 40.172057 29.455083 50.772749 0
M  V30 50 H 41.201523 28.396477 51.850784 0
M  V30 51 H 40.505532 27.801635 55.370621 0
M  V30 52 H 39.718093 32.858265 55.912635 0
M  V30 53 H 38.454080 33.903448 55.269892 0
M  V30 54 H 36.895978 32.591442 56.653513 0
M  V30 55 H 39.682127 26.421315 51.308484 0
M  V30 56 H 38.667786 27.521024 50.253336 0
M  V30 57 H 38.516363 30.358960 56.263458 0
M  V30 58 H 36.662146 23.488962 54.775001 0
M  V30 59 H 40.123194 30.197729 53.687722 0
M  V30 60 H 40.667157 30.222048 55.346798 0
M  V30 61 H 38.799241 33.899299 58.409891 0
M  V30 62 H 37.867351 34.821414 57.250269 0
M  V30 63 H 38.682277 32.024075 53.716524 0
M  V30 64 H 37.149510 31.953736 54.524785 0
M  V30 65 H 37.797629 37.439295 63.517663 0
M  V30 66 H 36.667435 38.481338 62.653877 0
M  V30 67 H 37.537956 33.023748 61.924316 0
M  V30 68 H 38.677866 27.321452 58.469846 0
M  V30 69 H 38.174183 31.935935 57.429593 0
M  V30 70 H 39.626806 26.677748 53.534658 0
M  V30 END ATOM
M  V30 BEGIN BOND
M  V30 1 1 5 4
M  V30 2 1 8 6
M  V30 3 1 12 2
M  V30 4 2 12 10
M  V30 5 1 13 12
M  V30 6 1 14 11
M  V30 7 1 17 16
M  V30 8 1 18 11
M  V30 9 1 18 14
M  V30 10 2 20 5
M  V30 11 1 20 7
M  V30 12 1 21 15
M  V30 13 1 21 19
M  V30 14 1 22 11
M  V30 15 1 22 15
M  V30 16 2 23 4
M  V30 17 1 24 6
M  V30 18 1 24 17
M  V30 19 2 25 7
M  V30 20 1 25 23
M  V30 21 1 26 16
M  V30 22 1 26 19
M  V30 23 1 27 9
M  V30 24 1 28 1
M  V30 25 1 28 3
M  V30 26 1 28 8
M  V30 27 1 29 15
M  V30 28 1 29 22
M  V30 29 1 29 25 CFG=1
M  V30 30 1 30 23
M  V30 31 1 31 19
M  V30 32 1 31 29
M  V30 33 1 32 2
M  V30 34 1 32 8
M  V30 35 1 33 2
M  V30 36 1 33 27
M  V30 37 1 34 1
M  V30 38 1 35 1
M  V30 39 1 36 1
M  V30 40 1 2 37 CFG=1
M  V30 41 1 38 3
M  V30 42 1 39 4
M  V30 43 1 40 5
M  V30 44 1 41 6
M  V30 45 1 42 7
M  V30 46 1 8 43 CFG=1
M  V30 47 1 44 9
M  V30 48 1 45 11
M  V30 49 1 46 13
M  V30 50 1 47 13
M  V30 51 1 48 13
M  V30 52 1 49 14
M  V30 53 1 50 14
M  V30 54 1 15 51 CFG=1
M  V30 55 1 52 16
M  V30 56 1 53 16
M  V30 57 1 54 17
M  V30 58 1 55 18
M  V30 59 1 56 18
M  V30 60 1 19 57 CFG=1
M  V30 61 1 58 20
M  V30 62 1 59 21
M  V30 63 1 60 21
M  V30 64 1 61 24
M  V30 65 1 62 24
M  V30 66 1 63 26
M  V30 67 1 64 26
M  V30 68 1 65 27
M  V30 69 1 66 27
M  V30 70 1 28 67 CFG=1
M  V30 71 1 68 30
M  V30 72 1 69 17
M  V30 73 1 22 70 CFG=3
M  V30 END BOND
M  V30 END CTAB
M  END
>  <i_epik_Tot_Q>  (1) 
2

>  <i_epik_Tot_abs_Q>  (1) 
2

>  <i_i_glide_confnum>  (1) 
3877

>  <i_i_glide_lignum>  (1) 
83

>  <i_i_glide_posenum>  (1) 
203

>  <i_i_glide_rotatable_bonds>  (1) 
17

>  <i_lp_mmshare_version>  (1) 
72125

>  <i_m_source_file_index>  (1) 
31

>  <i_f3d_flags>  (1) 
0

>  <num_sample>  (1) 
100

>  <b_lp_Chiralities_Consistent>  (1) 
1

>  <r_epik_Charging_Adjusted_Penalty>  (1) 
1.979093595035226

>  <r_epik_Ionization_Penalty>  (1) 
0.79989620662071081

>  <r_epik_Ionization_Penalty_Charging>  (1) 
0.66086891892205935

>  <r_epik_Ionization_Penalty_Neutral>  (1) 
0.13902728769865147

>  <r_epik_State_Penalty>  (1) 
1.3182246761131666

>  <r_glide_ring_energy>  (1) 
0

>  <r_i_docking_score>  (1) 
-6.9160067540154024

>  <r_i_glide_ecoul>  (1) 
-8.7303071820033367

>  <r_i_glide_eff_state_penalty>  (1) 
1.3182246761131666

>  <r_i_glide_einternal>  (1) 
28.740286813789005

>  <r_i_glide_emodel>  (1) 
-63.019139305097212

>  <r_i_glide_emodel_strain>  (1) 
3.498471652081605

>  <r_i_glide_energy>  (1) 
-49.499853986634605

>  <r_i_glide_erotb>  (1) 
1.1283805066766976

>  <r_i_glide_esite>  (1) 
-0.14837488383148748

>  <r_i_glide_evdw>  (1) 
-40.769546804631268

>  <r_i_glide_gscore>  (1) 
-8.2342314301285686

>  <r_i_glide_gscore_strain>  (1) 
0

>  <r_i_glide_hbond>  (1) 
-0.54387454743813424

>  <r_i_glide_ligand_efficiency>  (1) 
-0.20957596224289099

>  <r_i_glide_ligand_efficiency_ln>  (1) 
-1.5380840929265185

>  <r_i_glide_ligand_efficiency_sa>  (1) 
-0.67222209363598195

>  <r_i_glide_lipo>  (1) 
-3.6869529377675514

>  <r_i_glide_metal>  (1) 
-0

>  <r_i_glide_rewards>  (1) 
-1.6353861502360301

>  <r_lp_Energy>  (1) 
37.245042999999995

>  <r_lp_tautomer_probability>  (1) 
0.99999996999736518

>  <s_epik_Chemistry_Notes>  (1) 
This compound contains an acetal/aminal-like group ( X-CH(R)-Y where X, Y are N, S, or O) that may be acid/base labile, releasing an aldehyde.

>  <s_epik_cmdline>  (1) 
J2VwaWtfcHl0aG9uJywgJy1waHQnLCAnMS4wJywgJy1waCcsICc3LjQnLCAnLXRuJywgJzgnLCAnLW1hJywgJzUwMCcsICctaW1hZScsICc8aW5maWxlLm1hZT4nLCAnLW9tYWUnLCAnPG91dGZpbGUubWFlPic=

>  <s_epik_input>  (1) 
W09IXVtDSDJdT1tDQEBIXShDKD1PKVtDSDNdKU9bQ0BIXShbQ0BIXShbQ0gzXSlbT0hdKVtOSF1bQ0gyXVtOSF1bQ0gyXVtDSDJdW0NAQEhdKFMxKVtDSDJdW0NASF0oTjJbQ0hdM1tDSDJdW0NIMl0zKVtDQEBdMTJjNFtjSF1bY0hdW2NIXVtjSF1jNFtPSF0=

>  <s_glide_docking_method>  (1) 
confgen

>  <s_i_glide_gridfile>  (1) 
gpcr_5ht2c_6bqh_protein_autoprepared_prepared

>  <s_lp_Force_Field>  (1) 
S-OPLS

>  <s_lp_Variant>  (1) 
DiffSBDD_30_num_sample_100-5

>  <s_m_source_file>  (1) 
generated__ligand_DiffSBDD_2026-05-06_prepared.sdf

>  <GenAI_Model>  (1) 
DiffSBDD

>  <Protein>  (1) 
GPCR_5HT2C

$$$$
DiffSBDD_46_num_sample_100
     RDKit          3D

  0  0  0  0  0  0  0  0  0  0999 V3000
M  V30 BEGIN CTAB
M  V30 COUNTS 67 70 0 0 1
M  V30 BEGIN ATOM
M  V30 1 N 38.914568 33.178243 60.941578 0 CHG=-1
M  V30 2 N 39.140708 30.489193 54.242083 0
M  V30 3 C 37.849009 33.800751 57.201146 0
M  V30 4 C 43.046100 25.953927 64.807935 0
M  V30 5 C 39.160708 31.575465 56.930254 0
M  V30 6 O 41.867403 33.267607 62.796764 0
M  V30 7 O 40.782892 35.522495 61.212384 0
M  V30 8 C 42.627261 28.240049 64.188801 0
M  V30 9 N 43.293615 27.145644 64.732213 0
M  V30 10 F 44.282131 29.730570 65.100009 0
M  V30 11 C 38.787778 32.794039 57.778418 0 CFG=2
M  V30 12 N 40.481388 31.434194 62.524203 0
M  V30 13 C 38.055763 30.600984 56.446746 0 CFG=2
M  V30 14 C 42.452512 30.636652 63.846135 0
M  V30 15 C 39.835465 35.136210 62.186897 0
M  V30 16 C 38.970813 27.794741 56.988671 0
M  V30 17 C 39.866926 28.825356 50.428096 0
M  V30 18 C 39.377234 29.909466 52.982627 0
M  V30 19 C 43.141684 29.540667 64.389176 0
M  V30 20 C 37.677455 33.619324 60.633274 0
M  V30 21 C 40.830747 29.059140 62.968176 0
M  V30 22 C 41.264073 30.386541 63.112003 0
M  V30 23 N 41.488375 28.005658 63.486229 0
M  V30 24 C 39.559689 28.621583 55.838689 0
M  V30 25 C 40.360451 30.097416 50.757601 0
M  V30 26 C 39.559247 33.608571 62.183703 0 CFG=2
M  V30 27 C 37.499982 29.746677 57.617463 0
M  V30 28 C 40.116032 30.637547 52.027785 0
M  V30 29 C 36.915252 33.552648 59.486609 0
M  V30 30 C 39.126167 28.085685 51.370262 0
M  V30 31 C 38.501953 28.698255 58.133242 0
M  V30 32 C 40.776732 32.747003 62.562904 0
M  V30 33 C 38.878961 28.622386 52.648618 0
M  V30 34 O 42.667987 24.838831 64.815083 0
M  V30 35 C 38.553327 29.670285 55.304051 0 CFG=2
M  V30 36 N 37.412370 32.887717 58.247289 0 CFG=1 CHG=1
M  V30 37 H 39.556808 31.378634 54.476063 0
M  V30 38 H 37.341467 33.596001 56.264051 0
M  V30 39 H 37.867351 34.821289 57.545436 0
M  V30 40 H 39.729309 31.985151 56.100032 0
M  V30 41 H 39.867322 30.960355 57.453510 0
M  V30 42 H 41.551281 34.988512 61.356171 0
M  V30 43 H 39.535760 33.194998 58.452532 0
M  V30 44 H 39.616325 31.165195 62.073469 0
M  V30 45 H 37.245811 31.190659 56.018994 0
M  V30 46 H 42.826474 31.630519 63.998747 0
M  V30 47 H 40.208344 35.431598 63.169193 0
M  V30 48 H 38.918033 35.704110 62.028508 0
M  V30 49 H 39.712394 27.083808 57.352220 0
M  V30 50 H 38.130437 27.203105 56.622900 0
M  V30 51 H 40.056876 28.420861 49.453478 0
M  V30 52 H 37.175246 34.139398 61.478499 0
M  V30 53 H 39.923225 28.836438 62.423977 0
M  V30 54 H 40.471610 29.116848 56.168592 0
M  V30 55 H 39.873926 27.938696 55.053593 0
M  V30 56 H 40.927220 30.662629 50.030330 0
M  V30 57 H 38.877142 33.424069 63.010095 0
M  V30 58 H 37.171489 30.368641 58.447554 0
M  V30 59 H 36.607520 29.225780 57.285403 0
M  V30 60 H 40.493469 31.618284 52.272345 0
M  V30 61 H 35.919076 33.963591 59.397633 0
M  V30 62 H 38.744021 27.107332 51.110470 0
M  V30 63 H 39.357286 29.179463 58.606403 0
M  V30 64 H 38.043426 28.094859 58.915026 0
M  V30 65 H 38.306794 28.049719 53.361101 0
M  V30 66 H 37.660248 29.168330 54.932794 0
M  V30 67 H 36.735337 32.261653 57.808861 0
M  V30 END ATOM
M  V30 BEGIN BOND
M  V30 1 2 9 4
M  V30 2 1 9 8
M  V30 3 1 11 3
M  V30 4 1 11 5
M  V30 5 1 13 5
M  V30 6 1 15 7
M  V30 7 1 18 2
M  V30 8 2 19 8
M  V30 9 1 19 10
M  V30 10 1 19 14
M  V30 11 1 20 1
M  V30 12 1 22 12
M  V30 13 2 22 14
M  V30 14 1 22 21
M  V30 15 1 23 8
M  V30 16 2 23 21
M  V30 17 1 24 16
M  V30 18 2 25 17
M  V30 19 1 26 1
M  V30 20 1 26 15
M  V30 21 1 27 13
M  V30 22 2 28 18
M  V30 23 1 28 25
M  V30 24 2 29 20
M  V30 25 1 30 17
M  V30 26 1 31 16
M  V30 27 1 31 27
M  V30 28 2 32 6
M  V30 29 1 32 12
M  V30 30 1 32 26
M  V30 31 1 33 18
M  V30 32 2 33 30
M  V30 33 2 34 4
M  V30 34 1 35 2
M  V30 35 1 35 13
M  V30 36 1 35 24
M  V30 37 1 36 3
M  V30 38 1 36 11
M  V30 39 1 36 29
M  V30 40 1 37 2
M  V30 41 1 38 3
M  V30 42 1 39 3
M  V30 43 1 40 5
M  V30 44 1 41 5
M  V30 45 1 42 7
M  V30 46 1 11 43 CFG=1
M  V30 47 1 44 12
M  V30 48 1 13 45 CFG=3
M  V30 49 1 46 14
M  V30 50 1 47 15
M  V30 51 1 48 15
M  V30 52 1 49 16
M  V30 53 1 50 16
M  V30 54 1 51 17
M  V30 55 1 52 20
M  V30 56 1 53 21
M  V30 57 1 54 24
M  V30 58 1 55 24
M  V30 59 1 56 25
M  V30 60 1 26 57 CFG=1
M  V30 61 1 58 27
M  V30 62 1 59 27
M  V30 63 1 60 28
M  V30 64 1 61 29
M  V30 65 1 62 30
M  V30 66 1 63 31
M  V30 67 1 64 31
M  V30 68 1 65 33
M  V30 69 1 35 66 CFG=3
M  V30 70 1 36 67 CFG=3
M  V30 END BOND
M  V30 END CTAB
M  END
>  <i_epik_Tot_Q>  (1) 
0

>  <i_epik_Tot_abs_Q>  (1) 
2

>  <i_i_glide_confnum>  (1) 
2186

>  <i_i_glide_lignum>  (1) 
126

>  <i_i_glide_posenum>  (1) 
122

>  <i_i_glide_rotatable_bonds>  (1) 
13

>  <i_lp_mmshare_version>  (1) 
72125

>  <i_m_source_file_index>  (1) 
47

>  <i_f3d_flags>  (1) 
0

>  <num_sample>  (1) 
100

>  <b_lp_Chiralities_Consistent>  (1) 
1

>  <r_epik_Charging_Adjusted_Penalty>  (1) 
0.33342598172051213

>  <r_epik_Ionization_Penalty>  (1) 
0.027696632267336825

>  <r_epik_Ionization_Penalty_Charging>  (1) 
0.022930597766060493

>  <r_epik_Ionization_Penalty_Neutral>  (1) 
0.0047660345012763301

>  <r_epik_State_Penalty>  (1) 
0.31049538395445164

>  <r_glide_ring_energy>  (1) 
0.011984252057721455

>  <r_i_docking_score>  (1) 
-6.9141807608155901

>  <r_i_glide_ecoul>  (1) 
-4.6220455241455598

>  <r_i_glide_eff_state_penalty>  (1) 
0.31049538395445164

>  <r_i_glide_einternal>  (1) 
2.5217299898729166

>  <r_i_glide_emodel>  (1) 
-78.553846079126686

>  <r_i_glide_emodel_strain>  (1) 
0.81433972115526387

>  <r_i_glide_energy>  (1) 
-53.078213515941293

>  <r_i_glide_erotb>  (1) 
0.99979395072351473

>  <r_i_glide_esite>  (1) 
-0.094905368163320236

>  <r_i_glide_evdw>  (1) 
-48.456167991795731

>  <r_i_glide_gscore>  (1) 
-7.2246761447700418

>  <r_i_glide_gscore_strain>  (1) 
0

>  <r_i_glide_hbond>  (1) 
-0.20000000000000001

>  <r_i_glide_ligand_efficiency>  (1) 
-0.19206057668932194

>  <r_i_glide_ligand_efficiency_ln>  (1) 
-1.5084874424331558

>  <r_i_glide_ligand_efficiency_sa>  (1) 
-0.6341700516088884

>  <r_i_glide_lipo>  (1) 
-3.1869177796733021

>  <r_i_glide_metal>  (1) 
-0

>  <r_i_glide_rewards>  (1) 
-1.6265317194453133

>  <r_lp_Energy>  (1) 
55.985365999999999

>  <s_epik_Chemistry_Notes>  (1) 
This compound has an imine and may undergo hydrolysis.

>  <s_epik_cmdline>  (1) 
J2VwaWtfcHl0aG9uJywgJy1waHQnLCAnMS4wJywgJy1waCcsICc3LjQnLCAnLXRuJywgJzgnLCAnLW1hJywgJzUwMCcsICctaW1hZScsICc8aW5maWxlLm1hZT4nLCAnLW9tYWUnLCAnPG91dGZpbGUubWFlPic=

>  <s_epik_input>  (1) 
Tz1DPU5jMWMoRilbY0hdYyhbY0hdbjEpW05IXUMoPU8pW0NAQEhdKFtDSDJdW09IXSkvTj1bQ0hdL1tDSDJdTjJbQ0gyXVtDQEBIXTJbQ0gyXVtDQEBIXTNbQ0gyXVtDSDJdW0NIMl1bQ0gyXVtDQEBIXTNbTkhdYzRbY0hdW2NIXVtjSF1bY0hdW2NIXTQ=

>  <s_glide_docking_method>  (1) 
confgen

>  <s_i_glide_gridfile>  (1) 
gpcr_5ht2c_6bqh_protein_autoprepared_prepared

>  <s_lp_Force_Field>  (1) 
S-OPLS

>  <s_lp_Variant>  (1) 
DiffSBDD_46_num_sample_100-2

>  <s_m_source_file>  (1) 
generated__ligand_DiffSBDD_2026-05-06_prepared.sdf

>  <GenAI_Model>  (1) 
DiffSBDD

>  <Protein>  (1) 
GPCR_5HT2C

$$$$
DiffSBDD_66_num_sample_100
     RDKit          3D

  0  0  0  0  0  0  0  0  0  0999 V3000
M  V30 BEGIN CTAB
M  V30 COUNTS 112 116 0 0 1
M  V30 BEGIN ATOM
M  V30 1 C 43.069778 27.484648 65.118222 0
M  V30 2 C 39.553467 29.780592 61.519431 0
M  V30 3 C 41.067481 36.163264 66.751237 0
M  V30 4 C 36.189692 34.221957 58.653552 0
M  V30 5 C 38.134976 27.225055 54.257266 0
M  V30 6 C 39.170980 25.046277 55.064159 0
M  V30 7 C 41.997721 34.309205 65.508902 0
M  V30 8 S 37.350924 32.021935 61.853461 0
M  V30 9 C 39.831307 30.949386 62.388651 0 CFG=1
M  V30 10 C 43.682260 28.826497 65.131145 0
M  V30 11 C 40.764174 29.319359 65.949724 0
M  V30 12 C 41.596287 30.246349 65.442229 0
M  V30 13 C 39.338334 28.789323 52.508957 0
M  V30 14 C 42.763777 25.361699 64.664681 0
M  V30 15 C 38.255404 29.457195 58.210298 0 CFG=2
M  V30 16 C 41.166039 28.009353 66.508440 0
M  V30 17 C 41.019961 31.579902 65.029730 0
M  V30 18 O 39.468824 31.207000 52.802723 0
M  V30 19 C 41.036656 33.603253 63.280461 0 CFG=1
M  V30 20 N 43.596172 26.439454 64.513428 0 CHG=1
M  V30 21 C 41.955159 35.077698 66.651624 0
M  V30 22 C 41.115030 34.565108 64.453985 0
M  V30 23 C 38.578332 27.483613 52.802168 0
M  V30 24 C 40.490092 25.082167 65.937188 0
M  V30 25 C 43.049576 30.021196 65.285520 0
M  V30 26 C 37.094504 30.402712 58.723337 0
M  V30 27 C 37.882153 25.757416 54.652529 0 CFG=1
M  V30 28 C 39.241040 30.178978 57.246839 0
M  V30 29 C 41.574206 32.174763 63.664047 0 CFG=2
M  V30 30 C 41.333198 31.227505 62.480845 0 CFG=2
M  V30 31 C 34.923910 32.317022 59.722077 0
M  V30 32 C 38.738188 30.281051 55.833124 0
M  V30 33 N 41.937652 27.127167 65.689519 0
M  V30 34 C 40.267401 35.687004 64.515160 0
M  V30 35 C 41.689550 25.794478 65.428573 0
M  V30 36 C 37.668667 28.191158 57.561907 0
M  V30 37 O 37.066206 25.690303 55.799979 0
M  V30 38 C 39.071916 28.866772 59.366637 0
M  V30 39 C 37.341225 31.954895 58.719716 0
M  V30 40 C 36.329509 32.920051 59.458307 0
M  V30 41 C 39.140242 32.247230 61.924621 0 CFG=2
M  V30 42 N 39.484172 29.920411 60.249330 0 CHG=1
M  V30 43 C 39.470019 29.956989 54.761534 0
M  V30 44 C 36.881804 33.401935 60.808861 0
M  V30 45 C 40.232934 36.474862 65.673506 0
M  V30 46 C 41.868779 31.878503 61.185301 0
M  V30 47 C 40.281880 28.849174 51.549203 0
M  V30 48 C 38.955772 30.021560 53.352673 0 CFG=2
M  V30 49 C 39.549960 33.432592 62.828090 0
M  V30 50 H 39.388423 28.791122 61.935384 0
M  V30 51 H 41.038208 36.761765 67.651412 0
M  V30 52 H 37.141507 34.747928 58.557752 0
M  V30 53 H 35.471789 34.907462 59.106727 0
M  V30 54 H 35.860077 34.021400 57.646274 0
M  V30 55 H 38.897146 27.575797 54.945317 0
M  V30 56 H 37.234712 27.818229 54.420560 0
M  V30 57 H 39.888652 25.021401 54.253667 0
M  V30 58 H 38.954768 24.025629 55.365955 0
M  V30 59 H 39.657503 25.537620 55.906762 0
M  V30 60 H 42.684045 33.482085 65.463686 0
M  V30 61 H 44.748748 28.847841 64.953778 0
M  V30 62 H 39.712009 29.555666 66.034089 0
M  V30 63 H 42.990205 24.392912 64.241897 0
M  V30 64 H 41.737588 28.188256 67.417780 0
M  V30 65 H 40.267622 27.503356 66.835459 0
M  V30 66 H 39.933562 31.551934 65.047512 0
M  V30 67 H 41.192089 32.154147 65.928339 0
M  V30 68 H 40.309295 31.399971 53.191150 0
M  V30 69 H 41.640846 34.076111 62.508643 0
M  V30 70 H 42.604017 34.821303 67.453445 0
M  V30 71 H 39.208342 26.657996 52.471957 0
M  V30 72 H 37.697532 27.459178 52.158468 0
M  V30 73 H 40.668152 24.021733 65.853510 0
M  V30 74 H 39.611976 25.334880 65.344747 0
M  V30 75 H 40.309451 25.295715 66.990342 0
M  V30 76 H 43.671691 30.902450 65.215766 0
M  V30 77 H 36.214551 30.207418 58.116166 0
M  V30 78 H 36.794417 30.077244 59.719153 0
M  V30 79 H 37.371417 25.220829 53.853953 0
M  V30 80 H 39.467457 31.183931 57.575753 0
M  V30 81 H 40.192685 29.643216 57.216045 0
M  V30 82 H 42.656787 32.263210 63.750141 0
M  V30 83 H 41.874470 30.295120 62.657381 0
M  V30 84 H 34.991423 31.407818 60.316159 0
M  V30 85 H 34.350025 32.089380 58.826513 0
M  V30 86 H 34.304178 33.014188 60.286222 0
M  V30 87 H 37.721436 30.630774 55.703999 0
M  V30 88 H 39.600555 35.915450 63.700716 0
M  V30 89 H 36.731136 27.894085 58.021819 0
M  V30 90 H 38.349913 27.339660 57.611850 0
M  V30 91 H 37.467384 28.329745 56.515983 0
M  V30 92 H 36.201890 26.005381 55.577690 0
M  V30 93 H 38.486734 28.149030 59.945197 0
M  V30 94 H 39.974503 28.360474 59.018825 0
M  V30 95 H 38.329088 32.166719 59.110283 0
M  V30 96 H 37.435432 32.262486 57.678120 0
M  V30 97 H 39.406210 32.495983 60.903482 0
M  V30 98 H 40.487257 29.620194 54.891237 0
M  V30 99 H 37.730799 34.069899 60.668215 0
M  V30 100 H 36.131919 33.985875 61.344669 0
M  V30 101 H 39.557709 37.315595 65.736799 0
M  V30 102 H 41.404177 32.805440 60.876785 0
M  V30 103 H 41.811335 31.221455 60.328065 0
M  V30 104 H 42.913680 32.144019 61.334480 0
M  V30 105 H 40.812667 29.767099 51.340578 0
M  V30 106 H 40.532059 27.983322 50.962107 0
M  V30 107 H 37.868533 30.094585 53.388498 0
M  V30 108 H 39.139583 34.351993 62.419870 0
M  V30 109 H 39.067407 33.221148 63.758892 0
M  V30 110 H 44.471749 26.440818 64.002999 0
M  V30 111 H 39.389604 30.643528 63.331516 0
M  V30 112 H 39.634928 30.836682 59.841545 0
M  V30 END ATOM
M  V30 BEGIN BOND
M  V30 1 1 9 2
M  V30 2 1 10 1
M  V30 3 2 12 11
M  V30 4 1 16 11
M  V30 5 1 17 12
M  V30 6 2 20 1
M  V30 7 1 20 14
M  V30 8 2 21 3
M  V30 9 1 21 7
M  V30 10 2 22 7
M  V30 11 1 22 19
M  V30 12 1 23 5
M  V30 13 1 23 13
M  V30 14 2 25 10
M  V30 15 1 25 12
M  V30 16 1 26 15
M  V30 17 1 27 5
M  V30 18 1 27 6
M  V30 19 1 15 28 CFG=3
M  V30 20 1 29 17
M  V30 21 1 29 19
M  V30 22 1 30 9
M  V30 23 1 30 29
M  V30 24 1 32 28
M  V30 25 1 33 1
M  V30 26 1 33 16
M  V30 27 1 34 22
M  V30 28 2 35 14
M  V30 29 1 35 24
M  V30 30 1 35 33
M  V30 31 1 36 15
M  V30 32 1 37 27
M  V30 33 1 38 15
M  V30 34 1 39 26
M  V30 35 1 40 4
M  V30 36 1 40 31
M  V30 37 1 40 39
M  V30 38 1 41 8
M  V30 39 1 41 9
M  V30 40 2 42 2
M  V30 41 1 42 38
M  V30 42 2 43 32
M  V30 43 1 44 8
M  V30 44 1 44 40
M  V30 45 1 45 3
M  V30 46 2 45 34
M  V30 47 1 46 30
M  V30 48 2 47 13
M  V30 49 1 48 13
M  V30 50 1 48 18
M  V30 51 1 48 43
M  V30 52 1 49 19
M  V30 53 1 49 41
M  V30 54 1 50 2
M  V30 55 1 51 3
M  V30 56 1 52 4
M  V30 57 1 53 4
M  V30 58 1 54 4
M  V30 59 1 55 5
M  V30 60 1 56 5
M  V30 61 1 57 6
M  V30 62 1 58 6
M  V30 63 1 59 6
M  V30 64 1 60 7
M  V30 65 1 61 10
M  V30 66 1 62 11
M  V30 67 1 63 14
M  V30 68 1 64 16
M  V30 69 1 65 16
M  V30 70 1 66 17
M  V30 71 1 67 17
M  V30 72 1 68 18
M  V30 73 1 19 69 CFG=3
M  V30 74 1 70 21
M  V30 75 1 71 23
M  V30 76 1 72 23
M  V30 77 1 73 24
M  V30 78 1 74 24
M  V30 79 1 75 24
M  V30 80 1 76 25
M  V30 81 1 77 26
M  V30 82 1 78 26
M  V30 83 1 27 79 CFG=3
M  V30 84 1 80 28
M  V30 85 1 81 28
M  V30 86 1 29 82 CFG=1
M  V30 87 1 30 83 CFG=1
M  V30 88 1 84 31
M  V30 89 1 85 31
M  V30 90 1 86 31
M  V30 91 1 87 32
M  V30 92 1 88 34
M  V30 93 1 89 36
M  V30 94 1 90 36
M  V30 95 1 91 36
M  V30 96 1 92 37
M  V30 97 1 93 38
M  V30 98 1 94 38
M  V30 99 1 95 39
M  V30 100 1 96 39
M  V30 101 1 41 97 CFG=3
M  V30 102 1 98 43
M  V30 103 1 99 44
M  V30 104 1 100 44
M  V30 105 1 101 45
M  V30 106 1 102 46
M  V30 107 1 103 46
M  V30 108 1 104 46
M  V30 109 1 105 47
M  V30 110 1 106 47
M  V30 111 1 48 107 CFG=1
M  V30 112 1 108 49
M  V30 113 1 109 49
M  V30 114 1 110 20
M  V30 115 1 9 111 CFG=1
M  V30 116 1 112 42
M  V30 END BOND
M  V30 END CTAB
M  END
>  <i_epik_Tot_Q>  (1) 
2

>  <i_epik_Tot_abs_Q>  (1) 
2

>  <i_i_glide_confnum>  (1) 
2109

>  <i_i_glide_lignum>  (1) 
164

>  <i_i_glide_posenum>  (1) 
399

>  <i_i_glide_rotatable_bonds>  (1) 
12

>  <i_lp_mmshare_version>  (1) 
72125

>  <i_m_source_file_index>  (1) 
67

>  <i_f3d_flags>  (1) 
0

>  <num_sample>  (1) 
100

>  <b_lp_Chiralities_Consistent>  (1) 
1

>  <r_epik_Charging_Adjusted_Penalty>  (1) 
0.52025287817150023

>  <r_epik_Ionization_Penalty>  (1) 
3.4472135568412994

>  <r_epik_Ionization_Penalty_Charging>  (1) 
0.14055655438482481

>  <r_epik_Ionization_Penalty_Neutral>  (1) 
3.3066570024564745

>  <r_epik_State_Penalty>  (1) 
0.37969632378667539

>  <r_glide_ring_energy>  (1) 
0

>  <r_i_docking_score>  (1) 
-6.9113233791674746

>  <r_i_glide_ecoul>  (1) 
-2.496859199408219

>  <r_i_glide_eff_state_penalty>  (1) 
0.37969632378667539

>  <r_i_glide_einternal>  (1) 
29.152592237149111

>  <r_i_glide_emodel>  (1) 
-175.66862773760903

>  <r_i_glide_emodel_strain>  (1) 
6.5071452597499189

>  <r_i_glide_energy>  (1) 
-32.728355403967107

>  <r_i_glide_erotb>  (1) 
0.28524200512041686

>  <r_i_glide_esite>  (1) 
0

>  <r_i_glide_evdw>  (1) 
-30.231496204558891

>  <r_i_glide_gscore>  (1) 
-7.2910197029541504

>  <r_i_glide_gscore_strain>  (1) 
0.62678631493747972

>  <r_i_glide_hbond>  (1) 
0

>  <r_i_glide_ligand_efficiency>  (1) 
-0.14104741590137704

>  <r_i_glide_ligand_efficiency_ln>  (1) 
-1.4128326385654115

>  <r_i_glide_ligand_efficiency_sa>  (1) 
-0.51613561439189393

>  <r_i_glide_lipo>  (1) 
-5.2504676301749358

>  <r_i_glide_metal>  (1) 
-0

>  <r_i_glide_rewards>  (1) 
-1.0664767026979338

>  <r_lp_Energy>  (1) 
65.322982999999994

>  <s_epik_Chemistry_Notes>  (1) 
This compound has an imine and may undergo hydrolysis.

>  <s_epik_cmdline>  (1) 
J2VwaWtfcHl0aG9uJywgJy1waHQnLCAnMS4wJywgJy1waCcsICc3LjQnLCAnLXRuJywgJzgnLCAnLW1hJywgJzUwMCcsICctaW1hZScsICc8aW5maWxlLm1hZT4nLCAnLW9tYWUnLCAnPG91dGZpbGUubWFlPic=

>  <s_epik_input>  (1) 
bjFbY0hdYyhbQ0gzXSluKGMxMilbQ0gyXVtDSF09QyhbQ0hdPVtDSF0yKVtDSDJdW0NAQEhdKFtDQEBIXTNbQ0gzXSlbQ0BIXShjNFtjSF1bY0hdW2NIXVtjSF1bY0hdNClbQ0gyXVtDQEBIXShbQ0BIXTM1KVNbQ0gyXUMoW0NIM10pKFtDSDNdKVtDSDJdW0NIMl1bQ0BdKFtDSDNdKShbQ0gyXVxOPVtDSF1cNSlbQ0gyXS9bQ0hdPVtDSF0vW0NAQEhdKFtPSF0pQyg9W0NIMl0pW0NIMl1bQ0gyXVtDQEBIXShbQ0gzXSlbT0hd

>  <s_glide_docking_method>  (1) 
confgen

>  <s_i_glide_gridfile>  (1) 
gpcr_5ht2c_6bqh_protein_autoprepared_prepared

>  <s_lp_Force_Field>  (1) 
S-OPLS

>  <s_lp_Variant>  (1) 
DiffSBDD_66_num_sample_100-1

>  <s_m_source_file>  (1) 
generated__ligand_DiffSBDD_2026-05-06_prepared.sdf

>  <GenAI_Model>  (1) 
DiffSBDD

>  <Protein>  (1) 
GPCR_5HT2C

$$$$
DiffSBDD_59_num_sample_100
     RDKit          3D

  0  0  0  0  0  0  0  0  0  0999 V3000
M  V30 BEGIN CTAB
M  V30 COUNTS 54 55 0 0 1
M  V30 BEGIN ATOM
M  V30 1 O 41.066816 30.630512 50.363707 0
M  V30 2 N 37.247381 32.434399 58.653502 0 CFG=1 CHG=1
M  V30 3 C 37.102946 35.678403 59.976329 0
M  V30 4 C 38.211827 31.417206 59.155753 0
M  V30 5 C 39.662494 29.818467 52.177681 0
M  V30 6 C 38.977451 35.168232 62.020684 0
M  V30 7 C 38.272583 34.093408 61.440452 0
M  V30 8 C 37.324638 34.346238 60.398382 0
M  V30 9 C 37.876436 29.463659 55.001639 0
M  V30 10 C 37.658552 29.486354 57.559694 0
M  V30 11 Cl 38.568955 32.489384 62.014172 0
M  V30 12 C 38.727450 30.435753 58.102840 0
M  V30 13 O 37.151689 30.555333 54.632469 0
M  V30 14 N 38.500415 28.683060 54.067317 0
M  V30 15 N 39.163607 27.659579 54.654609 0
M  V30 16 C 39.898662 29.903172 50.656680 0
M  V30 17 C 38.116777 28.967309 56.236778 0
M  V30 18 C 36.530137 33.201301 59.724471 0 CFG=2
M  V30 19 C 37.809784 33.300456 57.591143 0
M  V30 20 C 38.537016 28.832349 52.609484 0 CFG=2
M  V30 21 C 37.809026 36.739850 60.573349 0
M  V30 22 C 38.934685 27.822784 55.964012 0
M  V30 23 C 38.629398 27.457213 51.921280 0
M  V30 24 C 35.641251 32.342045 60.650939 0
M  V30 25 C 38.744782 36.484282 61.590641 0
M  V30 26 H 40.931860 31.543658 50.575831 0
M  V30 27 H 36.388667 35.885871 59.191306 0
M  V30 28 H 37.771999 30.834107 59.965368 0
M  V30 29 H 39.078380 31.942283 59.550063 0
M  V30 30 H 39.455330 30.815251 52.567873 0
M  V30 31 H 40.601394 29.555619 52.651358 0
M  V30 32 H 39.693725 34.979781 62.806792 0
M  V30 33 H 36.706280 30.005398 57.452560 0
M  V30 34 H 37.480197 28.677076 58.267720 0
M  V30 35 H 39.533572 29.838348 58.531191 0
M  V30 36 H 39.196443 30.987347 57.289119 0
M  V30 37 H 40.029962 28.920352 50.204723 0
M  V30 38 H 39.067409 30.391329 50.160594 0
M  V30 39 H 36.667262 30.870270 55.386409 0
M  V30 40 H 35.771898 33.728904 59.142971 0
M  V30 41 H 38.688679 33.832977 57.944015 0
M  V30 42 H 38.070387 32.734238 56.697937 0
M  V30 43 H 37.067485 34.021762 57.268497 0
M  V30 44 H 37.567435 29.221441 52.310407 0
M  V30 45 H 37.634498 37.754377 60.245814 0
M  V30 46 H 39.366694 27.120937 56.661976 0
M  V30 47 H 38.436264 27.517674 50.852777 0
M  V30 48 H 39.602179 26.988914 52.067882 0
M  V30 49 H 37.868139 26.796347 52.332396 0
M  V30 50 H 34.990820 32.979810 61.250640 0
M  V30 51 H 34.999202 31.685237 60.062865 0
M  V30 52 H 36.189384 31.706024 61.338540 0
M  V30 53 H 39.286445 37.302300 62.043892 0
M  V30 54 H 36.501046 31.947788 58.151249 0
M  V30 END ATOM
M  V30 BEGIN BOND
M  V30 1 1 4 2
M  V30 2 2 7 6
M  V30 3 2 8 3
M  V30 4 1 8 7
M  V30 5 1 11 7
M  V30 6 1 12 4
M  V30 7 1 12 10
M  V30 8 1 13 9
M  V30 9 1 14 9
M  V30 10 1 15 14
M  V30 11 1 16 1
M  V30 12 1 16 5
M  V30 13 2 17 9
M  V30 14 1 17 10
M  V30 15 1 18 2
M  V30 16 1 18 8
M  V30 17 1 19 2
M  V30 18 1 20 5
M  V30 19 1 20 14
M  V30 20 1 21 3
M  V30 21 2 22 15
M  V30 22 1 22 17
M  V30 23 1 23 20
M  V30 24 1 24 18
M  V30 25 1 25 6
M  V30 26 2 25 21
M  V30 27 1 26 1
M  V30 28 1 27 3
M  V30 29 1 28 4
M  V30 30 1 29 4
M  V30 31 1 30 5
M  V30 32 1 31 5
M  V30 33 1 32 6
M  V30 34 1 33 10
M  V30 35 1 34 10
M  V30 36 1 35 12
M  V30 37 1 36 12
M  V30 38 1 37 16
M  V30 39 1 38 16
M  V30 40 1 39 13
M  V30 41 1 18 40 CFG=3
M  V30 42 1 41 19
M  V30 43 1 42 19
M  V30 44 1 43 19
M  V30 45 1 20 44 CFG=3
M  V30 46 1 45 21
M  V30 47 1 46 22
M  V30 48 1 47 23
M  V30 49 1 48 23
M  V30 50 1 49 23
M  V30 51 1 50 24
M  V30 52 1 51 24
M  V30 53 1 52 24
M  V30 54 1 53 25
M  V30 55 1 2 54 CFG=3
M  V30 END BOND
M  V30 END CTAB
M  END
>  <i_epik_Tot_Q>  (1) 
1

>  <i_epik_Tot_abs_Q>  (1) 
1

>  <i_i_glide_confnum>  (1) 
134

>  <i_i_glide_lignum>  (1) 
148

>  <i_i_glide_posenum>  (1) 
289

>  <i_i_glide_rotatable_bonds>  (1) 
11

>  <i_lp_mmshare_version>  (1) 
72125

>  <i_m_source_file_index>  (1) 
60

>  <i_f3d_flags>  (1) 
0

>  <num_sample>  (1) 
100

>  <b_lp_Chiralities_Consistent>  (1) 
1

>  <r_epik_Charging_Adjusted_Penalty>  (1) 
0.34288875783321848

>  <r_epik_Ionization_Penalty>  (1) 
0.16299728195075516

>  <r_epik_Ionization_Penalty_Charging>  (1) 
0.10603582337888565

>  <r_epik_Ionization_Penalty_Neutral>  (1) 
0.05696145857186951

>  <r_epik_State_Penalty>  (1) 
0.23685293445433284

>  <r_glide_ring_energy>  (1) 
0

>  <r_i_docking_score>  (1) 
-6.9080182960084562

>  <r_i_glide_ecoul>  (1) 
-7.9507652569346448

>  <r_i_glide_eff_state_penalty>  (1) 
0.23685293445433284

>  <r_i_glide_einternal>  (1) 
6.8858561293004144

>  <r_i_glide_emodel>  (1) 
-66.129179797793299

>  <r_i_glide_emodel_strain>  (1) 
0.24013455819287799

>  <r_i_glide_energy>  (1) 
-45.755090079278602

>  <r_i_glide_erotb>  (1) 
1.1440711446639862

>  <r_i_glide_esite>  (1) 
-0.099951664035160592

>  <r_i_glide_evdw>  (1) 
-37.804324822343958

>  <r_i_glide_gscore>  (1) 
-7.1448712304627886

>  <r_i_glide_gscore_strain>  (1) 
0

>  <r_i_glide_hbond>  (1) 
-0.29435879168028678

>  <r_i_glide_ligand_efficiency>  (1) 
-0.27632073184033823

>  <r_i_glide_ligand_efficiency_ln>  (1) 
-1.6374073527571209

>  <r_i_glide_ligand_efficiency_sa>  (1) 
-0.80796672133710978

>  <r_i_glide_lipo>  (1) 
-2.7862325645971056

>  <r_i_glide_metal>  (1) 
-0

>  <r_i_glide_rewards>  (1) 
-2.0255683251568271

>  <r_lp_Energy>  (1) 
25.902715000000001

>  <r_lp_tautomer_probability>  (1) 
0.67048000943507491

>  <s_epik_cmdline>  (1) 
J2VwaWtfcHl0aG9uJywgJy1waHQnLCAnMS4wJywgJy1waCcsICc3LjQnLCAnLXRuJywgJzgnLCAnLW1hJywgJzUwMCcsICctaW1hZScsICc8aW5maWxlLm1hZT4nLCAnLW9tYWUnLCAnPG91dGZpbGUubWFlPic=

>  <s_epik_input>  (1) 
W09IXVtDSDJdW0NIMl1bQ0BASF0oW0NIM10pTihDMT1PKU49W0NIXVtDQEBIXTFbQ0gyXVtDSDJdW0NIMl1OKFtDSDNdKVtDQEBIXShbQ0gzXSljMltjSF1bY0hdW2NIXVtjSF1jMkNs

>  <s_glide_docking_method>  (1) 
confgen

>  <s_i_glide_gridfile>  (1) 
gpcr_5ht2c_6bqh_protein_autoprepared_prepared

>  <s_lp_Force_Field>  (1) 
S-OPLS

>  <s_lp_Variant>  (1) 
DiffSBDD_59_num_sample_100-1

>  <s_m_source_file>  (1) 
generated__ligand_DiffSBDD_2026-05-06_prepared.sdf

>  <GenAI_Model>  (1) 
DiffSBDD

>  <Protein>  (1) 
GPCR_5HT2C

$$$$
DiffSBDD_80_num_sample_100
     RDKit          3D

  0  0  0  0  0  0  0  0  0  0999 V3000
M  V30 BEGIN CTAB
M  V30 COUNTS 73 76 0 0 1
M  V30 BEGIN ATOM
M  V30 1 C 38.495263 32.356158 57.054217 0
M  V30 2 C 36.176681 32.015487 60.048855 0
M  V30 3 N 36.509019 33.435285 60.280465 0 CFG=2 CHG=1
M  V30 4 O 38.020714 29.873773 55.393681 0
M  V30 5 O 36.193138 29.400794 59.018352 0
M  V30 6 O 37.467425 33.232420 57.418807 0
M  V30 7 C 37.007979 36.229633 60.926880 0 CFG=2
M  V30 8 C 37.707762 35.070182 61.662583 0 CFG=2
M  V30 9 C 39.299427 28.157065 50.997859 0
M  V30 10 C 39.093833 27.800822 55.585853 0
M  V30 11 O 39.564785 31.151384 53.891107 0
M  V30 12 C 39.477574 30.166970 52.960187 0
M  V30 13 O 39.958436 32.628356 63.274883 0
M  V30 14 C 38.763371 27.928242 52.279473 0
M  V30 15 C 40.226073 34.733453 62.156454 0
M  V30 16 C 40.009255 30.384684 51.680889 0
M  V30 17 O 39.917630 28.132376 57.835496 0
M  V30 18 C 36.294680 35.815307 59.602810 0
M  V30 19 O 40.420793 29.621430 49.455007 0
M  V30 20 C 39.095952 34.721945 61.136493 0
M  V30 21 C 39.916727 29.389299 50.699266 0
M  V30 22 C 38.811328 29.908430 56.575474 0 CFG=1
M  V30 23 C 37.429095 31.136878 60.149976 0 CFG=2
M  V30 24 C 38.113221 30.933255 57.487182 0 CFG=1
M  V30 25 C 36.808428 33.817213 61.681635 0
M  V30 26 C 38.852696 28.427735 56.953882 0 CFG=1
M  V30 27 C 40.644068 33.310714 62.519352 0
M  V30 28 C 38.308555 30.679172 58.978633 0 CFG=2
M  V30 29 C 39.307526 34.421409 59.853395 0
M  V30 30 C 37.588416 38.469488 60.300510 0
M  V30 31 C 37.407711 29.700102 59.682528 0 CFG=2
M  V30 32 C 38.248020 28.680836 54.655300 0 CFG=2
M  V30 33 C 38.844536 28.930969 53.267882 0
M  V30 34 C 35.598468 34.425150 59.662508 0
M  V30 35 O 38.011580 37.221471 60.791690 0
M  V30 36 H 39.441295 32.672721 57.486720 0
M  V30 37 H 38.582366 32.428061 55.969909 0
M  V30 38 H 35.741980 31.904935 59.054746 0
M  V30 39 H 35.423944 31.680621 60.763535 0
M  V30 40 H 36.012859 30.068154 58.367833 0
M  V30 41 H 36.648184 32.880318 57.053730 0
M  V30 42 H 36.267432 36.629977 61.616418 0
M  V30 43 H 37.865193 35.474091 62.653538 0
M  V30 44 H 39.231671 27.388338 50.242309 0
M  V30 45 H 40.855697 30.458366 49.396424 0
M  V30 46 H 38.827921 26.744369 55.532580 0
M  V30 47 H 40.151152 27.892183 55.329288 0
M  V30 48 H 38.990676 30.930032 54.617653 0
M  V30 49 H 38.284642 26.985225 52.501092 0
M  V30 50 H 41.088774 35.242522 61.723966 0
M  V30 51 H 39.954254 35.286440 63.055433 0
M  V30 52 H 40.484590 31.327085 51.449853 0
M  V30 53 H 39.985649 27.193460 57.929720 0
M  V30 54 H 37.012304 35.818575 58.785154 0
M  V30 55 H 35.566153 36.570080 59.314741 0
M  V30 56 H 39.824287 30.241727 56.342999 0
M  V30 57 H 37.966572 31.265755 61.088658 0
M  V30 58 H 37.067330 30.816421 57.265132 0
M  V30 59 H 35.882410 34.009592 62.224844 0
M  V30 60 H 37.320767 33.015683 62.214616 0
M  V30 61 H 37.894360 28.096953 57.356849 0
M  V30 62 H 41.568192 32.960477 62.063108 0
M  V30 63 H 39.361991 30.613872 59.240386 0
M  V30 64 H 40.267402 34.175410 59.496806 0
M  V30 65 H 38.510553 34.421203 59.148722 0
M  V30 66 H 38.348808 39.223205 60.511143 0
M  V30 67 H 37.467750 38.418127 59.218482 0
M  V30 68 H 36.663826 38.792519 60.777960 0
M  V30 69 H 37.868528 28.896125 60.253055 0
M  V30 70 H 37.268304 28.219135 54.520450 0
M  V30 71 H 35.326031 34.118428 58.650411 0
M  V30 72 H 34.667947 34.421528 60.227849 0
M  V30 73 H 37.373587 33.544053 59.764775 0
M  V30 END ATOM
M  V30 BEGIN BOND
M  V30 1 1 3 2
M  V30 2 1 6 1
M  V30 3 1 8 7
M  V30 4 1 12 11
M  V30 5 2 14 9
M  V30 6 1 16 12
M  V30 7 1 18 7
M  V30 8 1 20 8
M  V30 9 1 20 15
M  V30 10 1 21 9
M  V30 11 2 21 16
M  V30 12 1 21 19
M  V30 13 1 22 4
M  V30 14 1 23 2
M  V30 15 1 24 1
M  V30 16 1 24 22
M  V30 17 1 25 3
M  V30 18 1 25 8
M  V30 19 1 26 10
M  V30 20 1 26 17
M  V30 21 1 26 22
M  V30 22 2 27 13
M  V30 23 1 27 15
M  V30 24 1 28 23
M  V30 25 1 28 24
M  V30 26 2 29 20
M  V30 27 1 31 5
M  V30 28 1 31 23
M  V30 29 1 31 28
M  V30 30 1 32 4
M  V30 31 1 32 10
M  V30 32 2 33 12
M  V30 33 1 33 14
M  V30 34 1 33 32
M  V30 35 1 34 3
M  V30 36 1 34 18
M  V30 37 1 35 7
M  V30 38 1 35 30
M  V30 39 1 36 1
M  V30 40 1 37 1
M  V30 41 1 38 2
M  V30 42 1 39 2
M  V30 43 1 40 5
M  V30 44 1 41 6
M  V30 45 1 7 42 CFG=1
M  V30 46 1 8 43 CFG=1
M  V30 47 1 44 9
M  V30 48 1 45 19
M  V30 49 1 46 10
M  V30 50 1 47 10
M  V30 51 1 48 11
M  V30 52 1 49 14
M  V30 53 1 50 15
M  V30 54 1 51 15
M  V30 55 1 52 16
M  V30 56 1 53 17
M  V30 57 1 54 18
M  V30 58 1 55 18
M  V30 59 1 22 56 CFG=3
M  V30 60 1 23 57 CFG=1
M  V30 61 1 24 58 CFG=1
M  V30 62 1 59 25
M  V30 63 1 60 25
M  V30 64 1 26 61 CFG=1
M  V30 65 1 62 27
M  V30 66 1 28 63 CFG=1
M  V30 67 1 64 29
M  V30 68 1 65 29
M  V30 69 1 66 30
M  V30 70 1 67 30
M  V30 71 1 68 30
M  V30 72 1 31 69 CFG=1
M  V30 73 1 32 70 CFG=3
M  V30 74 1 71 34
M  V30 75 1 72 34
M  V30 76 1 3 73 CFG=3
M  V30 END BOND
M  V30 END CTAB
M  END
>  <i_epik_Tot_Q>  (1) 
1

>  <i_epik_Tot_abs_Q>  (1) 
1

>  <i_i_glide_confnum>  (1) 
227

>  <i_i_glide_lignum>  (1) 
205

>  <i_i_glide_posenum>  (1) 
223

>  <i_i_glide_rotatable_bonds>  (1) 
15

>  <i_lp_mmshare_version>  (1) 
72125

>  <i_m_source_file_index>  (1) 
81

>  <i_f3d_flags>  (1) 
0

>  <num_sample>  (1) 
100

>  <b_lp_Chiralities_Consistent>  (1) 
1

>  <r_epik_Charging_Adjusted_Penalty>  (1) 
0.034071705691259377

>  <r_epik_Ionization_Penalty>  (1) 
0.043305258844254187

>  <r_epik_Ionization_Penalty_Charging>  (1) 
0.034071705691259377

>  <r_epik_Ionization_Penalty_Neutral>  (1) 
0.009233553152994808

>  <r_epik_State_Penalty>  (1) 
-0

>  <r_glide_ring_energy>  (1) 
0

>  <r_i_docking_score>  (1) 
-6.9034433615312354

>  <r_i_glide_ecoul>  (1) 
-6.1807632339468608

>  <r_i_glide_eff_state_penalty>  (1) 
-0

>  <r_i_glide_einternal>  (1) 
14.510986139740531

>  <r_i_glide_emodel>  (1) 
-56.274215018372828

>  <r_i_glide_emodel_strain>  (1) 
1.7431377435583499

>  <r_i_glide_energy>  (1) 
-42.864425805504524

>  <r_i_glide_erotb>  (1) 
0.67144220787932085

>  <r_i_glide_esite>  (1) 
0

>  <r_i_glide_evdw>  (1) 
-36.683662571557662

>  <r_i_glide_gscore>  (1) 
-6.9034433615312354

>  <r_i_glide_gscore_strain>  (1) 
0

>  <r_i_glide_hbond>  (1) 
-0.21435967181150048

>  <r_i_glide_ligand_efficiency>  (1) 
-0.19724123890089243

>  <r_i_glide_ligand_efficiency_ln>  (1) 
-1.5154590315265812

>  <r_i_glide_ligand_efficiency_sa>  (1) 
-0.64518917154856847

>  <r_i_glide_lipo>  (1) 
-3.3741561930070971

>  <r_i_glide_metal>  (1) 
-0

>  <r_i_glide_rewards>  (1) 
-1.2250720909220463

>  <r_lp_Energy>  (1) 
35.505794999999999

>  <r_lp_tautomer_probability>  (1) 
1

>  <s_epik_cmdline>  (1) 
J2VwaWtfcHl0aG9uJywgJy1waHQnLCAnMS4wJywgJy1waCcsICc3LjQnLCAnLXRuJywgJzgnLCAnLW1hJywgJzUwMCcsICctaW1hZScsICc8aW5maWxlLm1hZT4nLCAnLW9tYWUnLCAnPG91dGZpbGUubWFlPic=

>  <s_epik_input>  (1) 
Tz1bQ0hdW0NIMl1DKD1bQ0gyXSlbQ0BASF0oW0NASF0oW0NIMl1bQ0gyXTEpT1tDSDNdKVtDSDJdTjFbQ0gyXVtDQEBIXTJbQ0BASF0oW0NAQEhdMltPSF0pW0NAQEhdKFtDSDJdW09IXSlbQ0BASF0zT1tDQEhdKFtDSDJdW0NASF0zW09IXSlDND1bQ0hdW0NIMl1DKD1PKVtDSF09QzRbT0hd

>  <s_glide_docking_method>  (1) 
confgen

>  <s_i_glide_gridfile>  (1) 
gpcr_5ht2c_6bqh_protein_autoprepared_prepared

>  <s_lp_Force_Field>  (1) 
S-OPLS

>  <s_lp_Variant>  (1) 
DiffSBDD_80_num_sample_100-1

>  <s_m_source_file>  (1) 
generated__ligand_DiffSBDD_2026-05-06_prepared.sdf

>  <GenAI_Model>  (1) 
DiffSBDD

>  <Protein>  (1) 
GPCR_5HT2C

$$$$
DiffSBDD_51_num_sample_100
     RDKit          3D

  0  0  0  0  0  0  0  0  0  0999 V3000
M  V30 BEGIN CTAB
M  V30 COUNTS 64 65 0 0 1
M  V30 BEGIN ATOM
M  V30 1 C 38.104128 26.392919 56.564867 0 CFG=1
M  V30 2 O 38.570827 28.138154 52.420163 0
M  V30 3 C 37.467347 24.730686 54.784861 0
M  V30 4 N 37.993051 27.247422 54.460328 0
M  V30 5 C 39.038579 30.002991 57.901706 0
M  V30 6 C 40.838880 28.237431 57.540691 0 CFG=2
M  V30 7 C 36.844538 23.852627 55.876500 0
M  V30 8 C 37.346968 26.190295 55.223324 0 CFG=2
M  V30 9 N 38.145447 31.766820 59.167550 0
M  V30 10 O 39.189515 29.152781 54.804487 0
M  V30 11 N 38.506417 30.426435 59.047671 0
M  V30 12 C 38.334524 27.936523 56.712011 0 CFG=2
M  V30 13 N 41.091746 26.821439 57.289486 0 CHG=1
M  V30 14 C 37.643273 32.224844 60.312429 0
M  V30 15 C 35.072260 33.351909 61.818266 0
M  V30 16 C 37.779473 36.001672 61.397841 0
M  V30 17 C 37.516114 24.087915 57.251515 0
M  V30 18 C 33.812010 33.845054 59.048941 0
M  V30 19 C 38.014092 27.270895 53.097267 0
M  V30 20 O 37.528513 31.524944 61.322793 0
M  V30 21 C 38.553688 28.184889 55.220175 0
M  V30 22 C 41.702183 28.630239 58.746060 0
M  V30 23 C 38.116098 34.508590 61.273538 0
M  V30 24 C 39.329614 28.495517 57.774482 0 CFG=2
M  V30 25 C 35.675936 33.884461 60.513067 0 CFG=1
M  V30 26 O 39.289890 30.765374 56.971586 0
M  V30 27 C 37.208490 33.701560 60.320710 0 CFG=2
M  V30 28 C 37.462431 25.571167 57.683482 0
M  V30 29 O 35.016958 33.220968 59.453525 0
M  V30 30 H 39.066585 25.918714 56.400951 0
M  V30 31 H 38.511332 24.448678 54.653477 0
M  V30 32 H 36.929554 24.569346 53.853588 0
M  V30 33 H 41.174927 28.784633 56.660303 0
M  V30 34 H 35.777310 24.063474 55.939710 0
M  V30 35 H 36.913440 22.812460 55.574770 0
M  V30 36 H 36.303740 26.421397 55.416830 0
M  V30 37 H 38.278141 32.287495 58.309296 0
M  V30 38 H 38.281377 29.879040 59.867274 0
M  V30 39 H 37.364243 28.365603 56.953116 0
M  V30 40 H 40.781440 26.278855 58.081556 0
M  V30 41 H 42.079446 26.643313 57.145917 0
M  V30 42 H 35.321977 34.021454 62.648848 0
M  V30 43 H 35.396302 32.332029 61.993024 0
M  V30 44 H 33.992501 33.230176 61.778732 0
M  V30 45 H 38.531064 36.515250 61.998147 0
M  V30 46 H 36.816520 36.160049 61.883043 0
M  V30 47 H 37.751580 36.483795 60.419853 0
M  V30 48 H 37.067423 23.450417 58.002550 0
M  V30 49 H 38.558930 23.770707 57.204321 0
M  V30 50 H 33.332987 33.221596 58.309021 0
M  V30 51 H 34.005211 34.817243 58.594627 0
M  V30 52 H 33.093479 33.961743 59.853491 0
M  V30 53 H 37.467378 26.421362 52.679695 0
M  V30 54 H 41.554749 29.658276 59.053084 0
M  V30 55 H 42.760008 28.507005 58.515940 0
M  V30 56 H 41.476486 28.016399 59.618316 0
M  V30 57 H 39.144998 34.428807 60.915180 0
M  V30 58 H 38.126878 34.046525 62.253502 0
M  V30 59 H 39.061908 28.027554 58.724495 0
M  V30 60 H 35.467416 34.947448 60.421397 0
M  V30 61 H 37.414492 34.094377 59.323769 0
M  V30 62 H 38.006037 25.709007 58.618908 0
M  V30 63 H 36.432789 25.886171 57.853560 0
M  V30 64 H 40.598100 26.525683 56.460927 0
M  V30 END ATOM
M  V30 BEGIN BOND
M  V30 1 1 7 3
M  V30 2 1 8 1
M  V30 3 1 8 3
M  V30 4 1 8 4
M  V30 5 1 11 5
M  V30 6 1 11 9
M  V30 7 1 12 1
M  V30 8 1 13 6
M  V30 9 1 14 9
M  V30 10 1 17 7
M  V30 11 2 19 2
M  V30 12 1 19 4
M  V30 13 2 20 14
M  V30 14 1 21 4
M  V30 15 2 21 10
M  V30 16 1 21 12
M  V30 17 1 22 6
M  V30 18 1 23 16
M  V30 19 1 24 5
M  V30 20 1 24 6
M  V30 21 1 24 12
M  V30 22 1 25 15
M  V30 23 2 26 5
M  V30 24 1 27 14
M  V30 25 1 27 23
M  V30 26 1 27 25
M  V30 27 1 28 1
M  V30 28 1 28 17
M  V30 29 1 29 18
M  V30 30 1 29 25
M  V30 31 1 1 30 CFG=3
M  V30 32 1 31 3
M  V30 33 1 32 3
M  V30 34 1 6 33 CFG=3
M  V30 35 1 34 7
M  V30 36 1 35 7
M  V30 37 1 8 36 CFG=1
M  V30 38 1 37 9
M  V30 39 1 38 11
M  V30 40 1 12 39 CFG=1
M  V30 41 1 40 13
M  V30 42 1 41 13
M  V30 43 1 42 15
M  V30 44 1 43 15
M  V30 45 1 44 15
M  V30 46 1 45 16
M  V30 47 1 46 16
M  V30 48 1 47 16
M  V30 49 1 48 17
M  V30 50 1 49 17
M  V30 51 1 50 18
M  V30 52 1 51 18
M  V30 53 1 52 18
M  V30 54 1 53 19
M  V30 55 1 54 22
M  V30 56 1 55 22
M  V30 57 1 56 22
M  V30 58 1 57 23
M  V30 59 1 58 23
M  V30 60 1 24 59 CFG=1
M  V30 61 1 25 60 CFG=3
M  V30 62 1 27 61 CFG=3
M  V30 63 1 62 28
M  V30 64 1 63 28
M  V30 65 1 64 13
M  V30 END BOND
M  V30 END CTAB
M  END
>  <i_epik_Tot_Q>  (1) 
1

>  <i_epik_Tot_abs_Q>  (1) 
1

>  <i_i_glide_confnum>  (1) 
2

>  <i_i_glide_lignum>  (1) 
137

>  <i_i_glide_posenum>  (1) 
27

>  <i_i_glide_rotatable_bonds>  (1) 
11

>  <i_lp_mmshare_version>  (1) 
72125

>  <i_m_source_file_index>  (1) 
52

>  <i_f3d_flags>  (1) 
0

>  <num_sample>  (1) 
100

>  <b_lp_Chiralities_Consistent>  (1) 
1

>  <r_epik_Charging_Adjusted_Penalty>  (1) 
0.019458142528331109

>  <r_epik_Ionization_Penalty>  (1) 
0.0099781937774174462

>  <r_epik_Ionization_Penalty_Charging>  (1) 
0.0097290712641655529

>  <r_epik_Ionization_Penalty_Neutral>  (1) 
0.00024912251325189406

>  <r_epik_State_Penalty>  (1) 
0.0097290712641655563

>  <r_glide_ring_energy>  (1) 
0

>  <r_i_docking_score>  (1) 
-6.9034300647071554

>  <r_i_glide_ecoul>  (1) 
-4.4484977569531958

>  <r_i_glide_eff_state_penalty>  (1) 
0.0097290712641655563

>  <r_i_glide_einternal>  (1) 
20.875472947859848

>  <r_i_glide_emodel>  (1) 
-50.156565965355426

>  <r_i_glide_emodel_strain>  (1) 
1.9792962336730398

>  <r_i_glide_energy>  (1) 
-39.945036056755761

>  <r_i_glide_erotb>  (1) 
0.81470354957181534

>  <r_i_glide_esite>  (1) 
-0.080110905938464053

>  <r_i_glide_evdw>  (1) 
-35.496538299802566

>  <r_i_glide_gscore>  (1) 
-6.9131591359713207

>  <r_i_glide_gscore_strain>  (1) 
0

>  <r_i_glide_hbond>  (1) 
-0.090775333529177701

>  <r_i_glide_ligand_efficiency>  (1) 
-0.23804931257610881

>  <r_i_glide_ligand_efficiency_ln>  (1) 
-1.5807104289357323

>  <r_i_glide_ligand_efficiency_sa>  (1) 
-0.73136290837052875

>  <r_i_glide_lipo>  (1) 
-3.1574931396768298

>  <r_i_glide_metal>  (1) 
-0

>  <r_i_glide_rewards>  (1) 
-1.9573817278655574

>  <r_lp_Energy>  (1) 
32.699864999999996

>  <r_lp_tautomer_probability>  (1) 
0.99995000000000001

>  <s_epik_cmdline>  (1) 
J2VwaWtfcHl0aG9uJywgJy1waHQnLCAnMS4wJywgJy1waCcsICc3LjQnLCAnLXRuJywgJzgnLCAnLW1hJywgJzUwMCcsICctaW1hZScsICc8aW5maWxlLm1hZT4nLCAnLW9tYWUnLCAnPG91dGZpbGUubWFlPic=

>  <s_epik_input>  (1) 
W0NIMl0xW0NIMl1bQ0gyXVtDSDJdW0NAQEhdKFtDQEhdMTIpTihbQ0hdPU8pQyg9TylbQ0BASF0yW0NAQEhdKFtDQEhdKFtOSDJdKVtDSDNdKUMoPU8pW05IXVtOSF1DKD1PKVtDQEhdKFtDSDJdW0NIM10pW0NASF0oW0NIM10pT1tDSDNd

>  <s_glide_docking_method>  (1) 
confgen

>  <s_i_glide_gridfile>  (1) 
gpcr_5ht2c_6bqh_protein_autoprepared_prepared

>  <s_lp_Force_Field>  (1) 
S-OPLS

>  <s_lp_Variant>  (1) 
DiffSBDD_51_num_sample_100-2

>  <s_m_source_file>  (1) 
generated__ligand_DiffSBDD_2026-05-06_prepared.sdf

>  <GenAI_Model>  (1) 
DiffSBDD

>  <Protein>  (1) 
GPCR_5HT2C

$$$$
DiffSBDD_51_num_sample_100
     RDKit          3D

  0  0  0  0  0  0  0  0  0  0999 V3000
M  V30 BEGIN CTAB
M  V30 COUNTS 64 65 0 0 1
M  V30 BEGIN ATOM
M  V30 1 C 38.010233 26.390646 56.673880 0 CFG=1
M  V30 2 O 38.371492 28.395636 52.633306 0
M  V30 3 C 37.549527 24.769373 54.789121 0
M  V30 4 N 37.866189 27.339911 54.612712 0
M  V30 5 C 38.832309 29.925474 58.295369 0
M  V30 6 C 40.499175 27.880032 57.983602 0 CFG=2
M  V30 7 C 36.932701 23.804381 55.804621 0
M  V30 8 C 37.328525 26.187638 55.299018 0 CFG=2
M  V30 9 N 38.129975 31.627946 59.773875 0
M  V30 10 O 38.752502 29.381042 55.090898 0
M  V30 11 N 38.388841 30.279741 59.505619 0
M  V30 12 C 38.064529 27.935567 56.915634 0 CFG=2
M  V30 13 N 41.335432 28.427283 59.066649 0 CHG=1
M  V30 14 C 37.646921 31.988140 60.965259 0
M  V30 15 C 34.817119 33.286164 60.580173 0
M  V30 16 C 38.302963 35.840703 61.556083 0
M  V30 17 C 37.532494 24.012322 57.209853 0
M  V30 18 C 37.388289 34.302994 58.160754 0
M  V30 19 C 37.923427 27.428747 53.254002 0
M  V30 20 O 37.467400 31.189818 61.872798 0
M  V30 21 C 38.267691 28.304603 55.437387 0
M  V30 22 C 41.235219 28.020592 56.649483 0
M  V30 23 C 38.578231 34.354463 61.276459 0
M  V30 24 C 39.029634 28.413374 58.036360 0 CFG=2
M  V30 25 C 36.160307 33.946214 60.218979 0 CFG=1
M  V30 26 O 39.070236 30.745994 57.415880 0
M  V30 27 C 37.307120 33.473360 61.161170 0 CFG=1
M  V30 28 C 37.373719 25.464150 57.705367 0
M  V30 29 O 36.363665 33.621438 58.853738 0
M  V30 30 H 39.040026 26.043524 56.567822 0
M  V30 31 H 38.609613 24.553963 54.653513 0
M  V30 32 H 37.025132 24.635029 53.853499 0
M  V30 33 H 40.462458 26.811823 58.200918 0
M  V30 34 H 35.854164 23.960366 55.848209 0
M  V30 35 H 37.067305 22.785170 55.453423 0
M  V30 36 H 36.267404 26.345967 55.453485 0
M  V30 37 H 38.286121 32.226774 58.972661 0
M  V30 38 H 38.164240 29.672873 60.282365 0
M  V30 39 H 37.067426 28.283504 57.187337 0
M  V30 40 H 41.476774 29.416032 58.920390 0
M  V30 41 H 42.235920 27.964809 59.065286 0
M  V30 42 H 34.545933 33.483885 61.617097 0
M  V30 43 H 34.848238 32.205338 60.442172 0
M  V30 44 H 34.013798 33.666618 59.949238 0
M  V30 45 H 39.233009 36.373648 61.756625 0
M  V30 46 H 37.654983 35.973194 62.422952 0
M  V30 47 H 37.830644 36.330060 60.704259 0
M  V30 48 H 37.067425 23.310321 57.892775 0
M  V30 49 H 38.592253 23.749776 57.197602 0
M  V30 50 H 37.333974 34.021431 57.107942 0
M  V30 51 H 38.379260 34.016936 58.492891 0
M  V30 52 H 37.271334 35.381353 58.253795 0
M  V30 53 H 37.514921 26.523836 52.781670 0
M  V30 54 H 40.907736 27.261278 55.939164 0
M  V30 55 H 42.308957 27.887060 56.774499 0
M  V30 56 H 41.067403 28.981301 56.173550 0
M  V30 57 H 39.220349 34.266993 60.402878 0
M  V30 58 H 39.181227 33.969577 62.101487 0
M  V30 59 H 38.626947 27.940917 58.934194 0
M  V30 60 H 36.016086 35.022501 60.304535 0
M  V30 61 H 36.867346 33.520281 62.156934 0
M  V30 62 H 37.884955 25.581018 58.653587 0
M  V30 63 H 36.321129 25.710411 57.853456 0
M  V30 64 H 40.896045 28.270039 59.961906 0
M  V30 END ATOM
M  V30 BEGIN BOND
M  V30 1 1 7 3
M  V30 2 1 8 1
M  V30 3 1 8 3
M  V30 4 1 8 4
M  V30 5 1 11 5
M  V30 6 1 11 9
M  V30 7 1 12 1
M  V30 8 1 13 6
M  V30 9 1 14 9
M  V30 10 1 17 7
M  V30 11 2 19 2
M  V30 12 1 19 4
M  V30 13 2 20 14
M  V30 14 1 21 4
M  V30 15 2 21 10
M  V30 16 1 21 12
M  V30 17 1 22 6
M  V30 18 1 23 16
M  V30 19 1 24 5
M  V30 20 1 24 6
M  V30 21 1 24 12
M  V30 22 1 25 15
M  V30 23 2 26 5
M  V30 24 1 27 14
M  V30 25 1 27 23
M  V30 26 1 27 25
M  V30 27 1 28 1
M  V30 28 1 28 17
M  V30 29 1 29 18
M  V30 30 1 29 25
M  V30 31 1 1 30 CFG=3
M  V30 32 1 31 3
M  V30 33 1 32 3
M  V30 34 1 6 33 CFG=1
M  V30 35 1 34 7
M  V30 36 1 35 7
M  V30 37 1 8 36 CFG=1
M  V30 38 1 37 9
M  V30 39 1 38 11
M  V30 40 1 12 39 CFG=1
M  V30 41 1 40 13
M  V30 42 1 41 13
M  V30 43 1 42 15
M  V30 44 1 43 15
M  V30 45 1 44 15
M  V30 46 1 45 16
M  V30 47 1 46 16
M  V30 48 1 47 16
M  V30 49 1 48 17
M  V30 50 1 49 17
M  V30 51 1 50 18
M  V30 52 1 51 18
M  V30 53 1 52 18
M  V30 54 1 53 19
M  V30 55 1 54 22
M  V30 56 1 55 22
M  V30 57 1 56 22
M  V30 58 1 57 23
M  V30 59 1 58 23
M  V30 60 1 24 59 CFG=1
M  V30 61 1 25 60 CFG=3
M  V30 62 1 27 61 CFG=1
M  V30 63 1 62 28
M  V30 64 1 63 28
M  V30 65 1 64 13
M  V30 END BOND
M  V30 END CTAB
M  END
>  <i_epik_Tot_Q>  (1) 
1

>  <i_epik_Tot_abs_Q>  (1) 
1

>  <i_i_glide_confnum>  (1) 
48

>  <i_i_glide_lignum>  (1) 
136

>  <i_i_glide_posenum>  (1) 
66

>  <i_i_glide_rotatable_bonds>  (1) 
11

>  <i_lp_mmshare_version>  (1) 
72125

>  <i_m_source_file_index>  (1) 
52

>  <i_f3d_flags>  (1) 
0

>  <num_sample>  (1) 
100

>  <b_lp_Chiralities_Consistent>  (1) 
1

>  <r_epik_Charging_Adjusted_Penalty>  (1) 
0.019458142528331109

>  <r_epik_Ionization_Penalty>  (1) 
0.0099781937774174462

>  <r_epik_Ionization_Penalty_Charging>  (1) 
0.0097290712641655529

>  <r_epik_Ionization_Penalty_Neutral>  (1) 
0.00024912251325189406

>  <r_epik_State_Penalty>  (1) 
0.0097290712641655563

>  <r_glide_ring_energy>  (1) 
0

>  <r_i_docking_score>  (1) 
-6.9006798043331337

>  <r_i_glide_ecoul>  (1) 
-3.6652395560437556

>  <r_i_glide_eff_state_penalty>  (1) 
0.0097290712641655563

>  <r_i_glide_einternal>  (1) 
28.717532185848871

>  <r_i_glide_emodel>  (1) 
-49.043838308233838

>  <r_i_glide_emodel_strain>  (1) 
0.95997080932269796

>  <r_i_glide_energy>  (1) 
-40.996706521980968

>  <r_i_glide_erotb>  (1) 
0.81470354957181534

>  <r_i_glide_esite>  (1) 
-0.026052965095206923

>  <r_i_glide_evdw>  (1) 
-37.33146696593721

>  <r_i_glide_gscore>  (1) 
-6.910408875597299

>  <r_i_glide_gscore_strain>  (1) 
0

>  <r_i_glide_hbond>  (1) 
-0.31345575965799816

>  <r_i_glide_ligand_efficiency>  (1) 
-0.23795447601148736

>  <r_i_glide_ligand_efficiency_ln>  (1) 
-1.5800806890506671

>  <r_i_glide_ligand_efficiency_sa>  (1) 
-0.73107154039735212

>  <r_i_glide_lipo>  (1) 
-3.1006664853518235

>  <r_i_glide_metal>  (1) 
-0

>  <r_i_glide_rewards>  (1) 
-1.8685779333606614

>  <r_lp_Energy>  (1) 
35.249798999999996

>  <r_lp_tautomer_probability>  (1) 
0.99995000000000001

>  <s_epik_cmdline>  (1) 
J2VwaWtfcHl0aG9uJywgJy1waHQnLCAnMS4wJywgJy1waCcsICc3LjQnLCAnLXRuJywgJzgnLCAnLW1hJywgJzUwMCcsICctaW1hZScsICc8aW5maWxlLm1hZT4nLCAnLW9tYWUnLCAnPG91dGZpbGUubWFlPic=

>  <s_epik_input>  (1) 
W0NIMl0xW0NIMl1bQ0gyXVtDSDJdW0NAQEhdKFtDQEhdMTIpTihbQ0hdPU8pQyg9TylbQ0BASF0yW0NAQEhdKFtDQEhdKFtOSDJdKVtDSDNdKUMoPU8pW05IXVtOSF1DKD1PKVtDQEBIXShbQ0gyXVtDSDNdKVtDQEhdKFtDSDNdKU9bQ0gzXQ==

>  <s_glide_docking_method>  (1) 
confgen

>  <s_i_glide_gridfile>  (1) 
gpcr_5ht2c_6bqh_protein_autoprepared_prepared

>  <s_lp_Force_Field>  (1) 
S-OPLS

>  <s_lp_Variant>  (1) 
DiffSBDD_51_num_sample_100-1

>  <s_m_source_file>  (1) 
generated__ligand_DiffSBDD_2026-05-06_prepared.sdf

>  <GenAI_Model>  (1) 
DiffSBDD

>  <Protein>  (1) 
GPCR_5HT2C

$$$$
DiffSBDD_18_num_sample_100
     RDKit          3D

  0  0  0  0  0  0  0  0  0  0999 V3000
M  V30 BEGIN CTAB
M  V30 COUNTS 71 73 0 0 1
M  V30 BEGIN ATOM
M  V30 1 O 38.549256 35.095221 62.004890 0
M  V30 2 C 38.514271 26.959547 55.482590 0
M  V30 3 C 37.007672 30.607303 59.202461 0
M  V30 4 C 38.038890 26.730523 54.264162 0
M  V30 5 O 37.497239 31.865300 61.684814 0
M  V30 6 C 39.571948 28.744046 56.822042 0 CFG=2
M  V30 7 C 42.043458 31.511670 63.933284 0
M  V30 8 N 38.975515 28.160950 55.589144 0 CHG=1
M  V30 9 N 40.633676 27.889914 57.363327 0
M  V30 10 C 40.760753 35.623251 63.036242 0
M  V30 11 C 42.552732 33.433529 65.448060 0
M  V30 12 O 42.917507 30.742091 63.540703 0
M  V30 13 O 37.867421 28.046516 52.301072 0
M  V30 14 C 40.268277 30.309485 66.141363 0
M  V30 15 C 38.182462 31.418448 57.072093 0
M  V30 16 C 38.204822 27.827944 53.579270 0
M  V30 17 C 41.067403 32.144971 67.681067 0
M  V30 18 C 42.147076 34.469640 64.685672 0
M  V30 19 C 36.977874 32.511709 60.774708 0
M  V30 20 N 40.975648 31.939767 63.203301 0
M  V30 21 C 38.273590 30.498492 58.311971 0 CFG=2
M  V30 22 C 39.767721 35.824483 61.878004 0 CFG=2
M  V30 23 C 38.543987 29.009187 57.949549 0 CFG=2
M  V30 24 C 39.143907 28.225487 59.124528 0
M  V30 25 O 40.667422 33.267572 68.061765 0 CHG=-1
M  V30 26 C 38.863586 29.044273 54.293769 0
M  V30 27 C 40.592419 33.138935 62.974723 0
M  V30 28 C 36.609670 33.984417 60.983120 0
M  V30 29 C 37.803674 34.941701 60.796502 0
M  V30 30 C 39.385663 37.317757 61.853508 0
M  V30 31 C 41.165488 34.434999 63.567262 0
M  V30 32 C 42.066104 32.025070 65.348611 0 CFG=1
M  V30 33 C 40.793471 31.761957 66.210197 0 CFG=1
M  V30 34 N 36.699725 31.988826 59.566941 0
M  V30 35 N 40.521035 27.901621 58.772540 0
M  V30 36 O 41.676368 31.308752 68.384337 0
M  V30 37 H 38.536539 26.267009 56.316744 0
M  V30 38 H 36.145014 30.226646 58.653894 0
M  V30 39 H 37.097846 29.974698 60.085924 0
M  V30 40 H 37.605515 25.791457 53.950371 0
M  V30 41 H 40.061961 29.663297 56.511024 0
M  V30 42 H 40.549497 26.931844 57.031499 0
M  V30 43 H 41.170682 36.532809 63.453324 0
M  V30 44 H 43.274231 33.621154 66.230136 0
M  V30 45 H 39.858352 29.317039 53.941934 0
M  V30 46 H 39.467714 30.142408 66.863771 0
M  V30 47 H 39.857929 30.078445 65.158140 0
M  V30 48 H 41.058741 29.587980 66.350699 0
M  V30 49 H 37.467427 31.034715 56.347078 0
M  V30 50 H 37.867316 32.429127 57.329202 0
M  V30 51 H 39.140049 31.536730 56.568346 0
M  V30 52 H 42.580324 35.432886 64.918268 0
M  V30 53 H 39.111772 30.860909 58.905590 0
M  V30 54 H 40.284910 35.556704 60.954818 0
M  V30 55 H 37.589070 28.553078 57.684107 0
M  V30 56 H 38.600016 27.290509 59.262116 0
M  V30 57 H 39.115838 28.761420 60.073927 0
M  V30 58 H 38.195562 29.887410 54.470814 0
M  V30 59 H 39.790548 33.302432 62.265811 0
M  V30 60 H 35.830233 34.246092 60.266008 0
M  V30 61 H 36.163749 34.119341 61.968723 0
M  V30 62 H 38.449898 34.579978 59.994407 0
M  V30 63 H 37.417127 35.906667 60.471869 0
M  V30 64 H 40.265958 37.945646 61.720039 0
M  V30 65 H 38.690081 37.565913 61.053564 0
M  V30 66 H 38.912530 37.610371 62.791419 0
M  V30 67 H 42.862963 31.445111 65.819782 0
M  V30 68 H 40.000576 32.415613 65.849788 0
M  V30 69 H 36.262693 32.570619 58.862311 0
M  V30 70 H 40.812288 27.008722 59.167441 0
M  V30 71 H 37.445556 27.265147 51.966733 0
M  V30 END ATOM
M  V30 BEGIN BOND
M  V30 1 1 4 2
M  V30 2 2 8 2
M  V30 3 1 8 6
M  V30 4 1 9 6
M  V30 5 2 12 7
M  V30 6 2 16 4
M  V30 7 1 16 13
M  V30 8 2 18 11
M  V30 9 2 19 5
M  V30 10 1 20 7
M  V30 11 1 21 3
M  V30 12 1 21 15
M  V30 13 1 22 1
M  V30 14 1 22 10
M  V30 15 1 23 6
M  V30 16 1 23 21
M  V30 17 1 24 23
M  V30 18 1 25 17
M  V30 19 1 26 8
M  V30 20 1 26 16
M  V30 21 2 27 20
M  V30 22 1 28 19
M  V30 23 1 29 1
M  V30 24 1 29 28
M  V30 25 1 30 22
M  V30 26 2 31 10
M  V30 27 1 31 18
M  V30 28 1 31 27
M  V30 29 1 32 7
M  V30 30 1 32 11
M  V30 31 1 33 14
M  V30 32 1 33 17
M  V30 33 1 33 32
M  V30 34 1 34 3
M  V30 35 1 34 19
M  V30 36 1 35 9
M  V30 37 1 35 24
M  V30 38 2 36 17
M  V30 39 1 37 2
M  V30 40 1 38 3
M  V30 41 1 39 3
M  V30 42 1 40 4
M  V30 43 1 6 41 CFG=3
M  V30 44 1 42 9
M  V30 45 1 43 10
M  V30 46 1 44 11
M  V30 47 1 45 26
M  V30 48 1 46 14
M  V30 49 1 47 14
M  V30 50 1 48 14
M  V30 51 1 49 15
M  V30 52 1 50 15
M  V30 53 1 51 15
M  V30 54 1 52 18
M  V30 55 1 21 53 CFG=1
M  V30 56 1 22 54 CFG=3
M  V30 57 1 23 55 CFG=3
M  V30 58 1 56 24
M  V30 59 1 57 24
M  V30 60 1 58 26
M  V30 61 1 59 27
M  V30 62 1 60 28
M  V30 63 1 61 28
M  V30 64 1 62 29
M  V30 65 1 63 29
M  V30 66 1 64 30
M  V30 67 1 65 30
M  V30 68 1 66 30
M  V30 69 1 32 67 CFG=1
M  V30 70 1 33 68 CFG=3
M  V30 71 1 69 34
M  V30 72 1 70 35
M  V30 73 1 71 13
M  V30 END BOND
M  V30 END CTAB
M  END
>  <i_epik_Tot_Q>  (1) 
0

>  <i_epik_Tot_abs_Q>  (1) 
2

>  <i_i_glide_confnum>  (1) 
1604

>  <i_i_glide_lignum>  (1) 
46

>  <i_i_glide_posenum>  (1) 
383

>  <i_i_glide_rotatable_bonds>  (1) 
13

>  <i_lp_mmshare_version>  (1) 
72125

>  <i_m_source_file_index>  (1) 
19

>  <i_f3d_flags>  (1) 
0

>  <num_sample>  (1) 
100

>  <b_lp_Chiralities_Consistent>  (1) 
1

>  <r_epik_Charging_Adjusted_Penalty>  (1) 
0.76693695219889413

>  <r_epik_Ionization_Penalty>  (1) 
0.76778133156762796

>  <r_epik_Ionization_Penalty_Charging>  (1) 
0.00011398914501928687

>  <r_epik_Ionization_Penalty_Neutral>  (1) 
0.7676673424226087

>  <r_epik_State_Penalty>  (1) 
0.76682296305387487

>  <r_glide_ring_energy>  (1) 
1.7561163794185886

>  <r_i_docking_score>  (1) 
-6.9000201124622915

>  <r_i_glide_ecoul>  (1) 
-6.0152565350370395

>  <r_i_glide_eff_state_penalty>  (1) 
0.76682296305387487

>  <r_i_glide_einternal>  (1) 
8.9803920545119826

>  <r_i_glide_emodel>  (1) 
-74.638054922714929

>  <r_i_glide_emodel_strain>  (1) 
2.9158284027494688

>  <r_i_glide_energy>  (1) 
-56.284815044808241

>  <r_i_glide_erotb>  (1) 
0.89312676016186854

>  <r_i_glide_esite>  (1) 
-0.10035951733472444

>  <r_i_glide_evdw>  (1) 
-50.269558509771201

>  <r_i_glide_gscore>  (1) 
-7.6668430755161667

>  <r_i_glide_gscore_strain>  (1) 
0

>  <r_i_glide_hbond>  (1) 
-0.43149536739415589

>  <r_i_glide_ligand_efficiency>  (1) 
-0.19166722534617475

>  <r_i_glide_ligand_efficiency_ln>  (1) 
-1.5053979715389723

>  <r_i_glide_ligand_efficiency_sa>  (1) 
-0.63287123409056145

>  <r_i_glide_lipo>  (1) 
-3.1444898556291139

>  <r_i_glide_metal>  (1) 
-0

>  <r_i_glide_rewards>  (1) 
-1.4678586895759238

>  <r_lp_Energy>  (1) 
32.160671999999998

>  <r_lp_tautomer_probability>  (1) 
0.99929914239148299

>  <s_epik_Chemistry_Notes>  (1) 
This compound has an imine and may undergo hydrolysis. This compound contains an acetal/aminal-like group ( X-CH(R)-Y where X, Y are N, S, or O) that may be acid/base labile, releasing an aldehyde.

>  <s_epik_cmdline>  (1) 
J2VwaWtfcHl0aG9uJywgJy1waHQnLCAnMS4wJywgJy1waCcsICc3LjQnLCAnLXRuJywgJzgnLCAnLW1hJywgJzUwMCcsICctaW1hZScsICc8aW5maWxlLm1hZT4nLCAnLW9tYWUnLCAnPG91dGZpbGUubWFlPic=

>  <s_epik_input>  (1) 
W09IXUMoPU8pW0NASF0oW0NIM10pW0NAQEhdMVtDSF09W0NIXVxDKFtDSF09TkMxPU8pPVtDSF1cW0NASF0oW0NIM10pT1tDSDJdW0NIMl1DKD1PKVtOSF1bQ0gyXVtDQEhdKFtDSDNdKVtDQEBIXTJbQ0gyXVtOSF1bTkhdW0NASF0ybjNbY0hdW2NIXWMoW09IXSlbY0hdMw==

>  <s_glide_docking_method>  (1) 
confgen

>  <s_i_glide_gridfile>  (1) 
gpcr_5ht2c_6bqh_protein_autoprepared_prepared

>  <s_lp_Force_Field>  (1) 
S-OPLS

>  <s_lp_Variant>  (1) 
DiffSBDD_18_num_sample_100-6

>  <s_m_source_file>  (1) 
generated__ligand_DiffSBDD_2026-05-06_prepared.sdf

>  <GenAI_Model>  (1) 
DiffSBDD

>  <Protein>  (1) 
GPCR_5HT2C

$$$$
DiffSBDD_18_num_sample_100
     RDKit          3D

  0  0  0  0  0  0  0  0  0  0999 V3000
M  V30 BEGIN CTAB
M  V30 COUNTS 70 72 0 0 1
M  V30 BEGIN ATOM
M  V30 1 O 39.179881 29.768991 60.436220 0
M  V30 2 C 39.679877 29.756450 52.761750 0
M  V30 3 C 39.299513 26.195080 57.064828 0
M  V30 4 C 40.150028 30.316567 51.699969 0
M  V30 5 O 41.789863 27.230349 57.855182 0
M  V30 6 C 38.334480 27.733778 53.485768 0 CFG=2
M  V30 7 C 42.599369 31.580660 65.486986 0
M  V30 8 N 39.168561 28.503777 52.549826 0
M  V30 9 N 37.067414 28.428511 53.565391 0
M  V30 10 C 39.538061 30.523286 62.686058 0
M  V30 11 C 41.864073 33.246920 63.819403 0
M  V30 12 O 43.774026 31.214924 65.467403 0
M  V30 13 O 40.267470 29.609183 49.454137 0
M  V30 14 C 41.124737 35.218060 66.045311 0
M  V30 15 C 38.421347 25.062921 55.053498 0
M  V30 16 C 39.949504 29.413364 50.623311 0
M  V30 17 C 41.616289 33.457156 67.739616 0
M  V30 18 C 41.067494 32.446598 63.071109 0
M  V30 19 C 40.767915 27.865827 58.107603 0
M  V30 20 N 41.521217 30.790113 65.726336 0
M  V30 21 C 38.429799 26.404914 55.799449 0 CFG=2
M  V30 22 C 39.175728 30.929840 61.261014 0 CFG=2
M  V30 23 C 38.845056 27.663336 54.950936 0 CFG=2
M  V30 24 C 38.188152 28.926221 55.552929 0
M  V30 25 O 40.667416 33.353308 68.547560 0 CHG=-1
M  V30 26 C 39.240978 28.081873 51.105776 0
M  V30 27 C 40.598196 30.539581 64.881324 0
M  V30 28 C 40.856062 29.219703 58.797114 0
M  V30 29 C 40.462404 29.170481 60.276742 0
M  V30 30 C 37.760922 31.511039 61.190666 0
M  V30 31 C 40.396984 31.178541 63.510126 0
M  V30 32 C 42.243627 33.027215 65.250933 0 CFG=1
M  V30 33 C 41.251853 33.695023 66.259916 0 CFG=2
M  V30 34 N 39.539292 27.436445 57.789807 0
M  V30 35 N 37.146839 29.371113 54.632107 0
M  V30 36 O 42.832662 33.392752 68.026373 0
M  V30 37 H 39.648619 30.158040 53.759412 0
M  V30 38 H 40.234143 25.709821 56.776450 0
M  V30 39 H 38.806922 25.500905 57.747033 0
M  V30 40 H 40.602641 31.292400 51.607104 0
M  V30 41 H 38.180678 26.755037 53.037634 0
M  V30 42 H 36.877715 28.912043 52.690850 0
M  V30 43 H 39.067290 29.621702 63.036512 0
M  V30 44 H 42.267295 34.139320 63.365693 0
M  V30 45 H 39.866711 27.202855 50.950738 0
M  V30 46 H 40.472970 35.669702 66.795194 0
M  V30 47 H 42.095472 35.712353 66.112981 0
M  V30 48 H 40.699286 35.453564 65.070343 0
M  V30 49 H 39.408040 24.835448 54.653411 0
M  V30 50 H 38.156222 24.248115 55.727922 0
M  V30 51 H 37.683726 25.037614 54.253809 0
M  V30 52 H 40.894323 32.772870 62.063134 0
M  V30 53 H 37.400280 26.559755 56.127178 0
M  V30 54 H 39.862533 31.636528 60.805506 0
M  V30 55 H 39.931576 27.738849 54.969862 0
M  V30 56 H 37.728657 28.749821 56.524823 0
M  V30 57 H 38.912900 29.727110 55.697865 0
M  V30 58 H 38.259066 27.955554 50.653831 0
M  V30 59 H 39.866990 29.757593 65.101284 0
M  V30 60 H 40.230935 29.928640 58.250957 0
M  V30 61 H 41.883375 29.570438 58.707186 0
M  V30 62 H 41.227157 29.672671 60.866864 0
M  V30 63 H 40.422020 28.146898 60.652568 0
M  V30 64 H 37.654479 32.376157 61.845392 0
M  V30 65 H 37.526716 31.830536 60.174218 0
M  V30 66 H 37.014501 30.772147 61.478783 0
M  V30 67 H 43.186960 33.562512 65.371415 0
M  V30 68 H 40.267552 33.257511 66.104385 0
M  V30 69 H 38.740893 28.005236 58.031584 0
M  V30 70 H 37.379351 30.288081 54.254887 0
M  V30 END ATOM
M  V30 BEGIN BOND
M  V30 1 2 4 2
M  V30 2 1 8 2
M  V30 3 1 8 6
M  V30 4 1 9 6
M  V30 5 2 12 7
M  V30 6 1 16 4
M  V30 7 2 16 13
M  V30 8 2 18 11
M  V30 9 2 19 5
M  V30 10 1 20 7
M  V30 11 1 21 3
M  V30 12 1 21 15
M  V30 13 1 22 1
M  V30 14 1 22 10
M  V30 15 1 23 6
M  V30 16 1 23 21
M  V30 17 1 24 23
M  V30 18 1 25 17
M  V30 19 1 26 8
M  V30 20 1 26 16
M  V30 21 2 27 20
M  V30 22 1 28 19
M  V30 23 1 29 1
M  V30 24 1 29 28
M  V30 25 1 30 22
M  V30 26 2 31 10
M  V30 27 1 31 18
M  V30 28 1 31 27
M  V30 29 1 32 7
M  V30 30 1 32 11
M  V30 31 1 33 14
M  V30 32 1 33 17
M  V30 33 1 33 32
M  V30 34 1 34 3
M  V30 35 1 34 19
M  V30 36 1 35 9
M  V30 37 1 35 24
M  V30 38 2 36 17
M  V30 39 1 37 2
M  V30 40 1 38 3
M  V30 41 1 39 3
M  V30 42 1 40 4
M  V30 43 1 6 41 CFG=3
M  V30 44 1 42 9
M  V30 45 1 43 10
M  V30 46 1 44 11
M  V30 47 1 45 26
M  V30 48 1 46 14
M  V30 49 1 47 14
M  V30 50 1 48 14
M  V30 51 1 49 15
M  V30 52 1 50 15
M  V30 53 1 51 15
M  V30 54 1 52 18
M  V30 55 1 21 53 CFG=1
M  V30 56 1 22 54 CFG=3
M  V30 57 1 23 55 CFG=3
M  V30 58 1 56 24
M  V30 59 1 57 24
M  V30 60 1 58 26
M  V30 61 1 59 27
M  V30 62 1 60 28
M  V30 63 1 61 28
M  V30 64 1 62 29
M  V30 65 1 63 29
M  V30 66 1 64 30
M  V30 67 1 65 30
M  V30 68 1 66 30
M  V30 69 1 32 67 CFG=3
M  V30 70 1 33 68 CFG=1
M  V30 71 1 69 34
M  V30 72 1 70 35
M  V30 END BOND
M  V30 END CTAB
M  END
>  <i_epik_Tot_Q>  (1) 
-1

>  <i_epik_Tot_abs_Q>  (1) 
1

>  <i_i_glide_confnum>  (1) 
3078

>  <i_i_glide_lignum>  (1) 
43

>  <i_i_glide_posenum>  (1) 
202

>  <i_i_glide_rotatable_bonds>  (1) 
12

>  <i_lp_mmshare_version>  (1) 
72125

>  <i_m_source_file_index>  (1) 
19

>  <i_f3d_flags>  (1) 
0

>  <num_sample>  (1) 
100

>  <b_lp_Chiralities_Consistent>  (1) 
1

>  <r_epik_Charging_Adjusted_Penalty>  (1) 
0.37971815023500188

>  <r_epik_Ionization_Penalty>  (1) 
0.19445293645399606

>  <r_epik_Ionization_Penalty_Charging>  (1) 
0.18991606969001057

>  <r_epik_Ionization_Penalty_Neutral>  (1) 
0.004536866763985496

>  <r_epik_State_Penalty>  (1) 
0.18980208054499129

>  <r_glide_ring_energy>  (1) 
1.845819541117304

>  <r_i_docking_score>  (1) 
-6.8982173652168912

>  <r_i_glide_ecoul>  (1) 
0.3161005906509905

>  <r_i_glide_eff_state_penalty>  (1) 
0.18980208054499129

>  <r_i_glide_einternal>  (1) 
13.758610708350336

>  <r_i_glide_emodel>  (1) 
-66.547660068083417

>  <r_i_glide_emodel_strain>  (1) 
2.1919873222201147

>  <r_i_glide_energy>  (1) 
-51.923702406983203

>  <r_i_glide_erotb>  (1) 
0.89642714384868305

>  <r_i_glide_esite>  (1) 
-0.0056541278321286465

>  <r_i_glide_evdw>  (1) 
-52.239802997634193

>  <r_i_glide_gscore>  (1) 
-7.0880194457618826

>  <r_i_glide_gscore_strain>  (1) 
0

>  <r_i_glide_hbond>  (1) 
0

>  <r_i_glide_ligand_efficiency>  (1) 
-0.19161714903380253

>  <r_i_glide_ligand_efficiency_ln>  (1) 
-1.5050046607946279

>  <r_i_glide_ligand_efficiency_sa>  (1) 
-0.63270588575021536

>  <r_i_glide_lipo>  (1) 
-3.5692145807110331

>  <r_i_glide_metal>  (1) 
-0

>  <r_i_glide_rewards>  (1) 
-1.8450028197833439

>  <r_lp_Energy>  (1) 
26.239971999999998

>  <r_lp_tautomer_probability>  (1) 
0.98846045845713826

>  <s_epik_Chemistry_Notes>  (1) 
This compound has an imine and may undergo hydrolysis. This compound contains an acetal/aminal-like group ( X-CH(R)-Y where X, Y are N, S, or O) that may be acid/base labile, releasing an aldehyde.

>  <s_epik_cmdline>  (1) 
J2VwaWtfcHl0aG9uJywgJy1waHQnLCAnMS4wJywgJy1waCcsICc3LjQnLCAnLXRuJywgJzgnLCAnLW1hJywgJzUwMCcsICctaW1hZScsICc8aW5maWxlLm1hZT4nLCAnLW9tYWUnLCAnPG91dGZpbGUubWFlPic=

>  <s_epik_input>  (1) 
W09IXUMoPU8pW0NASF0oW0NIM10pW0NAQEhdMVtDSF09W0NIXS9DKFtDSF09TkMxPU8pPVtDSF1cW0NASF0oW0NIM10pT1tDSDJdW0NIMl1DKD1PKVtOSF1bQ0gyXVtDQEhdKFtDSDNdKVtDQEBIXTJbQ0gyXVtOSF1bTkhdW0NASF0ybjNbY0hdW2NIXWMoW09IXSlbY0hdMw==

>  <s_glide_docking_method>  (1) 
confgen

>  <s_i_glide_gridfile>  (1) 
gpcr_5ht2c_6bqh_protein_autoprepared_prepared

>  <s_lp_Force_Field>  (1) 
S-OPLS

>  <s_lp_Variant>  (1) 
DiffSBDD_18_num_sample_100-3

>  <s_m_source_file>  (1) 
generated__ligand_DiffSBDD_2026-05-06_prepared.sdf

>  <GenAI_Model>  (1) 
DiffSBDD

>  <Protein>  (1) 
GPCR_5HT2C

$$$$
DiffSBDD_19_num_sample_100
     RDKit          3D

  0  0  0  0  0  0  0  0  0  0999 V3000
M  V30 BEGIN CTAB
M  V30 COUNTS 71 72 0 0 1
M  V30 BEGIN ATOM
M  V30 1 C 39.814116 27.710488 58.687045 0
M  V30 2 C 37.833399 32.288650 58.751074 0
M  V30 3 C 38.983899 28.394726 56.311913 0
M  V30 4 C 38.338728 30.562060 54.315625 0
M  V30 5 O 36.667538 30.166653 58.672179 0
M  V30 6 C 40.773004 28.511219 62.947517 0
M  V30 7 C 37.955533 29.091855 54.044863 0 CFG=1
M  V30 8 C 38.125694 36.478507 61.536826 0
M  V30 9 C 37.267122 35.285489 61.289288 0
M  V30 10 C 39.467390 27.082021 54.220832 0
M  V30 11 C 39.305675 36.504561 62.158726 0
M  V30 12 C 37.847056 28.812105 52.517711 0
M  V30 13 C 38.617269 27.621013 52.018860 0
M  V30 14 O 38.283999 25.304120 58.253514 0
M  V30 15 O 37.278703 26.221817 56.506617 0 CHG=-1
M  V30 16 O 37.515661 37.594161 61.110967 0
M  V30 17 C 39.354349 26.842639 52.808896 0
M  V30 18 N 38.953470 28.645503 59.480723 0 CFG=1 CHG=1
M  V30 19 C 37.732567 30.852965 59.309394 0 CFG=1
M  V30 20 C 40.037899 35.341766 62.652931 0
M  V30 21 C 37.086655 33.359948 59.591471 0 CFG=1
M  V30 22 C 39.920170 34.045365 62.241293 0
M  V30 23 C 39.161140 28.516452 60.956508 0
M  V30 24 C 39.299787 27.236201 57.288709 0 CFG=2
M  V30 25 C 38.188602 26.162173 57.356814 0
M  V30 26 C 39.044500 30.075405 59.077719 0
M  V30 27 C 38.843076 28.111468 54.822611 0
M  V30 28 C 39.040224 33.498494 61.191992 0
M  V30 29 C 42.231684 28.506084 63.417132 0
M  V30 30 C 37.893917 34.039280 60.721058 0
M  V30 31 C 40.636124 28.507716 61.416777 0
M  V30 32 O 36.680254 34.324865 58.653558 0
M  V30 33 H 40.804512 28.154351 58.573908 0
M  V30 34 H 39.973505 26.818311 59.289704 0
M  V30 35 H 37.467601 32.275165 57.721577 0
M  V30 36 H 38.872996 32.595789 58.624446 0
M  V30 37 H 38.069929 28.886119 56.646291 0
M  V30 38 H 39.797096 29.117633 56.350975 0
M  V30 39 H 38.330019 30.804064 55.378077 0
M  V30 40 H 39.334311 30.789796 53.931873 0
M  V30 41 H 37.631239 31.248063 53.853486 0
M  V30 42 H 36.210830 30.756805 58.068083 0
M  V30 43 H 40.268418 29.384103 63.363599 0
M  V30 44 H 40.267774 27.640790 63.365713 0
M  V30 45 H 36.959385 28.943285 54.461447 0
M  V30 46 H 36.815123 35.017522 62.242961 0
M  V30 47 H 36.406347 35.582797 60.691390 0
M  V30 48 H 40.085890 26.422948 54.807102 0
M  V30 49 H 39.759164 37.473046 62.316936 0
M  V30 50 H 38.280351 29.621331 51.947007 0
M  V30 51 H 36.803730 28.705385 52.224122 0
M  V30 52 H 38.559607 27.411510 50.960406 0
M  V30 53 H 36.706713 37.338066 60.695132 0
M  V30 54 H 39.884006 26.021424 52.374332 0
M  V30 55 H 37.512204 30.895800 60.375974 0
M  V30 56 H 40.797942 35.538237 63.396082 0
M  V30 57 H 36.174664 32.936616 60.018869 0
M  V30 58 H 40.601633 33.342680 62.698469 0
M  V30 59 H 38.667378 29.335975 61.475725 0
M  V30 60 H 38.667401 27.621426 61.310354 0
M  V30 61 H 40.154824 26.694899 56.887160 0
M  V30 62 H 39.336785 30.205190 58.044984 0
M  V30 63 H 39.843970 30.542018 59.648452 0
M  V30 64 H 39.352274 32.565612 60.757907 0
M  V30 65 H 42.287347 28.503760 64.505409 0
M  V30 66 H 42.759125 27.621373 63.059628 0
M  V30 67 H 42.769705 29.383235 63.058343 0
M  V30 68 H 41.157655 27.635493 61.025583 0
M  V30 69 H 41.151321 29.377183 61.017475 0
M  V30 70 H 36.221278 33.884436 57.949390 0
M  V30 71 H 37.994390 28.383378 59.287199 0
M  V30 END ATOM
M  V30 BEGIN BOND
M  V30 1 1 7 4
M  V30 2 1 9 8
M  V30 3 2 11 8
M  V30 4 1 12 7
M  V30 5 1 13 12
M  V30 6 1 16 8
M  V30 7 1 17 10
M  V30 8 2 17 13
M  V30 9 1 18 1
M  V30 10 1 19 2
M  V30 11 1 19 5
M  V30 12 1 20 11
M  V30 13 1 21 2
M  V30 14 2 22 20
M  V30 15 1 23 18
M  V30 16 1 24 1
M  V30 17 1 24 3
M  V30 18 2 25 14
M  V30 19 1 25 15
M  V30 20 1 25 24
M  V30 21 1 26 18
M  V30 22 1 26 19
M  V30 23 1 27 3
M  V30 24 1 27 7
M  V30 25 2 27 10
M  V30 26 1 28 22
M  V30 27 1 29 6
M  V30 28 1 30 9
M  V30 29 1 30 21
M  V30 30 2 30 28
M  V30 31 1 31 6
M  V30 32 1 31 23
M  V30 33 1 32 21
M  V30 34 1 33 1
M  V30 35 1 34 1
M  V30 36 1 35 2
M  V30 37 1 36 2
M  V30 38 1 37 3
M  V30 39 1 38 3
M  V30 40 1 39 4
M  V30 41 1 40 4
M  V30 42 1 41 4
M  V30 43 1 42 5
M  V30 44 1 43 6
M  V30 45 1 44 6
M  V30 46 1 7 45 CFG=1
M  V30 47 1 46 9
M  V30 48 1 47 9
M  V30 49 1 48 10
M  V30 50 1 49 11
M  V30 51 1 50 12
M  V30 52 1 51 12
M  V30 53 1 52 13
M  V30 54 1 53 16
M  V30 55 1 54 17
M  V30 56 1 19 55 CFG=1
M  V30 57 1 56 20
M  V30 58 1 21 57 CFG=1
M  V30 59 1 58 22
M  V30 60 1 59 23
M  V30 61 1 60 23
M  V30 62 1 24 61 CFG=3
M  V30 63 1 62 26
M  V30 64 1 63 26
M  V30 65 1 64 28
M  V30 66 1 65 29
M  V30 67 1 66 29
M  V30 68 1 67 29
M  V30 69 1 68 31
M  V30 70 1 69 31
M  V30 71 1 70 32
M  V30 72 1 18 71 CFG=1
M  V30 END BOND
M  V30 END CTAB
M  END
>  <i_epik_Tot_Q>  (1) 
0

>  <i_epik_Tot_abs_Q>  (1) 
2

>  <i_i_glide_confnum>  (1) 
1764

>  <i_i_glide_lignum>  (1) 
50

>  <i_i_glide_posenum>  (1) 
329

>  <i_i_glide_rotatable_bonds>  (1) 
16

>  <i_lp_mmshare_version>  (1) 
72125

>  <i_m_source_file_index>  (1) 
20

>  <i_f3d_flags>  (1) 
0

>  <num_sample>  (1) 
100

>  <b_lp_Chiralities_Consistent>  (1) 
1

>  <r_epik_Charging_Adjusted_Penalty>  (1) 
0.015037487925518506

>  <r_epik_Ionization_Penalty>  (1) 
0.015045499532085388

>  <r_epik_Ionization_Penalty_Charging>  (1) 
0.0012943130925640431

>  <r_epik_Ionization_Penalty_Neutral>  (1) 
0.013751186439521345

>  <r_epik_State_Penalty>  (1) 
0.013743174832954463

>  <r_glide_ring_energy>  (1) 
0

>  <r_i_docking_score>  (1) 
-6.8970319753608944

>  <r_i_glide_ecoul>  (1) 
-4.4322105846004893

>  <r_i_glide_eff_state_penalty>  (1) 
0.013743174832954463

>  <r_i_glide_einternal>  (1) 
15.584609022920219

>  <r_i_glide_emodel>  (1) 
-59.147542929578556

>  <r_i_glide_emodel_strain>  (1) 
3.4066519897532146

>  <r_i_glide_energy>  (1) 
-44.298423589292561

>  <r_i_glide_erotb>  (1) 
1.1084889849388277

>  <r_i_glide_esite>  (1) 
0

>  <r_i_glide_evdw>  (1) 
-39.866213004692071

>  <r_i_glide_gscore>  (1) 
-6.9107751501938486

>  <r_i_glide_gscore_strain>  (1) 
0

>  <r_i_glide_hbond>  (1) 
-0.16638221263542785

>  <r_i_glide_ligand_efficiency>  (1) 
-0.21553224923002795

>  <r_i_glide_ligand_efficiency_ln>  (1) 
-1.5444334652743128

>  <r_i_glide_ligand_efficiency_sa>  (1) 
-0.68427223832163719

>  <r_i_glide_lipo>  (1) 
-3.7850799581999057

>  <r_i_glide_metal>  (1) 
-0

>  <r_i_glide_rewards>  (1) 
-1.4096597263726665

>  <r_lp_Energy>  (1) 
27.634533999999999

>  <s_epik_cmdline>  (1) 
J2VwaWtfcHl0aG9uJywgJy1waHQnLCAnMS4wJywgJy1waCcsICc3LjQnLCAnLXRuJywgJzgnLCAnLW1hJywgJzUwMCcsICctaW1hZScsICc8aW5maWxlLm1hZT4nLCAnLW9tYWUnLCAnPG91dGZpbGUubWFlPic=

>  <s_epik_input>  (1) 
W0NIM11bQ0BIXTFbQ0gyXVtDSF09W0NIXVtDSF09QzFbQ0gyXVtDQEhdKEMoPU8pW09IXSlbQ0gyXU4oW0NIMl1bQ0gyXVtDSDJdW0NIM10pW0NIMl1bQ0BIXShbT0hdKVtDSDJdW0NASF0oW09IXSlDKFtDSDJdMik9W0NIXVtDSF09W0NIXVtDSF09QzJbT0hd

>  <s_glide_docking_method>  (1) 
confgen

>  <s_i_glide_gridfile>  (1) 
gpcr_5ht2c_6bqh_protein_autoprepared_prepared

>  <s_lp_Force_Field>  (1) 
S-OPLS

>  <s_lp_Variant>  (1) 
DiffSBDD_19_num_sample_100-2

>  <s_m_source_file>  (1) 
generated__ligand_DiffSBDD_2026-05-06_prepared.sdf

>  <GenAI_Model>  (1) 
DiffSBDD

>  <Protein>  (1) 
GPCR_5HT2C

$$$$
DiffSBDD_48_num_sample_100
     RDKit          3D

  0  0  0  0  0  0  0  0  0  0999 V3000
M  V30 BEGIN CTAB
M  V30 COUNTS 71 75 0 0 1
M  V30 BEGIN ATOM
M  V30 1 C 41.245400 33.892303 63.788654 0
M  V30 2 C 38.280293 30.721135 55.271399 0 CFG=1
M  V30 3 C 39.728197 33.539060 61.461705 0
M  V30 4 C 45.044313 30.532029 66.265444 0
M  V30 5 C 41.307409 31.816221 65.929572 0
M  V30 6 C 38.740900 31.657065 60.496771 0 CFG=1
M  V30 7 O 37.866223 29.173643 53.451693 0
M  V30 8 O 38.532105 26.950142 55.002265 0
M  V30 9 C 40.802263 31.469720 64.508596 0
M  V30 10 C 37.332087 31.103608 60.194097 0
M  V30 11 C 38.916794 33.241728 60.247683 0
M  V30 12 N 39.218055 31.351241 61.878782 0
M  V30 13 C 37.382770 29.741958 58.070838 0
M  V30 14 C 38.624476 28.082909 55.476711 0
M  V30 15 C 40.318509 27.487701 57.334487 0
M  V30 16 C 42.853556 31.883151 66.090188 0 CFG=1
M  V30 17 N 37.068578 31.027513 58.736335 0 CHG=1
M  V30 18 C 38.833183 29.679197 57.516847 0 CFG=2
M  V30 19 C 43.288355 32.617082 67.376523 0
M  V30 20 C 41.075876 34.969588 62.883994 0
M  V30 21 C 39.922060 30.090836 62.096803 0
M  V30 22 O 38.989043 27.205282 57.778510 0
M  V30 23 O 42.478579 33.212207 68.086014 0
M  V30 24 O 39.067403 32.064328 57.110001 0
M  V30 25 C 39.181282 30.788817 56.506893 0 CFG=2
M  V30 26 C 44.777883 32.584008 67.728535 0
M  V30 27 C 38.662645 31.803978 54.247861 0
M  V30 28 C 38.224658 29.320670 54.617954 0
M  V30 29 C 39.135768 28.326368 56.889889 0 CFG=1
M  V30 30 C 43.524815 30.487709 66.019266 0
M  V30 31 C 40.642964 32.633614 63.515293 0
M  V30 32 C 39.876255 32.498107 62.311636 0
M  V30 33 C 40.312683 34.790113 61.711786 0
M  V30 34 C 45.365020 31.171998 67.622098 0
M  V30 35 H 41.826700 34.036971 64.684816 0
M  V30 36 H 37.258159 30.941133 55.581315 0
M  V30 37 H 45.531677 31.097065 65.469911 0
M  V30 38 H 45.464448 29.526070 66.225937 0
M  V30 39 H 40.812223 32.727063 66.269268 0
M  V30 40 H 40.946894 31.041066 66.607772 0
M  V30 41 H 39.465968 31.165630 59.855954 0
M  V30 42 H 39.819056 31.022567 64.640622 0
M  V30 43 H 41.450933 30.707562 64.085482 0
M  V30 44 H 36.586620 31.755170 60.651364 0
M  V30 45 H 37.194668 30.120642 60.644689 0
M  V30 46 H 39.456223 33.478575 59.331210 0
M  V30 47 H 37.972540 33.785200 60.281886 0
M  V30 48 H 36.667218 29.621355 57.258366 0
M  V30 49 H 37.191325 28.908658 58.746503 0
M  V30 50 H 40.734916 26.736956 56.664331 0
M  V30 51 H 40.980098 27.860508 58.113803 0
M  V30 52 H 37.611175 31.741361 58.258089 0
M  V30 53 H 39.523013 29.768868 58.352268 0
M  V30 54 H 41.531877 35.927454 63.091560 0
M  V30 55 H 41.003658 30.208145 62.036247 0
M  V30 56 H 39.641696 29.622705 63.039798 0
M  V30 57 H 39.641184 29.378090 61.320671 0
M  V30 58 H 45.310775 33.236422 67.040938 0
M  V30 59 H 39.299859 32.722878 56.469322 0
M  V30 60 H 40.217962 30.676222 56.187422 0
M  V30 61 H 44.925268 32.977765 68.734498 0
M  V30 62 H 43.253026 32.482169 65.274095 0
M  V30 63 H 37.926834 31.851319 53.453611 0
M  V30 64 H 38.674177 32.799303 54.689507 0
M  V30 65 H 39.640724 31.616945 53.803976 0
M  V30 66 H 43.059545 29.820566 66.746941 0
M  V30 67 H 43.352488 30.036629 65.042902 0
M  V30 68 H 40.182161 35.605004 61.014102 0
M  V30 69 H 46.445813 31.226800 67.757067 0
M  V30 70 H 44.981896 30.548299 68.430868 0
M  V30 71 H 36.096323 31.234764 58.517868 0
M  V30 END ATOM
M  V30 BEGIN BOND
M  V30 1 1 9 5
M  V30 2 1 10 6
M  V30 3 1 11 3
M  V30 4 1 11 6
M  V30 5 1 12 6
M  V30 6 2 14 8
M  V30 7 1 16 5
M  V30 8 1 17 10
M  V30 9 1 17 13
M  V30 10 1 18 13
M  V30 11 1 19 16
M  V30 12 2 20 1
M  V30 13 1 21 12
M  V30 14 1 22 15
M  V30 15 2 23 19
M  V30 16 1 25 2
M  V30 17 1 25 18
M  V30 18 1 25 24
M  V30 19 1 26 19
M  V30 20 1 27 2
M  V30 21 1 28 2
M  V30 22 2 28 7
M  V30 23 1 28 14
M  V30 24 1 29 14
M  V30 25 1 29 15
M  V30 26 1 29 18
M  V30 27 1 29 22 CFG=1
M  V30 28 1 30 4
M  V30 29 1 30 16
M  V30 30 1 31 1
M  V30 31 1 31 9
M  V30 32 1 32 3
M  V30 33 1 32 12
M  V30 34 2 32 31
M  V30 35 2 33 3
M  V30 36 1 33 20
M  V30 37 1 34 4
M  V30 38 1 34 26
M  V30 39 1 35 1
M  V30 40 1 2 36 CFG=1
M  V30 41 1 37 4
M  V30 42 1 38 4
M  V30 43 1 39 5
M  V30 44 1 40 5
M  V30 45 1 6 41 CFG=3
M  V30 46 1 42 9
M  V30 47 1 43 9
M  V30 48 1 44 10
M  V30 49 1 45 10
M  V30 50 1 46 11
M  V30 51 1 47 11
M  V30 52 1 48 13
M  V30 53 1 49 13
M  V30 54 1 50 15
M  V30 55 1 51 15
M  V30 56 1 52 17
M  V30 57 1 18 53 CFG=1
M  V30 58 1 54 20
M  V30 59 1 55 21
M  V30 60 1 56 21
M  V30 61 1 57 21
M  V30 62 1 58 26
M  V30 63 1 59 24
M  V30 64 1 25 60 CFG=3
M  V30 65 1 61 26
M  V30 66 1 16 62 CFG=3
M  V30 67 1 63 27
M  V30 68 1 64 27
M  V30 69 1 65 27
M  V30 70 1 66 30
M  V30 71 1 67 30
M  V30 72 1 68 33
M  V30 73 1 69 34
M  V30 74 1 70 34
M  V30 75 1 71 17
M  V30 END BOND
M  V30 END CTAB
M  END
>  <i_epik_Tot_Q>  (1) 
1

>  <i_epik_Tot_abs_Q>  (1) 
1

>  <i_i_glide_confnum>  (1) 
264

>  <i_i_glide_lignum>  (1) 
131

>  <i_i_glide_posenum>  (1) 
319

>  <i_i_glide_rotatable_bonds>  (1) 
8

>  <i_lp_mmshare_version>  (1) 
72125

>  <i_m_source_file_index>  (1) 
49

>  <i_f3d_flags>  (1) 
0

>  <num_sample>  (1) 
100

>  <b_lp_Chiralities_Consistent>  (1) 
1

>  <r_epik_Charging_Adjusted_Penalty>  (1) 
0.027363245261170371

>  <r_epik_Ionization_Penalty>  (1) 
0.0277407901544389

>  <r_epik_Ionization_Penalty_Charging>  (1) 
0.027363245261170371

>  <r_epik_Ionization_Penalty_Neutral>  (1) 
0.00037754489326852995

>  <r_epik_State_Penalty>  (1) 
-0

>  <r_glide_ring_energy>  (1) 
0

>  <r_i_docking_score>  (1) 
-6.8949682776506407

>  <r_i_glide_ecoul>  (1) 
-5.2085766900114523

>  <r_i_glide_eff_state_penalty>  (1) 
-0

>  <r_i_glide_einternal>  (1) 
7.1534147231097105

>  <r_i_glide_emodel>  (1) 
-69.204907329121411

>  <r_i_glide_emodel_strain>  (1) 
0.26333064587711874

>  <r_i_glide_energy>  (1) 
-49.093857274020948

>  <r_i_glide_erotb>  (1) 
0.64114366914740972

>  <r_i_glide_esite>  (1) 
-0.10000000000000001

>  <r_i_glide_evdw>  (1) 
-43.885280584009493

>  <r_i_glide_gscore>  (1) 
-6.8949682776506407

>  <r_i_glide_gscore_strain>  (1) 
0

>  <r_i_glide_hbond>  (1) 
-0.12276792433615379

>  <r_i_glide_ligand_efficiency>  (1) 
-0.20279318463678356

>  <r_i_glide_ligand_efficiency_ln>  (1) 
-1.5232918898424113

>  <r_i_glide_ligand_efficiency_sa>  (1) 
-0.65697119416796768

>  <r_i_glide_lipo>  (1) 
-2.793006492356787

>  <r_i_glide_metal>  (1) 
-0

>  <r_i_glide_rewards>  (1) 
-1.5447869974029178

>  <r_lp_Energy>  (1) 
35.25817

>  <r_lp_tautomer_probability>  (1) 
1

>  <s_epik_cmdline>  (1) 
J2VwaWtfcHl0aG9uJywgJy1waHQnLCAnMS4wJywgJy1waCcsICc3LjQnLCAnLXRuJywgJzgnLCAnLW1hJywgJzUwMCcsICctaW1hZScsICc8aW5maWxlLm1hZT4nLCAnLW9tYWUnLCAnPG91dGZpbGUubWFlPic=

>  <s_epik_input>  (1) 
W0NIMl0xW0NIMl1bQ0gyXVtDSDJdQyhbT0hdKT1DMVtDSDJdW0NIMl1jKFtjSF1bY0hdW2NIXTIpYyhjMjMpTihbQ0gzXSlbQ0BIXShbQ0gyXTMpW0NIMl1bTkhdW0NIMl1bQ0BASF00W0NASF0oW09IXSlbQ0BASF0oW0NIM10pQyg9TylDKD1PKVtDQEBdNDVbQ0gyXU81

>  <s_glide_docking_method>  (1) 
confgen

>  <s_i_glide_gridfile>  (1) 
gpcr_5ht2c_6bqh_protein_autoprepared_prepared

>  <s_lp_Force_Field>  (1) 
S-OPLS

>  <s_lp_Variant>  (1) 
DiffSBDD_48_num_sample_100-1

>  <s_m_source_file>  (1) 
generated__ligand_DiffSBDD_2026-05-06_prepared.sdf

>  <GenAI_Model>  (1) 
DiffSBDD

>  <Protein>  (1) 
GPCR_5HT2C

$$$$
DiffSBDD_39_num_sample_100
     RDKit          3D

  0  0  0  0  0  0  0  0  0  0999 V3000
M  V30 BEGIN CTAB
M  V30 COUNTS 60 63 0 0 1
M  V30 BEGIN ATOM
M  V30 1 C 39.614153 32.166824 62.575963 0
M  V30 2 C 38.027673 30.240220 57.213283 0
M  V30 3 C 35.642255 32.560472 61.189909 0
M  V30 4 C 36.782701 29.658125 57.902094 0
M  V30 5 C 38.356321 31.000742 60.744969 0
M  V30 6 C 39.776219 28.425894 56.934913 0
M  V30 7 N 38.991541 26.421307 53.842416 0
M  V30 8 O 35.731620 33.731488 61.619308 0 CHG=-1
M  V30 9 C 39.471708 28.118537 55.519872 0
M  V30 10 C 38.867205 33.546479 60.689419 0
M  V30 11 O 35.067697 31.622294 61.777653 0
M  V30 12 C 39.447808 34.676250 61.316206 0
M  V30 13 C 40.100378 34.548276 62.559601 0
M  V30 14 N 37.258700 31.109317 59.929658 0
M  V30 15 C 40.882951 33.127818 64.532524 0
M  V30 16 C 36.790426 33.390719 59.067980 0
M  V30 17 C 38.917307 26.995287 51.476500 0
M  V30 18 C 36.709555 29.830155 59.420205 0
M  V30 19 C 42.657158 33.622361 66.185228 0
M  V30 20 C 39.468322 29.122252 54.500687 0
M  V30 21 C 36.265289 32.200391 59.843987 0 CFG=2
M  V30 22 C 39.377085 28.271686 50.697368 0
M  V30 23 O 43.662012 32.882230 66.120801 0 CHG=-1
M  V30 24 C 38.938770 32.271086 61.342086 0
M  V30 25 S 39.467548 29.739406 51.821957 0
M  V30 26 C 39.289283 28.693788 53.174826 0
M  V30 27 O 39.758265 30.433262 54.778443 0 CHG=-1
M  V30 28 C 40.187660 33.288923 63.184428 0
M  V30 29 Cl 39.290390 25.523416 56.321691 0
M  V30 30 C 42.034426 34.076054 64.860809 0
M  V30 31 C 39.250417 26.772756 55.124780 0
M  V30 32 C 39.185609 29.380497 57.669932 0
M  V30 33 C 38.244527 33.710661 59.307840 0
M  V30 34 O 38.859434 29.914963 61.045962 0
M  V30 35 C 39.058852 27.385455 52.910086 0
M  V30 36 O 42.108595 34.020938 67.234095 0
M  V30 37 H 39.680886 31.205524 63.066409 0
M  V30 38 H 38.195721 31.292059 57.430805 0
M  V30 39 H 37.804940 30.171276 56.156651 0
M  V30 40 H 35.871605 30.020677 57.453051 0
M  V30 41 H 36.744344 28.588346 57.698401 0
M  V30 42 H 40.541040 27.820119 57.397195 0
M  V30 43 H 39.402801 35.641336 60.834028 0
M  V30 44 H 40.537012 35.415886 63.027001 0
M  V30 45 H 40.147178 33.198149 65.329147 0
M  V30 46 H 41.260933 32.103649 64.578446 0
M  V30 47 H 36.172326 34.270817 59.257565 0
M  V30 48 H 36.668874 33.221535 57.999163 0
M  V30 49 H 39.502929 26.114635 51.226336 0
M  V30 50 H 37.867433 26.822269 51.272628 0
M  V30 51 H 35.677665 29.714643 59.744533 0
M  V30 52 H 37.196520 28.950686 59.833929 0
M  V30 53 H 35.404814 31.856449 59.267722 0
M  V30 54 H 38.719267 28.461337 49.853638 0
M  V30 55 H 40.372020 28.109144 50.294762 0
M  V30 56 H 42.752109 34.056695 64.049801 0
M  V30 57 H 41.691652 35.106387 64.954468 0
M  V30 58 H 39.521466 29.537066 58.680311 0
M  V30 59 H 38.267272 34.762130 59.063151 0
M  V30 60 H 38.873656 33.194556 58.581371 0
M  V30 END ATOM
M  V30 BEGIN BOND
M  V30 1 1 4 2
M  V30 2 1 8 3
M  V30 3 1 9 6
M  V30 4 2 11 3
M  V30 5 1 12 10
M  V30 6 2 13 12
M  V30 7 1 14 5
M  V30 8 1 18 4
M  V30 9 1 18 14
M  V30 10 2 20 9
M  V30 11 1 21 3
M  V30 12 1 21 14
M  V30 13 1 21 16
M  V30 14 1 22 17
M  V30 15 1 23 19
M  V30 16 1 24 1
M  V30 17 1 24 5
M  V30 18 2 24 10
M  V30 19 1 25 22
M  V30 20 1 26 20
M  V30 21 1 26 25
M  V30 22 1 27 20
M  V30 23 2 28 1
M  V30 24 1 28 13
M  V30 25 1 28 15
M  V30 26 1 30 15
M  V30 27 1 30 19
M  V30 28 2 31 7
M  V30 29 1 31 9
M  V30 30 1 31 29
M  V30 31 1 32 2
M  V30 32 2 32 6
M  V30 33 1 33 10
M  V30 34 1 33 16
M  V30 35 2 34 5
M  V30 36 1 35 7
M  V30 37 1 35 17
M  V30 38 2 35 26
M  V30 39 2 36 19
M  V30 40 1 37 1
M  V30 41 1 38 2
M  V30 42 1 39 2
M  V30 43 1 40 4
M  V30 44 1 41 4
M  V30 45 1 42 6
M  V30 46 1 43 12
M  V30 47 1 44 13
M  V30 48 1 45 15
M  V30 49 1 46 15
M  V30 50 1 47 16
M  V30 51 1 48 16
M  V30 52 1 49 17
M  V30 53 1 50 17
M  V30 54 1 51 18
M  V30 55 1 52 18
M  V30 56 1 21 53 CFG=3
M  V30 57 1 54 22
M  V30 58 1 55 22
M  V30 59 1 56 30
M  V30 60 1 57 30
M  V30 61 1 58 32
M  V30 62 1 59 33
M  V30 63 1 60 33
M  V30 END BOND
M  V30 END CTAB
M  END
>  <i_epik_Tot_Q>  (1) 
-3

>  <i_epik_Tot_abs_Q>  (1) 
3

>  <i_i_glide_confnum>  (1) 
275

>  <i_i_glide_lignum>  (1) 
95

>  <i_i_glide_posenum>  (1) 
305

>  <i_i_glide_rotatable_bonds>  (1) 
9

>  <i_lp_mmshare_version>  (1) 
72125

>  <i_m_source_file_index>  (1) 
40

>  <i_f3d_flags>  (1) 
0

>  <num_sample>  (1) 
100

>  <b_lp_Chiralities_Consistent>  (1) 
1

>  <r_epik_Charging_Adjusted_Penalty>  (1) 
0.2804944600534911

>  <r_epik_Ionization_Penalty>  (1) 
0.1893944324441556

>  <r_epik_Ionization_Penalty_Charging>  (1) 
0.1048911762492778

>  <r_epik_Ionization_Penalty_Neutral>  (1) 
0.084503256194877821

>  <r_epik_State_Penalty>  (1) 
0.17560328380421328

>  <r_glide_ring_energy>  (1) 
0

>  <r_i_docking_score>  (1) 
-6.8941123536967623

>  <r_i_glide_ecoul>  (1) 
-3.6949482378685703

>  <r_i_glide_eff_state_penalty>  (1) 
0.17560328380421328

>  <r_i_glide_einternal>  (1) 
12.002753916298062

>  <r_i_glide_emodel>  (1) 
-46.993305441637048

>  <r_i_glide_emodel_strain>  (1) 
3.3415276372362968

>  <r_i_glide_energy>  (1) 
-37.528620895416324

>  <r_i_glide_erotb>  (1) 
0.44331424450836554

>  <r_i_glide_esite>  (1) 
-0.048578911587960974

>  <r_i_glide_evdw>  (1) 
-33.833672657547751

>  <r_i_glide_gscore>  (1) 
-7.069715637500976

>  <r_i_glide_gscore_strain>  (1) 
0

>  <r_i_glide_hbond>  (1) 
-0.096928973746742766

>  <r_i_glide_ligand_efficiency>  (1) 
-0.19150312093602118

>  <r_i_glide_ligand_efficiency_ln>  (1) 
-1.5041090581855305

>  <r_i_glide_ligand_efficiency_sa>  (1) 
-0.63232937326701155

>  <r_i_glide_lipo>  (1) 
-4.040488952843428

>  <r_i_glide_metal>  (1) 
-0

>  <r_i_glide_rewards>  (1) 
-1.0811071752735368

>  <r_lp_Energy>  (1) 
59.773787999999996

>  <s_epik_cmdline>  (1) 
J2VwaWtfcHl0aG9uJywgJy1waHQnLCAnMS4wJywgJy1waCcsICc3LjQnLCAnLXRuJywgJzgnLCAnLW1hJywgJzUwMCcsICctaW1hZScsICc8aW5maWxlLm1hZT4nLCAnLW9tYWUnLCAnPG91dGZpbGUubWFlPic=

>  <s_epik_input>  (1) 
W09IXUMoPU8pW0NIMl1bQ0gyXWMoW2NIXVtjSF0xKVtjSF1jKGMxMilDKD1PKU4oW0NAQEhdKEMoPU8pW09IXSlbQ0gyXVtDSDJdMilbQ0gyXVtDSDJdW0NIMl0vW0NIXT1bQ0hdXGMoYzNbT0hdKWMoQ2wpbmMoYzM0KVtDSDJdW0NIMl1TNA==

>  <s_glide_docking_method>  (1) 
confgen

>  <s_i_glide_gridfile>  (1) 
gpcr_5ht2c_6bqh_protein_autoprepared_prepared

>  <s_lp_Force_Field>  (1) 
S-OPLS

>  <s_lp_Variant>  (1) 
DiffSBDD_39_num_sample_100-2

>  <s_m_source_file>  (1) 
generated__ligand_DiffSBDD_2026-05-06_prepared.sdf

>  <GenAI_Model>  (1) 
DiffSBDD

>  <Protein>  (1) 
GPCR_5HT2C

$$$$
DiffSBDD_44_num_sample_100
     RDKit          3D

  0  0  0  0  0  0  0  0  0  0999 V3000
M  V30 BEGIN CTAB
M  V30 COUNTS 58 59 0 0 1
M  V30 BEGIN ATOM
M  V30 1 C 35.905174 31.421932 59.936607 0
M  V30 2 O 39.097220 30.627760 56.799603 0 CHG=-1
M  V30 3 C 39.382194 29.634197 53.402064 0
M  V30 4 C 38.266612 31.548324 59.264858 0 CFG=1
M  V30 5 N 37.467072 30.759234 58.287508 0 CFG=2 CHG=1
M  V30 6 C 39.138691 27.508647 52.187512 0
M  V30 7 N 39.717348 27.535442 55.632491 0
M  V30 8 C 39.067403 28.364702 53.445119 0
M  V30 9 O 37.840917 26.501559 54.480545 0
M  V30 10 C 37.194447 32.245263 60.133821 0 CFG=1
M  V30 11 C 37.004363 33.723657 59.757844 0
M  V30 12 C 38.545126 28.460108 57.641583 0 CFG=1
M  V30 13 C 39.749244 27.862701 56.870514 0
M  V30 14 C 36.293485 30.259497 59.022272 0
M  V30 15 C 38.487713 25.261622 54.734269 0
M  V30 16 C 40.246193 30.723601 51.365809 0
M  V30 17 C 38.083666 29.912224 57.215911 0 CFG=2
M  V30 18 C 38.580092 27.704267 54.726119 0 CFG=1
M  V30 19 F 40.267553 29.621082 49.333155 0
M  V30 20 C 39.737884 29.503450 50.546470 0 CFG=1
M  V30 21 C 39.867187 30.705162 52.836891 0
M  V30 22 C 37.423425 27.404683 57.705714 0
M  V30 23 C 41.000253 27.678403 57.703077 0
M  V30 24 C 39.196370 30.691739 60.151259 0
M  V30 25 C 40.065897 28.089574 51.082476 0
M  V30 26 H 35.133207 32.024103 59.454062 0
M  V30 27 H 35.490104 31.067707 60.879703 0
M  V30 28 H 38.868811 32.290720 58.737708 0
M  V30 29 H 39.521588 26.523436 52.446010 0
M  V30 30 H 38.127075 27.363531 51.805789 0
M  V30 31 H 37.483334 32.209009 61.185056 0
M  V30 32 H 36.716295 33.829273 58.710402 0
M  V30 33 H 36.227862 34.188875 60.366325 0
M  V30 34 H 37.926095 34.287106 59.908803 0
M  V30 35 H 38.873957 28.537061 58.673200 0
M  V30 36 H 35.478641 29.978859 58.354167 0
M  V30 37 H 36.573482 29.399121 59.627502 0
M  V30 38 H 37.873135 24.450590 54.343969 0
M  V30 39 H 39.474288 25.220543 54.272125 0
M  V30 40 H 38.605538 25.092078 55.804718 0
M  V30 41 H 39.826774 31.622382 50.921296 0
M  V30 42 H 41.327354 30.818828 51.274791 0
M  V30 43 H 37.223600 29.774309 56.561622 0
M  V30 44 H 37.838130 28.392167 55.106813 0
M  V30 45 H 38.667376 29.576608 50.416616 0
M  V30 46 H 40.004305 31.620564 53.391936 0
M  V30 47 H 37.730277 26.548973 58.306670 0
M  V30 48 H 36.511646 27.821671 58.114467 0
M  V30 49 H 37.137149 26.988738 56.747041 0
M  V30 50 H 41.342684 28.642500 58.076917 0
M  V30 51 H 40.792682 27.027908 58.552421 0
M  V30 52 H 41.801637 27.230664 57.114665 0
M  V30 53 H 39.740106 31.320556 60.855732 0
M  V30 54 H 38.644422 29.951462 60.731948 0
M  V30 55 H 39.945548 30.169290 59.561639 0
M  V30 56 H 41.084317 28.114303 51.453546 0
M  V30 57 H 40.059756 27.383623 50.253451 0
M  V30 58 H 37.025679 31.474134 57.713246 0
M  V30 END ATOM
M  V30 BEGIN BOND
M  V30 1 1 5 4
M  V30 2 2 8 3
M  V30 3 1 8 6
M  V30 4 1 10 1
M  V30 5 1 10 4
M  V30 6 1 11 10
M  V30 7 2 13 7
M  V30 8 1 13 12
M  V30 9 1 14 1
M  V30 10 1 14 5
M  V30 11 1 15 9
M  V30 12 1 17 2
M  V30 13 1 17 5
M  V30 14 1 17 12
M  V30 15 1 18 7
M  V30 16 1 18 8
M  V30 17 1 18 9
M  V30 18 1 20 16
M  V30 19 1 20 19
M  V30 20 2 21 3
M  V30 21 1 21 16
M  V30 22 1 22 12
M  V30 23 1 23 13
M  V30 24 1 24 4
M  V30 25 1 25 6
M  V30 26 1 25 20
M  V30 27 1 26 1
M  V30 28 1 27 1
M  V30 29 1 4 28 CFG=3
M  V30 30 1 29 6
M  V30 31 1 30 6
M  V30 32 1 10 31 CFG=1
M  V30 33 1 32 11
M  V30 34 1 33 11
M  V30 35 1 34 11
M  V30 36 1 12 35 CFG=1
M  V30 37 1 36 14
M  V30 38 1 37 14
M  V30 39 1 38 15
M  V30 40 1 39 15
M  V30 41 1 40 15
M  V30 42 1 41 16
M  V30 43 1 42 16
M  V30 44 1 17 43 CFG=3
M  V30 45 1 18 44 CFG=1
M  V30 46 1 20 45 CFG=3
M  V30 47 1 46 21
M  V30 48 1 47 22
M  V30 49 1 48 22
M  V30 50 1 49 22
M  V30 51 1 50 23
M  V30 52 1 51 23
M  V30 53 1 52 23
M  V30 54 1 53 24
M  V30 55 1 54 24
M  V30 56 1 55 24
M  V30 57 1 56 25
M  V30 58 1 57 25
M  V30 59 1 5 58 CFG=3
M  V30 END BOND
M  V30 END CTAB
M  END
>  <i_epik_Tot_Q>  (1) 
0

>  <i_epik_Tot_abs_Q>  (1) 
2

>  <i_i_glide_confnum>  (1) 
3

>  <i_i_glide_lignum>  (1) 
115

>  <i_i_glide_posenum>  (1) 
184

>  <i_i_glide_rotatable_bonds>  (1) 
6

>  <i_lp_mmshare_version>  (1) 
72125

>  <i_m_source_file_index>  (1) 
45

>  <i_f3d_flags>  (1) 
0

>  <num_sample>  (1) 
100

>  <b_lp_Chiralities_Consistent>  (1) 
1

>  <r_epik_Charging_Adjusted_Penalty>  (1) 
0.41733257654759531

>  <r_epik_Ionization_Penalty>  (1) 
0.0069177268181324029

>  <r_epik_Ionization_Penalty_Charging>  (1) 
0.0066527375949913311

>  <r_epik_Ionization_Penalty_Neutral>  (1) 
0.00026498922314107146

>  <r_epik_State_Penalty>  (1) 
0.41067983895260396

>  <r_glide_ring_energy>  (1) 
0

>  <r_i_docking_score>  (1) 
-6.888875442753859

>  <r_i_glide_ecoul>  (1) 
-2.9968324747796302

>  <r_i_glide_eff_state_penalty>  (1) 
0.41067983895260396

>  <r_i_glide_einternal>  (1) 
14.20107222344329

>  <r_i_glide_emodel>  (1) 
-41.580904800623308

>  <r_i_glide_emodel_strain>  (1) 
0.73207119090687911

>  <r_i_glide_energy>  (1) 
-33.135750689639728

>  <r_i_glide_erotb>  (1) 
0.61440649929112812

>  <r_i_glide_esite>  (1) 
-0.14347606301185711

>  <r_i_glide_evdw>  (1) 
-30.138918214860098

>  <r_i_glide_gscore>  (1) 
-7.2995552817064633

>  <r_i_glide_gscore_strain>  (1) 
0

>  <r_i_glide_hbond>  (1) 
-0.15663453856435774

>  <r_i_glide_ligand_efficiency>  (1) 
-0.27555501771015434

>  <r_i_glide_ligand_efficiency_ln>  (1) 
-1.6328699228707613

>  <r_i_glide_ligand_efficiency_sa>  (1) 
-0.80572775963805188

>  <r_i_glide_lipo>  (1) 
-2.9245932923632143

>  <r_i_glide_metal>  (1) 
-0

>  <r_i_glide_rewards>  (1) 
-2.7327871050982115

>  <r_lp_Energy>  (1) 
18.158839

>  <r_lp_tautomer_probability>  (1) 
0.49999399997599986

>  <s_epik_Chemistry_Notes>  (1) 
This compound has an imine and may undergo hydrolysis. This compound contains an acetal/aminal-like group ( X-CH(R)-Y where X, Y are N, S, or O) that may be acid/base labile, releasing an aldehyde.

>  <s_epik_cmdline>  (1) 
J2VwaWtfcHl0aG9uJywgJy1waHQnLCAnMS4wJywgJy1waCcsICc3LjQnLCAnLXRuJywgJzgnLCAnLW1hJywgJzUwMCcsICctaW1hZScsICc8aW5maWxlLm1hZT4nLCAnLW9tYWUnLCAnPG91dGZpbGUubWFlPic=

>  <s_epik_input>  (1) 
W0NIM11bQ0BIXTFbQ0gyXVtDSDJdTihbQ0BASF0xW0NIM10pW0NAQEhdKFtPSF0pW0NAQEhdKFtDSDNdKS9DKFtDSDNdKT1OXFtDQEBIXShPW0NIM10pQzI9Qz1bQ0hdW0NIMl1bQ0BASF0oRilbQ0gyXVtDSDJdMg==

>  <s_glide_docking_method>  (1) 
confgen

>  <s_i_glide_gridfile>  (1) 
gpcr_5ht2c_6bqh_protein_autoprepared_prepared

>  <s_lp_Force_Field>  (1) 
S-OPLS

>  <s_lp_Variant>  (1) 
DiffSBDD_44_num_sample_100-8

>  <s_m_source_file>  (1) 
generated__ligand_DiffSBDD_2026-05-06_prepared.sdf

>  <GenAI_Model>  (1) 
DiffSBDD

>  <Protein>  (1) 
GPCR_5HT2C

$$$$
DiffSBDD_27_num_sample_100
     RDKit          3D

  0  0  0  0  0  0  0  0  0  0999 V3000
M  V30 BEGIN CTAB
M  V30 COUNTS 52 54 0 0 1
M  V30 BEGIN ATOM
M  V30 1 C 37.483599 30.117703 58.019831 0 CFG=1
M  V30 2 C 37.469283 26.113362 54.952336 0
M  V30 3 C 39.091550 29.106386 53.384830 0
M  V30 4 C 38.640143 28.491790 54.603293 0 CHG=-1
M  V30 5 C 39.180449 28.634161 51.109492 0
M  V30 6 C 38.075850 32.402759 61.058623 0
M  V30 7 C 35.486621 32.393148 60.857938 0
M  V30 8 N 38.193545 27.190868 52.761377 0 CHG=1
M  V30 9 F 41.669429 30.421776 49.485952 0
M  V30 10 C 36.868104 34.032968 59.468514 0
M  V30 11 C 37.641219 29.956313 56.477926 0
M  V30 12 C 38.395809 32.553727 58.142600 0
M  V30 13 O 37.615816 28.846263 58.624413 0
M  V30 14 C 40.146505 30.696774 51.967661 0
M  V30 15 C 39.745990 30.322951 53.262545 0
M  V30 16 C 36.789095 33.207647 60.762993 0 CFG=2
M  V30 17 C 38.228506 31.075910 60.287305 0
M  V30 18 N 37.077524 33.221427 58.253535 0 CHG=1
M  V30 19 C 38.071511 27.238265 54.165708 0
M  V30 20 C 38.760953 28.986877 56.020929 0
M  V30 21 C 38.799403 28.275890 52.400061 0
M  V30 22 C 39.865579 29.846867 50.884564 0
M  V30 23 O 40.249236 30.192187 49.623865 0
M  V30 24 C 38.434708 31.120753 58.739131 0 CFG=1
M  V30 25 H 36.458601 30.421771 58.230674 0
M  V30 26 H 36.667470 26.421669 55.615754 0
M  V30 27 H 37.067303 25.344607 54.292314 0
M  V30 28 H 38.232636 25.640526 55.570402 0
M  V30 29 H 38.963736 27.978232 50.278580 0
M  V30 30 H 38.076290 32.158693 62.122502 0
M  V30 31 H 38.958034 33.028472 60.916052 0
M  V30 32 H 35.381664 31.684932 60.036329 0
M  V30 33 H 35.431355 31.831334 61.788716 0
M  V30 34 H 34.621465 33.056660 60.827464 0
M  V30 35 H 35.946179 34.601931 59.337349 0
M  V30 36 H 37.668121 34.770927 59.546086 0
M  V30 37 H 36.681879 29.621049 56.094449 0
M  V30 38 H 37.763552 30.914585 55.978681 0
M  V30 39 H 39.167642 33.181117 58.587720 0
M  V30 40 H 38.655782 32.519865 57.086526 0
M  V30 41 H 37.463990 28.931500 59.552017 0
M  V30 42 H 40.668358 31.623573 51.806906 0
M  V30 43 H 39.958057 30.952276 54.114405 0
M  V30 44 H 36.724329 33.948034 61.562591 0
M  V30 45 H 37.363989 30.464824 60.543204 0
M  V30 46 H 39.071861 30.534805 60.718748 0
M  V30 47 H 36.325908 32.552593 58.067267 0
M  V30 48 H 39.724243 29.478990 56.161941 0
M  V30 49 H 38.806038 28.108123 56.661890 0
M  V30 50 H 39.453811 30.756415 58.555818 0
M  V30 51 H 37.035595 33.870619 57.480423 0
M  V30 52 H 37.888653 26.436032 52.164137 0
M  V30 END ATOM
M  V30 BEGIN BOND
M  V30 1 1 4 3
M  V30 2 1 11 1
M  V30 3 1 13 1
M  V30 4 1 15 3
M  V30 5 2 15 14
M  V30 6 1 16 6
M  V30 7 1 16 7
M  V30 8 1 16 10
M  V30 9 1 17 6
M  V30 10 1 18 10
M  V30 11 1 18 12
M  V30 12 1 19 2
M  V30 13 1 19 4
M  V30 14 2 19 8
M  V30 15 1 20 4
M  V30 16 1 20 11
M  V30 17 2 21 3
M  V30 18 1 21 5
M  V30 19 1 21 8
M  V30 20 2 22 5
M  V30 21 1 22 14
M  V30 22 1 23 9
M  V30 23 1 23 22
M  V30 24 1 24 1
M  V30 25 1 24 12
M  V30 26 1 24 17
M  V30 27 1 1 25 CFG=3
M  V30 28 1 26 2
M  V30 29 1 27 2
M  V30 30 1 28 2
M  V30 31 1 29 5
M  V30 32 1 30 6
M  V30 33 1 31 6
M  V30 34 1 32 7
M  V30 35 1 33 7
M  V30 36 1 34 7
M  V30 37 1 35 10
M  V30 38 1 36 10
M  V30 39 1 37 11
M  V30 40 1 38 11
M  V30 41 1 39 12
M  V30 42 1 40 12
M  V30 43 1 41 13
M  V30 44 1 42 14
M  V30 45 1 43 15
M  V30 46 1 16 44 CFG=1
M  V30 47 1 45 17
M  V30 48 1 46 17
M  V30 49 1 47 18
M  V30 50 1 48 20
M  V30 51 1 49 20
M  V30 52 1 24 50 CFG=1
M  V30 53 1 51 18
M  V30 54 1 52 8
M  V30 END BOND
M  V30 END CTAB
M  END
>  <i_epik_Tot_Q>  (1) 
1

>  <i_epik_Tot_abs_Q>  (1) 
3

>  <i_i_glide_confnum>  (1) 
425

>  <i_i_glide_lignum>  (1) 
68

>  <i_i_glide_posenum>  (1) 
306

>  <i_i_glide_rotatable_bonds>  (1) 
6

>  <i_lp_mmshare_version>  (1) 
72125

>  <i_m_source_file_index>  (1) 
28

>  <i_f3d_flags>  (1) 
2

>  <num_sample>  (1) 
100

>  <b_lp_Chiralities_Consistent>  (1) 
0

>  <r_epik_Charging_Adjusted_Penalty>  (1) 
0.00098671700734174138

>  <r_epik_Ionization_Penalty>  (1) 
0.00098676197071069244

>  <r_epik_Ionization_Penalty_Charging>  (1) 
0.00098671700734174138

>  <r_epik_Ionization_Penalty_Neutral>  (1) 
4.4963368951131644e-08

>  <r_epik_State_Penalty>  (1) 
-0

>  <r_glide_ring_energy>  (1) 
1.1938977835449986

>  <r_i_docking_score>  (1) 
-6.8779923464713431

>  <r_i_glide_ecoul>  (1) 
-7.5421407533078924

>  <r_i_glide_eff_state_penalty>  (1) 
-0

>  <r_i_glide_einternal>  (1) 
5.0776093926487258

>  <r_i_glide_emodel>  (1) 
-55.034239241991841

>  <r_i_glide_emodel_strain>  (1) 
1.1910463748174038

>  <r_i_glide_energy>  (1) 
-37.968637311788207

>  <r_i_glide_erotb>  (1) 
0.67091893137299763

>  <r_i_glide_esite>  (1) 
-0.10000000000000001

>  <r_i_glide_evdw>  (1) 
-30.426496558480316

>  <r_i_glide_gscore>  (1) 
-6.8779923464713431

>  <r_i_glide_gscore_strain>  (1) 
0

>  <r_i_glide_hbond>  (1) 
-0.18620164965594041

>  <r_i_glide_ligand_efficiency>  (1) 
-0.28658301443630596

>  <r_i_glide_ligand_efficiency_ln>  (1) 
-1.6462191790139165

>  <r_i_glide_ligand_efficiency_sa>  (1) 
-0.82664845885632821

>  <r_i_glide_lipo>  (1) 
-2.8149343818604518

>  <r_i_glide_metal>  (1) 
-0

>  <r_i_glide_rewards>  (1) 
-1.7951293054077493

>  <r_lp_Energy>  (1) 
34.541933999999998

>  <r_lp_tautomer_probability>  (1) 
1

>  <s_epik_cmdline>  (1) 
J2VwaWtfcHl0aG9uJywgJy1waHQnLCAnMS4wJywgJy1waCcsICc3LjQnLCAnLXRuJywgJzgnLCAnLW1hJywgJzUwMCcsICctaW1hZScsICc8aW5maWxlLm1hZT4nLCAnLW9tYWUnLCAnPG91dGZpbGUubWFlPic=

>  <s_epik_input>  (1) 
W0NIM11bQ0BIXTFbQ0gyXVtDSDJdW0NASF0oW0NIMl1bTkhdW0NIMl0xKVtDQEhdKFtPSF0pW0NIMl1bQ0gyXVtDQEBIXTJDKFtDSDNdKT1OYyhjMjMpW2NIXWMoT0YpW2NIXVtjSF0z

>  <s_glide_docking_method>  (1) 
confgen

>  <s_i_glide_gridfile>  (1) 
gpcr_5ht2c_6bqh_protein_autoprepared_prepared

>  <s_lp_Force_Field>  (1) 
S-OPLS

>  <s_lp_Variant>  (1) 
DiffSBDD_27_num_sample_100-1

>  <s_m_source_file>  (1) 
generated__ligand_DiffSBDD_2026-05-06_prepared.sdf

>  <GenAI_Model>  (1) 
DiffSBDD

>  <Protein>  (1) 
GPCR_5HT2C

$$$$
DiffSBDD_79_num_sample_100
     RDKit          3D

  0  0  0  0  0  0  0  0  0  0999 V3000
M  V30 BEGIN CTAB
M  V30 COUNTS 84 86 0 0 1
M  V30 BEGIN ATOM
M  V30 1 C 37.286173 33.804045 59.864230 0
M  V30 2 C 39.389954 32.530393 62.377716 0
M  V30 3 C 38.630638 25.808723 55.707888 0
M  V30 4 C 43.742336 29.653040 67.821416 0
M  V30 5 C 38.165221 32.236336 58.212418 0
M  V30 6 C 38.239511 27.365274 53.826926 0
M  V30 7 C 37.500607 32.314234 59.587591 0
M  V30 8 C 39.877912 28.032694 59.546986 0
M  V30 9 F 38.029724 28.680465 53.755932 0
M  V30 10 C 44.984130 30.038287 68.632967 0
M  V30 11 C 38.031117 31.851908 62.132496 0
M  V30 12 C 40.247950 28.097330 57.028305 0
M  V30 13 F 39.023264 27.021813 52.805431 0
M  V30 14 C 38.916398 26.993849 55.141242 0
M  V30 15 C 39.329820 26.096014 58.138991 0
M  V30 16 C 41.470902 32.371315 63.515683 0
M  V30 17 C 44.510241 29.154853 65.510279 0
M  V30 18 N 43.904259 29.993152 66.399156 0
M  V30 19 C 36.458850 31.288750 60.035662 0
M  V30 20 C 39.802584 27.346235 58.202520 0
M  V30 21 C 43.393363 31.305166 65.980430 0
M  V30 22 C 40.716427 30.503732 62.116943 0 CFG=2
M  V30 23 C 37.863433 31.312954 60.703219 0
M  V30 24 C 35.962153 30.218163 59.053477 0
M  V30 25 O 39.600257 29.814176 61.657361 0
M  V30 26 O 44.675821 29.447139 64.325604 0
M  V30 27 C 41.576117 29.398725 62.741312 0
M  V30 28 C 35.227076 31.710629 60.840268 0
M  V30 29 C 44.993398 27.796036 66.030606 0
M  V30 30 N 40.341373 31.600789 62.983286 0
M  V30 31 F 37.067477 26.756759 53.678787 0
M  V30 32 C 39.865138 27.954977 55.728309 0
M  V30 33 C 41.860167 31.299244 65.815352 0
M  V30 34 C 39.265761 25.250893 56.925102 0
M  V30 35 C 41.325471 32.516599 65.041966 0
M  V30 36 C 38.680994 28.985277 59.712520 0
M  V30 37 C 39.014370 30.290484 60.449670 0 CFG=1
M  V30 38 H 36.646986 34.236134 59.092661 0
M  V30 39 H 36.818838 34.009782 60.822406 0
M  V30 40 H 38.240065 34.331791 59.849997 0
M  V30 41 H 39.229916 33.362629 63.063580 0
M  V30 42 H 39.791605 32.961178 61.458941 0
M  V30 43 H 37.926047 25.155202 55.214231 0
M  V30 44 H 42.887209 30.193854 68.227223 0
M  V30 45 H 43.493155 28.603490 67.972319 0
M  V30 46 H 37.481193 32.608336 57.448145 0
M  V30 47 H 39.067016 32.848551 58.189851 0
M  V30 48 H 38.455369 31.229535 57.930471 0
M  V30 49 H 39.938175 27.322179 60.366928 0
M  V30 50 H 40.813062 28.593252 59.576662 0
M  V30 51 H 44.865158 29.768729 69.682400 0
M  V30 52 H 45.867392 29.531042 68.253452 0
M  V30 53 H 45.170845 31.111457 68.584413 0
M  V30 54 H 37.867395 31.042876 62.844624 0
M  V30 55 H 37.269320 32.583897 62.369753 0
M  V30 56 H 40.911748 28.920019 57.228924 0
M  V30 57 H 39.014303 25.621426 59.053350 0
M  V30 58 H 42.430301 31.918779 63.269987 0
M  V30 59 H 41.507000 33.361734 63.057659 0
M  V30 60 H 43.867402 31.621447 65.053446 0
M  V30 61 H 43.682303 32.057663 66.715452 0
M  V30 62 H 41.264063 30.917053 61.269712 0
M  V30 63 H 36.581209 30.124248 58.168269 0
M  V30 64 H 34.979869 30.466191 58.653513 0
M  V30 65 H 35.870385 29.248823 59.538861 0
M  V30 66 H 42.536468 29.788826 63.064901 0
M  V30 67 H 41.055190 28.957678 63.591292 0
M  V30 68 H 41.759300 28.611580 62.008917 0
M  V30 69 H 34.431521 32.020993 60.161626 0
M  V30 70 H 34.871043 30.881167 61.453400 0
M  V30 71 H 35.392375 32.554372 61.500353 0
M  V30 72 H 44.162702 27.189149 66.390449 0
M  V30 73 H 45.462786 27.244046 65.217478 0
M  V30 74 H 45.741503 27.894868 66.814774 0
M  V30 75 H 40.267424 28.684748 55.051537 0
M  V30 76 H 41.401622 31.287729 66.803924 0
M  V30 77 H 41.526815 30.381787 65.334031 0
M  V30 78 H 40.267381 24.900813 56.677135 0
M  V30 79 H 38.702271 24.357014 57.195085 0
M  V30 80 H 41.853841 33.409970 65.376264 0
M  V30 81 H 40.277802 32.683225 65.297260 0
M  V30 82 H 38.334687 29.221392 58.715445 0
M  V30 83 H 37.878698 28.452411 60.212413 0
M  V30 84 H 39.770312 30.797166 59.853562 0
M  V30 END ATOM
M  V30 BEGIN BOND
M  V30 1 1 7 1
M  V30 2 1 7 5
M  V30 3 1 9 6
M  V30 4 1 10 4
M  V30 5 1 11 2
M  V30 6 1 13 6
M  V30 7 2 14 3
M  V30 8 1 14 6
M  V30 9 1 18 4
M  V30 10 1 18 17
M  V30 11 1 19 7
M  V30 12 1 20 8
M  V30 13 1 20 12
M  V30 14 2 20 15
M  V30 15 1 21 18
M  V30 16 1 23 7
M  V30 17 1 23 11
M  V30 18 1 23 19
M  V30 19 1 24 19
M  V30 20 1 25 22
M  V30 21 2 26 17
M  V30 22 1 27 22
M  V30 23 1 28 19
M  V30 24 1 29 17
M  V30 25 1 30 2
M  V30 26 1 30 16
M  V30 27 1 30 22
M  V30 28 1 31 6
M  V30 29 2 32 12
M  V30 30 1 32 14
M  V30 31 1 33 21
M  V30 32 1 34 3
M  V30 33 1 34 15
M  V30 34 1 35 16
M  V30 35 1 35 33
M  V30 36 1 36 8
M  V30 37 1 37 23
M  V30 38 1 37 25
M  V30 39 1 37 36
M  V30 40 1 38 1
M  V30 41 1 39 1
M  V30 42 1 40 1
M  V30 43 1 41 2
M  V30 44 1 42 2
M  V30 45 1 43 3
M  V30 46 1 44 4
M  V30 47 1 45 4
M  V30 48 1 46 5
M  V30 49 1 47 5
M  V30 50 1 48 5
M  V30 51 1 49 8
M  V30 52 1 50 8
M  V30 53 1 51 10
M  V30 54 1 52 10
M  V30 55 1 53 10
M  V30 56 1 54 11
M  V30 57 1 55 11
M  V30 58 1 56 12
M  V30 59 1 57 15
M  V30 60 1 58 16
M  V30 61 1 59 16
M  V30 62 1 60 21
M  V30 63 1 61 21
M  V30 64 1 22 62 CFG=3
M  V30 65 1 63 24
M  V30 66 1 64 24
M  V30 67 1 65 24
M  V30 68 1 66 27
M  V30 69 1 67 27
M  V30 70 1 68 27
M  V30 71 1 69 28
M  V30 72 1 70 28
M  V30 73 1 71 28
M  V30 74 1 72 29
M  V30 75 1 73 29
M  V30 76 1 74 29
M  V30 77 1 75 32
M  V30 78 1 76 33
M  V30 79 1 77 33
M  V30 80 1 78 34
M  V30 81 1 79 34
M  V30 82 1 80 35
M  V30 83 1 81 35
M  V30 84 1 82 36
M  V30 85 1 83 36
M  V30 86 1 37 84 CFG=3
M  V30 END BOND
M  V30 END CTAB
M  END
>  <i_epik_Tot_Q>  (1) 
0

>  <i_epik_Tot_abs_Q>  (1) 
0

>  <i_i_glide_confnum>  (1) 
1153

>  <i_i_glide_lignum>  (1) 
199

>  <i_i_glide_posenum>  (1) 
142

>  <i_i_glide_rotatable_bonds>  (1) 
11

>  <i_lp_mmshare_version>  (1) 
72125

>  <i_m_source_file_index>  (1) 
80

>  <i_f3d_flags>  (1) 
0

>  <num_sample>  (1) 
100

>  <b_lp_Chiralities_Consistent>  (1) 
1

>  <r_epik_Charging_Adjusted_Penalty>  (1) 
0.2050768058510691

>  <r_epik_Ionization_Penalty>  (1) 
0.20507783400789523

>  <r_epik_Ionization_Penalty_Charging>  (1) 
0

>  <r_epik_Ionization_Penalty_Neutral>  (1) 
0.20507783400789523

>  <r_epik_State_Penalty>  (1) 
0.2050768058510691

>  <r_glide_ring_energy>  (1) 
0

>  <r_i_docking_score>  (1) 
-6.8754376343436006

>  <r_i_glide_ecoul>  (1) 
2.2269342879824521

>  <r_i_glide_eff_state_penalty>  (1) 
0.2050768058510691

>  <r_i_glide_einternal>  (1) 
46.61584779077188

>  <r_i_glide_emodel>  (1) 
-38.967534812152991

>  <r_i_glide_emodel_strain>  (1) 
0.76435197734232929

>  <r_i_glide_energy>  (1) 
-44.186669827054985

>  <r_i_glide_erotb>  (1) 
0.59792730839384334

>  <r_i_glide_esite>  (1) 
-0.025352878109684632

>  <r_i_glide_evdw>  (1) 
-46.413604115037437

>  <r_i_glide_gscore>  (1) 
-7.08051444019467

>  <r_i_glide_gscore_strain>  (1) 
0

>  <r_i_glide_hbond>  (1) 
0

>  <r_i_glide_ligand_efficiency>  (1) 
-0.18582263876604327

>  <r_i_glide_ligand_efficiency_ln>  (1) 
-1.4911212397621587

>  <r_i_glide_ligand_efficiency_sa>  (1) 
-0.61920225742672186

>  <r_i_glide_lipo>  (1) 
-3.9818690007416886

>  <r_i_glide_metal>  (1) 
-0

>  <r_i_glide_rewards>  (1) 
-1.6845798071826354

>  <r_lp_Energy>  (1) 
55.785767999999997

>  <s_epik_Chemistry_Notes>  (1) 
This compound contains an acetal/aminal-like group ( X-CH(R)-Y where X, Y are N, S, or O) that may be acid/base labile, releasing an aldehyde.

>  <s_epik_cmdline>  (1) 
J2VwaWtfcHl0aG9uJywgJy1waHQnLCAnMS4wJywgJy1waCcsICc3LjQnLCAnLXRuJywgJzgnLCAnLW1hJywgJzUwMCcsICctaW1hZScsICc8aW5maWxlLm1hZT4nLCAnLW9tYWUnLCAnPG91dGZpbGUubWFlPic=

>  <s_epik_input>  (1) 
W0NIM11bQ0gyXU4oQyg9TylbQ0gzXSlbQ0gyXVtDSDJdW0NIMl1bQ0gyXU4oW0NIMl1bQ0gyXUMxMkMoW0NIM10pKFtDSDNdKUMxKFtDSDNdKVtDSDNdKVtDQEBIXShbQ0gzXSlPW0NASF0yW0NIMl1bQ0gyXUMoW0NIXT1bQ0hdMyk9W0NIXVtDSDJdW0NIXT1DM0MoRikoRilG

>  <s_glide_docking_method>  (1) 
confgen

>  <s_i_glide_gridfile>  (1) 
gpcr_5ht2c_6bqh_protein_autoprepared_prepared

>  <s_lp_Force_Field>  (1) 
S-OPLS

>  <s_lp_Variant>  (1) 
DiffSBDD_79_num_sample_100-1

>  <s_m_source_file>  (1) 
generated__ligand_DiffSBDD_2026-05-06_prepared.sdf

>  <GenAI_Model>  (1) 
DiffSBDD

>  <Protein>  (1) 
GPCR_5HT2C

$$$$
DiffSBDD_39_num_sample_100
     RDKit          3D

  0  0  0  0  0  0  0  0  0  0999 V3000
M  V30 BEGIN CTAB
M  V30 COUNTS 60 63 0 0 1
M  V30 BEGIN ATOM
M  V30 1 C 40.448142 33.948296 61.936983 0
M  V30 2 C 37.867400 31.541809 56.413460 0
M  V30 3 C 36.261410 33.047380 61.299015 0
M  V30 4 C 37.867448 31.984060 57.893163 0
M  V30 5 C 39.015384 34.021422 59.856685 0
M  V30 6 C 39.676807 30.516900 54.922298 0
M  V30 7 N 38.580796 27.083765 53.674294 0
M  V30 8 O 37.219025 32.465626 61.853516 0 CHG=-1
M  V30 9 C 39.155228 29.107857 54.943746 0
M  V30 10 C 38.801028 35.739157 61.748508 0
M  V30 11 O 35.067422 32.724603 61.453506 0
M  V30 12 C 39.235062 36.257397 62.988128 0
M  V30 13 C 40.267106 35.621224 63.700926 0
M  V30 14 N 37.708501 33.997411 59.507045 0
M  V30 15 C 41.985500 33.744251 63.940524 0
M  V30 16 C 36.476526 35.636412 60.925173 0
M  V30 17 C 37.730071 25.103472 54.834782 0
M  V30 18 C 37.463430 33.482283 58.127491 0
M  V30 19 C 41.580074 34.091310 66.445322 0
M  V30 20 C 38.789975 28.444463 56.155153 0
M  V30 21 C 36.534607 34.219743 60.341056 0 CFG=2
M  V30 22 C 37.182350 24.909698 56.299834 0
M  V30 23 O 41.032316 35.080601 66.977682 0 CHG=-1
M  V30 24 C 39.404783 34.574190 61.218757 0
M  V30 25 S 37.856747 26.201584 57.451892 0
M  V30 26 C 38.323789 27.127958 56.062990 0
M  V30 27 O 38.939576 29.041292 57.376329 0 CHG=-1
M  V30 28 C 40.871231 34.458117 63.178950 0
M  V30 29 Cl 39.467420 29.135027 52.230782 0
M  V30 30 C 42.509165 34.362984 65.257367 0
M  V30 31 C 39.040742 28.368471 53.723247 0
M  V30 32 C 39.149667 31.572723 55.596694 0
M  V30 33 C 37.738709 36.454895 60.982513 0
M  V30 34 O 39.867401 33.620956 59.125346 0
M  V30 35 C 38.232882 26.515161 54.849275 0
M  V30 36 O 41.443592 32.899826 66.798831 0
M  V30 37 H 40.922597 33.066399 61.532004 0
M  V30 38 H 37.236759 32.230584 55.854391 0
M  V30 39 H 37.333849 30.601479 56.300409 0
M  V30 40 H 37.128069 31.376749 58.418347 0
M  V30 41 H 38.811111 31.678455 58.334049 0
M  V30 42 H 40.550209 30.686142 54.310332 0
M  V30 43 H 38.780331 37.150766 63.388456 0
M  V30 44 H 40.589514 36.027580 64.646028 0
M  V30 45 H 41.638899 32.728488 64.136354 0
M  V30 46 H 42.809716 33.621332 63.244695 0
M  V30 47 H 36.053194 35.596255 61.930491 0
M  V30 48 H 35.865907 36.230982 60.253533 0
M  V30 49 H 36.965299 24.943282 54.075185 0
M  V30 50 H 38.568486 24.430413 54.653581 0
M  V30 51 H 38.006375 34.106817 57.417229 0
M  V30 52 H 36.421650 33.621590 57.849371 0
M  V30 53 H 35.659495 34.184657 59.691197 0
M  V30 54 H 37.367190 23.905880 56.683501 0
M  V30 55 H 36.100989 25.052175 56.289337 0
M  V30 56 H 43.460371 33.890056 65.501350 0
M  V30 57 H 42.718876 35.427875 65.147929 0
M  V30 58 H 39.641616 32.531193 55.532494 0
M  V30 59 H 37.527265 37.418258 61.448429 0
M  V30 60 H 38.099008 36.684347 59.979245 0
M  V30 END ATOM
M  V30 BEGIN BOND
M  V30 1 1 4 2
M  V30 2 1 8 3
M  V30 3 1 9 6
M  V30 4 2 11 3
M  V30 5 1 12 10
M  V30 6 2 13 12
M  V30 7 1 14 5
M  V30 8 1 18 4
M  V30 9 1 18 14
M  V30 10 2 20 9
M  V30 11 1 21 3
M  V30 12 1 21 14
M  V30 13 1 21 16
M  V30 14 1 22 17
M  V30 15 1 23 19
M  V30 16 1 24 1
M  V30 17 1 24 5
M  V30 18 2 24 10
M  V30 19 1 25 22
M  V30 20 1 26 20
M  V30 21 1 26 25
M  V30 22 1 27 20
M  V30 23 2 28 1
M  V30 24 1 28 13
M  V30 25 1 28 15
M  V30 26 1 30 15
M  V30 27 1 30 19
M  V30 28 2 31 7
M  V30 29 1 31 9
M  V30 30 1 31 29
M  V30 31 1 32 2
M  V30 32 2 32 6
M  V30 33 1 33 10
M  V30 34 1 33 16
M  V30 35 2 34 5
M  V30 36 1 35 7
M  V30 37 1 35 17
M  V30 38 2 35 26
M  V30 39 2 36 19
M  V30 40 1 37 1
M  V30 41 1 38 2
M  V30 42 1 39 2
M  V30 43 1 40 4
M  V30 44 1 41 4
M  V30 45 1 42 6
M  V30 46 1 43 12
M  V30 47 1 44 13
M  V30 48 1 45 15
M  V30 49 1 46 15
M  V30 50 1 47 16
M  V30 51 1 48 16
M  V30 52 1 49 17
M  V30 53 1 50 17
M  V30 54 1 51 18
M  V30 55 1 52 18
M  V30 56 1 21 53 CFG=3
M  V30 57 1 54 22
M  V30 58 1 55 22
M  V30 59 1 56 30
M  V30 60 1 57 30
M  V30 61 1 58 32
M  V30 62 1 59 33
M  V30 63 1 60 33
M  V30 END BOND
M  V30 END CTAB
M  END
>  <i_epik_Tot_Q>  (1) 
-3

>  <i_epik_Tot_abs_Q>  (1) 
3

>  <i_i_glide_confnum>  (1) 
6

>  <i_i_glide_lignum>  (1) 
95

>  <i_i_glide_posenum>  (1) 
61

>  <i_i_glide_rotatable_bonds>  (1) 
9

>  <i_lp_mmshare_version>  (1) 
72125

>  <i_m_source_file_index>  (1) 
40

>  <i_f3d_flags>  (1) 
0

>  <num_sample>  (1) 
100

>  <b_lp_Chiralities_Consistent>  (1) 
1

>  <r_epik_Charging_Adjusted_Penalty>  (1) 
0.2804944600534911

>  <r_epik_Ionization_Penalty>  (1) 
0.1893944324441556

>  <r_epik_Ionization_Penalty_Charging>  (1) 
0.1048911762492778

>  <r_epik_Ionization_Penalty_Neutral>  (1) 
0.084503256194877821

>  <r_epik_State_Penalty>  (1) 
0.17560328380421328

>  <r_glide_ring_energy>  (1) 
0

>  <r_i_docking_score>  (1) 
-6.8743811318278567

>  <r_i_glide_ecoul>  (1) 
-1.1476326530955097

>  <r_i_glide_eff_state_penalty>  (1) 
0.17560328380421328

>  <r_i_glide_einternal>  (1) 
6.4341347192260798

>  <r_i_glide_emodel>  (1) 
-46.531556300530383

>  <r_i_glide_emodel_strain>  (1) 
3.2835418637944542

>  <r_i_glide_energy>  (1) 
-34.27706742061401

>  <r_i_glide_erotb>  (1) 
0.44331424450836554

>  <r_i_glide_esite>  (1) 
-0.0010988802571770707

>  <r_i_glide_evdw>  (1) 
-33.129434767518504

>  <r_i_glide_gscore>  (1) 
-7.0499844156320703

>  <r_i_glide_gscore_strain>  (1) 
0

>  <r_i_glide_hbond>  (1) 
-0.0036025758771100146

>  <r_i_glide_ligand_efficiency>  (1) 
-0.19095503143966269

>  <r_i_glide_ligand_efficiency_ln>  (1) 
-1.4998042386497457

>  <r_i_glide_ligand_efficiency_sa>  (1) 
-0.63051962162415254

>  <r_i_glide_lipo>  (1) 
-4.5131057463474731

>  <r_i_glide_metal>  (1) 
-0

>  <r_i_glide_rewards>  (1) 
-1.1468748213184239

>  <r_lp_Energy>  (1) 
59.773787999999996

>  <s_epik_cmdline>  (1) 
J2VwaWtfcHl0aG9uJywgJy1waHQnLCAnMS4wJywgJy1waCcsICc3LjQnLCAnLXRuJywgJzgnLCAnLW1hJywgJzUwMCcsICctaW1hZScsICc8aW5maWxlLm1hZT4nLCAnLW9tYWUnLCAnPG91dGZpbGUubWFlPic=

>  <s_epik_input>  (1) 
W09IXUMoPU8pW0NIMl1bQ0gyXWMoW2NIXVtjSF0xKVtjSF1jKGMxMilDKD1PKU4oW0NAQEhdKEMoPU8pW09IXSlbQ0gyXVtDSDJdMilbQ0gyXVtDSDJdW0NIMl0vW0NIXT1bQ0hdXGMoYzNbT0hdKWMoQ2wpbmMoYzM0KVtDSDJdW0NIMl1TNA==

>  <s_glide_docking_method>  (1) 
confgen

>  <s_i_glide_gridfile>  (1) 
gpcr_5ht2c_6bqh_protein_autoprepared_prepared

>  <s_lp_Force_Field>  (1) 
S-OPLS

>  <s_lp_Variant>  (1) 
DiffSBDD_39_num_sample_100-2

>  <s_m_source_file>  (1) 
generated__ligand_DiffSBDD_2026-05-06_prepared.sdf

>  <GenAI_Model>  (1) 
DiffSBDD

>  <Protein>  (1) 
GPCR_5HT2C

$$$$
DiffSBDD_39_num_sample_100
     RDKit          3D

  0  0  0  0  0  0  0  0  0  0999 V3000
M  V30 BEGIN CTAB
M  V30 COUNTS 60 63 0 0 1
M  V30 BEGIN ATOM
M  V30 1 C 38.489644 28.584922 54.390196 0
M  V30 2 C 36.116595 30.595702 60.086194 0
M  V30 3 C 38.013116 26.052984 57.672756 0
M  V30 4 C 36.688464 29.811871 58.901966 0
M  V30 5 C 38.819771 29.208941 56.801049 0
M  V30 6 C 37.933649 32.048287 60.981451 0
M  V30 7 N 40.699690 34.416070 62.027152 0
M  V30 8 O 37.067205 26.421141 56.963181 0 CHG=-1
M  V30 9 C 38.625884 33.332107 61.303261 0
M  V30 10 C 40.074671 27.276926 55.709544 0
M  V30 11 O 38.302836 24.849227 57.852710 0
M  V30 12 C 40.267090 26.422441 54.609177 0
M  V30 13 C 39.605138 26.666706 53.398335 0
M  V30 14 N 38.684530 28.576795 58.013204 0
M  V30 15 C 38.085537 28.070705 51.949732 0
M  V30 16 C 40.345818 26.786039 58.280637 0
M  V30 17 C 40.823309 36.827484 62.181639 0
M  V30 18 C 38.171916 29.416773 59.105035 0
M  V30 19 C 39.983618 29.427324 50.886782 0
M  V30 20 C 37.998137 34.619480 61.199775 0
M  V30 21 C 38.876137 27.135108 58.376142 0 CFG=2
M  V30 22 C 39.691877 37.912691 62.271208 0
M  V30 23 O 41.066924 29.220774 51.453244 0 CHG=-1
M  V30 24 C 39.131243 28.332359 55.619096 0
M  V30 25 S 38.131393 37.341145 61.453868 0
M  V30 26 C 38.764788 35.735721 61.514326 0
M  V30 27 O 36.692456 34.775657 60.834542 0 CHG=-1
M  V30 28 C 38.741825 27.766665 53.277323 0
M  V30 29 Cl 40.798653 31.772717 61.886098 0
M  V30 30 C 39.041440 28.241368 50.752906 0
M  V30 31 C 39.990073 33.297386 61.737666 0
M  V30 32 C 36.752070 31.917372 60.355761 0
M  V30 33 C 40.953557 27.117879 56.943259 0
M  V30 34 O 38.638800 30.418118 56.643826 0
M  V30 35 C 40.062360 35.592047 61.896966 0
M  V30 36 O 39.604418 30.515845 50.409062 0
M  V30 37 H 37.802028 29.410987 54.304751 0
M  V30 38 H 36.268040 30.029786 60.991787 0
M  V30 39 H 35.067870 30.821648 59.957799 0
M  V30 40 H 36.094194 28.911165 58.735653 0
M  V30 41 H 36.574236 30.405298 58.000586 0
M  V30 42 H 38.442850 31.148489 61.282643 0
M  V30 43 H 40.972706 25.621455 54.678563 0
M  V30 44 H 39.791946 26.026450 52.546832 0
M  V30 45 H 37.467776 27.220702 51.737428 0
M  V30 46 H 37.439019 28.940734 52.047848 0
M  V30 47 H 40.497111 25.726224 58.472405 0
M  V30 48 H 40.905755 27.299640 59.062595 0
M  V30 49 H 41.412701 36.749960 63.094164 0
M  V30 50 H 41.466951 37.021950 61.328238 0
M  V30 51 H 38.787486 30.314177 59.155576 0
M  V30 52 H 38.290077 28.944056 60.077901 0
M  V30 53 H 38.624090 26.995593 59.425859 0
M  V30 54 H 39.969340 38.897220 61.902831 0
M  V30 55 H 39.466467 38.021283 63.329399 0
M  V30 56 H 39.616027 27.330603 50.578359 0
M  V30 57 H 38.472964 28.421670 49.854057 0
M  V30 58 H 36.205787 32.768251 60.013613 0
M  V30 59 H 41.750931 26.421432 56.719379 0
M  V30 60 H 41.457038 28.080755 57.049446 0
M  V30 END ATOM
M  V30 BEGIN BOND
M  V30 1 1 4 2
M  V30 2 1 8 3
M  V30 3 1 9 6
M  V30 4 2 11 3
M  V30 5 1 12 10
M  V30 6 2 13 12
M  V30 7 1 14 5
M  V30 8 1 18 4
M  V30 9 1 18 14
M  V30 10 2 20 9
M  V30 11 1 21 3
M  V30 12 1 21 14
M  V30 13 1 21 16
M  V30 14 1 22 17
M  V30 15 1 23 19
M  V30 16 1 24 1
M  V30 17 1 24 5
M  V30 18 2 24 10
M  V30 19 1 25 22
M  V30 20 1 26 20
M  V30 21 1 26 25
M  V30 22 1 27 20
M  V30 23 2 28 1
M  V30 24 1 28 13
M  V30 25 1 28 15
M  V30 26 1 30 15
M  V30 27 1 30 19
M  V30 28 2 31 7
M  V30 29 1 31 9
M  V30 30 1 31 29
M  V30 31 1 32 2
M  V30 32 2 32 6
M  V30 33 1 33 10
M  V30 34 1 33 16
M  V30 35 2 34 5
M  V30 36 1 35 7
M  V30 37 1 35 17
M  V30 38 2 35 26
M  V30 39 2 36 19
M  V30 40 1 37 1
M  V30 41 1 38 2
M  V30 42 1 39 2
M  V30 43 1 40 4
M  V30 44 1 41 4
M  V30 45 1 42 6
M  V30 46 1 43 12
M  V30 47 1 44 13
M  V30 48 1 45 15
M  V30 49 1 46 15
M  V30 50 1 47 16
M  V30 51 1 48 16
M  V30 52 1 49 17
M  V30 53 1 50 17
M  V30 54 1 51 18
M  V30 55 1 52 18
M  V30 56 1 21 53 CFG=1
M  V30 57 1 54 22
M  V30 58 1 55 22
M  V30 59 1 56 30
M  V30 60 1 57 30
M  V30 61 1 58 32
M  V30 62 1 59 33
M  V30 63 1 60 33
M  V30 END BOND
M  V30 END CTAB
M  END
>  <i_epik_Tot_Q>  (1) 
-3

>  <i_epik_Tot_abs_Q>  (1) 
3

>  <i_i_glide_confnum>  (1) 
29

>  <i_i_glide_lignum>  (1) 
94

>  <i_i_glide_posenum>  (1) 
293

>  <i_i_glide_rotatable_bonds>  (1) 
9

>  <i_lp_mmshare_version>  (1) 
72125

>  <i_m_source_file_index>  (1) 
40

>  <i_f3d_flags>  (1) 
0

>  <num_sample>  (1) 
100

>  <b_lp_Chiralities_Consistent>  (1) 
1

>  <r_epik_Charging_Adjusted_Penalty>  (1) 
0.2804944600534911

>  <r_epik_Ionization_Penalty>  (1) 
0.1893944324441556

>  <r_epik_Ionization_Penalty_Charging>  (1) 
0.1048911762492778

>  <r_epik_Ionization_Penalty_Neutral>  (1) 
0.084503256194877821

>  <r_epik_State_Penalty>  (1) 
0.17560328380421328

>  <r_glide_ring_energy>  (1) 
0

>  <r_i_docking_score>  (1) 
-6.8681472032888014

>  <r_i_glide_ecoul>  (1) 
-0.6564484028095583

>  <r_i_glide_eff_state_penalty>  (1) 
0.17560328380421328

>  <r_i_glide_einternal>  (1) 
7.6806302489573284

>  <r_i_glide_emodel>  (1) 
-44.889625749401674

>  <r_i_glide_emodel_strain>  (1) 
5.8395542378090965

>  <r_i_glide_energy>  (1) 
-38.768071847859503

>  <r_i_glide_erotb>  (1) 
0.44331424450836554

>  <r_i_glide_esite>  (1) 
0

>  <r_i_glide_evdw>  (1) 
-38.111623445049943

>  <r_i_glide_gscore>  (1) 
-7.043750487093015

>  <r_i_glide_gscore_strain>  (1) 
0.45988855945227414

>  <r_i_glide_hbond>  (1) 
0

>  <r_i_glide_ligand_efficiency>  (1) 
-0.19078186675802225

>  <r_i_glide_ligand_efficiency_ln>  (1) 
-1.4984441638638095

>  <r_i_glide_ligand_efficiency_sa>  (1) 
-0.62994784444329777

>  <r_i_glide_lipo>  (1) 
-4.1855187221263881

>  <r_i_glide_metal>  (1) 
-0

>  <r_i_glide_rewards>  (1) 
-1.7573861362533354

>  <r_lp_Energy>  (1) 
58.368376999999995

>  <s_epik_cmdline>  (1) 
J2VwaWtfcHl0aG9uJywgJy1waHQnLCAnMS4wJywgJy1waCcsICc3LjQnLCAnLXRuJywgJzgnLCAnLW1hJywgJzUwMCcsICctaW1hZScsICc8aW5maWxlLm1hZT4nLCAnLW9tYWUnLCAnPG91dGZpbGUubWFlPic=

>  <s_epik_input>  (1) 
W09IXUMoPU8pW0NIMl1bQ0gyXWMoW2NIXVtjSF0xKVtjSF1jKGMxMilDKD1PKU4oW0NAQEhdKEMoPU8pW09IXSlbQ0gyXVtDSDJdMilbQ0gyXVtDSDJdW0NIMl1cW0NIXT1bQ0hdXGMoYzNbT0hdKWMoQ2wpbmMoYzM0KVtDSDJdW0NIMl1TNA==

>  <s_glide_docking_method>  (1) 
confgen

>  <s_i_glide_gridfile>  (1) 
gpcr_5ht2c_6bqh_protein_autoprepared_prepared

>  <s_lp_Force_Field>  (1) 
S-OPLS

>  <s_lp_Variant>  (1) 
DiffSBDD_39_num_sample_100-1

>  <s_m_source_file>  (1) 
generated__ligand_DiffSBDD_2026-05-06_prepared.sdf

>  <GenAI_Model>  (1) 
DiffSBDD

>  <Protein>  (1) 
GPCR_5HT2C

$$$$
DiffSBDD_77_num_sample_100
     RDKit          3D

  0  0  0  0  0  0  0  0  0  0999 V3000
M  V30 BEGIN CTAB
M  V30 COUNTS 77 79 0 0 1
M  V30 BEGIN ATOM
M  V30 1 C 41.033475 29.442706 65.176493 0
M  V30 2 F 44.387258 29.681441 63.699976 0
M  V30 3 C 40.726991 27.793974 56.774398 0
M  V30 4 C 40.426816 30.592358 64.632380 0
M  V30 5 C 39.592947 30.706064 53.033631 0
M  V30 6 C 39.040714 31.115492 61.692826 0
M  V30 7 C 37.383855 29.691208 57.860826 0
M  V30 8 C 38.375964 31.525990 59.262089 0 CFG=2
M  V30 9 O 38.646397 31.043251 55.505658 0
M  V30 10 C 40.036459 30.946990 51.571725 0
M  V30 11 N 39.207309 36.200892 61.620162 0
M  V30 12 C 40.511341 32.686572 63.174340 0
M  V30 13 C 43.101149 29.976280 64.002016 0
M  V30 14 O 40.106139 28.193483 59.853070 0
M  V30 15 C 39.285779 27.578953 58.882132 0
M  V30 16 C 41.157555 31.436130 63.766688 0
M  V30 17 F 42.951492 28.029826 65.384733 0
M  V30 18 C 39.546032 33.620149 60.176840 0
M  V30 19 O 39.067356 38.448595 61.453503 0
M  V30 20 O 36.738150 31.660070 61.071605 0
M  V30 21 C 42.369668 29.135054 64.861366 0
M  V30 22 C 39.696933 28.502210 51.130524 0
M  V30 23 N 39.171096 28.939059 54.796954 0
M  V30 24 C 38.673994 34.960029 62.160399 0
M  V30 25 C 42.495568 31.124684 63.454651 0
M  V30 26 C 39.478877 28.259248 57.533232 0
M  V30 27 C 38.622676 37.379630 61.855719 0
M  V30 28 C 39.467371 28.210230 52.527592 0
M  V30 29 C 38.586297 33.046333 59.134414 0
M  V30 30 F 39.652627 27.496430 50.253501 0
M  V30 31 C 39.280228 26.772102 52.977629 0
M  V30 32 C 39.189227 32.495151 62.373251 0 CFG=1
M  V30 33 C 38.822222 29.850478 55.741604 0
M  V30 34 N 37.467408 31.093772 58.223725 0
M  V30 35 C 38.603610 29.221730 57.064122 0
M  V30 36 C 39.407723 29.223100 53.418992 0
M  V30 37 C 39.945981 29.735580 50.679408 0
M  V30 38 C 37.921344 31.008619 60.644005 0 CFG=2
M  V30 39 N 38.863597 33.645496 61.483114 0 CFG=2 CHG=1
M  V30 40 H 40.471695 28.795858 65.835260 0
M  V30 41 H 41.480532 27.452718 57.485257 0
M  V30 42 H 40.504010 26.945628 56.128330 0
M  V30 43 H 41.215991 28.581025 56.204020 0
M  V30 44 H 39.405511 30.821403 64.876295 0
M  V30 45 H 38.667367 31.255241 53.165093 0
M  V30 46 H 40.335674 31.167585 53.686249 0
M  V30 47 H 39.986708 30.810397 61.243716 0
M  V30 48 H 38.838932 30.369369 62.462884 0
M  V30 49 H 36.535629 29.589371 57.183651 0
M  V30 50 H 37.113133 29.080382 58.712400 0
M  V30 51 H 39.333717 31.045919 59.063309 0
M  V30 52 H 41.080112 31.242946 51.553627 0
M  V30 53 H 39.467402 31.761013 51.122841 0
M  V30 54 H 40.062949 36.167919 61.084712 0
M  V30 55 H 41.247778 33.170874 62.532249 0
M  V30 56 H 40.354748 33.374621 64.004134 0
M  V30 57 H 41.009943 28.014675 59.637547 0
M  V30 58 H 39.568992 26.530151 58.795228 0
M  V30 59 H 38.267420 27.559236 59.243188 0
M  V30 60 H 40.438029 33.000616 60.253501 0
M  V30 61 H 39.873462 34.604820 59.853494 0
M  V30 62 H 36.093097 31.546161 60.384853 0
M  V30 63 H 39.194263 27.966760 55.063385 0
M  V30 64 H 37.593256 35.074007 62.253491 0
M  V30 65 H 39.067403 34.921281 63.172071 0
M  V30 66 H 43.060396 31.767261 62.795599 0
M  V30 67 H 37.705146 37.263101 62.454594 0
M  V30 68 H 38.994598 33.248773 58.142462 0
M  V30 69 H 37.631923 33.575679 59.171943 0
M  V30 70 H 39.788797 26.100662 52.284586 0
M  V30 71 H 39.706071 26.572699 53.957886 0
M  V30 72 H 38.220238 26.516327 52.994518 0
M  V30 73 H 38.354648 32.512232 63.053501 0
M  V30 74 H 36.598727 31.621375 58.051549 0
M  V30 75 H 40.109411 29.895895 49.623342 0
M  V30 76 H 37.691381 29.949920 60.564174 0
M  V30 77 H 37.915303 33.408180 61.210400 0
M  V30 END ATOM
M  V30 BEGIN BOND
M  V30 1 2 4 1
M  V30 2 1 10 5
M  V30 3 1 13 2
M  V30 4 1 15 14
M  V30 5 1 16 4
M  V30 6 1 16 12
M  V30 7 1 21 1
M  V30 8 2 21 13
M  V30 9 1 21 17
M  V30 10 1 24 11
M  V30 11 1 25 13
M  V30 12 2 25 16
M  V30 13 1 26 3
M  V30 14 1 26 15
M  V30 15 1 27 11
M  V30 16 2 27 19
M  V30 17 1 28 22
M  V30 18 1 29 8
M  V30 19 1 29 18
M  V30 20 1 30 22
M  V30 21 1 31 28
M  V30 22 1 32 6
M  V30 23 1 32 12
M  V30 24 2 33 9
M  V30 25 1 33 23
M  V30 26 1 34 7
M  V30 27 1 34 8
M  V30 28 1 35 7
M  V30 29 2 35 26
M  V30 30 1 35 33
M  V30 31 1 36 5
M  V30 32 1 36 23
M  V30 33 2 36 28
M  V30 34 1 37 10
M  V30 35 2 37 22
M  V30 36 1 38 6
M  V30 37 1 38 8
M  V30 38 1 38 20
M  V30 39 1 39 18
M  V30 40 1 39 24
M  V30 41 1 39 32
M  V30 42 1 40 1
M  V30 43 1 41 3
M  V30 44 1 42 3
M  V30 45 1 43 3
M  V30 46 1 44 4
M  V30 47 1 45 5
M  V30 48 1 46 5
M  V30 49 1 47 6
M  V30 50 1 48 6
M  V30 51 1 49 7
M  V30 52 1 50 7
M  V30 53 1 8 51 CFG=3
M  V30 54 1 52 10
M  V30 55 1 53 10
M  V30 56 1 54 11
M  V30 57 1 55 12
M  V30 58 1 56 12
M  V30 59 1 57 14
M  V30 60 1 58 15
M  V30 61 1 59 15
M  V30 62 1 60 18
M  V30 63 1 61 18
M  V30 64 1 62 20
M  V30 65 1 63 23
M  V30 66 1 64 24
M  V30 67 1 65 24
M  V30 68 1 66 25
M  V30 69 1 67 27
M  V30 70 1 68 29
M  V30 71 1 69 29
M  V30 72 1 70 31
M  V30 73 1 71 31
M  V30 74 1 72 31
M  V30 75 1 32 73 CFG=1
M  V30 76 1 74 34
M  V30 77 1 75 37
M  V30 78 1 38 76 CFG=3
M  V30 79 1 39 77 CFG=3
M  V30 END BOND
M  V30 END CTAB
M  END
>  <i_epik_Tot_Q>  (1) 
1

>  <i_epik_Tot_abs_Q>  (1) 
1

>  <i_i_glide_confnum>  (1) 
9666

>  <i_i_glide_lignum>  (1) 
197

>  <i_i_glide_posenum>  (1) 
19

>  <i_i_glide_rotatable_bonds>  (1) 
14

>  <i_lp_mmshare_version>  (1) 
72125

>  <i_m_source_file_index>  (1) 
78

>  <i_f3d_flags>  (1) 
0

>  <num_sample>  (1) 
100

>  <b_lp_Chiralities_Consistent>  (1) 
1

>  <r_epik_Charging_Adjusted_Penalty>  (1) 
1.2599673287133732

>  <r_epik_Ionization_Penalty>  (1) 
0.56885031527891383

>  <r_epik_Ionization_Penalty_Charging>  (1) 
0.52000942162343

>  <r_epik_Ionization_Penalty_Neutral>  (1) 
0.048840893655483872

>  <r_epik_State_Penalty>  (1) 
0.73995790708994325

>  <r_glide_ring_energy>  (1) 
0

>  <r_i_docking_score>  (1) 
-6.8674910802964613

>  <r_i_glide_ecoul>  (1) 
-5.3043304055863896

>  <r_i_glide_eff_state_penalty>  (1) 
0.73995790708994325

>  <r_i_glide_einternal>  (1) 
29.675596450014648

>  <r_i_glide_emodel>  (1) 
-51.465988531950281

>  <r_i_glide_emodel_strain>  (1) 
5.2052254388872257

>  <r_i_glide_energy>  (1) 
-45.035146437383219

>  <r_i_glide_erotb>  (1) 
0.67934156738045093

>  <r_i_glide_esite>  (1) 
0

>  <r_i_glide_evdw>  (1) 
-39.730816031796827

>  <r_i_glide_gscore>  (1) 
-7.6074489873864044

>  <r_i_glide_gscore_strain>  (1) 
0.30130635972180642

>  <r_i_glide_hbond>  (1) 
-0.30507560523798732

>  <r_i_glide_ligand_efficiency>  (1) 
-0.17608951487939645

>  <r_i_glide_ligand_efficiency_ln>  (1) 
-1.4725850329427694

>  <r_i_glide_ligand_efficiency_sa>  (1) 
-0.59715677785382271

>  <r_i_glide_lipo>  (1) 
-3.6665669786805291

>  <r_i_glide_metal>  (1) 
-0

>  <r_i_glide_rewards>  (1) 
-1.8342639681423458

>  <r_lp_Energy>  (1) 
45.825868999999997

>  <s_epik_Chemistry_Notes>  (1) 
This compound contains an acetal/aminal-like group ( X-CH(R)-Y where X, Y are N, S, or O) that may be acid/base labile, releasing an aldehyde.

>  <s_epik_cmdline>  (1) 
J2VwaWtfcHl0aG9uJywgJy1waHQnLCAnMS4wJywgJy1waCcsICc3LjQnLCAnLXRuJywgJzgnLCAnLW1hJywgJzUwMCcsICctaW1hZScsICc8aW5maWxlLm1hZT4nLCAnLW9tYWUnLCAnPG91dGZpbGUubWFlPic=

>  <s_epik_input>  (1) 
RmMxYyhGKVtjSF1bY0hdYyhbY0hdMSlbQ0gyXVtDQEhdKFtDSDJdW0NASF0yW09IXSlOKFtDSDJdW05IXVtDSF09TylbQ0gyXVtDSDJdW0NAQEhdMltOSF1bQ0gyXVxDKD1DKFxbQ0gzXSlbQ0gyXVtPSF0pQyg9TylbTkhdQyg9QzNbQ0gzXSlbQ0gyXVtDSDJdW0NIXT1DM0Y=

>  <s_glide_docking_method>  (1) 
confgen

>  <s_i_glide_gridfile>  (1) 
gpcr_5ht2c_6bqh_protein_autoprepared_prepared

>  <s_lp_Force_Field>  (1) 
S-OPLS

>  <s_lp_Variant>  (1) 
DiffSBDD_77_num_sample_100-8

>  <s_m_source_file>  (1) 
generated__ligand_DiffSBDD_2026-05-06_prepared.sdf

>  <GenAI_Model>  (1) 
DiffSBDD

>  <Protein>  (1) 
GPCR_5HT2C

$$$$
DiffSBDD_30_num_sample_100
     RDKit          3D

  0  0  0  0  0  0  0  0  0  0999 V3000
M  V30 BEGIN CTAB
M  V30 COUNTS 70 73 0 0 1
M  V30 BEGIN ATOM
M  V30 1 C 35.270135 33.618092 61.186111 0
M  V30 2 C 39.117854 30.821182 62.003087 0 CFG=2
M  V30 3 O 35.436821 31.279699 61.453255 0
M  V30 4 C 39.087364 28.347107 50.749407 0
M  V30 5 C 39.993509 29.251401 50.177581 0
M  V30 6 N 38.221061 33.740363 61.198561 0
M  V30 7 C 40.214443 30.389392 52.312745 0
M  V30 8 C 37.535309 32.475883 61.511141 0 CFG=1
M  V30 9 O 41.797587 31.790544 64.005139 0
M  V30 10 O 40.947808 29.243460 61.793820 0
M  V30 11 C 39.616844 27.147863 54.916408 0
M  V30 12 C 39.868991 29.640324 61.354271 0
M  V30 13 C 39.228491 28.985019 60.133894 0
M  V30 14 C 40.361327 26.373466 55.973716 0
M  V30 15 C 37.909223 28.941753 55.240973 0 CFG=2
M  V30 16 C 37.917666 33.409724 57.515598 0
M  V30 17 N 37.653427 34.021471 58.838815 0 CHG=1
M  V30 18 C 38.903796 26.081248 55.725363 0
M  V30 19 C 37.867582 31.169688 56.249601 0 CFG=1
M  V30 20 C 40.551157 30.272438 50.954097 0
M  V30 21 C 37.481588 29.702644 56.466078 0
M  V30 22 N 39.314232 28.540533 55.333777 0 CFG=2 CHG=1
M  V30 23 C 38.723415 28.463522 52.102649 0
M  V30 24 C 38.744072 33.912180 59.840292 0
M  V30 25 C 39.300315 29.482894 52.913450 0
M  V30 26 C 38.091352 31.885791 57.587755 0
M  V30 27 C 40.433397 31.519290 63.803319 0
M  V30 28 C 36.116799 32.367412 60.899559 0 CFG=2
M  V30 29 C 38.955082 29.616384 54.401484 0 CFG=1
M  V30 30 O 37.819590 27.590672 52.628107 0
M  V30 31 S 39.320388 31.221372 55.170191 0
M  V30 32 O 38.274566 31.385762 61.043843 0
M  V30 33 O 40.069306 31.731974 62.473351 0
M  V30 34 H 35.676031 34.513534 60.720656 0
M  V30 35 H 34.264050 33.492091 60.785507 0
M  V30 36 H 35.175307 33.813431 62.253448 0
M  V30 37 H 38.492242 30.451303 62.816926 0
M  V30 38 H 34.612142 31.179267 60.998873 0
M  V30 39 H 38.667418 27.562482 50.145972 0
M  V30 40 H 40.260269 29.161376 49.134789 0
M  V30 41 H 37.651116 34.533220 61.477123 0
M  V30 42 H 40.661843 31.176305 52.898593 0
M  V30 43 H 37.443433 32.418496 62.597090 0
M  V30 44 H 42.290729 31.114885 63.563342 0
M  V30 45 H 39.893882 26.966269 53.884131 0
M  V30 46 H 38.149585 28.903608 60.252503 0
M  V30 47 H 39.430485 29.578862 59.244328 0
M  V30 48 H 39.636740 27.985506 59.983572 0
M  V30 49 H 41.067376 25.625709 55.629046 0
M  V30 50 H 40.629340 26.872743 56.903122 0
M  V30 51 H 37.292597 28.118305 54.903272 0
M  V30 52 H 38.756262 33.875410 57.013465 0
M  V30 53 H 37.067404 33.632960 56.882274 0
M  V30 54 H 37.421509 34.995364 58.697843 0
M  V30 55 H 38.200136 26.385899 56.497493 0
M  V30 56 H 38.655398 25.153451 55.211733 0
M  V30 57 H 37.067433 31.634566 55.671538 0
M  V30 58 H 41.248702 30.968453 50.509492 0
M  V30 59 H 37.955080 29.274208 57.348859 0
M  V30 60 H 36.407418 29.621749 56.618335 0
M  V30 61 H 39.415374 33.090520 59.597004 0
M  V30 62 H 39.358086 34.812288 59.826274 0
M  V30 63 H 37.360100 31.479438 58.279903 0
M  V30 64 H 39.066780 31.622107 57.994955 0
M  V30 65 H 39.867342 32.199005 64.438577 0
M  V30 66 H 40.257488 30.495548 64.141847 0
M  V30 67 H 36.158931 32.188369 59.831681 0
M  V30 68 H 37.371542 27.054223 51.982483 0
M  V30 69 H 36.833431 33.557730 59.197235 0
M  V30 70 H 39.748380 28.860070 56.187115 0
M  V30 END ATOM
M  V30 BEGIN BOND
M  V30 1 1 5 4
M  V30 2 1 8 6
M  V30 3 1 12 2
M  V30 4 2 12 10
M  V30 5 1 13 12
M  V30 6 1 14 11
M  V30 7 1 17 16
M  V30 8 1 18 11
M  V30 9 1 18 14
M  V30 10 2 20 5
M  V30 11 1 20 7
M  V30 12 1 21 15
M  V30 13 1 21 19
M  V30 14 1 22 11
M  V30 15 1 22 15
M  V30 16 2 23 4
M  V30 17 1 24 6
M  V30 18 1 24 17
M  V30 19 2 25 7
M  V30 20 1 25 23
M  V30 21 1 26 16
M  V30 22 1 26 19
M  V30 23 1 27 9
M  V30 24 1 28 1
M  V30 25 1 28 3
M  V30 26 1 28 8
M  V30 27 1 29 15
M  V30 28 1 29 22
M  V30 29 1 29 25 CFG=3
M  V30 30 1 30 23
M  V30 31 1 31 19
M  V30 32 1 31 29
M  V30 33 1 32 2
M  V30 34 1 32 8
M  V30 35 1 33 2
M  V30 36 1 33 27
M  V30 37 1 34 1
M  V30 38 1 35 1
M  V30 39 1 36 1
M  V30 40 1 2 37 CFG=1
M  V30 41 1 38 3
M  V30 42 1 39 4
M  V30 43 1 40 5
M  V30 44 1 41 6
M  V30 45 1 42 7
M  V30 46 1 8 43 CFG=1
M  V30 47 1 44 9
M  V30 48 1 45 11
M  V30 49 1 46 13
M  V30 50 1 47 13
M  V30 51 1 48 13
M  V30 52 1 49 14
M  V30 53 1 50 14
M  V30 54 1 15 51 CFG=3
M  V30 55 1 52 16
M  V30 56 1 53 16
M  V30 57 1 54 17
M  V30 58 1 55 18
M  V30 59 1 56 18
M  V30 60 1 19 57 CFG=3
M  V30 61 1 58 20
M  V30 62 1 59 21
M  V30 63 1 60 21
M  V30 64 1 61 24
M  V30 65 1 62 24
M  V30 66 1 63 26
M  V30 67 1 64 26
M  V30 68 1 65 27
M  V30 69 1 66 27
M  V30 70 1 28 67 CFG=3
M  V30 71 1 68 30
M  V30 72 1 69 17
M  V30 73 1 22 70 CFG=1
M  V30 END BOND
M  V30 END CTAB
M  END
>  <i_epik_Tot_Q>  (1) 
2

>  <i_epik_Tot_abs_Q>  (1) 
2

>  <i_i_glide_confnum>  (1) 
3393

>  <i_i_glide_lignum>  (1) 
84

>  <i_i_glide_posenum>  (1) 
6

>  <i_i_glide_rotatable_bonds>  (1) 
17

>  <i_lp_mmshare_version>  (1) 
72125

>  <i_m_source_file_index>  (1) 
31

>  <i_f3d_flags>  (1) 
0

>  <num_sample>  (1) 
100

>  <b_lp_Chiralities_Consistent>  (1) 
1

>  <r_epik_Charging_Adjusted_Penalty>  (1) 
1.979093595035226

>  <r_epik_Ionization_Penalty>  (1) 
0.79989620662071081

>  <r_epik_Ionization_Penalty_Charging>  (1) 
0.66086891892205935

>  <r_epik_Ionization_Penalty_Neutral>  (1) 
0.13902728769865147

>  <r_epik_State_Penalty>  (1) 
1.3182246761131666

>  <r_glide_ring_energy>  (1) 
0

>  <r_i_docking_score>  (1) 
-6.8647574958352919

>  <r_i_glide_ecoul>  (1) 
-11.4152417374954

>  <r_i_glide_eff_state_penalty>  (1) 
1.3182246761131666

>  <r_i_glide_einternal>  (1) 
21.972814851298175

>  <r_i_glide_emodel>  (1) 
-64.096200323325434

>  <r_i_glide_emodel_strain>  (1) 
6.793834424808928

>  <r_i_glide_energy>  (1) 
-52.61084108478704

>  <r_i_glide_erotb>  (1) 
1.1283805066766976

>  <r_i_glide_esite>  (1) 
-0.034058354282069964

>  <r_i_glide_evdw>  (1) 
-41.19559934729164

>  <r_i_glide_gscore>  (1) 
-8.1829821719484581

>  <r_i_glide_gscore_strain>  (1) 
0.69845860620223199

>  <r_i_glide_hbond>  (1) 
-0.82541106289966981

>  <r_i_glide_ligand_efficiency>  (1) 
-0.20802295441925128

>  <r_i_glide_ligand_efficiency_ln>  (1) 
-1.5266865232617193

>  <r_i_glide_ligand_efficiency_sa>  (1) 
-0.66724076772690555

>  <r_i_glide_lipo>  (1) 
-3.1384559338786886

>  <r_i_glide_metal>  (1) 
-0

>  <r_i_glide_rewards>  (1) 
-2.2398297057780692

>  <r_lp_Energy>  (1) 
25.051933999999999

>  <r_lp_tautomer_probability>  (1) 
0.99999996999736518

>  <s_epik_Chemistry_Notes>  (1) 
This compound contains an acetal/aminal-like group ( X-CH(R)-Y where X, Y are N, S, or O) that may be acid/base labile, releasing an aldehyde.

>  <s_epik_cmdline>  (1) 
J2VwaWtfcHl0aG9uJywgJy1waHQnLCAnMS4wJywgJy1waCcsICc3LjQnLCAnLXRuJywgJzgnLCAnLW1hJywgJzUwMCcsICctaW1hZScsICc8aW5maWxlLm1hZT4nLCAnLW9tYWUnLCAnPG91dGZpbGUubWFlPic=

>  <s_epik_input>  (1) 
W09IXVtDSDJdT1tDQEBIXShDKD1PKVtDSDNdKU9bQ0BIXShbQ0BIXShbQ0gzXSlbT0hdKVtOSF1bQ0gyXVtOSF1bQ0gyXVtDSDJdW0NAQEhdKFMxKVtDSDJdW0NASF0oTjJbQ0hdM1tDSDJdW0NIMl0zKVtDQEBdMTJjNFtjSF1bY0hdW2NIXVtjSF1jNFtPSF0=

>  <s_glide_docking_method>  (1) 
confgen

>  <s_i_glide_gridfile>  (1) 
gpcr_5ht2c_6bqh_protein_autoprepared_prepared

>  <s_lp_Force_Field>  (1) 
S-OPLS

>  <s_lp_Variant>  (1) 
DiffSBDD_30_num_sample_100-6

>  <s_m_source_file>  (1) 
generated__ligand_DiffSBDD_2026-05-06_prepared.sdf

>  <GenAI_Model>  (1) 
DiffSBDD

>  <Protein>  (1) 
GPCR_5HT2C

$$$$
DiffSBDD_30_num_sample_100
     RDKit          3D

  0  0  0  0  0  0  0  0  0  0999 V3000
M  V30 BEGIN CTAB
M  V30 COUNTS 69 72 0 0 1
M  V30 BEGIN ATOM
M  V30 1 C 40.665504 32.240176 65.203084 0
M  V30 2 C 43.936311 29.678644 66.360392 0 CFG=2
M  V30 3 O 42.789931 32.979258 65.853516 0
M  V30 4 C 39.467404 29.952316 52.868740 0
M  V30 5 C 39.282112 28.969397 51.878459 0
M  V30 6 N 41.983417 29.687211 64.193644 0
M  V30 7 C 38.882013 27.298979 53.609115 0
M  V30 8 C 42.766053 30.847934 64.664718 0 CFG=1
M  V30 9 O 45.467371 32.021026 68.613819 0
M  V30 10 O 45.067515 27.934932 65.126503 0
M  V30 11 C 38.243717 25.907645 57.334738 0
M  V30 12 C 44.848637 28.451050 66.221817 0
M  V30 13 C 45.461021 27.884035 67.499102 0
M  V30 14 C 37.326681 24.710222 57.318667 0
M  V30 15 C 37.920224 28.401572 57.002424 0 CFG=2
M  V30 16 C 40.288345 29.182942 60.892564 0
M  V30 17 N 40.994120 28.820485 62.144442 0 CHG=1
M  V30 18 C 38.678891 24.625816 56.659425 0
M  V30 19 C 39.957398 28.691774 58.405299 0 CFG=1
M  V30 20 C 38.987657 27.645706 52.248070 0
M  V30 21 C 38.418890 28.649951 58.412888 0
M  V30 22 N 37.867426 27.029038 56.473303 0
M  V30 23 C 39.357982 29.614161 54.232194 0
M  V30 24 C 41.095280 29.974907 63.064672 0
M  V30 25 C 39.067405 28.276548 54.615187 0
M  V30 26 C 40.588609 28.222002 59.731506 0
M  V30 27 C 45.322353 31.271877 67.429169 0
M  V30 28 C 42.049433 31.787863 65.686574 0 CFG=2
M  V30 29 C 38.972132 27.893665 56.067410 0 CFG=1
M  V30 30 O 39.538945 30.579116 55.181998 0
M  V30 31 S 40.542292 27.729231 56.980789 0
M  V30 32 O 43.997573 30.421547 65.171908 0
M  V30 33 O 44.210945 30.427826 67.515437 0
M  V30 34 H 39.948184 31.420752 65.229007 0
M  V30 35 H 40.267403 33.018212 65.853518 0
M  V30 36 H 40.700195 32.648027 64.192607 0
M  V30 37 H 42.930364 29.282706 66.502328 0
M  V30 38 H 42.416263 33.469136 66.570327 0
M  V30 39 H 39.692524 30.970235 52.582460 0
M  V30 40 H 39.364429 29.232949 50.833785 0
M  V30 41 H 42.659023 28.975161 63.929212 0
M  V30 42 H 38.660463 26.279165 53.885831 0
M  V30 43 H 43.053935 31.439259 63.794646 0
M  V30 44 H 46.172094 32.647219 68.504551 0
M  V30 45 H 38.729921 26.097620 58.286812 0
M  V30 46 H 46.267450 28.522476 67.853538 0
M  V30 47 H 44.706860 27.813733 68.282814 0
M  V30 48 H 45.866743 26.888979 67.315774 0
M  V30 49 H 37.192661 24.173239 58.253413 0
M  V30 50 H 36.453296 24.750134 56.670147 0
M  V30 51 H 37.203846 29.126641 56.618242 0
M  V30 52 H 40.589235 30.185244 60.583393 0
M  V30 53 H 39.217046 29.229306 61.094899 0
M  V30 54 H 40.481353 28.080749 62.607091 0
M  V30 55 H 38.706767 24.601212 55.572268 0
M  V30 56 H 39.445958 24.035050 57.156639 0
M  V30 57 H 40.267324 29.714675 58.197344 0
M  V30 58 H 38.844178 26.891986 51.486723 0
M  V30 59 H 38.026736 27.900148 59.090316 0
M  V30 60 H 38.022175 29.603243 58.763914 0
M  V30 61 H 41.459445 30.838452 62.506342 0
M  V30 62 H 40.092476 30.220583 63.413489 0
M  V30 63 H 40.233728 27.221466 59.973092 0
M  V30 64 H 41.668811 28.142562 59.598238 0
M  V30 65 H 46.246663 30.715772 67.273559 0
M  V30 66 H 45.203170 31.987466 66.614486 0
M  V30 67 H 41.933986 31.294237 66.650857 0
M  V30 68 H 39.235433 30.334253 56.040569 0
M  V30 69 H 41.915909 28.468717 61.912023 0
M  V30 END ATOM
M  V30 BEGIN BOND
M  V30 1 1 5 4
M  V30 2 1 8 6
M  V30 3 1 12 2
M  V30 4 2 12 10
M  V30 5 1 13 12
M  V30 6 1 14 11
M  V30 7 1 17 16
M  V30 8 1 18 11
M  V30 9 1 18 14
M  V30 10 2 20 5
M  V30 11 1 20 7
M  V30 12 1 21 15
M  V30 13 1 21 19
M  V30 14 1 22 11
M  V30 15 1 22 15
M  V30 16 2 23 4
M  V30 17 1 24 6
M  V30 18 1 24 17
M  V30 19 2 25 7
M  V30 20 1 25 23
M  V30 21 1 26 16
M  V30 22 1 26 19
M  V30 23 1 27 9
M  V30 24 1 28 1
M  V30 25 1 28 3
M  V30 26 1 28 8
M  V30 27 1 29 15
M  V30 28 1 29 22
M  V30 29 1 29 25 CFG=3
M  V30 30 1 30 23
M  V30 31 1 31 19
M  V30 32 1 31 29
M  V30 33 1 32 2
M  V30 34 1 32 8
M  V30 35 1 33 2
M  V30 36 1 33 27
M  V30 37 1 34 1
M  V30 38 1 35 1
M  V30 39 1 36 1
M  V30 40 1 2 37 CFG=1
M  V30 41 1 38 3
M  V30 42 1 39 4
M  V30 43 1 40 5
M  V30 44 1 41 6
M  V30 45 1 42 7
M  V30 46 1 8 43 CFG=3
M  V30 47 1 44 9
M  V30 48 1 45 11
M  V30 49 1 46 13
M  V30 50 1 47 13
M  V30 51 1 48 13
M  V30 52 1 49 14
M  V30 53 1 50 14
M  V30 54 1 15 51 CFG=3
M  V30 55 1 52 16
M  V30 56 1 53 16
M  V30 57 1 54 17
M  V30 58 1 55 18
M  V30 59 1 56 18
M  V30 60 1 19 57 CFG=3
M  V30 61 1 58 20
M  V30 62 1 59 21
M  V30 63 1 60 21
M  V30 64 1 61 24
M  V30 65 1 62 24
M  V30 66 1 63 26
M  V30 67 1 64 26
M  V30 68 1 65 27
M  V30 69 1 66 27
M  V30 70 1 28 67 CFG=1
M  V30 71 1 68 30
M  V30 72 1 69 17
M  V30 END BOND
M  V30 END CTAB
M  END
>  <i_epik_Tot_Q>  (1) 
1

>  <i_epik_Tot_abs_Q>  (1) 
1

>  <i_i_glide_confnum>  (1) 
5962

>  <i_i_glide_lignum>  (1) 
80

>  <i_i_glide_posenum>  (1) 
68

>  <i_i_glide_rotatable_bonds>  (1) 
17

>  <i_lp_mmshare_version>  (1) 
72125

>  <i_m_source_file_index>  (1) 
31

>  <i_f3d_flags>  (1) 
0

>  <num_sample>  (1) 
100

>  <b_lp_Chiralities_Consistent>  (1) 
1

>  <r_epik_Charging_Adjusted_Penalty>  (1) 
0.074635642036716146

>  <r_epik_Ionization_Penalty>  (1) 
0.2367700207343624

>  <r_epik_Ionization_Penalty_Charging>  (1) 
0.00051329390614008978

>  <r_epik_Ionization_Penalty_Neutral>  (1) 
0.23625672682822232

>  <r_epik_State_Penalty>  (1) 
0.074122348130576055

>  <r_glide_ring_energy>  (1) 
0

>  <r_i_docking_score>  (1) 
-6.8456444458508514

>  <r_i_glide_ecoul>  (1) 
-4.5265109818807616

>  <r_i_glide_eff_state_penalty>  (1) 
0.074122348130576055

>  <r_i_glide_einternal>  (1) 
13.973185832151529

>  <r_i_glide_emodel>  (1) 
-70.968023368479265

>  <r_i_glide_emodel_strain>  (1) 
0.3869221306987356

>  <r_i_glide_energy>  (1) 
-50.375648628296787

>  <r_i_glide_erotb>  (1) 
1.1326933877215775

>  <r_i_glide_esite>  (1) 
-0.055451116276447804

>  <r_i_glide_evdw>  (1) 
-45.849137646416025

>  <r_i_glide_gscore>  (1) 
-6.9197667939814274

>  <r_i_glide_gscore_strain>  (1) 
0

>  <r_i_glide_hbond>  (1) 
-0.32000000000000001

>  <r_i_glide_ligand_efficiency>  (1) 
-0.20744377108638945

>  <r_i_glide_ligand_efficiency_ln>  (1) 
-1.5224358799072564

>  <r_i_glide_ligand_efficiency_sa>  (1) 
-0.66538301730338978

>  <r_i_glide_lipo>  (1) 
-3.7999049562393092

>  <r_i_glide_metal>  (1) 
-0

>  <r_i_glide_rewards>  (1) 
-0.90567057958433073

>  <r_lp_Energy>  (1) 
27.490511999999999

>  <r_lp_tautomer_probability>  (1) 
0.99999996999736518

>  <s_epik_Chemistry_Notes>  (1) 
This compound contains an acetal/aminal-like group ( X-CH(R)-Y where X, Y are N, S, or O) that may be acid/base labile, releasing an aldehyde.

>  <s_epik_cmdline>  (1) 
J2VwaWtfcHl0aG9uJywgJy1waHQnLCAnMS4wJywgJy1waCcsICc3LjQnLCAnLXRuJywgJzgnLCAnLW1hJywgJzUwMCcsICctaW1hZScsICc8aW5maWxlLm1hZT4nLCAnLW9tYWUnLCAnPG91dGZpbGUubWFlPic=

>  <s_epik_input>  (1) 
W09IXVtDSDJdT1tDQEBIXShDKD1PKVtDSDNdKU9bQ0BIXShbQ0BIXShbQ0gzXSlbT0hdKVtOSF1bQ0gyXVtOSF1bQ0gyXVtDSDJdW0NAQEhdKFMxKVtDSDJdW0NASF0oTjJbQ0hdM1tDSDJdW0NIMl0zKVtDQEBdMTJjNFtjSF1bY0hdW2NIXVtjSF1jNFtPSF0=

>  <s_glide_docking_method>  (1) 
confgen

>  <s_i_glide_gridfile>  (1) 
gpcr_5ht2c_6bqh_protein_autoprepared_prepared

>  <s_lp_Force_Field>  (1) 
S-OPLS

>  <s_lp_Variant>  (1) 
DiffSBDD_30_num_sample_100-2

>  <s_m_source_file>  (1) 
generated__ligand_DiffSBDD_2026-05-06_prepared.sdf

>  <GenAI_Model>  (1) 
DiffSBDD

>  <Protein>  (1) 
GPCR_5HT2C

$$$$
DiffSBDD_10_num_sample_100
     RDKit          3D

  0  0  0  0  0  0  0  0  0  0999 V3000
M  V30 BEGIN CTAB
M  V30 COUNTS 89 92 0 0 1
M  V30 BEGIN ATOM
M  V30 1 C 43.830405 29.865991 66.476037 0
M  V30 2 C 39.553497 28.550080 62.041836 0
M  V30 3 C 40.902731 28.689434 57.818307 0
M  V30 4 C 38.063370 30.415429 54.960821 0 CFG=2
M  V30 5 C 41.743940 30.998517 63.804648 0
M  V30 6 C 38.542559 30.687857 57.253834 0 CFG=1
M  V30 7 C 38.627076 27.700026 53.358831 0
M  V30 8 C 40.668610 28.885972 63.043260 0
M  V30 9 O 42.346947 30.011434 69.196981 0
M  V30 10 O 41.067436 32.433260 66.808342 0
M  V30 11 C 45.167213 31.221018 68.305729 0
M  V30 12 C 44.324783 32.498505 68.379046 0
M  V30 13 O 38.570001 26.196394 58.653349 0
M  V30 14 C 41.634416 31.182841 67.150699 0 CFG=2
M  V30 15 C 42.981962 32.371225 69.113565 0
M  V30 16 N 42.023126 30.292666 64.915198 0
M  V30 17 C 39.223476 26.876351 57.866880 0
M  V30 18 C 38.996657 28.869331 59.517678 0 CFG=2
M  V30 19 C 39.392920 28.410891 58.044224 0 CFG=1
M  V30 20 C 38.597427 28.897615 52.374330 0 CFG=2
M  V30 21 C 39.082364 28.389281 51.007912 0
M  V30 22 C 37.990459 27.924976 54.739763 0
M  V30 23 C 37.949017 31.071991 58.597049 0
M  V30 24 C 38.452747 29.175578 57.033403 0 CFG=2
M  V30 25 C 39.469194 30.115984 52.784491 0
M  V30 26 C 38.758935 30.400222 59.706800 0
M  V30 27 C 38.950278 31.062005 53.892090 0
M  V30 28 C 39.775779 25.016202 56.480958 0
M  V30 29 N 37.867398 31.311348 56.113569 0 CHG=1
M  V30 30 C 40.023598 28.407335 60.586759 0
M  V30 31 C 45.148442 30.504341 66.946255 0
M  V30 32 C 42.001558 31.270384 68.656778 0 CFG=2
M  V30 33 O 39.860759 26.395867 56.783697 0
M  V30 34 C 42.720688 30.865487 66.073243 0 CFG=2
M  V30 35 O 42.063696 32.174110 63.646751 0
M  V30 36 C 38.650581 29.090629 55.500052 0 CFG=2
M  V30 37 N 41.072876 30.288651 62.874024 0
M  V30 38 H 44.103696 29.281549 65.595223 0
M  V30 39 H 43.474864 29.120842 67.184323 0
M  V30 40 H 39.066478 27.621433 62.312342 0
M  V30 41 H 38.777193 29.299609 62.166040 0
M  V30 42 H 41.207867 29.621472 58.266431 0
M  V30 43 H 41.534577 27.929431 58.281824 0
M  V30 44 H 41.182387 28.707041 56.768964 0
M  V30 45 H 37.067361 30.269108 54.538917 0
M  V30 46 H 39.581477 31.010405 57.199612 0
M  V30 47 H 39.651262 27.348032 53.484330 0
M  V30 48 H 38.094013 26.867775 52.895403 0
M  V30 49 H 41.525232 28.221382 62.913017 0
M  V30 50 H 40.267790 28.716320 64.043732 0
M  V30 51 H 42.270722 30.051023 70.137564 0
M  V30 52 H 41.763524 33.066883 66.725217 0
M  V30 53 H 46.199029 31.529301 68.478342 0
M  V30 54 H 44.927326 30.534446 69.117742 0
M  V30 55 H 44.200694 32.948039 67.395193 0
M  V30 56 H 44.907877 33.221402 68.944128 0
M  V30 57 H 40.840821 30.435798 67.076757 0
M  V30 58 H 42.475992 33.334938 69.034770 0
M  V30 59 H 43.175575 32.243689 70.180240 0
M  V30 60 H 41.725943 29.330318 64.972528 0
M  V30 61 H 38.035452 28.416769 59.755039 0
M  V30 62 H 37.564369 29.221601 52.258947 0
M  V30 63 H 40.107820 28.023054 51.066476 0
M  V30 64 H 38.462326 27.566199 50.653734 0
M  V30 65 H 39.065827 29.174772 50.253212 0
M  V30 66 H 38.046262 26.996731 55.298371 0
M  V30 67 H 36.923440 28.096160 54.619236 0
M  V30 68 H 36.904346 30.757786 58.652663 0
M  V30 69 H 37.956737 32.154871 58.730232 0
M  V30 70 H 37.424811 28.867280 57.238504 0
M  V30 71 H 40.454293 29.758734 53.059288 0
M  V30 72 H 39.660294 30.736574 51.909031 0
M  V30 73 H 38.207498 30.589493 60.624776 0
M  V30 74 H 39.709361 30.911641 59.853471 0
M  V30 75 H 39.819928 31.520452 54.367556 0
M  V30 76 H 38.394330 31.890309 53.453842 0
M  V30 77 H 40.267328 24.821853 55.529411 0
M  V30 78 H 40.267207 24.420547 57.249109 0
M  V30 79 H 38.738003 24.690341 56.398135 0
M  V30 80 H 36.867575 31.389836 56.325682 0
M  V30 81 H 40.955380 28.958629 60.461569 0
M  V30 82 H 40.282581 27.362341 60.428061 0
M  V30 83 H 45.528966 31.173637 66.173030 0
M  V30 84 H 45.867373 29.692037 67.009595 0
M  V30 85 H 41.067328 31.500180 69.169233 0
M  V30 86 H 43.222645 31.786858 65.776148 0
M  V30 87 H 39.719390 29.068828 55.302267 0
M  V30 88 H 40.813041 30.747346 62.014491 0
M  V30 89 H 38.215358 32.240584 55.932974 0
M  V30 END ATOM
M  V30 BEGIN BOND
M  V30 1 1 8 2
M  V30 2 1 12 11
M  V30 3 1 14 10
M  V30 4 1 15 12
M  V30 5 1 16 5
M  V30 6 2 17 13
M  V30 7 1 19 3 CFG=3
M  V30 8 1 19 17
M  V30 9 1 19 18
M  V30 10 1 20 7
M  V30 11 1 21 20
M  V30 12 1 22 7
M  V30 13 1 23 6
M  V30 14 1 24 6
M  V30 15 1 24 19
M  V30 16 1 25 20
M  V30 17 1 26 18
M  V30 18 1 26 23
M  V30 19 1 27 4
M  V30 20 1 27 25
M  V30 21 1 29 4
M  V30 22 1 29 6
M  V30 23 1 30 2
M  V30 24 1 30 18
M  V30 25 1 31 1
M  V30 26 1 31 11
M  V30 27 1 32 9
M  V30 28 1 32 14
M  V30 29 1 32 15
M  V30 30 1 33 17
M  V30 31 1 33 28
M  V30 32 1 34 1
M  V30 33 1 34 14
M  V30 34 1 34 16
M  V30 35 2 35 5
M  V30 36 1 36 4
M  V30 37 1 36 22
M  V30 38 1 36 24
M  V30 39 1 37 5
M  V30 40 1 37 8
M  V30 41 1 38 1
M  V30 42 1 39 1
M  V30 43 1 40 2
M  V30 44 1 41 2
M  V30 45 1 42 3
M  V30 46 1 43 3
M  V30 47 1 44 3
M  V30 48 1 4 45 CFG=3
M  V30 49 1 6 46 CFG=1
M  V30 50 1 47 7
M  V30 51 1 48 7
M  V30 52 1 49 8
M  V30 53 1 50 8
M  V30 54 1 51 9
M  V30 55 1 52 10
M  V30 56 1 53 11
M  V30 57 1 54 11
M  V30 58 1 55 12
M  V30 59 1 56 12
M  V30 60 1 14 57 CFG=1
M  V30 61 1 58 15
M  V30 62 1 59 15
M  V30 63 1 60 16
M  V30 64 1 18 61 CFG=1
M  V30 65 1 20 62 CFG=3
M  V30 66 1 63 21
M  V30 67 1 64 21
M  V30 68 1 65 21
M  V30 69 1 66 22
M  V30 70 1 67 22
M  V30 71 1 68 23
M  V30 72 1 69 23
M  V30 73 1 24 70 CFG=3
M  V30 74 1 71 25
M  V30 75 1 72 25
M  V30 76 1 73 26
M  V30 77 1 74 26
M  V30 78 1 75 27
M  V30 79 1 76 27
M  V30 80 1 77 28
M  V30 81 1 78 28
M  V30 82 1 79 28
M  V30 83 1 80 29
M  V30 84 1 81 30
M  V30 85 1 82 30
M  V30 86 1 83 31
M  V30 87 1 84 31
M  V30 88 1 32 85 CFG=1
M  V30 89 1 34 86 CFG=3
M  V30 90 1 36 87 CFG=1
M  V30 91 1 88 37
M  V30 92 1 89 29
M  V30 END BOND
M  V30 END CTAB
M  END
>  <i_epik_Tot_Q>  (1) 
1

>  <i_epik_Tot_abs_Q>  (1) 
1

>  <i_i_glide_confnum>  (1) 
456

>  <i_i_glide_lignum>  (1) 
29

>  <i_i_glide_posenum>  (1) 
132

>  <i_i_glide_rotatable_bonds>  (1) 
11

>  <i_lp_mmshare_version>  (1) 
72125

>  <i_m_source_file_index>  (1) 
11

>  <i_f3d_flags>  (1) 
0

>  <num_sample>  (1) 
100

>  <b_lp_Chiralities_Consistent>  (1) 
1

>  <r_epik_Charging_Adjusted_Penalty>  (1) 
5.0796361182183547e-05

>  <r_epik_Ionization_Penalty>  (1) 
7.4494793670828869e-05

>  <r_epik_Ionization_Penalty_Charging>  (1) 
5.0796361182183547e-05

>  <r_epik_Ionization_Penalty_Neutral>  (1) 
2.3698432488645322e-05

>  <r_epik_State_Penalty>  (1) 
-0

>  <r_glide_ring_energy>  (1) 
0.60387110762599439

>  <r_i_docking_score>  (1) 
-6.8449791464976624

>  <r_i_glide_ecoul>  (1) 
-5.2035706301447018

>  <r_i_glide_eff_state_penalty>  (1) 
-0

>  <r_i_glide_einternal>  (1) 
20.720069160049157

>  <r_i_glide_emodel>  (1) 
-54.401004137772674

>  <r_i_glide_emodel_strain>  (1) 
0.18082106324537506

>  <r_i_glide_energy>  (1) 
-47.695685357914499

>  <r_i_glide_erotb>  (1) 
0.60206145100119157

>  <r_i_glide_esite>  (1) 
-0.12350437243310841

>  <r_i_glide_evdw>  (1) 
-42.492114727769795

>  <r_i_glide_gscore>  (1) 
-6.8449791464976624

>  <r_i_glide_gscore_strain>  (1) 
0

>  <r_i_glide_hbond>  (1) 
-0.20000000000000001

>  <r_i_glide_ligand_efficiency>  (1) 
-0.18499943639182873

>  <r_i_glide_ligand_efficiency_ln>  (1) 
-1.4845155077966399

>  <r_i_glide_ligand_efficiency_sa>  (1) 
-0.6164591644870373

>  <r_i_glide_lipo>  (1) 
-3.7802566136478788

>  <r_i_glide_metal>  (1) 
-0

>  <r_i_glide_rewards>  (1) 
-0.43813828050767056

>  <r_lp_Energy>  (1) 
70.195819

>  <r_lp_tautomer_probability>  (1) 
1

>  <s_epik_Chemistry_Notes>  (1) 
This compound has an ester and may undergo hydrolysis at high or low pH.

>  <s_epik_cmdline>  (1) 
J2VwaWtfcHl0aG9uJywgJy1waHQnLCAnMS4wJywgJy1waCcsICc3LjQnLCAnLXRuJywgJzgnLCAnLW1hJywgJzUwMCcsICctaW1hZScsICc8aW5maWxlLm1hZT4nLCAnLW9tYWUnLCAnPG91dGZpbGUubWFlPic=

>  <s_epik_input>  (1) 
W09IXVtDQEBIXTFbQ0BASF0oW09IXSlbQ0gyXVtDSDJdW0NIMl1bQ0gyXVtDSDJdW0NASF0xW05IXUMoPU8pW05IXVtDSDJdW0NIMl1bQ0gyXVtDQEhdKFtDQEBdMihbQ0gzXSlDKD1PKU9bQ0gzXSlbQ0gyXVtDSDJdW0NASF0oW05IXTMpW0NASF0yW0NASF0oW0NAQEhdMzQpW0NIMl1bQ0gyXVtDQEhdKFtDSDNdKVtDSDJdW0NIMl00

>  <s_glide_docking_method>  (1) 
confgen

>  <s_i_glide_gridfile>  (1) 
gpcr_5ht2c_6bqh_protein_autoprepared_prepared

>  <s_lp_Force_Field>  (1) 
S-OPLS

>  <s_lp_Variant>  (1) 
DiffSBDD_10_num_sample_100-1

>  <s_m_source_file>  (1) 
generated__ligand_DiffSBDD_2026-05-06_prepared.sdf

>  <GenAI_Model>  (1) 
DiffSBDD

>  <Protein>  (1) 
GPCR_5HT2C

$$$$
DiffSBDD_28_num_sample_100
     RDKit          3D

  0  0  0  0  0  0  0  0  0  0999 V3000
M  V30 BEGIN CTAB
M  V30 COUNTS 37 38 0 0 1
M  V30 BEGIN ATOM
M  V30 1 C 38.923177 28.090841 59.128564 0
M  V30 2 C 37.804910 26.967408 54.247294 0
M  V30 3 C 39.322621 30.375379 61.879632 0
M  V30 4 O 38.879929 31.486371 62.170162 0
M  V30 5 S 39.467409 28.419144 50.705712 0
M  V30 6 O 41.067403 30.491038 50.263151 0
M  V30 7 C 39.923384 30.529302 52.311204 0
M  V30 8 C 38.856008 27.251321 53.184808 0
M  V30 9 C 39.436809 26.017035 55.961123 0
M  V30 10 C 39.929426 26.959335 57.071174 0
M  V30 11 C 40.278994 29.978275 51.052913 0
M  V30 12 C 39.058758 29.787453 52.975179 0
M  V30 13 C 38.057422 26.428781 55.458244 0
M  V30 14 C 38.555270 28.497240 52.348003 0 CFG=1
M  V30 15 C 37.954784 29.172363 58.470084 0
M  V30 16 C 38.171404 30.130209 59.705698 0
M  V30 17 C 38.976439 29.664591 60.639262 0
M  V30 18 C 39.175343 26.782041 58.405424 0
M  V30 19 C 39.437487 28.432031 60.301876 0
M  V30 20 H 36.787076 27.221643 53.989080 0
M  V30 21 H 40.008505 29.840327 62.536842 0
M  V30 22 H 40.336214 31.461570 52.664002 0
M  V30 23 H 39.867406 27.299392 53.579058 0
M  V30 24 H 38.837417 26.421031 52.491945 0
M  V30 25 H 40.173736 25.974056 55.162809 0
M  V30 26 H 39.376301 24.995748 56.339315 0
M  V30 27 H 39.849539 27.984853 56.709524 0
M  V30 28 H 40.994428 26.796845 57.244289 0
M  V30 29 H 38.690902 30.073046 53.950163 0
M  V30 30 H 37.235495 26.268208 56.140957 0
M  V30 31 H 37.488225 28.581101 52.137203 0
M  V30 32 H 36.924926 28.829635 58.367944 0
M  V30 33 H 38.335738 29.594003 57.539900 0
M  V30 34 H 37.680387 31.092205 59.753932 0
M  V30 35 H 39.731463 26.101723 59.051092 0
M  V30 36 H 38.203009 26.314602 58.251089 0
M  V30 37 H 40.108094 27.826294 60.895126 0
M  V30 END ATOM
M  V30 BEGIN BOND
M  V30 1 2 4 3
M  V30 2 1 8 2
M  V30 3 1 10 9
M  V30 4 1 11 5
M  V30 5 2 11 6
M  V30 6 1 11 7
M  V30 7 2 12 7
M  V30 8 2 13 2
M  V30 9 1 13 9
M  V30 10 1 14 5
M  V30 11 1 14 8
M  V30 12 1 14 12
M  V30 13 1 15 1
M  V30 14 1 16 15
M  V30 15 1 17 3
M  V30 16 2 17 16
M  V30 17 1 18 1
M  V30 18 1 18 10
M  V30 19 2 19 1
M  V30 20 1 19 17
M  V30 21 1 20 2
M  V30 22 1 21 3
M  V30 23 1 22 7
M  V30 24 1 23 8
M  V30 25 1 24 8
M  V30 26 1 25 9
M  V30 27 1 26 9
M  V30 28 1 27 10
M  V30 29 1 28 10
M  V30 30 1 29 12
M  V30 31 1 30 13
M  V30 32 1 14 31 CFG=3
M  V30 33 1 32 15
M  V30 34 1 33 15
M  V30 35 1 34 16
M  V30 36 1 35 18
M  V30 37 1 36 18
M  V30 38 1 37 19
M  V30 END BOND
M  V30 END CTAB
M  END
>  <i_epik_Tot_Q>  (1) 
0

>  <i_epik_Tot_abs_Q>  (1) 
0

>  <i_i_glide_confnum>  (1) 
242

>  <i_i_glide_lignum>  (1) 
69

>  <i_i_glide_posenum>  (1) 
272

>  <i_i_glide_rotatable_bonds>  (1) 
7

>  <i_lp_mmshare_version>  (1) 
72125

>  <i_m_source_file_index>  (1) 
29

>  <i_f3d_flags>  (1) 
0

>  <num_sample>  (1) 
100

>  <b_lp_Chiralities_Consistent>  (1) 
1

>  <r_epik_Charging_Adjusted_Penalty>  (1) 
0

>  <r_epik_Ionization_Penalty>  (1) 
0

>  <r_epik_Ionization_Penalty_Charging>  (1) 
0

>  <r_epik_Ionization_Penalty_Neutral>  (1) 
0

>  <r_epik_State_Penalty>  (1) 
-0

>  <r_glide_ring_energy>  (1) 
0

>  <r_i_docking_score>  (1) 
-6.8431294067913875

>  <r_i_glide_ecoul>  (1) 
-0.23497730967268282

>  <r_i_glide_eff_state_penalty>  (1) 
-0

>  <r_i_glide_einternal>  (1) 
5.621234501933186

>  <r_i_glide_emodel>  (1) 
-45.452413362787325

>  <r_i_glide_emodel_strain>  (1) 
1.1049277745487842

>  <r_i_glide_energy>  (1) 
-35.253426420003876

>  <r_i_glide_erotb>  (1) 
1.1924995267514154

>  <r_i_glide_esite>  (1) 
0

>  <r_i_glide_evdw>  (1) 
-35.018449110331197

>  <r_i_glide_gscore>  (1) 
-6.8431294067913875

>  <r_i_glide_gscore_strain>  (1) 
0

>  <r_i_glide_hbond>  (1) 
0

>  <r_i_glide_ligand_efficiency>  (1) 
-0.36016470562059932

>  <r_i_glide_ligand_efficiency_ln>  (1) 
-1.734880281564785

>  <r_i_glide_ligand_efficiency_sa>  (1) 
-0.96106409428946138

>  <r_i_glide_lipo>  (1) 
-3.5767882646221718

>  <r_i_glide_metal>  (1) 
-0

>  <r_i_glide_rewards>  (1) 
-2.6726716169531688

>  <r_lp_Energy>  (1) 
-7.8212549999999998

>  <r_lp_tautomer_probability>  (1) 
1

>  <s_epik_cmdline>  (1) 
J2VwaWtfcHl0aG9uJywgJy1waHQnLCAnMS4wJywgJy1waCcsICc3LjQnLCAnLXRuJywgJzgnLCAnLW1hJywgJzUwMCcsICctaW1hZScsICc8aW5maWxlLm1hZT4nLCAnLW9tYWUnLCAnPG91dGZpbGUubWFlPic=

>  <s_epik_input>  (1) 
Tz1bQ0hdQyg9W0NIXVtDSDJdMSlbQ0hdPUMxW0NIMl1bQ0gyXVtDSDJdL1tDSF09W0NIXVxbQ0gyXVtDQEhdKFNDMj1PKVtDSF09W0NIXTI=

>  <s_glide_docking_method>  (1) 
confgen

>  <s_i_glide_gridfile>  (1) 
gpcr_5ht2c_6bqh_protein_autoprepared_prepared

>  <s_lp_Force_Field>  (1) 
S-OPLS

>  <s_lp_Variant>  (1) 
DiffSBDD_28_num_sample_100-1

>  <s_m_source_file>  (1) 
generated__ligand_DiffSBDD_2026-05-06_prepared.sdf

>  <GenAI_Model>  (1) 
DiffSBDD

>  <Protein>  (1) 
GPCR_5HT2C

$$$$
DiffSBDD_19_num_sample_100
     RDKit          3D

  0  0  0  0  0  0  0  0  0  0999 V3000
M  V30 BEGIN CTAB
M  V30 COUNTS 71 72 0 0 1
M  V30 BEGIN ATOM
M  V30 1 C 38.756027 32.116790 60.259560 0
M  V30 2 C 39.257264 30.988808 55.771062 0
M  V30 3 C 40.059823 32.443681 62.421144 0
M  V30 4 C 42.267360 33.951372 63.683177 0
M  V30 5 O 37.867415 32.718239 56.745605 0
M  V30 6 C 34.450700 32.951077 60.156759 0
M  V30 7 C 41.302017 33.179630 64.588393 0 CFG=2
M  V30 8 C 39.867490 30.032898 51.268574 0
M  V30 9 C 39.706231 30.357171 52.717304 0
M  V30 10 C 40.267433 30.886368 64.418030 0
M  V30 11 C 39.717387 28.854666 50.670132 0
M  V30 12 C 41.988089 32.727240 65.911892 0
M  V30 13 C 41.491430 31.400209 66.451702 0
M  V30 14 O 39.077858 29.189125 60.909390 0
M  V30 15 O 41.067404 30.021122 61.453440 0 CHG=-1
M  V30 16 O 40.253988 31.119002 50.594534 0
M  V30 17 C 40.713030 30.567071 65.751211 0
M  V30 18 N 37.840429 31.235216 59.482866 0 CFG=1 CHG=1
M  V30 19 C 38.792841 31.705196 57.071189 0 CFG=1
M  V30 20 C 39.299410 27.610619 51.292043 0
M  V30 21 C 38.163292 30.612061 54.733435 0 CFG=1
M  V30 22 C 38.694231 27.425798 52.496025 0
M  V30 23 C 36.452747 31.719625 59.355251 0
M  V30 24 C 39.171233 31.464744 61.605076 0 CFG=2
M  V30 25 C 39.832590 30.105755 61.300850 0
M  V30 26 C 38.359505 30.697071 58.185694 0
M  V30 27 C 40.530623 32.078912 63.841512 0
M  V30 28 C 38.292219 28.418942 53.497534 0
M  V30 29 C 34.653126 34.208836 59.290524 0
M  V30 30 C 38.694601 29.705786 53.607386 0
M  V30 31 C 35.739365 32.246003 60.606180 0
M  V30 32 O 37.067418 30.021474 55.392187 0
M  V30 33 H 39.642245 32.380227 59.694779 0
M  V30 34 H 38.300545 33.088969 60.436135 0
M  V30 35 H 39.820567 30.096083 56.046118 0
M  V30 36 H 39.978873 31.636907 55.272673 0
M  V30 37 H 40.939102 32.667374 61.817252 0
M  V30 38 H 39.519045 33.386207 62.516718 0
M  V30 39 H 41.732285 34.626894 63.016358 0
M  V30 40 H 42.960188 34.559177 64.265553 0
M  V30 41 H 42.839528 33.266540 63.057104 0
M  V30 42 H 36.985759 32.346356 56.633575 0
M  V30 43 H 33.853702 32.240970 59.588502 0
M  V30 44 H 33.871391 33.225911 61.035764 0
M  V30 45 H 40.543689 33.899393 64.886084 0
M  V30 46 H 40.667408 30.229129 53.203094 0
M  V30 47 H 39.510664 31.429909 52.773241 0
M  V30 48 H 39.702340 30.147159 63.875896 0
M  V30 49 H 39.930493 28.817636 49.612119 0
M  V30 50 H 41.860587 33.494262 66.676714 0
M  V30 51 H 43.062261 32.617766 65.762077 0
M  V30 52 H 41.810351 31.128260 67.447116 0
M  V30 53 H 40.362826 30.876222 49.688803 0
M  V30 54 H 40.412489 29.628312 66.194059 0
M  V30 55 H 39.637448 32.271776 57.441287 0
M  V30 56 H 39.453454 26.718008 50.703234 0
M  V30 57 H 37.775438 31.523172 54.274557 0
M  V30 58 H 38.432956 26.411588 52.729881 0
M  V30 59 H 36.501089 32.533080 58.653561 0
M  V30 60 H 35.844141 30.924754 58.922081 0
M  V30 61 H 38.271271 31.263910 62.187852 0
M  V30 62 H 37.610221 30.004352 57.809307 0
M  V30 63 H 39.219911 30.067535 58.412858 0
M  V30 64 H 37.594908 28.065115 54.238419 0
M  V30 65 H 33.687073 34.646856 59.053326 0
M  V30 66 H 35.263654 34.951396 59.802462 0
M  V30 67 H 35.110306 34.021392 58.321340 0
M  V30 68 H 35.503484 31.417568 61.275125 0
M  V30 69 H 36.331716 32.951228 61.185425 0
M  V30 70 H 37.366309 29.253951 55.852528 0
M  V30 71 H 37.797268 30.397372 60.057933 0
M  V30 END ATOM
M  V30 BEGIN BOND
M  V30 1 1 7 4
M  V30 2 1 9 8
M  V30 3 2 11 8
M  V30 4 1 12 7
M  V30 5 1 13 12
M  V30 6 1 16 8
M  V30 7 1 17 10
M  V30 8 2 17 13
M  V30 9 1 18 1
M  V30 10 1 19 2
M  V30 11 1 19 5
M  V30 12 1 20 11
M  V30 13 1 21 2
M  V30 14 2 22 20
M  V30 15 1 23 18
M  V30 16 1 24 1
M  V30 17 1 24 3
M  V30 18 2 25 14
M  V30 19 1 25 15
M  V30 20 1 25 24
M  V30 21 1 26 18
M  V30 22 1 26 19
M  V30 23 1 27 3
M  V30 24 1 27 7
M  V30 25 2 27 10
M  V30 26 1 28 22
M  V30 27 1 29 6
M  V30 28 1 30 9
M  V30 29 1 30 21
M  V30 30 2 30 28
M  V30 31 1 31 6
M  V30 32 1 31 23
M  V30 33 1 32 21
M  V30 34 1 33 1
M  V30 35 1 34 1
M  V30 36 1 35 2
M  V30 37 1 36 2
M  V30 38 1 37 3
M  V30 39 1 38 3
M  V30 40 1 39 4
M  V30 41 1 40 4
M  V30 42 1 41 4
M  V30 43 1 42 5
M  V30 44 1 43 6
M  V30 45 1 44 6
M  V30 46 1 7 45 CFG=1
M  V30 47 1 46 9
M  V30 48 1 47 9
M  V30 49 1 48 10
M  V30 50 1 49 11
M  V30 51 1 50 12
M  V30 52 1 51 12
M  V30 53 1 52 13
M  V30 54 1 53 16
M  V30 55 1 54 17
M  V30 56 1 19 55 CFG=1
M  V30 57 1 56 20
M  V30 58 1 21 57 CFG=3
M  V30 59 1 58 22
M  V30 60 1 59 23
M  V30 61 1 60 23
M  V30 62 1 24 61 CFG=1
M  V30 63 1 62 26
M  V30 64 1 63 26
M  V30 65 1 64 28
M  V30 66 1 65 29
M  V30 67 1 66 29
M  V30 68 1 67 29
M  V30 69 1 68 31
M  V30 70 1 69 31
M  V30 71 1 70 32
M  V30 72 1 18 71 CFG=1
M  V30 END BOND
M  V30 END CTAB
M  END
>  <i_epik_Tot_Q>  (1) 
0

>  <i_epik_Tot_abs_Q>  (1) 
2

>  <i_i_glide_confnum>  (1) 
2823

>  <i_i_glide_lignum>  (1) 
52

>  <i_i_glide_posenum>  (1) 
120

>  <i_i_glide_rotatable_bonds>  (1) 
16

>  <i_lp_mmshare_version>  (1) 
72125

>  <i_m_source_file_index>  (1) 
20

>  <i_f3d_flags>  (1) 
0

>  <num_sample>  (1) 
100

>  <b_lp_Chiralities_Consistent>  (1) 
1

>  <r_epik_Charging_Adjusted_Penalty>  (1) 
0.015037487925518506

>  <r_epik_Ionization_Penalty>  (1) 
0.015045499532085388

>  <r_epik_Ionization_Penalty_Charging>  (1) 
0.0012943130925640431

>  <r_epik_Ionization_Penalty_Neutral>  (1) 
0.013751186439521345

>  <r_epik_State_Penalty>  (1) 
0.013743174832954463

>  <r_glide_ring_energy>  (1) 
0

>  <r_i_docking_score>  (1) 
-6.8415081048094901

>  <r_i_glide_ecoul>  (1) 
-7.4599801632425597

>  <r_i_glide_eff_state_penalty>  (1) 
0.013743174832954463

>  <r_i_glide_einternal>  (1) 
17.709283742691454

>  <r_i_glide_emodel>  (1) 
-60.142794083862462

>  <r_i_glide_emodel_strain>  (1) 
2.3101124599039338

>  <r_i_glide_energy>  (1) 
-47.827654874574961

>  <r_i_glide_erotb>  (1) 
1.1084889849388277

>  <r_i_glide_esite>  (1) 
-0.040135713595000726

>  <r_i_glide_evdw>  (1) 
-40.367674711332398

>  <r_i_glide_gscore>  (1) 
-6.8552512796424443

>  <r_i_glide_gscore_strain>  (1) 
0

>  <r_i_glide_hbond>  (1) 
-0.33162985407308426

>  <r_i_glide_ligand_efficiency>  (1) 
-0.21379712827529657

>  <r_i_glide_ligand_efficiency_ln>  (1) 
-1.5320001571343052

>  <r_i_glide_ligand_efficiency_sa>  (1) 
-0.6787635726639718

>  <r_i_glide_lipo>  (1) 
-3.4661711133809154

>  <r_i_glide_metal>  (1) 
-0

>  <r_i_glide_rewards>  (1) 
-0.98842282347926758

>  <r_lp_Energy>  (1) 
25.908189

>  <s_epik_cmdline>  (1) 
J2VwaWtfcHl0aG9uJywgJy1waHQnLCAnMS4wJywgJy1waCcsICc3LjQnLCAnLXRuJywgJzgnLCAnLW1hJywgJzUwMCcsICctaW1hZScsICc8aW5maWxlLm1hZT4nLCAnLW9tYWUnLCAnPG91dGZpbGUubWFlPic=

>  <s_epik_input>  (1) 
W0NIM11bQ0BIXTFbQ0gyXVtDSF09W0NIXVtDSF09QzFbQ0gyXVtDQEhdKEMoPU8pW09IXSlbQ0gyXU4oW0NIMl1bQ0gyXVtDSDJdW0NIM10pW0NIMl1bQ0BIXShbT0hdKVtDSDJdW0NASF0oW09IXSlDKFtDSDJdMik9W0NIXVtDSF09W0NIXVtDSF09QzJbT0hd

>  <s_glide_docking_method>  (1) 
confgen

>  <s_i_glide_gridfile>  (1) 
gpcr_5ht2c_6bqh_protein_autoprepared_prepared

>  <s_lp_Force_Field>  (1) 
S-OPLS

>  <s_lp_Variant>  (1) 
DiffSBDD_19_num_sample_100-4

>  <s_m_source_file>  (1) 
generated__ligand_DiffSBDD_2026-05-06_prepared.sdf

>  <GenAI_Model>  (1) 
DiffSBDD

>  <Protein>  (1) 
GPCR_5HT2C

$$$$
DiffSBDD_79_num_sample_100
     RDKit          3D

  0  0  0  0  0  0  0  0  0  0999 V3000
M  V30 BEGIN CTAB
M  V30 COUNTS 85 87 0 0 1
M  V30 BEGIN ATOM
M  V30 1 C 41.597556 27.959849 56.653734 0
M  V30 2 C 37.634495 30.208058 59.335247 0
M  V30 3 C 39.462442 28.409696 51.170869 0
M  V30 4 C 40.126815 30.936219 63.956278 0
M  V30 5 C 41.613756 28.107375 59.068421 0
M  V30 6 C 40.586934 30.148807 49.853205 0
M  V30 7 C 40.695227 28.129117 57.846651 0
M  V30 8 C 37.287348 30.187240 54.781372 0
M  V30 9 F 41.846142 30.539741 50.011941 0
M  V30 10 C 41.134548 29.834432 63.589452 0
M  V30 11 C 38.983652 29.502474 59.253569 0
M  V30 12 C 39.441725 30.472310 53.466663 0
M  V30 13 F 40.563948 29.221441 48.913320 0
M  V30 14 C 40.044791 29.622896 51.150401 0
M  V30 15 C 38.052971 28.434864 53.261045 0
M  V30 16 C 36.673271 32.464042 59.619729 0
M  V30 17 C 40.873038 33.063565 62.904264 0
M  V30 18 N 40.055234 31.975751 62.912379 0
M  V30 19 C 39.402751 27.346118 57.741161 0
M  V30 20 C 38.272152 29.647228 53.789924 0
M  V30 21 C 39.061342 31.771095 61.852765 0
M  V30 22 C 38.169341 31.988867 57.517763 0 CFG=2
M  V30 23 C 39.344177 28.873346 57.906334 0
M  V30 24 C 39.067534 26.408235 58.856608 0
M  V30 25 O 39.214020 31.171534 57.104335 0
M  V30 26 O 40.831998 33.918273 62.018354 0
M  V30 27 C 38.701168 33.410140 57.586301 0
M  V30 28 C 39.040356 26.612613 56.443203 0
M  V30 29 C 41.872647 33.209278 64.056199 0
M  V30 30 N 37.790486 31.658848 59.055371 0 CFG=2 CHG=1
M  V30 31 F 39.867357 31.198023 49.461341 0
M  V30 32 C 40.195261 30.462489 52.338710 0
M  V30 33 C 37.844073 32.719456 61.962518 0
M  V30 34 C 38.965945 27.705943 52.365372 0
M  V30 35 C 36.568010 32.364889 61.160020 0
M  V30 36 C 37.541144 29.544477 56.144270 0
M  V30 37 C 38.945048 29.815221 56.760019 0 CFG=2
M  V30 38 H 41.902397 26.914883 56.653650 0
M  V30 39 H 41.087858 28.173311 55.721873 0
M  V30 40 H 42.504316 28.557508 56.726882 0
M  V30 41 H 37.305285 30.050780 60.355300 0
M  V30 42 H 36.843721 29.725604 58.773729 0
M  V30 43 H 39.391577 27.850035 50.251141 0
M  V30 44 H 40.343377 31.343870 64.943786 0
M  V30 45 H 39.148374 30.464593 64.070708 0
M  V30 46 H 42.248587 27.222205 59.053516 0
M  V30 47 H 42.267162 28.978106 59.039885 0
M  V30 48 H 41.095856 28.126269 60.023870 0
M  V30 49 H 37.388902 31.270776 54.815307 0
M  V30 50 H 36.268037 30.020442 54.449020 0
M  V30 51 H 41.154601 29.062450 64.359011 0
M  V30 52 H 40.862416 29.349664 62.651377 0
M  V30 53 H 42.148395 30.217081 63.482494 0
M  V30 54 H 39.788506 30.181962 59.529025 0
M  V30 55 H 38.978278 28.767949 60.048902 0
M  V30 56 H 39.697464 31.232534 54.191788 0
M  V30 57 H 37.167492 27.892022 53.560899 0
M  V30 58 H 36.792906 33.519620 59.390771 0
M  V30 59 H 35.736067 32.157132 59.153554 0
M  V30 60 H 38.734429 30.732915 61.886001 0
M  V30 61 H 39.571797 31.914343 60.902575 0
M  V30 62 H 37.377762 31.960596 56.806763 0
M  V30 63 H 39.575921 25.463607 58.673097 0
M  V30 64 H 39.411236 26.821472 59.798382 0
M  V30 65 H 37.993851 26.240423 58.890299 0
M  V30 66 H 37.896945 34.130671 57.728501 0
M  V30 67 H 39.467071 33.521772 58.355396 0
M  V30 68 H 39.130871 33.621002 56.608069 0
M  V30 69 H 39.643309 25.710428 56.333536 0
M  V30 70 H 37.991952 26.312969 56.452758 0
M  V30 71 H 39.201400 27.217820 55.554669 0
M  V30 72 H 42.527173 32.343591 64.140913 0
M  V30 73 H 42.508047 34.078714 63.885936 0
M  V30 74 H 41.356488 33.365620 65.003560 0
M  V30 75 H 40.965245 31.220949 52.285938 0
M  V30 76 H 38.142612 33.745768 61.745278 0
M  V30 77 H 37.553828 32.700947 63.004046 0
M  V30 78 H 39.804411 27.304778 52.935853 0
M  V30 79 H 38.415328 26.838056 52.000477 0
M  V30 80 H 35.786159 33.061856 61.466223 0
M  V30 81 H 36.179624 31.397775 61.473057 0
M  V30 82 H 36.706013 29.812435 56.779555 0
M  V30 83 H 37.467354 28.476560 56.009633 0
M  V30 84 H 39.668393 29.641637 55.977461 0
M  V30 85 H 38.587862 31.935647 59.607114 0
M  V30 END ATOM
M  V30 BEGIN BOND
M  V30 1 1 7 1
M  V30 2 1 7 5
M  V30 3 1 9 6
M  V30 4 1 10 4
M  V30 5 1 11 2
M  V30 6 1 13 6
M  V30 7 2 14 3
M  V30 8 1 14 6
M  V30 9 1 18 4
M  V30 10 1 18 17
M  V30 11 1 19 7
M  V30 12 1 20 8
M  V30 13 1 20 12
M  V30 14 2 20 15
M  V30 15 1 21 18
M  V30 16 1 23 7
M  V30 17 1 23 11
M  V30 18 1 23 19
M  V30 19 1 24 19
M  V30 20 1 25 22
M  V30 21 2 26 17
M  V30 22 1 27 22
M  V30 23 1 28 19
M  V30 24 1 29 17
M  V30 25 1 30 2
M  V30 26 1 30 16
M  V30 27 1 30 22
M  V30 28 1 31 6
M  V30 29 2 32 12
M  V30 30 1 32 14
M  V30 31 1 33 21
M  V30 32 1 34 3
M  V30 33 1 34 15
M  V30 34 1 35 16
M  V30 35 1 35 33
M  V30 36 1 36 8
M  V30 37 1 37 23
M  V30 38 1 37 25
M  V30 39 1 37 36
M  V30 40 1 38 1
M  V30 41 1 39 1
M  V30 42 1 40 1
M  V30 43 1 41 2
M  V30 44 1 42 2
M  V30 45 1 43 3
M  V30 46 1 44 4
M  V30 47 1 45 4
M  V30 48 1 46 5
M  V30 49 1 47 5
M  V30 50 1 48 5
M  V30 51 1 49 8
M  V30 52 1 50 8
M  V30 53 1 51 10
M  V30 54 1 52 10
M  V30 55 1 53 10
M  V30 56 1 54 11
M  V30 57 1 55 11
M  V30 58 1 56 12
M  V30 59 1 57 15
M  V30 60 1 58 16
M  V30 61 1 59 16
M  V30 62 1 60 21
M  V30 63 1 61 21
M  V30 64 1 22 62 CFG=3
M  V30 65 1 63 24
M  V30 66 1 64 24
M  V30 67 1 65 24
M  V30 68 1 66 27
M  V30 69 1 67 27
M  V30 70 1 68 27
M  V30 71 1 69 28
M  V30 72 1 70 28
M  V30 73 1 71 28
M  V30 74 1 72 29
M  V30 75 1 73 29
M  V30 76 1 74 29
M  V30 77 1 75 32
M  V30 78 1 76 33
M  V30 79 1 77 33
M  V30 80 1 78 34
M  V30 81 1 79 34
M  V30 82 1 80 35
M  V30 83 1 81 35
M  V30 84 1 82 36
M  V30 85 1 83 36
M  V30 86 1 37 84 CFG=3
M  V30 87 1 30 85 CFG=1
M  V30 END BOND
M  V30 END CTAB
M  END
>  <i_epik_Tot_Q>  (1) 
1

>  <i_epik_Tot_abs_Q>  (1) 
1

>  <i_i_glide_confnum>  (1) 
537

>  <i_i_glide_lignum>  (1) 
204

>  <i_i_glide_posenum>  (1) 
19

>  <i_i_glide_rotatable_bonds>  (1) 
11

>  <i_lp_mmshare_version>  (1) 
72125

>  <i_m_source_file_index>  (1) 
80

>  <i_f3d_flags>  (1) 
0

>  <num_sample>  (1) 
100

>  <b_lp_Chiralities_Consistent>  (1) 
1

>  <r_epik_Charging_Adjusted_Penalty>  (1) 
1.4563538393833728

>  <r_epik_Ionization_Penalty>  (1) 
0.72817750760685918

>  <r_epik_Ionization_Penalty_Charging>  (1) 
0.72817691969168641

>  <r_epik_Ionization_Penalty_Neutral>  (1) 
5.8791517278497126e-07

>  <r_epik_State_Penalty>  (1) 
0.72817691969168641

>  <r_glide_ring_energy>  (1) 
0

>  <r_i_docking_score>  (1) 
-6.8393898133432494

>  <r_i_glide_ecoul>  (1) 
-2.6892675876232968

>  <r_i_glide_eff_state_penalty>  (1) 
0.72817691969168641

>  <r_i_glide_einternal>  (1) 
6.4345280804925196

>  <r_i_glide_emodel>  (1) 
-37.006021290149462

>  <r_i_glide_emodel_strain>  (1) 
1.0422137413085863

>  <r_i_glide_energy>  (1) 
-34.465679753018748

>  <r_i_glide_erotb>  (1) 
0.59581955881290138

>  <r_i_glide_esite>  (1) 
-0.17231939982971561

>  <r_i_glide_evdw>  (1) 
-31.776412165395453

>  <r_i_glide_gscore>  (1) 
-7.5675667330349361

>  <r_i_glide_gscore_strain>  (1) 
0

>  <r_i_glide_hbond>  (1) 
0

>  <r_i_glide_ligand_efficiency>  (1) 
-0.18484837333360132

>  <r_i_glide_ligand_efficiency_ln>  (1) 
-1.4833033124680077

>  <r_i_glide_ligand_efficiency_sa>  (1) 
-0.6159557888634356

>  <r_i_glide_lipo>  (1) 
-4.4207743980721883

>  <r_i_glide_metal>  (1) 
-0

>  <r_i_glide_rewards>  (1) 
-1.5780817475326656

>  <r_lp_Energy>  (1) 
61.755589999999998

>  <s_epik_Chemistry_Notes>  (1) 
This compound contains an acetal/aminal-like group ( X-CH(R)-Y where X, Y are N, S, or O) that may be acid/base labile, releasing an aldehyde.

>  <s_epik_cmdline>  (1) 
J2VwaWtfcHl0aG9uJywgJy1waHQnLCAnMS4wJywgJy1waCcsICc3LjQnLCAnLXRuJywgJzgnLCAnLW1hJywgJzUwMCcsICctaW1hZScsICc8aW5maWxlLm1hZT4nLCAnLW9tYWUnLCAnPG91dGZpbGUubWFlPic=

>  <s_epik_input>  (1) 
W0NIM11bQ0gyXU4oQyg9TylbQ0gzXSlbQ0gyXVtDSDJdW0NIMl1bQ0gyXU4oW0NIMl1bQ0gyXUMxMkMoW0NIM10pKFtDSDNdKUMxKFtDSDNdKVtDSDNdKVtDQEBIXShbQ0gzXSlPW0NASF0yW0NIMl1bQ0gyXUMoW0NIXT1bQ0hdMyk9W0NIXVtDSDJdW0NIXT1DM0MoRikoRilG

>  <s_glide_docking_method>  (1) 
confgen

>  <s_i_glide_gridfile>  (1) 
gpcr_5ht2c_6bqh_protein_autoprepared_prepared

>  <s_lp_Force_Field>  (1) 
S-OPLS

>  <s_lp_Variant>  (1) 
DiffSBDD_79_num_sample_100-6

>  <s_m_source_file>  (1) 
generated__ligand_DiffSBDD_2026-05-06_prepared.sdf

>  <GenAI_Model>  (1) 
DiffSBDD

>  <Protein>  (1) 
GPCR_5HT2C

$$$$
DiffSBDD_72_num_sample_100
     RDKit          3D

  0  0  0  0  0  0  0  0  0  0999 V3000
M  V30 BEGIN CTAB
M  V30 COUNTS 68 72 0 0 1
M  V30 BEGIN ATOM
M  V30 1 C 41.734593 35.238346 64.088992 0
M  V30 2 C 36.561109 31.594120 59.875940 0
M  V30 3 C 38.444908 29.047588 56.718061 0 CFG=1
M  V30 4 C 38.650359 34.548948 60.808393 0
M  V30 5 C 38.332029 32.093056 58.119847 0 CFG=2
M  V30 6 O 35.867529 30.821438 60.533362 0
M  V30 7 C 38.524460 29.770366 55.356035 0
M  V30 8 C 37.282566 31.143159 58.653387 0 CFG=1
M  V30 9 N 38.246495 33.261262 60.249376 0
M  V30 10 O 40.267444 26.087690 57.938223 0
M  V30 11 O 41.467368 30.268280 62.253532 0
M  V30 12 C 37.850128 27.516841 54.278559 0
M  V30 13 C 40.071712 27.407127 57.480882 0 CFG=1
M  V30 14 C 38.825064 27.551692 56.614668 0 CFG=2
M  V30 15 C 38.758609 30.761643 58.711373 0 CFG=1
M  V30 16 C 41.068433 32.505010 64.286465 0
M  V30 17 O 40.658867 35.363036 61.935030 0
M  V30 18 C 36.114191 33.375752 61.579958 0
M  V30 19 C 39.382345 28.120958 60.885598 0
M  V30 20 C 39.363982 29.661587 57.821349 0 CFG=1
M  V30 21 C 41.016151 34.619315 63.047846 0
M  V30 22 C 42.117320 34.498667 65.224419 0
M  V30 23 C 39.911718 28.448629 58.595337 0 CFG=1
M  V30 24 C 41.788684 33.133102 65.322637 0
M  V30 25 C 38.998687 27.033426 55.172195 0
M  V30 26 C 40.721260 31.026870 64.383138 0
M  V30 27 O 38.667357 33.293810 58.851853 0
M  V30 28 C 36.788610 33.053765 60.235944 0 CFG=2
M  V30 29 C 41.695055 30.256744 63.485875 0
M  V30 30 C 40.674933 33.244996 63.155429 0
M  V30 31 O 38.936585 28.021614 59.541301 0
M  V30 32 C 40.175658 34.693210 60.773573 0
M  V30 33 O 42.648229 29.676717 64.048803 0 CHG=-1
M  V30 34 C 37.718066 29.054421 54.255804 0
M  V30 35 H 41.995762 36.284029 64.015043 0
M  V30 36 H 37.407157 29.040030 57.041279 0
M  V30 37 H 38.169637 35.376567 60.284061 0
M  V30 38 H 38.343074 34.602790 61.852238 0
M  V30 39 H 38.406588 32.246638 57.047611 0
M  V30 40 H 38.161196 30.793089 55.438690 0
M  V30 41 H 39.567831 29.840938 55.046115 0
M  V30 42 H 36.667402 30.665204 57.907085 0
M  V30 43 H 40.548257 25.562978 57.204305 0
M  V30 44 H 36.922584 27.081293 54.649811 0
M  V30 45 H 37.977778 27.137974 53.263656 0
M  V30 46 H 40.950964 27.683198 56.894777 0
M  V30 47 H 38.019089 26.984896 57.085549 0
M  V30 48 H 39.254767 30.840968 59.676096 0
M  V30 49 H 35.075631 33.043019 61.610487 0
M  V30 50 H 36.667410 32.875175 62.370925 0
M  V30 51 H 36.097418 34.445390 61.788181 0
M  V30 52 H 38.667475 27.648936 61.556715 0
M  V30 53 H 40.340818 27.621623 61.034385 0
M  V30 54 H 39.472912 29.161840 61.186537 0
M  V30 55 H 40.224680 30.103137 57.322072 0
M  V30 56 H 42.667329 34.979392 66.018786 0
M  V30 57 H 40.873308 28.675494 59.061580 0
M  V30 58 H 42.090827 32.566564 66.191835 0
M  V30 59 H 39.040594 25.943844 55.172369 0
M  V30 60 H 39.944511 27.374668 54.753927 0
M  V30 61 H 40.792791 30.672233 65.411903 0
M  V30 62 H 39.698372 30.850025 64.049707 0
M  V30 63 H 36.342158 33.685747 59.466554 0
M  V30 64 H 40.120758 32.752666 62.373369 0
M  V30 65 H 40.667393 33.731395 60.653506 0
M  V30 66 H 40.451297 35.259911 59.889466 0
M  V30 67 H 36.667443 29.321604 54.359726 0
M  V30 68 H 38.027777 29.440042 53.283361 0
M  V30 END ATOM
M  V30 BEGIN BOND
M  V30 1 2 6 2
M  V30 2 1 7 3
M  V30 3 1 8 2
M  V30 4 1 8 5
M  V30 5 1 9 4
M  V30 6 1 13 10
M  V30 7 1 14 3
M  V30 8 1 14 13
M  V30 9 1 15 5
M  V30 10 1 15 8
M  V30 11 1 20 3
M  V30 12 1 20 15
M  V30 13 2 21 1
M  V30 14 1 21 17
M  V30 15 1 22 1
M  V30 16 1 23 13
M  V30 17 1 23 20
M  V30 18 1 24 16
M  V30 19 2 24 22
M  V30 20 1 25 12
M  V30 21 1 25 14
M  V30 22 1 26 16
M  V30 23 1 27 5
M  V30 24 1 27 9
M  V30 25 1 28 2
M  V30 26 1 28 9
M  V30 27 1 28 18
M  V30 28 2 29 11
M  V30 29 1 29 26
M  V30 30 2 30 16
M  V30 31 1 30 21
M  V30 32 1 31 19
M  V30 33 1 31 23
M  V30 34 1 32 4
M  V30 35 1 32 17
M  V30 36 1 33 29
M  V30 37 1 34 7
M  V30 38 1 34 12
M  V30 39 1 35 1
M  V30 40 1 3 36 CFG=1
M  V30 41 1 37 4
M  V30 42 1 38 4
M  V30 43 1 5 39 CFG=3
M  V30 44 1 40 7
M  V30 45 1 41 7
M  V30 46 1 8 42 CFG=3
M  V30 47 1 43 10
M  V30 48 1 44 12
M  V30 49 1 45 12
M  V30 50 1 13 46 CFG=3
M  V30 51 1 14 47 CFG=1
M  V30 52 1 15 48 CFG=1
M  V30 53 1 49 18
M  V30 54 1 50 18
M  V30 55 1 51 18
M  V30 56 1 52 19
M  V30 57 1 53 19
M  V30 58 1 54 19
M  V30 59 1 20 55 CFG=3
M  V30 60 1 56 22
M  V30 61 1 23 57 CFG=1
M  V30 62 1 58 24
M  V30 63 1 59 25
M  V30 64 1 60 25
M  V30 65 1 61 26
M  V30 66 1 62 26
M  V30 67 1 28 63 CFG=3
M  V30 68 1 64 30
M  V30 69 1 65 32
M  V30 70 1 66 32
M  V30 71 1 67 34
M  V30 72 1 68 34
M  V30 END BOND
M  V30 END CTAB
M  END
>  <i_epik_Tot_Q>  (1) 
-1

>  <i_epik_Tot_abs_Q>  (1) 
1

>  <i_i_glide_confnum>  (1) 
516

>  <i_i_glide_lignum>  (1) 
181

>  <i_i_glide_posenum>  (1) 
130

>  <i_i_glide_rotatable_bonds>  (1) 
9

>  <i_lp_mmshare_version>  (1) 
72125

>  <i_m_source_file_index>  (1) 
73

>  <i_f3d_flags>  (1) 
0

>  <num_sample>  (1) 
100

>  <b_lp_Chiralities_Consistent>  (1) 
1

>  <r_epik_Charging_Adjusted_Penalty>  (1) 
0.00040534896778007237

>  <r_epik_Ionization_Penalty>  (1) 
0.00058627792093801146

>  <r_epik_Ionization_Penalty_Charging>  (1) 
0.00040534896778007237

>  <r_epik_Ionization_Penalty_Neutral>  (1) 
0.00018092895315793904

>  <r_epik_State_Penalty>  (1) 
-0

>  <r_glide_ring_energy>  (1) 
0.98737463910041545

>  <r_i_docking_score>  (1) 
-6.8387285158440179

>  <r_i_glide_ecoul>  (1) 
-6.6913935601369552

>  <r_i_glide_eff_state_penalty>  (1) 
-0

>  <r_i_glide_einternal>  (1) 
8.1669933852767542

>  <r_i_glide_emodel>  (1) 
-55.983566293316166

>  <r_i_glide_emodel_strain>  (1) 
0.51220360929328024

>  <r_i_glide_energy>  (1) 
-46.287261970972551

>  <r_i_glide_erotb>  (1) 
0.54329249107916178

>  <r_i_glide_esite>  (1) 
-0.075454681908914786

>  <r_i_glide_evdw>  (1) 
-39.595868410835592

>  <r_i_glide_gscore>  (1) 
-6.8387285158440179

>  <r_i_glide_gscore_strain>  (1) 
0

>  <r_i_glide_hbond>  (1) 
-0.22772389399465173

>  <r_i_glide_ligand_efficiency>  (1) 
-0.20113907399541228

>  <r_i_glide_ligand_efficiency_ln>  (1) 
-1.510866948987442

>  <r_i_glide_ligand_efficiency_sa>  (1) 
-0.65161251781356266

>  <r_i_glide_lipo>  (1) 
-3.2769923626116282

>  <r_i_glide_metal>  (1) 
-0

>  <r_i_glide_rewards>  (1) 
-0.81834761384566124

>  <r_lp_Energy>  (1) 
56.228467999999999

>  <r_lp_tautomer_probability>  (1) 
1

>  <s_epik_Chemistry_Notes>  (1) 
This compound has a N-S or N-O group and may undergo hydrolysis at high or low pH.

>  <s_epik_cmdline>  (1) 
J2VwaWtfcHl0aG9uJywgJy1waHQnLCAnMS4wJywgJy1waCcsICc3LjQnLCAnLXRuJywgJzgnLCAnLW1hJywgJzUwMCcsICctaW1hZScsICc8aW5maWxlLm1hZT4nLCAnLW9tYWUnLCAnPG91dGZpbGUubWFlPic=

>  <s_epik_input>  (1) 
Tz1DKFtPSF0pW0NIMl1jMVtjSF1bY0hdW2NIXWMoW2NIXTEpT1tDSDJdW0NIMl1OKE8yKVtDQEhdKFtDSDNdKUMoPU8pW0NAQEhdKFtDQEBIXTIzKVtDQEhdM1tDQEhdNFtDQEBIXShPW0NIM10pW0NAQEhdKFtPSF0pW0NAQEhdKFtDQEBIXTQ1KVtDSDJdW0NIMl1bQ0gyXVtDSDJdNQ==

>  <s_glide_docking_method>  (1) 
confgen

>  <s_i_glide_gridfile>  (1) 
gpcr_5ht2c_6bqh_protein_autoprepared_prepared

>  <s_lp_Force_Field>  (1) 
S-OPLS

>  <s_lp_Variant>  (1) 
DiffSBDD_72_num_sample_100-1

>  <s_m_source_file>  (1) 
generated__ligand_DiffSBDD_2026-05-06_prepared.sdf

>  <GenAI_Model>  (1) 
DiffSBDD

>  <Protein>  (1) 
GPCR_5HT2C

$$$$
DiffSBDD_56_num_sample_100
     RDKit          3D

  0  0  0  0  0  0  0  0  0  0999 V3000
M  V30 BEGIN CTAB
M  V30 COUNTS 59 62 0 0 1
M  V30 BEGIN ATOM
M  V30 1 N 39.480473 29.789812 58.980867 0
M  V30 2 O 38.667379 27.621404 59.853690 0
M  V30 3 O 40.709951 36.081104 61.821590 0
M  V30 4 C 38.596920 27.294446 54.528443 0
M  V30 5 C 38.934434 25.121716 57.753519 0
M  V30 6 S 40.667490 28.421427 56.304589 0
M  V30 7 O 40.667573 35.564743 64.088584 0
M  V30 8 C 40.626698 29.589715 59.897390 0
M  V30 9 C 38.265411 26.191685 55.549491 0
M  V30 10 C 38.458799 28.768946 54.855476 0
M  V30 11 S 38.622235 28.362556 58.598179 0
M  V30 12 N 37.013855 24.131835 55.997183 0
M  V30 13 O 37.707099 31.620281 62.253467 0
M  V30 14 C 39.404991 29.377977 55.659885 0
M  V30 15 C 40.655216 31.309152 63.244201 0
M  V30 16 O 41.867435 33.570442 61.987984 0
M  V30 17 N 38.951994 26.248168 56.823802 0
M  V30 18 C 40.254710 35.174405 62.801424 0
M  V30 19 C 38.254938 31.506226 55.466524 0
M  V30 20 C 38.684105 30.938716 59.476401 0
M  V30 21 O 37.345342 28.743492 57.977906 0
M  V30 22 C 38.816324 32.319622 61.749615 0 CFG=1
M  V30 23 C 39.655593 27.437794 57.379313 0 CFG=1
M  V30 24 C 39.319579 30.747518 55.969087 0
M  V30 25 C 39.849295 32.588537 62.876756 0 CFG=2
M  V30 26 C 37.288418 30.892038 54.653510 0
M  V30 27 C 37.397679 29.522085 54.337446 0
M  V30 28 O 41.201879 30.649696 62.098286 0
M  V30 29 C 37.401064 25.197136 55.207948 0
M  V30 30 C 40.768637 33.759580 62.506452 0
M  V30 31 C 39.497921 31.505016 60.647825 0 CFG=1
M  V30 32 C 40.183228 30.269078 61.190575 0 CFG=1
M  V30 33 H 40.397912 35.795012 60.977011 0
M  V30 34 H 37.971464 27.117019 53.651204 0
M  V30 35 H 39.602327 27.101983 54.150700 0
M  V30 36 H 39.206040 24.192806 57.249796 0
M  V30 37 H 37.957407 25.022794 58.226901 0
M  V30 38 H 39.663740 25.246787 58.552349 0
M  V30 39 H 41.585376 35.789111 64.046400 0
M  V30 40 H 40.875068 28.540423 60.054856 0
M  V30 41 H 41.512489 30.021406 59.453502 0
M  V30 42 H 36.303853 23.479938 55.694566 0
M  V30 43 H 38.011578 30.774682 62.554161 0
M  V30 44 H 40.018396 30.612540 63.793016 0
M  V30 45 H 41.474825 31.556633 63.919930 0
M  V30 46 H 39.164025 35.162177 62.776058 0
M  V30 47 H 38.172034 32.555450 55.708005 0
M  V30 48 H 38.524210 31.670508 58.684306 0
M  V30 49 H 37.704329 30.593515 59.811942 0
M  V30 50 H 38.436834 33.254616 61.334606 0
M  V30 51 H 40.449695 27.035545 58.005280 0
M  V30 52 H 40.058319 31.209134 56.602276 0
M  V30 53 H 39.329518 32.911687 63.773167 0
M  V30 54 H 36.464555 31.471845 54.264826 0
M  V30 55 H 36.667463 29.053524 53.702006 0
M  V30 56 H 36.931328 25.186277 54.234355 0
M  V30 57 H 40.267715 32.160466 60.253514 0
M  V30 58 H 39.467038 29.618937 61.698278 0
M  V30 59 H 37.304055 24.055847 56.960765 0
M  V30 END ATOM
M  V30 BEGIN BOND
M  V30 1 1 8 1
M  V30 2 1 9 4
M  V30 3 1 10 4
M  V30 4 1 11 1
M  V30 5 2 11 2
M  V30 6 1 14 6
M  V30 7 1 14 10
M  V30 8 1 17 5
M  V30 9 1 17 9
M  V30 10 1 18 3
M  V30 11 1 18 7
M  V30 12 1 20 1
M  V30 13 2 21 11
M  V30 14 1 22 13
M  V30 15 1 23 6
M  V30 16 1 23 11
M  V30 17 1 23 17
M  V30 18 2 24 14
M  V30 19 1 24 19
M  V30 20 1 25 15
M  V30 21 1 25 22
M  V30 22 2 26 19
M  V30 23 2 27 10
M  V30 24 1 27 26
M  V30 25 1 28 15
M  V30 26 2 29 9
M  V30 27 1 29 12
M  V30 28 2 30 16
M  V30 29 1 30 18
M  V30 30 1 30 25
M  V30 31 1 31 20
M  V30 32 1 31 22
M  V30 33 1 32 8
M  V30 34 1 32 28
M  V30 35 1 32 31
M  V30 36 1 33 3
M  V30 37 1 34 4
M  V30 38 1 35 4
M  V30 39 1 36 5
M  V30 40 1 37 5
M  V30 41 1 38 5
M  V30 42 1 39 7
M  V30 43 1 40 8
M  V30 44 1 41 8
M  V30 45 1 42 12
M  V30 46 1 43 13
M  V30 47 1 44 15
M  V30 48 1 45 15
M  V30 49 1 46 18
M  V30 50 1 47 19
M  V30 51 1 48 20
M  V30 52 1 49 20
M  V30 53 1 22 50 CFG=3
M  V30 54 1 23 51 CFG=1
M  V30 55 1 52 24
M  V30 56 1 25 53 CFG=1
M  V30 57 1 54 26
M  V30 58 1 55 27
M  V30 59 1 56 29
M  V30 60 1 31 57 CFG=3
M  V30 61 1 32 58 CFG=1
M  V30 62 1 59 12
M  V30 END BOND
M  V30 END CTAB
M  END
>  <i_epik_Tot_Q>  (1) 
0

>  <i_epik_Tot_abs_Q>  (1) 
0

>  <i_i_glide_confnum>  (1) 
36

>  <i_i_glide_lignum>  (1) 
145

>  <i_i_glide_posenum>  (1) 
144

>  <i_i_glide_rotatable_bonds>  (1) 
7

>  <i_lp_mmshare_version>  (1) 
72125

>  <i_m_source_file_index>  (1) 
57

>  <i_f3d_flags>  (1) 
0

>  <num_sample>  (1) 
100

>  <b_lp_Chiralities_Consistent>  (1) 
1

>  <r_epik_Charging_Adjusted_Penalty>  (1) 
0.0073760756096081168

>  <r_epik_Ionization_Penalty>  (1) 
0.10489428414322399

>  <r_epik_Ionization_Penalty_Charging>  (1) 
0.0073760756096081168

>  <r_epik_Ionization_Penalty_Neutral>  (1) 
0.097518208533615869

>  <r_epik_State_Penalty>  (1) 
-0

>  <r_glide_ring_energy>  (1) 
0

>  <r_i_docking_score>  (1) 
-6.8334329274786763

>  <r_i_glide_ecoul>  (1) 
-3.9007297699987746

>  <r_i_glide_eff_state_penalty>  (1) 
-0

>  <r_i_glide_einternal>  (1) 
2.9972490893385153

>  <r_i_glide_emodel>  (1) 
-43.645572826515277

>  <r_i_glide_emodel_strain>  (1) 
0.25611000983495558

>  <r_i_glide_energy>  (1) 
-37.78177929365868

>  <r_i_glide_erotb>  (1) 
0.34464789498163795

>  <r_i_glide_esite>  (1) 
-0.017825369739680273

>  <r_i_glide_evdw>  (1) 
-33.881049523659904

>  <r_i_glide_gscore>  (1) 
-6.8334329274786763

>  <r_i_glide_gscore_strain>  (1) 
0

>  <r_i_glide_hbond>  (1) 
-0.55113711444922997

>  <r_i_glide_ligand_efficiency>  (1) 
-0.21354477898370863

>  <r_i_glide_ligand_efficiency_ln>  (1) 
-1.5301919048089154

>  <r_i_glide_ligand_efficiency_sa>  (1) 
-0.67796241360211162

>  <r_i_glide_lipo>  (1) 
-2.660898785575466

>  <r_i_glide_metal>  (1) 
-0

>  <r_i_glide_rewards>  (1) 
-1.6690576110131261

>  <r_lp_Energy>  (1) 
30.746641

>  <r_lp_tautomer_probability>  (1) 
1

>  <s_epik_Chemistry_Notes>  (1) 
This compound has an imine and may undergo hydrolysis. This compound contains an acetal/aminal-like group ( X-CH(R)-Y where X, Y are N, S, or O) that may be acid/base labile, releasing an aldehyde.

>  <s_epik_cmdline>  (1) 
J2VwaWtfcHl0aG9uJywgJy1waHQnLCAnMS4wJywgJy1waCcsICc3LjQnLCAnLXRuJywgJzgnLCAnLW1hJywgJzUwMCcsICctaW1hZScsICc8aW5maWxlLm1hZT4nLCAnLW9tYWUnLCAnPG91dGZpbGUubWFlPic=

>  <s_epik_input>  (1) 
W2NIXTFbY0hdW2NIXVtjSF1jKGMxMilTW0NASF0oTihbQ0gzXSlbQ0BIXShbQ0gyXTIpXFtDSF09TlxbSF0pUyg9TykoPU8pTihbQ0gyXTMpW0NIMl1bQ0BIXShbQ0BASF0zNClPW0NIMl1bQ0BIXShbQ0BASF00W09IXSlDKD1PKVtDSF0oW09IXSlbT0hd

>  <s_glide_docking_method>  (1) 
confgen

>  <s_i_glide_gridfile>  (1) 
gpcr_5ht2c_6bqh_protein_autoprepared_prepared

>  <s_lp_Force_Field>  (1) 
S-OPLS

>  <s_lp_Variant>  (1) 
DiffSBDD_56_num_sample_100-1

>  <s_m_source_file>  (1) 
generated__ligand_DiffSBDD_2026-05-06_prepared.sdf

>  <GenAI_Model>  (1) 
DiffSBDD

>  <Protein>  (1) 
GPCR_5HT2C

$$$$
DiffSBDD_46_num_sample_100
     RDKit          3D

  0  0  0  0  0  0  0  0  0  0999 V3000
M  V30 BEGIN CTAB
M  V30 COUNTS 66 69 0 0 1
M  V30 BEGIN ATOM
M  V30 1 N 40.269069 34.194391 61.397256 0 CHG=-1
M  V30 2 N 38.936648 30.023680 54.961498 0
M  V30 3 C 37.436594 31.092959 60.251880 0
M  V30 4 C 42.664027 25.985984 64.653498 0
M  V30 5 C 38.658543 30.733978 57.941401 0
M  V30 6 O 42.134494 33.631559 64.410936 0
M  V30 7 O 40.267407 36.882843 63.053496 0
M  V30 8 C 42.533686 28.395558 64.355004 0
M  V30 9 N 43.007853 27.150410 64.763504 0
M  V30 10 F 44.189662 29.477533 65.716949 0
M  V30 11 C 37.745508 31.518890 58.873888 0 CFG=2
M  V30 12 N 41.003653 32.106256 63.080933 0
M  V30 13 C 37.905804 29.592717 57.205337 0 CFG=2
M  V30 14 C 42.664587 30.818078 64.453513 0
M  V30 15 C 41.246150 35.871783 62.904353 0
M  V30 16 C 39.497507 27.045248 57.333060 0
M  V30 17 C 39.739109 28.822151 50.968739 0
M  V30 18 C 39.195063 29.603461 53.632663 0
M  V30 19 C 43.147018 29.564305 64.855377 0
M  V30 20 C 39.008416 34.338962 60.951295 0
M  V30 21 C 41.025738 29.645221 63.101276 0
M  V30 22 C 41.571748 30.863383 63.553105 0
M  V30 23 N 41.488359 28.431470 63.485314 0
M  V30 24 C 39.857184 28.171911 56.353924 0
M  V30 25 C 40.139283 30.089983 51.427689 0
M  V30 26 C 40.576493 34.476353 62.795892 0 CFG=2
M  V30 27 C 37.550615 28.435731 58.168585 0
M  V30 28 C 39.867396 30.480320 52.754293 0
M  V30 29 C 38.135760 33.471849 60.332993 0
M  V30 30 C 39.067377 27.939370 51.833380 0
M  V30 31 C 38.771981 27.590071 58.570411 0
M  V30 32 C 41.356130 33.345894 63.502710 0
M  V30 33 C 38.793779 28.320541 53.162077 0
M  V30 34 O 42.434558 24.831653 64.653366 0
M  V30 35 C 38.610843 28.996429 55.956179 0 CFG=2
M  V30 36 N 38.415876 32.152902 60.014373 0
M  V30 37 H 39.333204 30.893647 55.287369 0
M  V30 38 H 37.948965 30.247078 60.705172 0
M  V30 39 H 36.563831 31.489828 60.766692 0
M  V30 40 H 39.079164 31.444352 57.230704 0
M  V30 41 H 39.492187 30.331069 58.510014 0
M  V30 42 H 40.639859 37.550936 63.615825 0
M  V30 43 H 37.067405 32.215493 58.385986 0
M  V30 44 H 40.278425 32.046455 62.375498 0
M  V30 45 H 36.966109 30.021417 56.851090 0
M  V30 46 H 43.129310 31.706656 64.828549 0
M  V30 47 H 41.867404 36.089056 62.035317 0
M  V30 48 H 41.898093 35.957842 63.773819 0
M  V30 49 H 40.398446 26.509149 57.633888 0
M  V30 50 H 38.859743 26.318323 56.828674 0
M  V30 51 H 39.945883 28.526757 49.950671 0
M  V30 52 H 38.598750 35.357985 61.120688 0
M  V30 53 H 40.192950 29.642562 62.412830 0
M  V30 54 H 40.607610 28.821444 56.805362 0
M  V30 55 H 40.325164 27.733190 55.472759 0
M  V30 56 H 40.654411 30.767529 50.761554 0
M  V30 57 H 39.662468 34.527640 63.388912 0
M  V30 58 H 37.053167 28.821478 59.053489 0
M  V30 59 H 36.824913 27.774366 57.700968 0
M  V30 60 H 40.175662 31.455310 53.099303 0
M  V30 61 H 37.139767 33.780268 60.048635 0
M  V30 62 H 38.759773 26.966370 51.477433 0
M  V30 63 H 39.459808 28.178553 59.177366 0
M  V30 64 H 38.452700 26.759119 59.197407 0
M  V30 65 H 38.279054 27.631437 53.806633 0
M  V30 66 H 37.854973 28.326158 55.559277 0
M  V30 END ATOM
M  V30 BEGIN BOND
M  V30 1 2 9 4
M  V30 2 1 9 8
M  V30 3 1 11 3
M  V30 4 1 11 5
M  V30 5 1 13 5
M  V30 6 1 15 7
M  V30 7 1 18 2
M  V30 8 2 19 8
M  V30 9 1 19 10
M  V30 10 1 19 14
M  V30 11 1 20 1
M  V30 12 1 22 12
M  V30 13 2 22 14
M  V30 14 1 22 21
M  V30 15 1 23 8
M  V30 16 2 23 21
M  V30 17 1 24 16
M  V30 18 2 25 17
M  V30 19 1 26 1
M  V30 20 1 26 15
M  V30 21 1 27 13
M  V30 22 2 28 18
M  V30 23 1 28 25
M  V30 24 2 29 20
M  V30 25 1 30 17
M  V30 26 1 31 16
M  V30 27 1 31 27
M  V30 28 2 32 6
M  V30 29 1 32 12
M  V30 30 1 32 26
M  V30 31 1 33 18
M  V30 32 2 33 30
M  V30 33 2 34 4
M  V30 34 1 35 2
M  V30 35 1 35 13
M  V30 36 1 35 24
M  V30 37 1 36 3
M  V30 38 1 36 11
M  V30 39 1 36 29
M  V30 40 1 37 2
M  V30 41 1 38 3
M  V30 42 1 39 3
M  V30 43 1 40 5
M  V30 44 1 41 5
M  V30 45 1 42 7
M  V30 46 1 11 43 CFG=3
M  V30 47 1 44 12
M  V30 48 1 13 45 CFG=3
M  V30 49 1 46 14
M  V30 50 1 47 15
M  V30 51 1 48 15
M  V30 52 1 49 16
M  V30 53 1 50 16
M  V30 54 1 51 17
M  V30 55 1 52 20
M  V30 56 1 53 21
M  V30 57 1 54 24
M  V30 58 1 55 24
M  V30 59 1 56 25
M  V30 60 1 26 57 CFG=1
M  V30 61 1 58 27
M  V30 62 1 59 27
M  V30 63 1 60 28
M  V30 64 1 61 29
M  V30 65 1 62 30
M  V30 66 1 63 31
M  V30 67 1 64 31
M  V30 68 1 65 33
M  V30 69 1 35 66 CFG=3
M  V30 END BOND
M  V30 END CTAB
M  END
>  <i_epik_Tot_Q>  (1) 
-1

>  <i_epik_Tot_abs_Q>  (1) 
1

>  <i_i_glide_confnum>  (1) 
1999

>  <i_i_glide_lignum>  (1) 
127

>  <i_i_glide_posenum>  (1) 
143

>  <i_i_glide_rotatable_bonds>  (1) 
13

>  <i_lp_mmshare_version>  (1) 
72125

>  <i_m_source_file_index>  (1) 
47

>  <i_f3d_flags>  (1) 
0

>  <num_sample>  (1) 
100

>  <b_lp_Chiralities_Consistent>  (1) 
1

>  <r_epik_Charging_Adjusted_Penalty>  (1) 
0.89067625700486475

>  <r_epik_Ionization_Penalty>  (1) 
0.26609996420413234

>  <r_epik_Ionization_Penalty_Charging>  (1) 
0.17619897240493029

>  <r_epik_Ionization_Penalty_Neutral>  (1) 
0.089900991799202065

>  <r_epik_State_Penalty>  (1) 
0.71447728459993443

>  <r_glide_ring_energy>  (1) 
0

>  <r_i_docking_score>  (1) 
-6.831307575981505

>  <r_i_glide_ecoul>  (1) 
-3.4869776247020328

>  <r_i_glide_eff_state_penalty>  (1) 
0.71447728459993443

>  <r_i_glide_einternal>  (1) 
19.547354705129898

>  <r_i_glide_emodel>  (1) 
-72.218572298713184

>  <r_i_glide_emodel_strain>  (1) 
1.591656971340484

>  <r_i_glide_energy>  (1) 
-57.11509180679289

>  <r_i_glide_erotb>  (1) 
1.0035370279361706

>  <r_i_glide_esite>  (1) 
-0.0092339514157795642

>  <r_i_glide_evdw>  (1) 
-53.628114182090854

>  <r_i_glide_gscore>  (1) 
-7.5457848605814393

>  <r_i_glide_gscore_strain>  (1) 
0

>  <r_i_glide_hbond>  (1) 
-0.32000000000000001

>  <r_i_glide_ligand_efficiency>  (1) 
-0.18975854377726403

>  <r_i_glide_ligand_efficiency_ln>  (1) 
-1.4904067524770672

>  <r_i_glide_ligand_efficiency_sa>  (1) 
-0.6265689064087121

>  <r_i_glide_lipo>  (1) 
-3.6785635929336422

>  <r_i_glide_metal>  (1) 
-0

>  <r_i_glide_rewards>  (1) 
-1.3370719913583407

>  <r_lp_Energy>  (1) 
55.207712000000001

>  <s_epik_Chemistry_Notes>  (1) 
This compound has an imine and may undergo hydrolysis.

>  <s_epik_cmdline>  (1) 
J2VwaWtfcHl0aG9uJywgJy1waHQnLCAnMS4wJywgJy1waCcsICc3LjQnLCAnLXRuJywgJzgnLCAnLW1hJywgJzUwMCcsICctaW1hZScsICc8aW5maWxlLm1hZT4nLCAnLW9tYWUnLCAnPG91dGZpbGUubWFlPic=

>  <s_epik_input>  (1) 
Tz1DPU5jMWMoRilbY0hdYyhbY0hdbjEpW05IXUMoPU8pW0NAQEhdKFtDSDJdW09IXSkvTj1bQ0hdL1tDSDJdTjJbQ0gyXVtDQEBIXTJbQ0gyXVtDQEBIXTNbQ0gyXVtDSDJdW0NIMl1bQ0gyXVtDQEBIXTNbTkhdYzRbY0hdW2NIXVtjSF1bY0hdW2NIXTQ=

>  <s_glide_docking_method>  (1) 
confgen

>  <s_i_glide_gridfile>  (1) 
gpcr_5ht2c_6bqh_protein_autoprepared_prepared

>  <s_lp_Force_Field>  (1) 
S-OPLS

>  <s_lp_Variant>  (1) 
DiffSBDD_46_num_sample_100-3

>  <s_m_source_file>  (1) 
generated__ligand_DiffSBDD_2026-05-06_prepared.sdf

>  <GenAI_Model>  (1) 
DiffSBDD

>  <Protein>  (1) 
GPCR_5HT2C

$$$$
DiffSBDD_5_num_sample_100
     RDKit          3D

  0  0  0  0  0  0  0  0  0  0999 V3000
M  V30 BEGIN CTAB
M  V30 COUNTS 50 52 0 0 1
M  V30 BEGIN ATOM
M  V30 1 C 36.457012 24.192412 55.251517 0
M  V30 2 O 39.832236 25.597740 56.165283 0
M  V30 3 C 38.130601 30.573476 56.642044 0
M  V30 4 C 39.867434 30.492632 52.591967 0
M  V30 5 C 38.416712 29.251109 55.911782 0 CFG=1
M  V30 6 C 39.850881 29.392113 50.311674 0
M  V30 7 C 38.405664 28.359415 53.522151 0
M  V30 8 C 36.250732 22.777793 55.788310 0
M  V30 9 C 37.750659 27.047425 57.845115 0
M  V30 10 C 40.768351 28.481547 56.353187 0
M  V30 11 N 38.732779 28.374978 52.209872 0
M  V30 12 N 37.661025 25.914177 57.260767 0
M  V30 13 S 37.467564 30.249050 58.309990 0
M  V30 14 C 37.913852 24.690102 55.184396 0
M  V30 15 C 38.780727 29.369898 54.430048 0
M  V30 16 C 39.516829 30.467597 53.948766 0
M  V30 17 C 39.022840 27.868833 58.042789 0 CFG=1
M  V30 18 C 41.519492 27.221442 58.262011 0
M  V30 19 C 38.582060 25.065041 56.520965 0 CFG=1
M  V30 20 C 41.792065 27.866464 57.140840 0
M  V30 21 C 39.486752 28.509144 56.729427 0
M  V30 22 C 38.696496 29.076783 58.970957 0
M  V30 23 C 39.466795 29.422573 51.769272 0
M  V30 24 C 40.116545 27.046541 58.806480 0
M  V30 25 H 35.867395 24.878998 55.852437 0
M  V30 26 H 36.033186 24.243924 54.252327 0
M  V30 27 H 40.085384 26.251947 56.800472 0
M  V30 28 H 39.039574 31.165069 56.746164 0
M  V30 29 H 37.425723 31.181331 56.078087 0
M  V30 30 H 40.445766 31.311791 52.189124 0
M  V30 31 H 37.483171 28.692418 55.897181 0
M  V30 32 H 40.134997 30.373066 49.930706 0
M  V30 33 H 39.067400 28.974442 49.693819 0
M  V30 34 H 40.667405 28.699993 50.205470 0
M  V30 35 H 37.835759 27.512205 53.859467 0
M  V30 36 H 35.185705 22.558115 55.853502 0
M  V30 37 H 36.667399 22.666582 56.788390 0
M  V30 38 H 36.667419 22.026810 55.121150 0
M  V30 39 H 36.862092 27.522526 58.253438 0
M  V30 40 H 41.055225 28.976944 55.453504 0
M  V30 41 H 38.538105 23.984890 54.653500 0
M  V30 42 H 37.910227 25.567723 54.547102 0
M  V30 43 H 39.824099 31.263801 54.609135 0
M  V30 44 H 42.325486 26.785424 58.830009 0
M  V30 45 H 38.760141 24.159223 57.101409 0
M  V30 46 H 42.818703 27.941585 56.819002 0
M  V30 47 H 38.336273 28.738168 59.943405 0
M  V30 48 H 39.607140 29.644932 59.166399 0
M  V30 49 H 40.142643 27.311895 59.863927 0
M  V30 50 H 39.893298 25.979521 58.805170 0
M  V30 END ATOM
M  V30 BEGIN BOND
M  V30 1 1 5 3
M  V30 2 1 8 1
M  V30 3 1 11 7
M  V30 4 2 12 9
M  V30 5 1 13 3
M  V30 6 1 14 1
M  V30 7 1 15 5
M  V30 8 2 15 7
M  V30 9 2 16 4
M  V30 10 1 16 15
M  V30 11 1 17 9 CFG=3
M  V30 12 1 19 2
M  V30 13 1 19 12
M  V30 14 1 19 14
M  V30 15 1 20 10
M  V30 16 2 20 18
M  V30 17 1 21 5
M  V30 18 2 21 10
M  V30 19 1 21 17
M  V30 20 1 22 13
M  V30 21 1 22 17
M  V30 22 1 23 4
M  V30 23 1 23 6
M  V30 24 2 23 11
M  V30 25 1 24 17
M  V30 26 1 24 18
M  V30 27 1 25 1
M  V30 28 1 26 1
M  V30 29 1 27 2
M  V30 30 1 28 3
M  V30 31 1 29 3
M  V30 32 1 30 4
M  V30 33 1 5 31 CFG=3
M  V30 34 1 32 6
M  V30 35 1 33 6
M  V30 36 1 34 6
M  V30 37 1 35 7
M  V30 38 1 36 8
M  V30 39 1 37 8
M  V30 40 1 38 8
M  V30 41 1 39 9
M  V30 42 1 40 10
M  V30 43 1 41 14
M  V30 44 1 42 14
M  V30 45 1 43 16
M  V30 46 1 44 18
M  V30 47 1 19 45 CFG=1
M  V30 48 1 46 20
M  V30 49 1 47 22
M  V30 50 1 48 22
M  V30 51 1 49 24
M  V30 52 1 50 24
M  V30 END BOND
M  V30 END CTAB
M  END
>  <i_epik_Tot_Q>  (1) 
0

>  <i_epik_Tot_abs_Q>  (1) 
0

>  <i_i_glide_confnum>  (1) 
15

>  <i_i_glide_lignum>  (1) 
24

>  <i_i_glide_posenum>  (1) 
39

>  <i_i_glide_rotatable_bonds>  (1) 
6

>  <i_lp_mmshare_version>  (1) 
72125

>  <i_m_source_file_index>  (1) 
6

>  <i_f3d_flags>  (1) 
0

>  <num_sample>  (1) 
100

>  <b_lp_Chiralities_Consistent>  (1) 
1

>  <r_epik_Charging_Adjusted_Penalty>  (1) 
0.0081103479682914613

>  <r_epik_Ionization_Penalty>  (1) 
0.0085425111303935736

>  <r_epik_Ionization_Penalty_Charging>  (1) 
0

>  <r_epik_Ionization_Penalty_Neutral>  (1) 
0.0085425111303935736

>  <r_epik_State_Penalty>  (1) 
0.0081103479682914613

>  <r_glide_ring_energy>  (1) 
0

>  <r_i_docking_score>  (1) 
-6.8263182026907128

>  <r_i_glide_ecoul>  (1) 
-0.34740564995383172

>  <r_i_glide_eff_state_penalty>  (1) 
0.0081103479682914613

>  <r_i_glide_einternal>  (1) 
5.1185265394767789

>  <r_i_glide_emodel>  (1) 
-29.018520649057486

>  <r_i_glide_emodel_strain>  (1) 
3.7459894178044237

>  <r_i_glide_energy>  (1) 
-27.959745938949688

>  <r_i_glide_erotb>  (1) 
0.64660109196089122

>  <r_i_glide_esite>  (1) 
0

>  <r_i_glide_evdw>  (1) 
-27.612340288995856

>  <r_i_glide_gscore>  (1) 
-6.8344285506590046

>  <r_i_glide_gscore_strain>  (1) 
0

>  <r_i_glide_hbond>  (1) 
0

>  <r_i_glide_ligand_efficiency>  (1) 
-0.28442992511211301

>  <r_i_glide_ligand_efficiency_ln>  (1) 
-1.6338511852352611

>  <r_i_glide_ligand_efficiency_sa>  (1) 
-0.82043787455102679

>  <r_i_glide_lipo>  (1) 
-3.4929256372132382

>  <r_i_glide_metal>  (1) 
-0

>  <r_i_glide_rewards>  (1) 
-2.5553761434637896

>  <r_lp_Energy>  (1) 
34.052436999999998

>  <s_epik_Chemistry_Notes>  (1) 
This compound has an imine and may undergo hydrolysis. This compound contains an acetal/aminal-like group ( X-CH(R)-Y where X, Y are N, S, or O) that may be acid/base labile, releasing an aldehyde.

>  <s_epik_cmdline>  (1) 
J2VwaWtfcHl0aG9uJywgJy1waHQnLCAnMS4wJywgJy1waCcsICc3LjQnLCAnLXRuJywgJzgnLCAnLW1hJywgJzUwMCcsICctaW1hZScsICc8aW5maWxlLm1hZT4nLCAnLW9tYWUnLCAnPG91dGZpbGUubWFlPic=

>  <s_epik_input>  (1) 
W0NIM11bQ0gyXVtDSDJdW0NAQEhdKFtPSF0pL049W0NIXVxbQ0BAXTEyQyg9W0NIXVtDSF09W0NIXVtDSDJdMilbQ0BASF0oW0NIMl1TW0NIMl0xKWMzW2NIXW5jKFtDSDNdKVtjSF1bY0hdMw==

>  <s_glide_docking_method>  (1) 
confgen

>  <s_i_glide_gridfile>  (1) 
gpcr_5ht2c_6bqh_protein_autoprepared_prepared

>  <s_lp_Force_Field>  (1) 
S-OPLS

>  <s_lp_Variant>  (1) 
DiffSBDD_5_num_sample_100-2

>  <s_m_source_file>  (1) 
generated__ligand_DiffSBDD_2026-05-06_prepared.sdf

>  <GenAI_Model>  (1) 
DiffSBDD

>  <Protein>  (1) 
GPCR_5HT2C

$$$$
DiffSBDD_97_num_sample_100
     RDKit          3D

  0  0  0  0  0  0  0  0  0  0999 V3000
M  V30 BEGIN CTAB
M  V30 COUNTS 74 78 0 0 1
M  V30 BEGIN ATOM
M  V30 1 C 39.867398 29.752143 51.935341 0
M  V30 2 C 38.769436 28.731994 59.934328 0
M  V30 3 C 40.260318 31.088406 63.855633 0
M  V30 4 S 39.467400 29.320663 61.490283 0 CHG=1
M  V30 5 C 36.150593 32.627487 61.312469 0
M  V30 6 C 41.867402 33.391354 63.640430 0
M  V30 7 C 39.847772 28.857507 58.855419 0 CFG=2
M  V30 8 C 38.833459 27.429086 54.465605 0
M  V30 9 C 41.067371 28.638628 61.068763 0
M  V30 10 C 38.563442 31.982795 60.915620 0 CFG=1
M  V30 11 N 34.911791 33.621475 59.398730 0 CHG=1
M  V30 12 N 38.068078 28.470391 53.730377 0 CFG=1 CHG=1
M  V30 13 C 40.869218 31.633654 65.001517 0
M  V30 14 C 39.623627 27.929082 57.644612 0
M  V30 15 C 38.449001 29.892351 54.022709 0 CFG=1
M  V30 16 C 41.214872 28.639137 59.531974 0
M  V30 17 N 38.292951 31.878338 59.481991 0
M  V30 18 C 37.270564 31.650950 61.682699 0
M  V30 19 O 33.748952 33.242243 59.453527 0
M  V30 20 C 37.320658 32.890723 59.075162 0
M  V30 21 O 35.273331 34.740682 59.053505 0 CHG=-1
M  V30 22 C 41.671195 32.783841 64.894303 0
M  V30 23 C 37.906748 29.535064 56.515361 0
M  V30 24 C 38.125087 27.049766 55.777692 0
M  V30 25 C 38.863524 30.152359 55.482970 0
M  V30 26 C 39.513084 30.399704 53.056054 0
M  V30 27 C 37.938127 28.184757 52.275263 0
M  V30 28 C 41.264511 32.848937 62.489040 0
M  V30 29 F 42.253654 33.307613 65.998290 0
M  V30 30 C 38.256243 28.079203 56.925909 0 CFG=1
M  V30 31 C 39.790951 31.123624 61.328018 0 CFG=1
M  V30 32 C 39.246829 28.443336 51.503595 0
M  V30 33 C 40.456325 31.696160 62.589094 0
M  V30 34 C 35.971312 32.641625 59.787292 0 CFG=1
M  V30 35 H 40.632730 30.166003 51.293828 0
M  V30 36 H 37.836660 29.233504 59.682125 0
M  V30 37 H 38.530778 27.678309 60.079025 0
M  V30 38 H 39.639630 30.211311 63.953084 0
M  V30 39 H 36.398874 33.629340 61.665999 0
M  V30 40 H 35.217075 32.344506 61.800350 0
M  V30 41 H 42.481296 34.275821 63.562228 0
M  V30 42 H 39.847625 29.885794 58.497651 0
M  V30 43 H 39.867396 27.726927 54.633919 0
M  V30 44 H 38.890023 26.523129 53.859592 0
M  V30 45 H 41.867410 29.118419 61.626831 0
M  V30 46 H 41.039618 27.621426 61.423037 0
M  V30 47 H 38.827571 33.025198 61.101870 0
M  V30 48 H 40.717137 31.170248 65.965707 0
M  V30 49 H 39.724781 26.896783 57.984068 0
M  V30 50 H 40.438740 28.075862 56.935919 0
M  V30 51 H 37.555615 30.494465 53.853480 0
M  V30 52 H 41.688086 27.710675 59.208676 0
M  V30 53 H 41.867403 29.442331 59.200872 0
M  V30 54 H 37.880574 30.982833 59.269752 0
M  V30 55 H 36.938342 30.639282 61.453595 0
M  V30 56 H 37.467418 31.693407 62.749017 0
M  V30 57 H 37.707249 33.887137 59.294886 0
M  V30 58 H 37.181919 32.833750 57.994618 0
M  V30 59 H 37.910679 30.163623 57.401755 0
M  V30 60 H 36.880841 29.621409 56.154805 0
M  V30 61 H 38.533588 26.098441 56.121524 0
M  V30 62 H 37.077325 26.824970 55.572244 0
M  V30 63 H 39.891755 29.840952 55.661357 0
M  V30 64 H 38.872652 31.233194 55.634945 0
M  V30 65 H 39.993383 31.334409 53.307954 0
M  V30 66 H 37.599860 27.162622 52.121981 0
M  V30 67 H 37.150990 28.821370 51.874576 0
M  V30 68 H 41.417357 33.320856 61.529162 0
M  V30 69 H 37.500581 27.787376 57.656898 0
M  V30 70 H 40.542666 31.229741 60.552116 0
M  V30 71 H 39.051822 28.466831 50.430215 0
M  V30 72 H 39.964530 27.643121 51.681013 0
M  V30 73 H 35.571664 31.681592 59.455511 0
M  V30 74 H 37.130637 28.375658 54.094328 0
M  V30 END ATOM
M  V30 BEGIN BOND
M  V30 1 1 4 2 CFG=3
M  V30 2 1 7 2
M  V30 3 1 9 4
M  V30 4 1 12 8
M  V30 5 1 13 3
M  V30 6 1 14 7
M  V30 7 1 15 12
M  V30 8 1 16 7
M  V30 9 1 16 9
M  V30 10 1 17 10
M  V30 11 1 18 5
M  V30 12 1 18 10
M  V30 13 2 19 11
M  V30 14 1 20 17
M  V30 15 1 21 11
M  V30 16 1 22 6
M  V30 17 2 22 13
M  V30 18 1 24 8
M  V30 19 1 25 15
M  V30 20 1 25 23
M  V30 21 2 26 1
M  V30 22 1 26 15
M  V30 23 1 27 12
M  V30 24 2 28 6
M  V30 25 1 29 22
M  V30 26 1 30 14
M  V30 27 1 30 23
M  V30 28 1 30 24
M  V30 29 1 31 4
M  V30 30 1 31 10
M  V30 31 1 32 1
M  V30 32 1 32 27
M  V30 33 2 33 3
M  V30 34 1 33 28
M  V30 35 1 33 31
M  V30 36 1 34 5
M  V30 37 1 34 11
M  V30 38 1 34 20
M  V30 39 1 35 1
M  V30 40 1 36 2
M  V30 41 1 37 2
M  V30 42 1 38 3
M  V30 43 1 39 5
M  V30 44 1 40 5
M  V30 45 1 41 6
M  V30 46 1 7 42 CFG=3
M  V30 47 1 43 8
M  V30 48 1 44 8
M  V30 49 1 45 9
M  V30 50 1 46 9
M  V30 51 1 10 47 CFG=3
M  V30 52 1 48 13
M  V30 53 1 49 14
M  V30 54 1 50 14
M  V30 55 1 15 51 CFG=3
M  V30 56 1 52 16
M  V30 57 1 53 16
M  V30 58 1 54 17
M  V30 59 1 55 18
M  V30 60 1 56 18
M  V30 61 1 57 20
M  V30 62 1 58 20
M  V30 63 1 59 23
M  V30 64 1 60 23
M  V30 65 1 61 24
M  V30 66 1 62 24
M  V30 67 1 63 25
M  V30 68 1 64 25
M  V30 69 1 65 26
M  V30 70 1 66 27
M  V30 71 1 67 27
M  V30 72 1 68 28
M  V30 73 1 30 69 CFG=1
M  V30 74 1 31 70 CFG=3
M  V30 75 1 71 32
M  V30 76 1 72 32
M  V30 77 1 34 73 CFG=3
M  V30 78 1 12 74 CFG=1
M  V30 END BOND
M  V30 END CTAB
M  END
>  <i_epik_Tot_Q>  (1) 
2

>  <i_epik_Tot_abs_Q>  (1) 
4

>  <i_i_glide_confnum>  (1) 
9

>  <i_i_glide_lignum>  (1) 
268

>  <i_i_glide_posenum>  (1) 
216

>  <i_i_glide_rotatable_bonds>  (1) 
6

>  <i_lp_mmshare_version>  (1) 
72125

>  <i_m_source_file_index>  (1) 
98

>  <i_f3d_flags>  (1) 
0

>  <num_sample>  (1) 
100

>  <b_lp_Chiralities_Consistent>  (1) 
1

>  <r_epik_Charging_Adjusted_Penalty>  (1) 
0.028424460748094963

>  <r_epik_Ionization_Penalty>  (1) 
0.031653010901111077

>  <r_epik_Ionization_Penalty_Charging>  (1) 
0.0018620536084809386

>  <r_epik_Ionization_Penalty_Neutral>  (1) 
0.029790957292630139

>  <r_epik_State_Penalty>  (1) 
0.026562407139614025

>  <r_glide_ring_energy>  (1) 
1.3700077463138134

>  <r_i_docking_score>  (1) 
-6.8217998242237323

>  <r_i_glide_ecoul>  (1) 
0.40809093758445014

>  <r_i_glide_eff_state_penalty>  (1) 
0.026562407139614025

>  <r_i_glide_einternal>  (1) 
12.187895717360481

>  <r_i_glide_emodel>  (1) 
-49.951344406180773

>  <r_i_glide_emodel_strain>  (1) 
0.68487494309763974

>  <r_i_glide_energy>  (1) 
-44.030064510679679

>  <r_i_glide_erotb>  (1) 
0.42420227184638803

>  <r_i_glide_esite>  (1) 
-0.06515975578848214

>  <r_i_glide_evdw>  (1) 
-44.438155448264126

>  <r_i_glide_gscore>  (1) 
-6.8483622313633461

>  <r_i_glide_gscore_strain>  (1) 
0

>  <r_i_glide_hbond>  (1) 
0

>  <r_i_glide_ligand_efficiency>  (1) 
-0.200641171300698

>  <r_i_glide_ligand_efficiency_ln>  (1) 
-1.5071269261748048

>  <r_i_glide_ligand_efficiency_sa>  (1) 
-0.64999950636787851

>  <r_i_glide_lipo>  (1) 
-4.0801421381262246

>  <r_i_glide_metal>  (1) 
-0

>  <r_i_glide_rewards>  (1) 
-0.96656847751948893

>  <r_lp_Energy>  (1) 
45.035862999999999

>  <s_epik_cmdline>  (1) 
J2VwaWtfcHl0aG9uJywgJy1waHQnLCAnMS4wJywgJy1waCcsICc3LjQnLCAnLXRuJywgJzgnLCAnLW1hJywgJzUwMCcsICctaW1hZScsICc8aW5maWxlLm1hZT4nLCAnLW9tYWUnLCAnPG91dGZpbGUubWFlPic=

>  <s_epik_input>  (1) 
W0NIMl0xW0NIMl1bQ0hdPVtDSF1bQ0BASF0oTjEyKVtDSDJdW0NIMl1bQ0BASF0oW0NIMl1bQ0gyXTIpW0NIMl1bQ0BIXShbQ0gyXVtDSDJdMylbQ0gyXVtTK10zW0NASF0oYyhbY0hdW2NIXTQpW2NIXVtjSF1jNEYpW0NASF01W05IXVtDSDJdW0NASF0oW04rXSg9TylbTy1dKVtDSDJdW0NIMl01

>  <s_glide_docking_method>  (1) 
confgen

>  <s_i_glide_gridfile>  (1) 
gpcr_5ht2c_6bqh_protein_autoprepared_prepared

>  <s_lp_Force_Field>  (1) 
S-OPLS

>  <s_lp_Variant>  (1) 
DiffSBDD_97_num_sample_100-1

>  <s_m_source_file>  (1) 
generated__ligand_DiffSBDD_2026-05-06_prepared.sdf

>  <GenAI_Model>  (1) 
DiffSBDD

>  <Protein>  (1) 
GPCR_5HT2C

$$$$
DiffSBDD_46_num_sample_100
     RDKit          3D

  0  0  0  0  0  0  0  0  0  0999 V3000
M  V30 BEGIN CTAB
M  V30 COUNTS 66 69 0 0 1
M  V30 BEGIN ATOM
M  V30 1 N 40.183034 34.140756 61.353588 0 CHG=-1
M  V30 2 N 38.894234 29.668496 55.153782 0
M  V30 3 C 37.850171 30.593264 60.508805 0
M  V30 4 C 42.843063 25.918554 64.653448 0
M  V30 5 C 38.926509 30.276058 58.113275 0
M  V30 6 O 42.267361 33.541506 64.093930 0
M  V30 7 O 40.695176 36.021429 64.485715 0
M  V30 8 C 42.658288 28.307325 64.306081 0
M  V30 9 N 43.175574 27.087388 64.726005 0
M  V30 10 F 44.362235 29.459019 65.543790 0
M  V30 11 C 37.976877 30.958609 59.086260 0 CFG=2
M  V30 12 N 40.980492 31.942020 63.013031 0
M  V30 13 C 38.269789 29.027431 57.464977 0 CFG=2
M  V30 14 C 42.743654 30.731069 64.327445 0
M  V30 15 C 40.831539 35.732654 63.105766 0
M  V30 16 C 40.240947 26.770057 57.301756 0
M  V30 17 C 39.555273 28.779877 51.060115 0
M  V30 18 C 39.103559 29.351495 53.792549 0
M  V30 19 C 43.273508 29.500429 64.737392 0
M  V30 20 C 38.912391 34.074130 60.912086 0
M  V30 21 C 41.060300 29.486481 63.100610 0
M  V30 22 C 41.603478 30.727511 63.485544 0
M  V30 23 N 41.567554 28.296401 63.494649 0
M  V30 24 C 40.259084 27.938708 56.311294 0
M  V30 25 C 39.867491 30.050241 51.575926 0
M  V30 26 C 40.401670 34.278977 62.788343 0 CFG=2
M  V30 27 C 38.250563 27.836279 58.443115 0
M  V30 28 C 39.637053 30.337512 52.936562 0
M  V30 29 C 38.166541 33.055135 60.362723 0
M  V30 30 C 39.018466 27.790184 51.903146 0
M  V30 31 C 39.625092 27.181345 58.639060 0
M  V30 32 C 41.336395 33.200272 63.368786 0
M  V30 33 C 38.794379 28.066194 53.267699 0
M  V30 34 O 42.666980 24.760475 64.553379 0
M  V30 35 C 38.858640 28.560010 56.110236 0 CFG=2
M  V30 36 N 38.625496 31.771581 60.119693 0
M  V30 37 H 39.224753 30.560795 55.491641 0
M  V30 38 H 38.524314 29.871475 60.962435 0
M  V30 39 H 36.970876 30.888835 61.077440 0
M  V30 40 H 39.194753 31.017840 57.362703 0
M  V30 41 H 39.854609 30.013981 58.620271 0
M  V30 42 H 41.104687 36.867368 64.653419 0
M  V30 43 H 37.135993 31.480030 58.630441 0
M  V30 44 H 40.199075 31.842919 62.377316 0
M  V30 45 H 37.230878 29.297555 57.261461 0
M  V30 46 H 43.207128 31.637767 64.654844 0
M  V30 47 H 40.212387 36.445397 62.559935 0
M  V30 48 H 41.862793 35.912853 62.796652 0
M  V30 49 H 41.258917 26.420709 57.465368 0
M  V30 50 H 39.684257 25.934395 56.876315 0
M  V30 51 H 39.725461 28.564429 50.015152 0
M  V30 52 H 38.362775 35.033376 61.022257 0
M  V30 53 H 40.191664 29.445703 62.460987 0
M  V30 54 H 40.954115 28.700065 56.664754 0
M  V30 55 H 40.655471 27.568613 55.371148 0
M  V30 56 H 40.279314 30.809837 50.927191 0
M  V30 57 H 39.467383 34.116678 63.324183 0
M  V30 58 H 37.867427 28.163873 59.404859 0
M  V30 59 H 37.552119 27.086254 58.071539 0
M  V30 60 H 39.875914 31.316199 53.325763 0
M  V30 61 H 37.134825 33.203471 60.076268 0
M  V30 62 H 38.777669 26.817899 51.503439 0
M  V30 63 H 40.299743 27.858043 59.163590 0
M  V30 64 H 39.524571 26.300903 59.268378 0
M  V30 65 H 38.384202 27.296860 53.898466 0
M  V30 66 H 38.166192 27.790603 55.777604 0
M  V30 END ATOM
M  V30 BEGIN BOND
M  V30 1 2 9 4
M  V30 2 1 9 8
M  V30 3 1 11 3
M  V30 4 1 11 5
M  V30 5 1 13 5
M  V30 6 1 15 7
M  V30 7 1 18 2
M  V30 8 2 19 8
M  V30 9 1 19 10
M  V30 10 1 19 14
M  V30 11 1 20 1
M  V30 12 1 22 12
M  V30 13 2 22 14
M  V30 14 1 22 21
M  V30 15 1 23 8
M  V30 16 2 23 21
M  V30 17 1 24 16
M  V30 18 2 25 17
M  V30 19 1 26 1
M  V30 20 1 26 15
M  V30 21 1 27 13
M  V30 22 2 28 18
M  V30 23 1 28 25
M  V30 24 2 29 20
M  V30 25 1 30 17
M  V30 26 1 31 16
M  V30 27 1 31 27
M  V30 28 2 32 6
M  V30 29 1 32 12
M  V30 30 1 32 26
M  V30 31 1 33 18
M  V30 32 2 33 30
M  V30 33 2 34 4
M  V30 34 1 35 2
M  V30 35 1 35 13
M  V30 36 1 35 24
M  V30 37 1 36 3
M  V30 38 1 36 11
M  V30 39 1 36 29
M  V30 40 1 37 2
M  V30 41 1 38 3
M  V30 42 1 39 3
M  V30 43 1 40 5
M  V30 44 1 41 5
M  V30 45 1 42 7
M  V30 46 1 11 43 CFG=3
M  V30 47 1 44 12
M  V30 48 1 13 45 CFG=3
M  V30 49 1 46 14
M  V30 50 1 47 15
M  V30 51 1 48 15
M  V30 52 1 49 16
M  V30 53 1 50 16
M  V30 54 1 51 17
M  V30 55 1 52 20
M  V30 56 1 53 21
M  V30 57 1 54 24
M  V30 58 1 55 24
M  V30 59 1 56 25
M  V30 60 1 26 57 CFG=1
M  V30 61 1 58 27
M  V30 62 1 59 27
M  V30 63 1 60 28
M  V30 64 1 61 29
M  V30 65 1 62 30
M  V30 66 1 63 31
M  V30 67 1 64 31
M  V30 68 1 65 33
M  V30 69 1 35 66 CFG=3
M  V30 END BOND
M  V30 END CTAB
M  END
>  <i_epik_Tot_Q>  (1) 
-1

>  <i_epik_Tot_abs_Q>  (1) 
1

>  <i_i_glide_confnum>  (1) 
4937

>  <i_i_glide_lignum>  (1) 
127

>  <i_i_glide_posenum>  (1) 
177

>  <i_i_glide_rotatable_bonds>  (1) 
13

>  <i_lp_mmshare_version>  (1) 
72125

>  <i_m_source_file_index>  (1) 
47

>  <i_f3d_flags>  (1) 
0

>  <num_sample>  (1) 
100

>  <b_lp_Chiralities_Consistent>  (1) 
1

>  <r_epik_Charging_Adjusted_Penalty>  (1) 
0.89067625700486475

>  <r_epik_Ionization_Penalty>  (1) 
0.26609996420413234

>  <r_epik_Ionization_Penalty_Charging>  (1) 
0.17619897240493029

>  <r_epik_Ionization_Penalty_Neutral>  (1) 
0.089900991799202065

>  <r_epik_State_Penalty>  (1) 
0.71447728459993443

>  <r_glide_ring_energy>  (1) 
0

>  <r_i_docking_score>  (1) 
-6.8129285929904162

>  <r_i_glide_ecoul>  (1) 
-4.6243309684992147

>  <r_i_glide_eff_state_penalty>  (1) 
0.71447728459993443

>  <r_i_glide_einternal>  (1) 
1.7542810840920104

>  <r_i_glide_emodel>  (1) 
-79.363693685805302

>  <r_i_glide_emodel_strain>  (1) 
1.1920625751097873

>  <r_i_glide_energy>  (1) 
-55.02855107899029

>  <r_i_glide_erotb>  (1) 
1.0035370279361706

>  <r_i_glide_esite>  (1) 
0

>  <r_i_glide_evdw>  (1) 
-50.404220110491075

>  <r_i_glide_gscore>  (1) 
-7.5274058775903505

>  <r_i_glide_gscore_strain>  (1) 
0

>  <r_i_glide_hbond>  (1) 
-0.32000000000000001

>  <r_i_glide_ligand_efficiency>  (1) 
-0.18924801647195599

>  <r_i_glide_ligand_efficiency_ln>  (1) 
-1.4863969549311493

>  <r_i_glide_ligand_efficiency_sa>  (1) 
-0.62488318238801077

>  <r_i_glide_lipo>  (1) 
-3.7529004432563382

>  <r_i_glide_metal>  (1) 
-0

>  <r_i_glide_rewards>  (1) 
-1.2441818114707461

>  <r_lp_Energy>  (1) 
55.207712000000001

>  <s_epik_Chemistry_Notes>  (1) 
This compound has an imine and may undergo hydrolysis.

>  <s_epik_cmdline>  (1) 
J2VwaWtfcHl0aG9uJywgJy1waHQnLCAnMS4wJywgJy1waCcsICc3LjQnLCAnLXRuJywgJzgnLCAnLW1hJywgJzUwMCcsICctaW1hZScsICc8aW5maWxlLm1hZT4nLCAnLW9tYWUnLCAnPG91dGZpbGUubWFlPic=

>  <s_epik_input>  (1) 
Tz1DPU5jMWMoRilbY0hdYyhbY0hdbjEpW05IXUMoPU8pW0NAQEhdKFtDSDJdW09IXSkvTj1bQ0hdL1tDSDJdTjJbQ0gyXVtDQEBIXTJbQ0gyXVtDQEBIXTNbQ0gyXVtDSDJdW0NIMl1bQ0gyXVtDQEBIXTNbTkhdYzRbY0hdW2NIXVtjSF1bY0hdW2NIXTQ=

>  <s_glide_docking_method>  (1) 
confgen

>  <s_i_glide_gridfile>  (1) 
gpcr_5ht2c_6bqh_protein_autoprepared_prepared

>  <s_lp_Force_Field>  (1) 
S-OPLS

>  <s_lp_Variant>  (1) 
DiffSBDD_46_num_sample_100-3

>  <s_m_source_file>  (1) 
generated__ligand_DiffSBDD_2026-05-06_prepared.sdf

>  <GenAI_Model>  (1) 
DiffSBDD

>  <Protein>  (1) 
GPCR_5HT2C

$$$$
DiffSBDD_59_num_sample_100
     RDKit          3D

  0  0  0  0  0  0  0  0  0  0999 V3000
M  V30 BEGIN CTAB
M  V30 COUNTS 54 55 0 0 1
M  V30 BEGIN ATOM
M  V30 1 O 35.510886 37.221467 63.454774 0
M  V30 2 N 38.963004 29.976404 56.342625 0 CFG=2 CHG=1
M  V30 3 C 39.703850 30.493134 52.968601 0
M  V30 4 C 38.082882 30.097494 57.546367 0
M  V30 5 C 37.067463 37.042374 61.596941 0
M  V30 6 C 39.026749 27.896821 52.099665 0
M  V30 7 C 38.505171 28.384484 53.314470 0
M  V30 8 C 38.835478 29.697122 53.756049 0
M  V30 9 C 37.719729 34.170491 60.044133 0
M  V30 10 C 37.525289 31.633891 59.548089 0
M  V30 11 Cl 37.467365 27.377995 54.252512 0
M  V30 12 C 38.580825 31.183634 58.516593 0
M  V30 13 O 36.967823 34.733568 59.060803 0
M  V30 14 N 38.357444 34.952601 60.965590 0
M  V30 15 N 39.043702 34.197366 61.853793 0
M  V30 16 C 36.565565 36.453185 62.917178 0
M  V30 17 C 37.985018 32.861831 60.295076 0
M  V30 18 C 38.230226 30.265456 55.066636 0 CFG=2
M  V30 19 C 39.788039 28.744443 56.376831 0
M  V30 20 C 38.381097 36.419934 61.072495 0 CFG=2
M  V30 21 C 40.215345 29.995444 51.752884 0
M  V30 22 C 38.826483 32.933559 61.454535 0
M  V30 23 C 39.606950 36.952347 61.853686 0
M  V30 24 C 37.994925 31.791139 54.981077 0
M  V30 25 C 39.873888 28.701741 51.319059 0
M  V30 26 H 35.066905 36.685174 64.101191 0
M  V30 27 H 39.966930 31.489360 53.284830 0
M  V30 28 H 37.991186 29.142288 58.066723 0
M  V30 29 H 37.067073 30.349857 57.249647 0
M  V30 30 H 37.204282 38.118543 61.706759 0
M  V30 31 H 36.289458 36.924519 60.841260 0
M  V30 32 H 38.770500 26.901278 51.764226 0
M  V30 33 H 37.312520 30.815062 60.236259 0
M  V30 34 H 36.579545 31.838307 59.045361 0
M  V30 35 H 38.881326 32.059957 57.939458 0
M  V30 36 H 39.467403 30.820553 59.038297 0
M  V30 37 H 36.200655 35.445468 62.722186 0
M  V30 38 H 37.363418 36.421129 63.658593 0
M  V30 39 H 36.623019 34.042024 58.515000 0
M  V30 40 H 37.235879 29.824541 55.143455 0
M  V30 41 H 39.173166 27.846828 56.323406 0
M  V30 42 H 40.517860 28.723405 55.568459 0
M  V30 43 H 40.351927 28.699164 57.309385 0
M  V30 44 H 38.477901 36.777582 60.050187 0
M  V30 45 H 40.869559 30.610675 51.150681 0
M  V30 46 H 39.282111 32.125230 62.008264 0
M  V30 47 H 39.647630 38.041571 61.825521 0
M  V30 48 H 39.585435 36.658402 62.903646 0
M  V30 49 H 40.541267 36.580517 61.431445 0
M  V30 50 H 37.399134 32.049464 54.108541 0
M  V30 51 H 37.466939 32.174366 55.853596 0
M  V30 52 H 38.925432 32.355273 54.933605 0
M  V30 53 H 40.267333 28.324235 50.386033 0
M  V30 54 H 39.631132 30.729958 56.416634 0
M  V30 END ATOM
M  V30 BEGIN BOND
M  V30 1 1 4 2
M  V30 2 2 7 6
M  V30 3 2 8 3
M  V30 4 1 8 7
M  V30 5 1 11 7
M  V30 6 1 12 4
M  V30 7 1 12 10
M  V30 8 1 13 9
M  V30 9 1 14 9
M  V30 10 1 15 14
M  V30 11 1 16 1
M  V30 12 1 16 5
M  V30 13 2 17 9
M  V30 14 1 17 10
M  V30 15 1 18 2
M  V30 16 1 18 8
M  V30 17 1 19 2
M  V30 18 1 20 5
M  V30 19 1 20 14
M  V30 20 1 21 3
M  V30 21 2 22 15
M  V30 22 1 22 17
M  V30 23 1 23 20
M  V30 24 1 24 18
M  V30 25 1 25 6
M  V30 26 2 25 21
M  V30 27 1 26 1
M  V30 28 1 27 3
M  V30 29 1 28 4
M  V30 30 1 29 4
M  V30 31 1 30 5
M  V30 32 1 31 5
M  V30 33 1 32 6
M  V30 34 1 33 10
M  V30 35 1 34 10
M  V30 36 1 35 12
M  V30 37 1 36 12
M  V30 38 1 37 16
M  V30 39 1 38 16
M  V30 40 1 39 13
M  V30 41 1 18 40 CFG=1
M  V30 42 1 41 19
M  V30 43 1 42 19
M  V30 44 1 43 19
M  V30 45 1 20 44 CFG=3
M  V30 46 1 45 21
M  V30 47 1 46 22
M  V30 48 1 47 23
M  V30 49 1 48 23
M  V30 50 1 49 23
M  V30 51 1 50 24
M  V30 52 1 51 24
M  V30 53 1 52 24
M  V30 54 1 53 25
M  V30 55 1 2 54 CFG=1
M  V30 END BOND
M  V30 END CTAB
M  END
>  <i_epik_Tot_Q>  (1) 
1

>  <i_epik_Tot_abs_Q>  (1) 
1

>  <i_i_glide_confnum>  (1) 
94

>  <i_i_glide_lignum>  (1) 
149

>  <i_i_glide_posenum>  (1) 
366

>  <i_i_glide_rotatable_bonds>  (1) 
11

>  <i_lp_mmshare_version>  (1) 
72125

>  <i_m_source_file_index>  (1) 
60

>  <i_f3d_flags>  (1) 
0

>  <num_sample>  (1) 
100

>  <b_lp_Chiralities_Consistent>  (1) 
1

>  <r_epik_Charging_Adjusted_Penalty>  (1) 
0.34288875783321848

>  <r_epik_Ionization_Penalty>  (1) 
0.16299728195075516

>  <r_epik_Ionization_Penalty_Charging>  (1) 
0.10603582337888565

>  <r_epik_Ionization_Penalty_Neutral>  (1) 
0.05696145857186951

>  <r_epik_State_Penalty>  (1) 
0.23685293445433284

>  <r_glide_ring_energy>  (1) 
0

>  <r_i_docking_score>  (1) 
-6.8112671628187078

>  <r_i_glide_ecoul>  (1) 
-4.7982927688695991

>  <r_i_glide_eff_state_penalty>  (1) 
0.23685293445433284

>  <r_i_glide_einternal>  (1) 
4.3286078275030579

>  <r_i_glide_emodel>  (1) 
-64.765300346857302

>  <r_i_glide_emodel_strain>  (1) 
0.4459959344517479

>  <r_i_glide_energy>  (1) 
-42.669969489158653

>  <r_i_glide_erotb>  (1) 
1.1440711446639862

>  <r_i_glide_esite>  (1) 
0

>  <r_i_glide_evdw>  (1) 
-37.871676720289052

>  <r_i_glide_gscore>  (1) 
-7.0481200972730402

>  <r_i_glide_gscore_strain>  (1) 
0

>  <r_i_glide_hbond>  (1) 
-0.28458648403450482

>  <r_i_glide_ligand_efficiency>  (1) 
-0.27245068651274829

>  <r_i_glide_ligand_efficiency_ln>  (1) 
-1.6144744347936559

>  <r_i_glide_ligand_efficiency_sa>  (1) 
-0.79665064015154896

>  <r_i_glide_lipo>  (1) 
-3.4170068130027915

>  <r_i_glide_metal>  (1) 
-0

>  <r_i_glide_rewards>  (1) 
-1.8772701935548377

>  <r_lp_Energy>  (1) 
26.033631999999997

>  <r_lp_tautomer_probability>  (1) 
0.67048000943507491

>  <s_epik_cmdline>  (1) 
J2VwaWtfcHl0aG9uJywgJy1waHQnLCAnMS4wJywgJy1waCcsICc3LjQnLCAnLXRuJywgJzgnLCAnLW1hJywgJzUwMCcsICctaW1hZScsICc8aW5maWxlLm1hZT4nLCAnLW9tYWUnLCAnPG91dGZpbGUubWFlPic=

>  <s_epik_input>  (1) 
W09IXVtDSDJdW0NIMl1bQ0BASF0oW0NIM10pTihDMT1PKU49W0NIXVtDQEBIXTFbQ0gyXVtDSDJdW0NIMl1OKFtDSDNdKVtDQEBIXShbQ0gzXSljMltjSF1bY0hdW2NIXVtjSF1jMkNs

>  <s_glide_docking_method>  (1) 
confgen

>  <s_i_glide_gridfile>  (1) 
gpcr_5ht2c_6bqh_protein_autoprepared_prepared

>  <s_lp_Force_Field>  (1) 
S-OPLS

>  <s_lp_Variant>  (1) 
DiffSBDD_59_num_sample_100-2

>  <s_m_source_file>  (1) 
generated__ligand_DiffSBDD_2026-05-06_prepared.sdf

>  <GenAI_Model>  (1) 
DiffSBDD

>  <Protein>  (1) 
GPCR_5HT2C

$$$$
DiffSBDD_1_num_sample_100
     RDKit          3D

  0  0  0  0  0  0  0  0  0  0999 V3000
M  V30 BEGIN CTAB
M  V30 COUNTS 63 66 0 0 1
M  V30 BEGIN ATOM
M  V30 1 C 38.583856 28.071302 54.305544 0
M  V30 2 C 39.318111 33.966569 61.771894 0
M  V30 3 O 39.867412 26.434407 53.463595 0
M  V30 4 C 37.375129 32.487117 60.885718 0 CFG=1
M  V30 5 C 38.057054 28.972382 55.364533 0
M  V30 6 C 38.179045 30.278483 60.046855 0
M  V30 7 C 37.564600 36.592340 62.927401 0
M  V30 8 C 41.172605 35.372919 61.920880 0
M  V30 9 N 40.009801 36.158585 61.453518 0 CHG=1
M  V30 10 C 38.372710 32.635323 57.161183 0
M  V30 11 C 38.684096 28.896023 56.777486 0
M  V30 12 C 37.518054 35.893884 61.543792 0 CFG=2
M  V30 13 C 38.872477 35.259444 61.112524 0 CFG=2
M  V30 14 C 38.009937 30.733487 58.583513 0 CFG=2
M  V30 15 C 39.222684 31.506075 56.573199 0
M  V30 16 C 39.469015 27.149109 54.529175 0
M  V30 17 N 37.207427 31.016333 60.904093 0
M  V30 18 C 38.679648 32.772421 61.661138 0
M  V30 19 O 37.152342 29.779446 55.151068 0
M  V30 20 C 37.054121 36.888496 60.460338 0
M  V30 21 C 39.148031 27.135845 52.369482 0
M  V30 22 C 37.200460 32.957370 59.407637 0
M  V30 23 C 40.587332 34.115676 62.556371 0
M  V30 24 N 38.139586 32.209020 58.546653 0 CFG=2 CHG=1
M  V30 25 O 36.667522 30.421313 58.253507 0
M  V30 26 C 38.107642 28.223636 52.929259 0
M  V30 27 C 38.990577 30.253024 57.482776 0 CFG=2
M  V30 28 O 36.267900 36.821491 63.442971 0
M  V30 29 H 36.569776 32.921400 61.477472 0
M  V30 30 H 39.202611 30.444028 60.383873 0
M  V30 31 H 38.004578 29.205044 60.120405 0
M  V30 32 H 38.060513 37.559928 62.845065 0
M  V30 33 H 38.142803 36.021488 63.651862 0
M  V30 34 H 41.795850 35.945115 62.609773 0
M  V30 35 H 41.783085 35.114899 61.054574 0
M  V30 36 H 40.262155 36.748794 60.673182 0
M  V30 37 H 38.871718 33.602706 57.116420 0
M  V30 38 H 37.445690 32.723056 56.606691 0
M  V30 39 H 39.635754 28.375569 56.728820 0
M  V30 40 H 38.043419 28.281027 57.409506 0
M  V30 41 H 36.769392 35.105448 61.593350 0
M  V30 42 H 38.930527 35.112312 60.037975 0
M  V30 43 H 40.267392 31.795061 56.581759 0
M  V30 44 H 38.994460 31.390617 55.516419 0
M  V30 45 H 39.946954 26.876684 55.456670 0
M  V30 46 H 36.287877 30.804704 60.518926 0
M  V30 47 H 39.105661 31.921827 62.176588 0
M  V30 48 H 37.791775 37.674146 60.294164 0
M  V30 49 H 36.882376 36.390009 59.506191 0
M  V30 50 H 36.124836 37.386431 60.734228 0
M  V30 51 H 39.895112 27.644756 51.759508 0
M  V30 52 H 38.667419 26.421460 51.707573 0
M  V30 53 H 36.176877 32.775926 59.076136 0
M  V30 54 H 37.333451 34.024791 59.278706 0
M  V30 55 H 40.344085 34.287547 63.605699 0
M  V30 56 H 41.246177 33.249307 62.480300 0
M  V30 57 H 36.273952 31.047466 57.622915 0
M  V30 58 H 37.066281 27.916294 52.827986 0
M  V30 59 H 38.269749 29.221597 52.524033 0
M  V30 60 H 39.932134 30.068489 57.997788 0
M  V30 61 H 35.891299 36.011098 63.763923 0
M  V30 62 H 39.724118 36.744403 62.224631 0
M  V30 63 H 39.032085 32.363685 58.988759 0
M  V30 END ATOM
M  V30 BEGIN BOND
M  V30 1 1 5 1
M  V30 2 1 9 8
M  V30 3 1 11 5
M  V30 4 1 12 7
M  V30 5 1 13 2
M  V30 6 1 13 9
M  V30 7 1 13 12
M  V30 8 1 14 6
M  V30 9 1 15 10
M  V30 10 2 16 1
M  V30 11 1 16 3
M  V30 12 1 17 4
M  V30 13 1 17 6
M  V30 14 2 18 2
M  V30 15 1 18 4
M  V30 16 2 19 5
M  V30 17 1 20 12
M  V30 18 1 21 3
M  V30 19 1 22 4
M  V30 20 1 23 2
M  V30 21 1 23 8
M  V30 22 1 24 10
M  V30 23 1 24 14
M  V30 24 1 24 22
M  V30 25 1 14 25 CFG=3
M  V30 26 1 26 1
M  V30 27 1 26 21
M  V30 28 1 27 11
M  V30 29 1 27 14
M  V30 30 1 27 15
M  V30 31 1 28 7
M  V30 32 1 4 29 CFG=1
M  V30 33 1 30 6
M  V30 34 1 31 6
M  V30 35 1 32 7
M  V30 36 1 33 7
M  V30 37 1 34 8
M  V30 38 1 35 8
M  V30 39 1 36 9
M  V30 40 1 37 10
M  V30 41 1 38 10
M  V30 42 1 39 11
M  V30 43 1 40 11
M  V30 44 1 12 41 CFG=1
M  V30 45 1 13 42 CFG=3
M  V30 46 1 43 15
M  V30 47 1 44 15
M  V30 48 1 45 16
M  V30 49 1 46 17
M  V30 50 1 47 18
M  V30 51 1 48 20
M  V30 52 1 49 20
M  V30 53 1 50 20
M  V30 54 1 51 21
M  V30 55 1 52 21
M  V30 56 1 53 22
M  V30 57 1 54 22
M  V30 58 1 55 23
M  V30 59 1 56 23
M  V30 60 1 57 25
M  V30 61 1 58 26
M  V30 62 1 59 26
M  V30 63 1 27 60 CFG=1
M  V30 64 1 61 28
M  V30 65 1 62 9
M  V30 66 1 24 63 CFG=1
M  V30 END BOND
M  V30 END CTAB
M  END
>  <i_epik_Tot_Q>  (1) 
2

>  <i_epik_Tot_abs_Q>  (1) 
2

>  <i_i_glide_confnum>  (1) 
383

>  <i_i_glide_lignum>  (1) 
17

>  <i_i_glide_posenum>  (1) 
124

>  <i_i_glide_rotatable_bonds>  (1) 
8

>  <i_lp_mmshare_version>  (1) 
72125

>  <i_m_source_file_index>  (1) 
2

>  <i_f3d_flags>  (1) 
0

>  <num_sample>  (1) 
100

>  <b_lp_Chiralities_Consistent>  (1) 
1

>  <r_epik_Charging_Adjusted_Penalty>  (1) 
2.3622130296898831

>  <r_epik_Ionization_Penalty>  (1) 
1.4312966064593899

>  <r_epik_Ionization_Penalty_Charging>  (1) 
1.1852885594971458

>  <r_epik_Ionization_Penalty_Neutral>  (1) 
0.24600804696224418

>  <r_epik_State_Penalty>  (1) 
1.176924470192737

>  <r_glide_ring_energy>  (1) 
0

>  <r_i_docking_score>  (1) 
-6.8037545770978278

>  <r_i_glide_ecoul>  (1) 
-11.168462839736694

>  <r_i_glide_eff_state_penalty>  (1) 
1.176924470192737

>  <r_i_glide_einternal>  (1) 
17.180275075516704

>  <r_i_glide_emodel>  (1) 
-48.958576635381945

>  <r_i_glide_emodel_strain>  (1) 
1.4584394444719919

>  <r_i_glide_energy>  (1) 
-36.602021527804936

>  <r_i_glide_erotb>  (1) 
0.75687532201182384

>  <r_i_glide_esite>  (1) 
-0.1209350779131237

>  <r_i_glide_evdw>  (1) 
-25.433558688068242

>  <r_i_glide_gscore>  (1) 
-7.9806790472905647

>  <r_i_glide_gscore_strain>  (1) 
0

>  <r_i_glide_hbond>  (1) 
-0.41193543234601715

>  <r_i_glide_ligand_efficiency>  (1) 
-0.24299123489635099

>  <r_i_glide_ligand_efficiency_ln>  (1) 
-1.5705063233089771

>  <r_i_glide_ligand_efficiency_sa>  (1) 
-0.73786450414870819

>  <r_i_glide_lipo>  (1) 
-2.9645816473987465

>  <r_i_glide_metal>  (1) 
-0

>  <r_i_glide_rewards>  (1) 
-2.2931548512805846

>  <r_lp_Energy>  (1) 
22.123918

>  <s_epik_cmdline>  (1) 
J2VwaWtfcHl0aG9uJywgJy1waHQnLCAnMS4wJywgJy1waCcsICc3LjQnLCAnLXRuJywgJzgnLCAnLW1hJywgJzUwMCcsICctaW1hZScsICc8aW5maWxlLm1hZT4nLCAnLW9tYWUnLCAnPG91dGZpbGUubWFlPic=

>  <s_epik_input>  (1) 
W0NIMl0xW0NIMl1PW0NIXT1DMUMoPU8pW0NIMl1bQ0BIXTJbQ0gyXVtDSDJdTihbQ0BAXTIzW09IXSlbQ0gyXVtDQEBIXShbTkhdW0NIMl0zKS9bQ0hdPUM0XFtDQEBIXShbTkhdW0NIMl1bQ0gyXTQpW0NASF0oW0NIM10pW0NIMl1bT0hd

>  <s_glide_docking_method>  (1) 
confgen

>  <s_i_glide_gridfile>  (1) 
gpcr_5ht2c_6bqh_protein_autoprepared_prepared

>  <s_lp_Force_Field>  (1) 
S-OPLS

>  <s_lp_Variant>  (1) 
DiffSBDD_1_num_sample_100-11

>  <s_m_source_file>  (1) 
generated__ligand_DiffSBDD_2026-05-06_prepared.sdf

>  <GenAI_Model>  (1) 
DiffSBDD

>  <Protein>  (1) 
GPCR_5HT2C

$$$$
DiffSBDD_1_num_sample_100
     RDKit          3D

  0  0  0  0  0  0  0  0  0  0999 V3000
M  V30 BEGIN CTAB
M  V30 COUNTS 63 66 0 0 1
M  V30 BEGIN ATOM
M  V30 1 C 38.992853 26.240008 56.909533 0
M  V30 2 C 38.223455 34.486186 60.067087 0
M  V30 3 O 37.997326 24.421400 56.060555 0
M  V30 4 C 38.074284 32.638022 58.339229 0 CFG=1
M  V30 5 C 39.505030 27.624792 56.890312 0
M  V30 6 C 37.636971 30.314858 57.903949 0
M  V30 7 C 41.021981 36.291975 62.244082 0
M  V30 8 C 36.637415 35.567812 61.405243 0
M  V30 9 N 37.993432 35.782715 61.946442 0 CHG=1
M  V30 10 C 38.479074 31.944188 54.599378 0
M  V30 11 C 39.332032 28.438017 55.607850 0
M  V30 12 C 40.364681 35.108044 61.494961 0 CFG=2
M  V30 13 C 38.984856 35.489798 60.904589 0 CFG=1
M  V30 14 C 37.920862 30.514706 56.388717 0 CFG=2
M  V30 15 C 39.357184 30.695470 54.461739 0
M  V30 16 C 38.408403 25.685346 55.892997 0
M  V30 17 N 38.369966 31.266507 58.741277 0
M  V30 18 C 38.817423 33.621429 59.222268 0
M  V30 19 O 40.065525 28.138326 57.858681 0
M  V30 20 C 40.355627 33.815693 62.332718 0
M  V30 21 C 38.436339 24.161644 57.453497 0
M  V30 22 C 38.523570 32.857716 56.883709 0
M  V30 23 C 36.740225 34.549574 60.265116 0
M  V30 24 N 37.867403 31.920242 55.944859 0 CFG=1 CHG=1
M  V30 25 O 36.821695 30.021430 55.656331 0
M  V30 26 C 39.143724 25.440367 58.115922 0
M  V30 27 C 39.236509 29.961697 55.801617 0 CFG=2
M  V30 28 O 40.267429 36.710171 63.368233 0
M  V30 29 H 37.000641 32.815193 58.405623 0
M  V30 30 H 37.855314 29.296120 58.212954 0
M  V30 31 H 36.570872 30.421437 58.100375 0
M  V30 32 H 41.137256 37.139950 61.568642 0
M  V30 33 H 42.021687 36.021424 62.583904 0
M  V30 34 H 36.269481 36.519715 61.019012 0
M  V30 35 H 35.964239 35.221420 62.192851 0
M  V30 36 H 38.150236 35.120667 62.692521 0
M  V30 37 H 39.075895 32.821427 54.451157 0
M  V30 38 H 37.688727 31.945141 53.853492 0
M  V30 39 H 38.464047 28.112013 55.039714 0
M  V30 40 H 40.211711 28.210746 55.013690 0
M  V30 41 H 41.025287 34.918059 60.653498 0
M  V30 42 H 39.067345 36.390406 60.299841 0
M  V30 43 H 40.394489 30.944010 54.235476 0
M  V30 44 H 38.982998 30.080694 53.641016 0
M  V30 45 H 38.203065 26.100142 54.917505 0
M  V30 46 H 38.082131 31.128654 59.705354 0
M  V30 47 H 39.885852 33.626766 59.128254 0
M  V30 48 H 39.747966 33.914969 63.230737 0
M  V30 49 H 39.975493 32.967990 61.763200 0
M  V30 50 H 41.365170 33.557405 62.653568 0
M  V30 51 H 37.576305 23.850540 58.047360 0
M  V30 52 H 39.139008 23.329089 57.453504 0
M  V30 53 H 38.284422 33.876548 56.573946 0
M  V30 54 H 39.606921 32.749882 56.809787 0
M  V30 55 H 36.219330 34.886910 59.367821 0
M  V30 56 H 36.351828 33.575201 60.563270 0
M  V30 57 H 36.032695 30.346645 56.086787 0
M  V30 58 H 40.194245 25.274093 58.356513 0
M  V30 59 H 38.597462 25.855949 58.962066 0
M  V30 60 H 40.052403 30.300203 56.438791 0
M  V30 61 H 40.815138 37.285658 63.898805 0
M  V30 62 H 38.126543 36.711183 62.324117 0
M  V30 63 H 36.886313 32.192361 55.910073 0
M  V30 END ATOM
M  V30 BEGIN BOND
M  V30 1 1 5 1
M  V30 2 1 9 8
M  V30 3 1 11 5
M  V30 4 1 12 7
M  V30 5 1 13 2
M  V30 6 1 13 9
M  V30 7 1 13 12
M  V30 8 1 14 6
M  V30 9 1 15 10
M  V30 10 2 16 1
M  V30 11 1 16 3
M  V30 12 1 17 4
M  V30 13 1 17 6
M  V30 14 2 18 2
M  V30 15 1 18 4
M  V30 16 2 19 5
M  V30 17 1 20 12
M  V30 18 1 21 3
M  V30 19 1 22 4
M  V30 20 1 23 2
M  V30 21 1 23 8
M  V30 22 1 24 10
M  V30 23 1 24 14
M  V30 24 1 24 22
M  V30 25 1 14 25 CFG=3
M  V30 26 1 26 1
M  V30 27 1 26 21
M  V30 28 1 27 11
M  V30 29 1 27 14
M  V30 30 1 27 15
M  V30 31 1 28 7
M  V30 32 1 4 29 CFG=3
M  V30 33 1 30 6
M  V30 34 1 31 6
M  V30 35 1 32 7
M  V30 36 1 33 7
M  V30 37 1 34 8
M  V30 38 1 35 8
M  V30 39 1 36 9
M  V30 40 1 37 10
M  V30 41 1 38 10
M  V30 42 1 39 11
M  V30 43 1 40 11
M  V30 44 1 12 41 CFG=3
M  V30 45 1 13 42 CFG=3
M  V30 46 1 43 15
M  V30 47 1 44 15
M  V30 48 1 45 16
M  V30 49 1 46 17
M  V30 50 1 47 18
M  V30 51 1 48 20
M  V30 52 1 49 20
M  V30 53 1 50 20
M  V30 54 1 51 21
M  V30 55 1 52 21
M  V30 56 1 53 22
M  V30 57 1 54 22
M  V30 58 1 55 23
M  V30 59 1 56 23
M  V30 60 1 57 25
M  V30 61 1 58 26
M  V30 62 1 59 26
M  V30 63 1 27 60 CFG=1
M  V30 64 1 61 28
M  V30 65 1 62 9
M  V30 66 1 24 63 CFG=3
M  V30 END BOND
M  V30 END CTAB
M  END
>  <i_epik_Tot_Q>  (1) 
2

>  <i_epik_Tot_abs_Q>  (1) 
2

>  <i_i_glide_confnum>  (1) 
269

>  <i_i_glide_lignum>  (1) 
12

>  <i_i_glide_posenum>  (1) 
286

>  <i_i_glide_rotatable_bonds>  (1) 
8

>  <i_lp_mmshare_version>  (1) 
72125

>  <i_m_source_file_index>  (1) 
2

>  <i_f3d_flags>  (1) 
0

>  <num_sample>  (1) 
100

>  <b_lp_Chiralities_Consistent>  (1) 
1

>  <r_epik_Charging_Adjusted_Penalty>  (1) 
2.3622130296898831

>  <r_epik_Ionization_Penalty>  (1) 
1.4312966064593899

>  <r_epik_Ionization_Penalty_Charging>  (1) 
1.1852885594971458

>  <r_epik_Ionization_Penalty_Neutral>  (1) 
0.24600804696224418

>  <r_epik_State_Penalty>  (1) 
1.176924470192737

>  <r_glide_ring_energy>  (1) 
0

>  <r_i_docking_score>  (1) 
-6.8031967271114597

>  <r_i_glide_ecoul>  (1) 
-10.502506195287433

>  <r_i_glide_eff_state_penalty>  (1) 
1.176924470192737

>  <r_i_glide_einternal>  (1) 
22.082272639094509

>  <r_i_glide_emodel>  (1) 
-54.803767018913298

>  <r_i_glide_emodel_strain>  (1) 
0.44916495170291171

>  <r_i_glide_energy>  (1) 
-40.384661367160192

>  <r_i_glide_erotb>  (1) 
0.75687532201182384

>  <r_i_glide_esite>  (1) 
-0.1867632511998065

>  <r_i_glide_evdw>  (1) 
-29.88215517187276

>  <r_i_glide_gscore>  (1) 
-7.9801211973041966

>  <r_i_glide_gscore_strain>  (1) 
0

>  <r_i_glide_hbond>  (1) 
-0.76612145877984206

>  <r_i_glide_ligand_efficiency>  (1) 
-0.24297131168255212

>  <r_i_glide_ligand_efficiency_ln>  (1) 
-1.570377555152936

>  <r_i_glide_ligand_efficiency_sa>  (1) 
-0.73780400553740222

>  <r_i_glide_lipo>  (1) 
-2.9805628711012124

>  <r_i_glide_metal>  (1) 
-0

>  <r_i_glide_rewards>  (1) 
-1.7340652503484077

>  <r_lp_Energy>  (1) 
21.512373

>  <s_epik_cmdline>  (1) 
J2VwaWtfcHl0aG9uJywgJy1waHQnLCAnMS4wJywgJy1waCcsICc3LjQnLCAnLXRuJywgJzgnLCAnLW1hJywgJzUwMCcsICctaW1hZScsICc8aW5maWxlLm1hZT4nLCAnLW9tYWUnLCAnPG91dGZpbGUubWFlPic=

>  <s_epik_input>  (1) 
W0NIMl0xW0NIMl1PW0NIXT1DMUMoPU8pW0NIMl1bQ0BIXTJbQ0gyXVtDSDJdTihbQ0BAXTIzW09IXSlbQ0gyXVtDQEBIXShbTkhdW0NIMl0zKVxbQ0hdPUM0XFtDQEBIXShbTkhdW0NIMl1bQ0gyXTQpW0NASF0oW0NIM10pW0NIMl1bT0hd

>  <s_glide_docking_method>  (1) 
confgen

>  <s_i_glide_gridfile>  (1) 
gpcr_5ht2c_6bqh_protein_autoprepared_prepared

>  <s_lp_Force_Field>  (1) 
S-OPLS

>  <s_lp_Variant>  (1) 
DiffSBDD_1_num_sample_100-6

>  <s_m_source_file>  (1) 
generated__ligand_DiffSBDD_2026-05-06_prepared.sdf

>  <GenAI_Model>  (1) 
DiffSBDD

>  <Protein>  (1) 
GPCR_5HT2C

$$$$
DiffSBDD_42_num_sample_100
     RDKit          3D

  0  0  0  0  0  0  0  0  0  0999 V3000
M  V30 BEGIN CTAB
M  V30 COUNTS 70 74 0 0 1
M  V30 BEGIN ATOM
M  V30 1 O 38.742502 26.328323 55.848652 0
M  V30 2 C 37.676751 28.318809 52.924425 0
M  V30 3 C 40.821543 33.176602 64.249406 0
M  V30 4 C 40.631267 28.416247 61.288189 0
M  V30 5 O 38.474375 33.893544 61.779711 0
M  V30 6 C 37.977369 27.333687 54.011945 0
M  V30 7 C 39.991716 32.133260 61.053506 0
M  V30 8 C 36.364155 31.484407 59.743655 0
M  V30 9 C 39.507388 28.654212 55.695863 0
M  V30 10 C 39.872087 29.175142 60.219391 0 CFG=2
M  V30 11 C 37.962910 25.510668 55.088676 0
M  V30 12 C 38.736656 27.499526 55.138524 0
M  V30 13 O 38.768023 30.008381 60.575284 0
M  V30 14 C 40.509873 30.813551 64.637555 0
M  V30 15 C 38.886236 31.407420 60.276276 0 CFG=1
M  V30 16 C 40.456574 29.771185 65.481180 0
M  V30 17 C 38.047131 28.766948 57.725950 0
M  V30 18 Cl 41.279821 33.962046 67.149060 0
M  V30 19 C 40.963320 34.297400 63.575344 0
M  V30 20 O 41.003541 31.552540 61.444432 0
M  V30 21 N 38.720005 29.509316 56.626026 0 CFG=2 CHG=1
M  V30 22 C 40.967452 32.371161 66.535104 0
M  V30 23 C 37.549009 32.133233 60.439886 0
M  V30 24 C 35.103718 32.362903 59.731853 0
M  V30 25 C 40.765280 32.168913 65.096312 0
M  V30 26 P 39.247305 28.045987 58.924467 0 CFG=2
M  V30 27 C 40.647853 29.893170 66.980663 0
M  V30 28 C 36.091954 34.017651 61.332524 0
M  V30 29 C 40.914723 31.333793 67.395616 0
M  V30 30 O 39.816418 26.697483 58.653503 0
M  V30 31 C 39.784989 33.625498 61.284862 0 CFG=2
M  V30 32 C 34.908074 33.077527 61.063744 0
M  V30 33 C 37.407944 33.281361 61.151609 0
M  V30 34 C 40.888895 34.389924 62.054023 0
M  V30 35 C 37.805722 30.439686 55.923440 0
M  V30 36 N 37.467407 26.050185 53.976682 0
M  V30 37 O 40.364871 29.223172 58.876160 0
M  V30 38 H 38.074376 29.308015 53.146563 0
M  V30 39 H 36.602993 28.421154 52.772205 0
M  V30 40 H 38.106358 27.994750 51.976116 0
M  V30 41 H 41.285929 29.078426 61.850281 0
M  V30 42 H 41.247326 27.636228 60.840820 0
M  V30 43 H 39.930845 27.960149 61.987313 0
M  V30 44 H 36.154485 30.523990 60.215275 0
M  V30 45 H 36.641269 31.306069 58.709866 0
M  V30 46 H 40.383949 28.273784 56.221976 0
M  V30 47 H 39.901507 29.265216 54.883450 0
M  V30 48 H 37.774375 24.491711 55.393744 0
M  V30 49 H 40.358060 30.634860 63.586985 0
M  V30 50 H 39.121954 31.488017 59.216072 0
M  V30 51 H 40.267403 28.780173 65.095354 0
M  V30 52 H 37.403394 27.973951 57.350971 0
M  V30 53 H 37.398213 29.420936 58.292096 0
M  V30 54 H 41.152550 35.226220 64.094550 0
M  V30 55 H 35.196367 33.123081 58.955692 0
M  V30 56 H 34.231793 31.766038 59.466153 0
M  V30 57 H 39.749541 29.532229 67.482798 0
M  V30 58 H 41.479836 29.262087 67.293940 0
M  V30 59 H 36.003746 34.465624 62.316978 0
M  V30 60 H 36.074382 34.841590 60.618940 0
M  V30 61 H 41.067416 31.509654 68.450410 0
M  V30 62 H 39.797759 34.044356 60.277814 0
M  V30 63 H 34.823955 32.334805 61.853646 0
M  V30 64 H 33.968728 33.621429 61.045430 0
M  V30 65 H 40.766619 35.448596 61.822801 0
M  V30 66 H 41.867238 34.124806 61.653549 0
M  V30 67 H 36.929276 29.923921 55.528942 0
M  V30 68 H 38.308306 30.944491 55.097744 0
M  V30 69 H 37.467410 31.220224 56.602082 0
M  V30 70 H 39.403745 30.097965 57.082457 0
M  V30 END ATOM
M  V30 BEGIN BOND
M  V30 1 1 6 2
M  V30 2 1 10 4
M  V30 3 1 11 1
M  V30 4 1 12 1
M  V30 5 2 12 6
M  V30 6 1 12 9
M  V30 7 1 10 13 CFG=1
M  V30 8 1 15 7
M  V30 9 1 15 13
M  V30 10 2 16 14
M  V30 11 2 19 3
M  V30 12 2 20 7
M  V30 13 1 21 9
M  V30 14 1 21 17
M  V30 15 1 22 18
M  V30 16 1 23 8
M  V30 17 1 23 15
M  V30 18 1 24 8
M  V30 19 2 25 3
M  V30 20 1 25 14
M  V30 21 1 25 22
M  V30 22 1 26 10
M  V30 23 1 26 17 CFG=1
M  V30 24 1 27 16
M  V30 25 2 29 22
M  V30 26 1 29 27
M  V30 27 2 30 26
M  V30 28 1 31 5
M  V30 29 1 31 7
M  V30 30 1 32 24
M  V30 31 1 32 28
M  V30 32 1 33 5
M  V30 33 2 33 23
M  V30 34 1 33 28
M  V30 35 1 34 19
M  V30 36 1 34 31
M  V30 37 1 35 21
M  V30 38 1 36 6
M  V30 39 2 36 11
M  V30 40 1 37 10
M  V30 41 1 37 26
M  V30 42 1 38 2
M  V30 43 1 39 2
M  V30 44 1 40 2
M  V30 45 1 41 4
M  V30 46 1 42 4
M  V30 47 1 43 4
M  V30 48 1 44 8
M  V30 49 1 45 8
M  V30 50 1 46 9
M  V30 51 1 47 9
M  V30 52 1 48 11
M  V30 53 1 49 14
M  V30 54 1 15 50 CFG=3
M  V30 55 1 51 16
M  V30 56 1 52 17
M  V30 57 1 53 17
M  V30 58 1 54 19
M  V30 59 1 55 24
M  V30 60 1 56 24
M  V30 61 1 57 27
M  V30 62 1 58 27
M  V30 63 1 59 28
M  V30 64 1 60 28
M  V30 65 1 61 29
M  V30 66 1 31 62 CFG=3
M  V30 67 1 63 32
M  V30 68 1 64 32
M  V30 69 1 65 34
M  V30 70 1 66 34
M  V30 71 1 67 35
M  V30 72 1 68 35
M  V30 73 1 69 35
M  V30 74 1 21 70 CFG=1
M  V30 END BOND
M  V30 END CTAB
M  END
>  <i_epik_Tot_Q>  (1) 
1

>  <i_epik_Tot_abs_Q>  (1) 
1

>  <i_i_glide_confnum>  (1) 
61

>  <i_i_glide_lignum>  (1) 
104

>  <i_i_glide_posenum>  (1) 
203

>  <i_i_glide_rotatable_bonds>  (1) 
8

>  <i_lp_mmshare_version>  (1) 
72125

>  <i_m_source_file_index>  (1) 
43

>  <i_f3d_flags>  (1) 
0

>  <num_sample>  (1) 
100

>  <b_lp_Chiralities_Consistent>  (1) 
1

>  <r_epik_Charging_Adjusted_Penalty>  (1) 
0.2152556309207356

>  <r_epik_Ionization_Penalty>  (1) 
0.1076280395274669

>  <r_epik_Ionization_Penalty_Charging>  (1) 
0.10762781546036781

>  <r_epik_Ionization_Penalty_Neutral>  (1) 
2.2406709908736756e-07

>  <r_epik_State_Penalty>  (1) 
0.10762781546036779

>  <r_glide_ring_energy>  (1) 
0

>  <r_i_docking_score>  (1) 
-6.8029175083739295

>  <r_i_glide_ecoul>  (1) 
-2.3121411295777965

>  <r_i_glide_eff_state_penalty>  (1) 
0.10762781546036779

>  <r_i_glide_einternal>  (1) 
5.4899293501994615

>  <r_i_glide_emodel>  (1) 
-66.438479896723663

>  <r_i_glide_emodel_strain>  (1) 
0.72760589618627591

>  <r_i_glide_energy>  (1) 
-49.531518717371355

>  <r_i_glide_erotb>  (1) 
0.55194975081301367

>  <r_i_glide_esite>  (1) 
-0.0014942498654345313

>  <r_i_glide_evdw>  (1) 
-47.219377587793559

>  <r_i_glide_gscore>  (1) 
-6.9105453238342971

>  <r_i_glide_gscore_strain>  (1) 
0

>  <r_i_glide_hbond>  (1) 
-0.077823187671978142

>  <r_i_glide_ligand_efficiency>  (1) 
-0.18386263536145755

>  <r_i_glide_ligand_efficiency_ln>  (1) 
-1.4753933245523037

>  <r_i_glide_ligand_efficiency_sa>  (1) 
-0.61267109125266095

>  <r_i_glide_lipo>  (1) 
-3.7926568826115883

>  <r_i_glide_metal>  (1) 
-0

>  <r_i_glide_rewards>  (1) 
-0.88273070567196199

>  <r_lp_Energy>  (1) 
6.6760409999999997

>  <r_lp_tautomer_probability>  (1) 
0.99995000000000001

>  <s_epik_cmdline>  (1) 
J2VwaWtfcHl0aG9uJywgJy1waHQnLCAnMS4wJywgJy1waCcsICc3LjQnLCAnLXRuJywgJzgnLCAnLW1hJywgJzUwMCcsICctaW1hZScsICc8aW5maWxlLm1hZT4nLCAnLW9tYWUnLCAnPG91dGZpbGUubWFlPic=

>  <s_epik_input>  (1) 
bjFbY0hdb2MoYzFbQ0gzXSlbQ0gyXU4oW0NIM10pW0NIMl1bUEBAXSg9TykoTzIpW0NAXTIoW0NIM10pT1tDQEBIXTNDKD1PKVtDQEBIXShPQyg9QzM0KVtDSDJdW0NIMl1bQ0gyXVtDSDJdNClbQ0gyXVtDSF09Qz1DNVtDSF09W0NIXVtDSDJdW0NIXT1DNUNs

>  <s_glide_docking_method>  (1) 
confgen

>  <s_i_glide_gridfile>  (1) 
gpcr_5ht2c_6bqh_protein_autoprepared_prepared

>  <s_lp_Force_Field>  (1) 
S-OPLS

>  <s_lp_Variant>  (1) 
DiffSBDD_42_num_sample_100-1

>  <s_m_source_file>  (1) 
generated__ligand_DiffSBDD_2026-05-06_prepared.sdf

>  <GenAI_Model>  (1) 
DiffSBDD

>  <Protein>  (1) 
GPCR_5HT2C

$$$$
DiffSBDD_61_num_sample_100
     RDKit          3D

  0  0  0  0  0  0  0  0  0  0999 V3000
M  V30 BEGIN CTAB
M  V30 COUNTS 50 53 0 0 1
M  V30 BEGIN ATOM
M  V30 1 N 39.724789 29.650664 61.013732 0
M  V30 2 C 39.937409 29.851757 51.180525 0
M  V30 3 N 39.507957 32.018969 61.305930 0
M  V30 4 C 41.799673 30.531781 64.652633 0
M  V30 5 C 38.582818 29.043739 52.985525 0 CFG=1
M  V30 6 C 39.090488 27.157443 54.420634 0
M  V30 7 S 37.975514 29.542541 54.677968 0
M  V30 8 N 41.370457 28.556324 63.241564 0
M  V30 9 O 39.724633 29.796600 52.586308 0
M  V30 10 C 41.266182 29.908242 63.560421 0
M  V30 11 C 38.630751 28.076501 55.328514 0
M  V30 12 C 40.197468 35.079600 60.949921 0
M  V30 13 C 39.273986 29.224679 58.767776 0
M  V30 14 C 40.898745 34.126807 61.925734 0
M  V30 15 C 39.937387 30.840767 61.692075 0
M  V30 16 C 39.251795 26.595145 57.165007 0
M  V30 17 C 39.733322 25.660256 56.224894 0
M  V30 18 O 38.707243 29.612728 60.010254 0
M  V30 19 C 38.697908 27.820809 56.723216 0
M  V30 20 C 38.184191 28.832012 57.749044 0
M  V30 21 N 40.634294 30.867252 62.854414 0
M  V30 22 C 41.420558 31.945082 64.499804 0
M  V30 23 C 40.690384 32.019366 63.318974 0
M  V30 24 C 38.965072 27.511868 52.970258 0
M  V30 25 C 39.979483 33.014017 62.456302 0 CFG=2
M  V30 26 C 39.652037 25.942458 54.846726 0
M  V30 27 H 39.817645 28.734243 61.417487 0
M  V30 28 H 40.775268 30.515676 50.971673 0
M  V30 29 H 40.177787 28.871148 50.769591 0
M  V30 30 H 39.067403 30.242410 50.650419 0
M  V30 31 H 42.376703 30.071951 65.441459 0
M  V30 32 H 37.770477 29.221441 52.281011 0
M  V30 33 H 41.877832 27.906676 63.826201 0
M  V30 34 H 40.983775 28.142500 62.413961 0
M  V30 35 H 40.859893 35.893091 60.655025 0
M  V30 36 H 39.875529 34.560207 60.046204 0
M  V30 37 H 39.313157 35.524748 61.406878 0
M  V30 38 H 39.947404 28.387945 58.956616 0
M  V30 39 H 39.883288 30.021402 58.351581 0
M  V30 40 H 41.275992 34.707425 62.768643 0
M  V30 41 H 41.777051 33.687060 61.453483 0
M  V30 42 H 39.311414 26.375284 58.220768 0
M  V30 43 H 40.164721 24.728666 56.560983 0
M  V30 44 H 37.755597 29.734308 57.316084 0
M  V30 45 H 37.357946 28.338085 58.257781 0
M  V30 46 H 41.656296 32.770025 65.155552 0
M  V30 47 H 39.881725 27.299074 52.422930 0
M  V30 48 H 38.162384 26.917166 52.532897 0
M  V30 49 H 39.116046 33.427999 62.977677 0
M  V30 50 H 40.018522 25.229750 54.126805 0
M  V30 END ATOM
M  V30 BEGIN BOND
M  V30 1 1 7 5
M  V30 2 1 9 2
M  V30 3 1 9 5
M  V30 4 2 10 4
M  V30 5 1 10 8
M  V30 6 1 11 6
M  V30 7 1 11 7
M  V30 8 1 14 12
M  V30 9 1 15 1
M  V30 10 2 15 3
M  V30 11 2 17 16
M  V30 12 1 18 1
M  V30 13 1 18 13
M  V30 14 2 19 11
M  V30 15 1 19 16
M  V30 16 1 20 13
M  V30 17 1 20 19
M  V30 18 1 21 10
M  V30 19 1 21 15
M  V30 20 1 22 4
M  V30 21 1 23 21
M  V30 22 2 23 22
M  V30 23 1 24 5
M  V30 24 1 24 6
M  V30 25 1 25 3
M  V30 26 1 25 14
M  V30 27 1 25 23
M  V30 28 2 26 6
M  V30 29 1 26 17
M  V30 30 1 27 1
M  V30 31 1 28 2
M  V30 32 1 29 2
M  V30 33 1 30 2
M  V30 34 1 31 4
M  V30 35 1 5 32 CFG=3
M  V30 36 1 33 8
M  V30 37 1 34 8
M  V30 38 1 35 12
M  V30 39 1 36 12
M  V30 40 1 37 12
M  V30 41 1 38 13
M  V30 42 1 39 13
M  V30 43 1 40 14
M  V30 44 1 41 14
M  V30 45 1 42 16
M  V30 46 1 43 17
M  V30 47 1 44 20
M  V30 48 1 45 20
M  V30 49 1 46 22
M  V30 50 1 47 24
M  V30 51 1 48 24
M  V30 52 1 25 49 CFG=1
M  V30 53 1 50 26
M  V30 END BOND
M  V30 END CTAB
M  END
>  <i_epik_Tot_Q>  (1) 
0

>  <i_epik_Tot_abs_Q>  (1) 
0

>  <i_i_glide_confnum>  (1) 
6

>  <i_i_glide_lignum>  (1) 
156

>  <i_i_glide_posenum>  (1) 
318

>  <i_i_glide_rotatable_bonds>  (1) 
7

>  <i_lp_mmshare_version>  (1) 
72125

>  <i_m_source_file_index>  (1) 
62

>  <i_f3d_flags>  (1) 
0

>  <num_sample>  (1) 
100

>  <b_lp_Chiralities_Consistent>  (1) 
1

>  <r_epik_Charging_Adjusted_Penalty>  (1) 
7.696981497401035e-09

>  <r_epik_Ionization_Penalty>  (1) 
0.0074591056384177897

>  <r_epik_Ionization_Penalty_Charging>  (1) 
0

>  <r_epik_Ionization_Penalty_Neutral>  (1) 
0.0074591056384177897

>  <r_epik_State_Penalty>  (1) 
7.696981497401035e-09

>  <r_glide_ring_energy>  (1) 
0

>  <r_i_docking_score>  (1) 
-6.8027398229308913

>  <r_i_glide_ecoul>  (1) 
-0.46644507071331059

>  <r_i_glide_eff_state_penalty>  (1) 
7.696981497401035e-09

>  <r_i_glide_einternal>  (1) 
7.8810314955019756

>  <r_i_glide_emodel>  (1) 
-60.051927218013155

>  <r_i_glide_emodel_strain>  (1) 
0.1985772324160564

>  <r_i_glide_energy>  (1) 
-43.469201821507937

>  <r_i_glide_erotb>  (1) 
0.69602230450698876

>  <r_i_glide_esite>  (1) 
-0.0039179991741939927

>  <r_i_glide_evdw>  (1) 
-43.002756750794624

>  <r_i_glide_gscore>  (1) 
-6.802739830627873

>  <r_i_glide_gscore_strain>  (1) 
0

>  <r_i_glide_hbond>  (1) 
0

>  <r_i_glide_ligand_efficiency>  (1) 
-0.26164383934349583

>  <r_i_glide_ligand_efficiency_ln>  (1) 
-1.5976011258053286

>  <r_i_glide_ligand_efficiency_sa>  (1) 
-0.77511884537811615

>  <r_i_glide_lipo>  (1) 
-3.7788691882771572

>  <r_i_glide_metal>  (1) 
-0

>  <r_i_glide_rewards>  (1) 
-1.4958703495367836

>  <r_lp_Energy>  (1) 
14.504761999999999

>  <s_epik_Chemistry_Notes>  (1) 
This compound has an imine and may undergo hydrolysis. This compound contains an acetal/aminal-like group ( X-CH(R)-Y where X, Y are N, S, or O) that may be acid/base labile, releasing an aldehyde. This compound has a N-S or N-O group and may undergo hydrolysis at high or low pH.

>  <s_epik_cmdline>  (1) 
J2VwaWtfcHl0aG9uJywgJy1waHQnLCAnMS4wJywgJy1waCcsICc3LjQnLCAnLXRuJywgJzgnLCAnLW1hJywgJzUwMCcsICctaW1hZScsICc8aW5maWxlLm1hZT4nLCAnLW9tYWUnLCAnPG91dGZpbGUubWFlPic=

>  <s_epik_input>  (1) 
W05IMl1jMVtjSF1bY0hdYyhuMTIpW0NAQEhdKFtDSDJdW0NIM10pTj1DMltOSF1PW0NIMl1bQ0gyXWMoW2NIXVtjSF1bY0hdMyljKGMzNClTW0NASF0oW0NIMl00KU9bQ0gzXQ==

>  <s_glide_docking_method>  (1) 
confgen

>  <s_i_glide_gridfile>  (1) 
gpcr_5ht2c_6bqh_protein_autoprepared_prepared

>  <s_lp_Force_Field>  (1) 
S-OPLS

>  <s_lp_Variant>  (1) 
DiffSBDD_61_num_sample_100-1

>  <s_m_source_file>  (1) 
generated__ligand_DiffSBDD_2026-05-06_prepared.sdf

>  <GenAI_Model>  (1) 
DiffSBDD

>  <Protein>  (1) 
GPCR_5HT2C

$$$$
DiffSBDD_53_num_sample_100
     RDKit          3D

  0  0  0  0  0  0  0  0  0  0999 V3000
M  V30 BEGIN CTAB
M  V30 COUNTS 69 72 0 0 1
M  V30 BEGIN ATOM
M  V30 1 C 41.415339 32.815527 62.827158 0
M  V30 2 C 41.217960 29.453329 65.239000 0
M  V30 3 C 42.230006 32.144414 65.166568 0
M  V30 4 O 45.067423 28.039391 63.845179 0
M  V30 5 N 42.479958 27.494192 64.261782 0 CFG=1 CHG=1
M  V30 6 C 38.324546 26.981341 57.777087 0
M  V30 7 C 38.435757 27.021693 55.234577 0
M  V30 8 N 38.047740 28.415787 57.859887 0
M  V30 9 C 38.493211 29.173900 58.875859 0
M  V30 10 C 41.474410 34.439618 64.773948 0
M  V30 11 C 37.620362 31.271924 60.143395 0 CFG=1
M  V30 12 C 42.875081 26.133091 64.578283 0
M  V30 13 C 41.144263 28.043871 64.593292 0
M  V30 14 C 43.369425 27.313407 65.394117 0 CFG=1
M  V30 15 O 38.494817 31.032827 61.242168 0
M  V30 16 C 39.571568 31.963938 61.226891 0 CFG=1
M  V30 17 C 37.567442 32.808029 60.186665 0 CFG=1
M  V30 18 C 39.005676 33.199107 60.508909 0
M  V30 19 C 44.603520 28.171469 65.165724 0 CFG=2
M  V30 20 C 41.717313 33.138152 64.286566 0
M  V30 21 O 39.147643 28.715651 59.814599 0
M  V30 22 C 41.732008 34.750706 66.122123 0
M  V30 23 C 38.088247 24.837796 56.427911 0
M  V30 24 O 37.285869 24.132939 55.777493 0
M  V30 25 S 44.246821 29.893994 65.622460 0
M  V30 26 C 42.232354 33.763701 66.992315 0
M  V30 27 C 37.825368 26.346928 56.454337 0 CFG=1
M  V30 28 C 37.733510 27.403974 54.155312 0
M  V30 29 O 39.084281 24.421455 57.055972 0 CHG=-1
M  V30 30 C 38.163732 30.672827 58.816867 0
M  V30 31 S 42.564697 30.498606 64.576049 0 CHG=1
M  V30 32 C 42.480985 32.463515 66.517412 0
M  V30 33 C 36.973970 33.516392 58.957702 0
M  V30 34 C 40.014561 32.195270 62.676859 0
M  V30 35 H 41.455361 33.744807 62.255901 0
M  V30 36 H 42.184646 32.178676 62.391745 0
M  V30 37 H 41.354278 29.371218 66.317228 0
M  V30 38 H 40.262619 29.958735 65.097257 0
M  V30 39 H 45.923093 27.626488 63.831977 0
M  V30 40 H 39.404493 26.840047 57.868447 0
M  V30 41 H 37.872383 26.475156 58.631402 0
M  V30 42 H 39.503151 27.190105 55.262160 0
M  V30 43 H 37.514281 28.842520 57.115152 0
M  V30 44 H 41.086974 35.200735 64.112451 0
M  V30 45 H 36.639456 30.845512 60.357681 0
M  V30 46 H 42.016897 25.547311 64.901556 0
M  V30 47 H 43.486603 25.727733 63.774470 0
M  V30 48 H 40.588976 27.369074 65.246147 0
M  V30 49 H 40.583891 28.099070 63.659513 0
M  V30 50 H 42.886579 27.438406 66.362488 0
M  V30 51 H 40.389571 31.528261 60.654392 0
M  V30 52 H 36.957473 33.080247 61.049438 0
M  V30 53 H 39.050874 34.107113 61.110704 0
M  V30 54 H 39.567252 33.386382 59.593683 0
M  V30 55 H 45.396549 27.818162 65.826934 0
M  V30 56 H 41.542686 35.749397 66.490281 0
M  V30 57 H 42.427504 34.006317 68.026550 0
M  V30 58 H 36.739913 26.420987 56.404038 0
M  V30 59 H 38.219338 27.877792 53.314639 0
M  V30 60 H 36.667401 27.246770 54.099596 0
M  V30 61 H 37.427477 30.837966 58.028279 0
M  V30 62 H 39.066964 31.193096 58.499075 0
M  V30 63 H 42.865940 31.712607 67.190493 0
M  V30 64 H 37.527345 33.288300 58.046831 0
M  V30 65 H 35.936653 33.220389 58.797761 0
M  V30 66 H 36.988676 34.599707 59.085427 0
M  V30 67 H 39.995259 31.237362 63.191624 0
M  V30 68 H 39.274316 32.819228 63.178200 0
M  V30 69 H 42.984745 27.884830 63.473080 0
M  V30 END ATOM
M  V30 BEGIN BOND
M  V30 1 1 8 6
M  V30 2 1 9 8
M  V30 3 1 12 5
M  V30 4 1 13 2
M  V30 5 1 13 5
M  V30 6 1 14 5
M  V30 7 1 14 12
M  V30 8 1 15 11
M  V30 9 1 16 15
M  V30 10 1 17 11
M  V30 11 1 18 16
M  V30 12 1 18 17
M  V30 13 1 19 4
M  V30 14 1 19 14
M  V30 15 1 20 1
M  V30 16 1 20 3
M  V30 17 2 20 10
M  V30 18 2 21 9
M  V30 19 1 22 10
M  V30 20 2 24 23
M  V30 21 1 25 19
M  V30 22 2 26 22
M  V30 23 1 27 6
M  V30 24 1 27 7
M  V30 25 1 27 23
M  V30 26 2 28 7
M  V30 27 1 29 23
M  V30 28 1 30 9
M  V30 29 1 30 11
M  V30 30 1 31 2
M  V30 31 1 31 3 CFG=1
M  V30 32 1 31 25
M  V30 33 2 32 3
M  V30 34 1 32 26
M  V30 35 1 33 17
M  V30 36 1 34 1
M  V30 37 1 34 16
M  V30 38 1 35 1
M  V30 39 1 36 1
M  V30 40 1 37 2
M  V30 41 1 38 2
M  V30 42 1 39 4
M  V30 43 1 40 6
M  V30 44 1 41 6
M  V30 45 1 42 7
M  V30 46 1 43 8
M  V30 47 1 44 10
M  V30 48 1 11 45 CFG=1
M  V30 49 1 46 12
M  V30 50 1 47 12
M  V30 51 1 48 13
M  V30 52 1 49 13
M  V30 53 1 14 50 CFG=1
M  V30 54 1 16 51 CFG=3
M  V30 55 1 17 52 CFG=1
M  V30 56 1 53 18
M  V30 57 1 54 18
M  V30 58 1 19 55 CFG=1
M  V30 59 1 56 22
M  V30 60 1 57 26
M  V30 61 1 27 58 CFG=3
M  V30 62 1 59 28
M  V30 63 1 60 28
M  V30 64 1 61 30
M  V30 65 1 62 30
M  V30 66 1 63 32
M  V30 67 1 64 33
M  V30 68 1 65 33
M  V30 69 1 66 33
M  V30 70 1 67 34
M  V30 71 1 68 34
M  V30 72 1 5 69 CFG=3
M  V30 END BOND
M  V30 END CTAB
M  END
>  <i_epik_Tot_Q>  (1) 
1

>  <i_epik_Tot_abs_Q>  (1) 
3

>  <i_i_glide_confnum>  (1) 
3534

>  <i_i_glide_lignum>  (1) 
141

>  <i_i_glide_posenum>  (1) 
166

>  <i_i_glide_rotatable_bonds>  (1) 
12

>  <i_lp_mmshare_version>  (1) 
72125

>  <i_m_source_file_index>  (1) 
54

>  <i_f3d_flags>  (1) 
0

>  <num_sample>  (1) 
100

>  <b_lp_Chiralities_Consistent>  (1) 
1

>  <r_epik_Charging_Adjusted_Penalty>  (1) 
0.046453037766825911

>  <r_epik_Ionization_Penalty>  (1) 
0.023481310305084564

>  <r_epik_Ionization_Penalty_Charging>  (1) 
0.023340632071334463

>  <r_epik_Ionization_Penalty_Neutral>  (1) 
0.0001406782337501018

>  <r_epik_State_Penalty>  (1) 
0.023112405695491445

>  <r_glide_ring_energy>  (1) 
0

>  <r_i_docking_score>  (1) 
-6.7926818249887608

>  <r_i_glide_ecoul>  (1) 
-6.0141613174878676

>  <r_i_glide_eff_state_penalty>  (1) 
0.023112405695491445

>  <r_i_glide_einternal>  (1) 
13.937306258129979

>  <r_i_glide_emodel>  (1) 
-68.319059502731605

>  <r_i_glide_emodel_strain>  (1) 
0.28439493111847014

>  <r_i_glide_energy>  (1) 
-50.781644814386084

>  <r_i_glide_erotb>  (1) 
0.79410111881252765

>  <r_i_glide_esite>  (1) 
0

>  <r_i_glide_evdw>  (1) 
-44.767483496898215

>  <r_i_glide_gscore>  (1) 
-6.8157942306842525

>  <r_i_glide_gscore_strain>  (1) 
0

>  <r_i_glide_hbond>  (1) 
-0.092356846119774905

>  <r_i_glide_ligand_efficiency>  (1) 
-0.19978475955849295

>  <r_i_glide_ligand_efficiency_ln>  (1) 
-1.5006939434115856

>  <r_i_glide_ligand_efficiency_sa>  (1) 
-0.64722506478107844

>  <r_i_glide_lipo>  (1) 
-3.371753957095895

>  <r_i_glide_metal>  (1) 
-0

>  <r_i_glide_rewards>  (1) 
-1.0052861738130201

>  <r_lp_Energy>  (1) 
5.0238719999999999

>  <s_epik_Chemistry_Notes>  (1) 
This compound contains an acetal/aminal-like group ( X-CH(R)-Y where X, Y are N, S, or O) that may be acid/base labile, releasing an aldehyde.

>  <s_epik_cmdline>  (1) 
J2VwaWtfcHl0aG9uJywgJy1waHQnLCAnMS4wJywgJy1waCcsICc3LjQnLCAnLXRuJywgJzgnLCAnLW1hJywgJzUwMCcsICctaW1hZScsICc8aW5maWxlLm1hZT4nLCAnLW9tYWUnLCAnPG91dGZpbGUubWFlPic=

>  <s_epik_input>  (1) 
TjEyW0NAQEhdKFtDSDJdMSlbQ0BASF0oW09IXSlTW1MrXShbQ0gyXVtDSDJdMiljM2MoW2NIXVtjSF1bY0hdW2NIXTMpW0NIMl1bQ0gyXVtDQEhdKFtDSDJdW0NASF00W0NIM10pT1tDQEBIXTRbQ0gyXUMoPU8pW05IXVtDSDJdW0NAQEhdKFtDSF09W0NIMl0pQyg9TylbT0hd

>  <s_glide_docking_method>  (1) 
confgen

>  <s_i_glide_gridfile>  (1) 
gpcr_5ht2c_6bqh_protein_autoprepared_prepared

>  <s_lp_Force_Field>  (1) 
S-OPLS

>  <s_lp_Variant>  (1) 
DiffSBDD_53_num_sample_100-2

>  <s_m_source_file>  (1) 
generated__ligand_DiffSBDD_2026-05-06_prepared.sdf

>  <GenAI_Model>  (1) 
DiffSBDD

>  <Protein>  (1) 
GPCR_5HT2C

$$$$
DiffSBDD_1_num_sample_100
     RDKit          3D

  0  0  0  0  0  0  0  0  0  0999 V3000
M  V30 BEGIN CTAB
M  V30 COUNTS 62 65 0 0 1
M  V30 BEGIN ATOM
M  V30 1 C 39.361738 26.290771 57.211019 0
M  V30 2 C 38.345130 34.900857 61.411269 0
M  V30 3 O 39.052802 24.821429 55.549824 0
M  V30 4 C 37.182735 32.740512 60.740177 0 CFG=1
M  V30 5 C 40.143184 27.257752 58.020191 0
M  V30 6 C 38.391970 30.568730 61.032506 0
M  V30 7 C 40.786145 33.808928 63.047395 0
M  V30 8 C 37.612955 37.090181 61.342392 0
M  V30 9 N 39.006058 37.068304 61.853561 0 CHG=1
M  V30 10 C 38.072401 31.140414 57.382121 0
M  V30 11 C 39.411094 28.034105 59.121539 0
M  V30 12 C 40.387531 35.302692 62.967512 0 CFG=2
M  V30 13 C 39.584548 35.709604 61.694267 0 CFG=1
M  V30 14 C 38.193046 30.306799 59.531347 0 CFG=2
M  V30 15 C 39.001000 29.921037 57.302495 0
M  V30 16 C 39.870841 25.659125 56.204800 0
M  V30 17 N 37.336762 31.491576 61.519467 0
M  V30 18 C 38.393294 33.611452 61.020836 0
M  V30 19 O 41.340728 27.470451 57.832158 0
M  V30 20 C 41.643336 36.175132 63.041500 0
M  V30 21 C 37.793147 24.986884 56.317585 0
M  V30 22 C 37.040208 32.427599 59.231467 0
M  V30 23 C 37.067398 35.681381 61.569602 0
M  V30 24 N 38.105674 31.539971 58.774026 0
M  V30 25 O 36.958529 29.622961 59.393654 0
M  V30 26 C 37.958516 26.024243 57.532727 0
M  V30 27 C 39.293874 29.538734 58.783619 0 CFG=2
M  V30 28 O 41.564893 33.533467 64.193401 0
M  V30 29 H 36.280114 33.249868 61.074957 0
M  V30 30 H 39.380245 30.995795 61.201311 0
M  V30 31 H 38.382166 29.627406 61.586307 0
M  V30 32 H 41.348268 33.508021 62.162491 0
M  V30 33 H 39.906822 33.170259 63.118466 0
M  V30 34 H 37.637775 37.313001 60.273874 0
M  V30 35 H 37.012100 37.858626 61.829629 0
M  V30 36 H 38.974442 37.262879 62.844452 0
M  V30 37 H 37.068658 30.820788 57.101289 0
M  V30 38 H 38.370136 31.953690 56.720075 0
M  V30 39 H 39.962179 27.914018 60.054363 0
M  V30 40 H 38.427916 27.612889 59.311498 0
M  V30 41 H 39.778001 35.522941 63.844712 0
M  V30 42 H 40.216458 35.681546 60.804794 0
M  V30 43 H 38.483771 29.125346 56.765906 0
M  V30 44 H 39.914547 30.149832 56.757093 0
M  V30 45 H 40.874394 25.718416 55.809224 0
M  V30 46 H 37.534186 31.736754 62.484098 0
M  V30 47 H 39.354099 33.136732 60.903092 0
M  V30 48 H 42.265855 36.021423 62.165666 0
M  V30 49 H 41.373562 37.221442 63.053164 0
M  V30 50 H 42.245799 35.989202 63.931196 0
M  V30 51 H 37.011658 25.327900 55.637143 0
M  V30 52 H 37.478231 24.014039 56.695904 0
M  V30 53 H 36.065044 31.972613 59.053708 0
M  V30 54 H 37.049911 33.349734 58.649447 0
M  V30 55 H 36.291864 35.417914 60.849610 0
M  V30 56 H 36.667693 35.620899 62.581901 0
M  V30 57 H 36.365150 30.031594 60.006438 0
M  V30 58 H 37.865907 25.551155 58.510985 0
M  V30 59 H 37.318408 26.903165 57.440403 0
M  V30 60 H 40.246603 29.994845 59.050039 0
M  V30 61 H 41.068750 33.752586 64.967812 0
M  V30 62 H 39.579978 37.762604 61.397381 0
M  V30 END ATOM
M  V30 BEGIN BOND
M  V30 1 1 5 1
M  V30 2 1 9 8
M  V30 3 1 11 5
M  V30 4 1 12 7
M  V30 5 1 13 2
M  V30 6 1 13 9
M  V30 7 1 13 12
M  V30 8 1 14 6
M  V30 9 1 15 10
M  V30 10 2 16 1
M  V30 11 1 16 3
M  V30 12 1 17 4
M  V30 13 1 17 6
M  V30 14 2 18 2
M  V30 15 1 18 4
M  V30 16 2 19 5
M  V30 17 1 20 12
M  V30 18 1 21 3
M  V30 19 1 22 4
M  V30 20 1 23 2
M  V30 21 1 23 8
M  V30 22 1 24 10
M  V30 23 1 24 14
M  V30 24 1 24 22
M  V30 25 1 14 25 CFG=1
M  V30 26 1 26 1
M  V30 27 1 26 21
M  V30 28 1 27 11
M  V30 29 1 27 14
M  V30 30 1 27 15
M  V30 31 1 28 7
M  V30 32 1 4 29 CFG=1
M  V30 33 1 30 6
M  V30 34 1 31 6
M  V30 35 1 32 7
M  V30 36 1 33 7
M  V30 37 1 34 8
M  V30 38 1 35 8
M  V30 39 1 36 9
M  V30 40 1 37 10
M  V30 41 1 38 10
M  V30 42 1 39 11
M  V30 43 1 40 11
M  V30 44 1 12 41 CFG=1
M  V30 45 1 13 42 CFG=3
M  V30 46 1 43 15
M  V30 47 1 44 15
M  V30 48 1 45 16
M  V30 49 1 46 17
M  V30 50 1 47 18
M  V30 51 1 48 20
M  V30 52 1 49 20
M  V30 53 1 50 20
M  V30 54 1 51 21
M  V30 55 1 52 21
M  V30 56 1 53 22
M  V30 57 1 54 22
M  V30 58 1 55 23
M  V30 59 1 56 23
M  V30 60 1 57 25
M  V30 61 1 58 26
M  V30 62 1 59 26
M  V30 63 1 27 60 CFG=1
M  V30 64 1 61 28
M  V30 65 1 62 9
M  V30 END BOND
M  V30 END CTAB
M  END
>  <i_epik_Tot_Q>  (1) 
1

>  <i_epik_Tot_abs_Q>  (1) 
1

>  <i_i_glide_confnum>  (1) 
32

>  <i_i_glide_lignum>  (1) 
7

>  <i_i_glide_posenum>  (1) 
203

>  <i_i_glide_rotatable_bonds>  (1) 
8

>  <i_lp_mmshare_version>  (1) 
72125

>  <i_m_source_file_index>  (1) 
2

>  <i_f3d_flags>  (1) 
0

>  <num_sample>  (1) 
100

>  <b_lp_Chiralities_Consistent>  (1) 
1

>  <r_epik_Charging_Adjusted_Penalty>  (1) 
0.089223518210420474

>  <r_epik_Ionization_Penalty>  (1) 
0.15303808439063821

>  <r_epik_Ionization_Penalty_Charging>  (1) 
0.0017986555257548985

>  <r_epik_Ionization_Penalty_Neutral>  (1) 
0.15123942886488331

>  <r_epik_State_Penalty>  (1) 
0.08742486268466558

>  <r_glide_ring_energy>  (1) 
0

>  <r_i_docking_score>  (1) 
-6.7924207878161864

>  <r_i_glide_ecoul>  (1) 
-0.61233082825819207

>  <r_i_glide_eff_state_penalty>  (1) 
0.08742486268466558

>  <r_i_glide_einternal>  (1) 
7.7544456623701965

>  <r_i_glide_emodel>  (1) 
-46.409436451819786

>  <r_i_glide_emodel_strain>  (1) 
0.75976427209535302

>  <r_i_glide_energy>  (1) 
-34.221421182183697

>  <r_i_glide_erotb>  (1) 
0.76037187950223806

>  <r_i_glide_esite>  (1) 
0

>  <r_i_glide_evdw>  (1) 
-33.609090353925502

>  <r_i_glide_gscore>  (1) 
-6.8798456505008518

>  <r_i_glide_gscore_strain>  (1) 
0

>  <r_i_glide_hbond>  (1) 
-0.29996895085483405

>  <r_i_glide_ligand_efficiency>  (1) 
-0.24258645670772094

>  <r_i_glide_ligand_efficiency_ln>  (1) 
-1.5678901519682609

>  <r_i_glide_ligand_efficiency_sa>  (1) 
-0.7366353591650584

>  <r_i_glide_lipo>  (1) 
-3.2163098897826603

>  <r_i_glide_metal>  (1) 
-0

>  <r_i_glide_rewards>  (1) 
-2.3516345474305904

>  <r_lp_Energy>  (1) 
13.724687999999999

>  <s_epik_cmdline>  (1) 
J2VwaWtfcHl0aG9uJywgJy1waHQnLCAnMS4wJywgJy1waCcsICc3LjQnLCAnLXRuJywgJzgnLCAnLW1hJywgJzUwMCcsICctaW1hZScsICc8aW5maWxlLm1hZT4nLCAnLW9tYWUnLCAnPG91dGZpbGUubWFlPic=

>  <s_epik_input>  (1) 
W0NIMl0xW0NIMl1PW0NIXT1DMUMoPU8pW0NIMl1bQ0BIXTJbQ0gyXVtDSDJdTihbQ0BAXTIzW09IXSlbQ0gyXVtDQEBIXShbTkhdW0NIMl0zKVxbQ0hdPUM0XFtDQEBIXShbTkhdW0NIMl1bQ0gyXTQpW0NASF0oW0NIM10pW0NIMl1bT0hd

>  <s_glide_docking_method>  (1) 
confgen

>  <s_i_glide_gridfile>  (1) 
gpcr_5ht2c_6bqh_protein_autoprepared_prepared

>  <s_lp_Force_Field>  (1) 
S-OPLS

>  <s_lp_Variant>  (1) 
DiffSBDD_1_num_sample_100-1

>  <s_m_source_file>  (1) 
generated__ligand_DiffSBDD_2026-05-06_prepared.sdf

>  <GenAI_Model>  (1) 
DiffSBDD

>  <Protein>  (1) 
GPCR_5HT2C

$$$$
DiffSBDD_39_num_sample_100
     RDKit          3D

  0  0  0  0  0  0  0  0  0  0999 V3000
M  V30 BEGIN CTAB
M  V30 COUNTS 60 63 0 0 1
M  V30 BEGIN ATOM
M  V30 1 C 40.246108 30.706914 62.306923 0
M  V30 2 C 38.726702 32.105056 55.720009 0
M  V30 3 C 36.555565 32.776657 61.400485 0
M  V30 4 C 39.067427 32.256881 57.211421 0
M  V30 5 C 39.024293 31.371933 60.187754 0
M  V30 6 C 38.558312 29.587417 56.011155 0
M  V30 7 N 37.705757 26.421361 53.956735 0
M  V30 8 O 35.347871 33.098060 61.379972 0 CHG=-1
M  V30 9 C 38.267403 28.160483 55.613721 0
M  V30 10 C 40.191886 33.098058 61.745250 0
M  V30 11 O 37.067406 32.021416 62.253496 0
M  V30 12 C 40.935193 33.371307 62.916087 0
M  V30 13 C 41.320648 32.327463 63.777184 0
M  V30 14 N 38.285656 32.361197 59.591769 0
M  V30 15 C 41.373448 29.869978 64.419650 0
M  V30 16 C 38.317603 34.537263 60.848731 0
M  V30 17 C 37.125546 24.177915 54.702517 0
M  V30 18 C 37.876277 32.142460 58.183466 0
M  V30 19 C 43.964403 29.969263 64.606781 0
M  V30 20 C 38.168658 27.182452 56.642191 0
M  V30 21 C 37.466193 33.376268 60.310697 0 CFG=2
M  V30 22 C 36.670106 23.705451 56.126403 0
M  V30 23 O 43.780225 30.882932 65.442013 0 CHG=-1
M  V30 24 C 39.832123 31.743224 61.435914 0
M  V30 25 S 37.585047 24.626776 57.453363 0
M  V30 26 C 37.810327 25.883449 56.287242 0
M  V30 27 O 38.377499 27.511076 57.953881 0 CHG=-1
M  V30 28 C 40.976445 30.997676 63.475260 0
M  V30 29 Cl 38.239658 28.767713 52.899725 0
M  V30 30 C 42.731722 29.197413 64.119616 0
M  V30 31 C 38.042463 27.706542 54.246824 0
M  V30 32 C 38.428391 30.693581 55.241015 0
M  V30 33 C 39.809280 34.248682 60.834370 0
M  V30 34 O 39.049840 30.216064 59.765052 0
M  V30 35 C 37.578706 25.567668 54.987970 0
M  V30 36 O 45.068595 29.621429 64.135533 0
M  V30 37 H 39.982267 29.682535 62.084138 0
M  V30 38 H 39.562244 32.461790 55.121007 0
M  V30 39 H 37.876969 32.742617 55.472474 0
M  V30 40 H 39.822258 31.515761 57.447527 0
M  V30 41 H 39.541556 33.221431 57.363286 0
M  V30 42 H 38.888812 29.716009 57.027068 0
M  V30 43 H 41.209795 34.388324 63.153956 0
M  V30 44 H 41.882768 32.548839 64.672742 0
M  V30 45 H 41.332971 30.233929 65.447567 0
M  V30 46 H 40.596504 29.107059 64.367738 0
M  V30 47 H 38.007054 34.825033 61.853811 0
M  V30 48 H 38.137105 35.417506 60.231113 0
M  V30 49 H 36.314097 24.146769 53.974576 0
M  V30 50 H 37.980239 23.605794 54.358199 0
M  V30 51 H 37.104427 32.842707 57.861192 0
M  V30 52 H 37.400555 31.164890 58.090293 0
M  V30 53 H 36.762815 33.841193 59.620296 0
M  V30 54 H 36.667376 22.626197 56.260577 0
M  V30 55 H 35.639511 24.027855 56.241178 0
M  V30 56 H 42.763705 28.231874 64.623943 0
M  V30 57 H 42.827582 28.988956 63.054063 0
M  V30 58 H 38.089281 30.626037 54.240106 0
M  V30 59 H 40.337367 35.145934 61.157978 0
M  V30 60 H 40.158940 34.074253 59.819662 0
M  V30 END ATOM
M  V30 BEGIN BOND
M  V30 1 1 4 2
M  V30 2 1 8 3
M  V30 3 1 9 6
M  V30 4 2 11 3
M  V30 5 1 12 10
M  V30 6 2 13 12
M  V30 7 1 14 5
M  V30 8 1 18 4
M  V30 9 1 18 14
M  V30 10 2 20 9
M  V30 11 1 21 3
M  V30 12 1 21 14
M  V30 13 1 21 16
M  V30 14 1 22 17
M  V30 15 1 23 19
M  V30 16 1 24 1
M  V30 17 1 24 5
M  V30 18 2 24 10
M  V30 19 1 25 22
M  V30 20 1 26 20
M  V30 21 1 26 25
M  V30 22 1 27 20
M  V30 23 2 28 1
M  V30 24 1 28 13
M  V30 25 1 28 15
M  V30 26 1 30 15
M  V30 27 1 30 19
M  V30 28 2 31 7
M  V30 29 1 31 9
M  V30 30 1 31 29
M  V30 31 1 32 2
M  V30 32 2 32 6
M  V30 33 1 33 10
M  V30 34 1 33 16
M  V30 35 2 34 5
M  V30 36 1 35 7
M  V30 37 1 35 17
M  V30 38 2 35 26
M  V30 39 2 36 19
M  V30 40 1 37 1
M  V30 41 1 38 2
M  V30 42 1 39 2
M  V30 43 1 40 4
M  V30 44 1 41 4
M  V30 45 1 42 6
M  V30 46 1 43 12
M  V30 47 1 44 13
M  V30 48 1 45 15
M  V30 49 1 46 15
M  V30 50 1 47 16
M  V30 51 1 48 16
M  V30 52 1 49 17
M  V30 53 1 50 17
M  V30 54 1 51 18
M  V30 55 1 52 18
M  V30 56 1 21 53 CFG=3
M  V30 57 1 54 22
M  V30 58 1 55 22
M  V30 59 1 56 30
M  V30 60 1 57 30
M  V30 61 1 58 32
M  V30 62 1 59 33
M  V30 63 1 60 33
M  V30 END BOND
M  V30 END CTAB
M  END
>  <i_epik_Tot_Q>  (1) 
-3

>  <i_epik_Tot_abs_Q>  (1) 
3

>  <i_i_glide_confnum>  (1) 
95

>  <i_i_glide_lignum>  (1) 
94

>  <i_i_glide_posenum>  (1) 
157

>  <i_i_glide_rotatable_bonds>  (1) 
9

>  <i_lp_mmshare_version>  (1) 
72125

>  <i_m_source_file_index>  (1) 
40

>  <i_f3d_flags>  (1) 
0

>  <num_sample>  (1) 
100

>  <b_lp_Chiralities_Consistent>  (1) 
1

>  <r_epik_Charging_Adjusted_Penalty>  (1) 
0.2804944600534911

>  <r_epik_Ionization_Penalty>  (1) 
0.1893944324441556

>  <r_epik_Ionization_Penalty_Charging>  (1) 
0.1048911762492778

>  <r_epik_Ionization_Penalty_Neutral>  (1) 
0.084503256194877821

>  <r_epik_State_Penalty>  (1) 
0.17560328380421328

>  <r_glide_ring_energy>  (1) 
0

>  <r_i_docking_score>  (1) 
-6.7915398705933079

>  <r_i_glide_ecoul>  (1) 
-2.4909169481365865

>  <r_i_glide_eff_state_penalty>  (1) 
0.17560328380421328

>  <r_i_glide_einternal>  (1) 
19.538921054483204

>  <r_i_glide_emodel>  (1) 
-49.495873461570113

>  <r_i_glide_emodel_strain>  (1) 
2.5195292657511601

>  <r_i_glide_energy>  (1) 
-46.155295153866938

>  <r_i_glide_erotb>  (1) 
0.44331424450836554

>  <r_i_glide_esite>  (1) 
-0.020839470128338811

>  <r_i_glide_evdw>  (1) 
-43.664378205730351

>  <r_i_glide_gscore>  (1) 
-6.9671431543975215

>  <r_i_glide_gscore_strain>  (1) 
0

>  <r_i_glide_hbond>  (1) 
-0.15043574988289948

>  <r_i_glide_ligand_efficiency>  (1) 
-0.18865388529425856

>  <r_i_glide_ligand_efficiency_ln>  (1) 
-1.4817305135606

>  <r_i_glide_ligand_efficiency_sa>  (1) 
-0.62292140446295374

>  <r_i_glide_lipo>  (1) 
-3.826035272446092

>  <r_i_glide_metal>  (1) 
-0

>  <r_i_glide_rewards>  (1) 
-0.85629045394155179

>  <r_lp_Energy>  (1) 
58.368376999999995

>  <s_epik_cmdline>  (1) 
J2VwaWtfcHl0aG9uJywgJy1waHQnLCAnMS4wJywgJy1waCcsICc3LjQnLCAnLXRuJywgJzgnLCAnLW1hJywgJzUwMCcsICctaW1hZScsICc8aW5maWxlLm1hZT4nLCAnLW9tYWUnLCAnPG91dGZpbGUubWFlPic=

>  <s_epik_input>  (1) 
W09IXUMoPU8pW0NIMl1bQ0gyXWMoW2NIXVtjSF0xKVtjSF1jKGMxMilDKD1PKU4oW0NAQEhdKEMoPU8pW09IXSlbQ0gyXVtDSDJdMilbQ0gyXVtDSDJdW0NIMl1cW0NIXT1bQ0hdXGMoYzNbT0hdKWMoQ2wpbmMoYzM0KVtDSDJdW0NIMl1TNA==

>  <s_glide_docking_method>  (1) 
confgen

>  <s_i_glide_gridfile>  (1) 
gpcr_5ht2c_6bqh_protein_autoprepared_prepared

>  <s_lp_Force_Field>  (1) 
S-OPLS

>  <s_lp_Variant>  (1) 
DiffSBDD_39_num_sample_100-1

>  <s_m_source_file>  (1) 
generated__ligand_DiffSBDD_2026-05-06_prepared.sdf

>  <GenAI_Model>  (1) 
DiffSBDD

>  <Protein>  (1) 
GPCR_5HT2C

$$$$
DiffSBDD_40_num_sample_100
     RDKit          3D

  0  0  0  0  0  0  0  0  0  0999 V3000
M  V30 BEGIN CTAB
M  V30 COUNTS 73 75 0 0 1
M  V30 BEGIN ATOM
M  V30 1 C 38.109021 31.648471 55.182374 0
M  V30 2 C 39.643967 37.068062 62.715514 0 CFG=1
M  V30 3 N 36.267405 22.838170 55.853447 0
M  V30 4 C 41.184618 35.027295 63.153047 0
M  V30 5 C 41.542487 27.824983 57.414552 0
M  V30 6 C 39.767096 29.215405 61.279478 0
M  V30 7 N 36.818214 24.959272 56.736591 0 CHG=1
M  V30 8 C 39.738868 32.597521 63.243794 0
M  V30 9 O 41.481103 30.934697 63.111741 0
M  V30 10 C 39.628460 30.705610 61.587435 0
M  V30 11 C 38.621592 36.424789 61.776560 0
M  V30 12 C 39.165726 37.144318 64.183715 0
M  V30 13 N 37.617655 24.458644 54.814872 0
M  V30 14 C 38.423697 30.097252 57.974737 0 CFG=2
M  V30 15 C 41.053391 36.425694 62.579732 0
M  V30 16 C 38.979901 27.612266 57.851228 0 CFG=1
M  V30 17 C 40.113164 27.916462 56.832807 0 CFG=1
M  V30 18 S 41.867245 34.745849 64.653778 0
M  V30 19 C 37.545758 26.055445 56.335236 0
M  V30 20 N 39.467390 30.386040 56.939766 0 CFG=2 CHG=1
M  V30 21 S 40.591614 33.744399 62.104568 0
M  V30 22 C 39.297641 31.650542 56.161656 0
M  V30 23 C 38.062960 25.720226 55.095463 0
M  V30 24 C 40.083048 31.123405 62.987408 0 CFG=2
M  V30 25 C 39.832295 29.232112 56.062842 0
M  V30 26 O 37.888705 37.234145 60.950358 0
M  V30 27 C 38.035993 31.326322 58.814842 0
M  V30 28 N 37.406482 36.406666 62.090777 0
M  V30 29 C 36.870364 24.021170 55.805137 0
M  V30 30 C 38.785220 28.819984 58.819381 0 CFG=1
M  V30 31 C 37.642047 27.299510 57.146291 0
M  V30 32 C 40.001486 28.932441 59.790529 0
M  V30 33 H 37.960124 32.644812 54.763679 0
M  V30 34 H 38.272555 30.972945 54.343651 0
M  V30 35 H 37.175114 31.364271 55.664176 0
M  V30 36 H 39.746564 38.097102 62.368952 0
M  V30 37 H 35.701628 22.547662 56.640983 0
M  V30 38 H 36.335720 22.164426 55.103572 0
M  V30 39 H 41.874764 28.735223 57.905143 0
M  V30 40 H 41.636219 26.996044 58.116436 0
M  V30 41 H 42.284045 27.635412 56.653515 0
M  V30 42 H 40.643561 28.841295 61.810871 0
M  V30 43 H 38.937173 28.639366 61.679376 0
M  V30 44 H 38.676008 32.750868 63.053502 0
M  V30 45 H 39.886661 32.821335 64.296192 0
M  V30 46 H 41.741679 31.168988 63.990522 0
M  V30 47 H 38.586575 30.992602 61.462642 0
M  V30 48 H 40.212384 31.275340 60.867052 0
M  V30 49 H 38.192671 37.621422 64.271756 0
M  V30 50 H 39.066004 36.156884 64.626396 0
M  V30 51 H 39.864100 37.707641 64.800949 0
M  V30 52 H 37.824807 23.937759 53.971491 0
M  V30 53 H 37.499750 29.897480 57.437427 0
M  V30 54 H 41.794951 37.063425 63.053503 0
M  V30 55 H 41.340815 36.396262 61.527773 0
M  V30 56 H 39.242271 26.726719 58.432028 0
M  V30 57 H 40.105904 27.116159 56.095927 0
M  V30 58 H 39.224309 32.504131 56.834642 0
M  V30 59 H 40.211422 31.830672 55.594300 0
M  V30 60 H 38.686361 26.278317 54.411271 0
M  V30 61 H 39.578295 30.502866 63.730572 0
M  V30 62 H 40.696864 29.494888 55.454157 0
M  V30 63 H 39.033893 29.064725 55.341566 0
M  V30 64 H 37.371026 31.043617 59.629360 0
M  V30 65 H 38.899965 31.848712 59.217448 0
M  V30 66 H 37.472763 32.047659 58.221394 0
M  V30 67 H 37.921885 28.593878 59.446278 0
M  V30 68 H 36.813356 27.319550 57.853485 0
M  V30 69 H 37.467405 28.090171 56.428648 0
M  V30 70 H 40.738112 29.636788 59.414956 0
M  V30 71 H 40.506815 27.968183 59.812001 0
M  V30 72 H 40.300149 30.550507 57.485822 0
M  V30 73 H 36.307343 24.883524 57.605803 0
M  V30 END ATOM
M  V30 BEGIN BOND
M  V30 1 1 10 6
M  V30 2 1 11 2
M  V30 3 1 12 2
M  V30 4 1 15 2
M  V30 5 1 15 4
M  V30 6 1 17 5
M  V30 7 1 17 16
M  V30 8 2 18 4
M  V30 9 1 19 7
M  V30 10 1 20 14
M  V30 11 1 21 4
M  V30 12 1 21 8
M  V30 13 1 22 1
M  V30 14 1 22 20
M  V30 15 1 23 13
M  V30 16 2 23 19
M  V30 17 1 24 8
M  V30 18 1 24 9
M  V30 19 1 24 10
M  V30 20 1 25 17
M  V30 21 1 25 20
M  V30 22 1 26 11
M  V30 23 1 27 14
M  V30 24 2 28 11
M  V30 25 1 28 26
M  V30 26 1 29 3
M  V30 27 2 29 7
M  V30 28 1 29 13
M  V30 29 1 30 14
M  V30 30 1 30 16
M  V30 31 1 31 16
M  V30 32 1 31 19
M  V30 33 1 32 6
M  V30 34 1 32 30
M  V30 35 1 33 1
M  V30 36 1 34 1
M  V30 37 1 35 1
M  V30 38 1 2 36 CFG=3
M  V30 39 1 37 3
M  V30 40 1 38 3
M  V30 41 1 39 5
M  V30 42 1 40 5
M  V30 43 1 41 5
M  V30 44 1 42 6
M  V30 45 1 43 6
M  V30 46 1 44 8
M  V30 47 1 45 8
M  V30 48 1 46 9
M  V30 49 1 47 10
M  V30 50 1 48 10
M  V30 51 1 49 12
M  V30 52 1 50 12
M  V30 53 1 51 12
M  V30 54 1 52 13
M  V30 55 1 14 53 CFG=3
M  V30 56 1 54 15
M  V30 57 1 55 15
M  V30 58 1 16 56 CFG=1
M  V30 59 1 17 57 CFG=3
M  V30 60 1 58 22
M  V30 61 1 59 22
M  V30 62 1 60 23
M  V30 63 1 24 61 CFG=1
M  V30 64 1 62 25
M  V30 65 1 63 25
M  V30 66 1 64 27
M  V30 67 1 65 27
M  V30 68 1 66 27
M  V30 69 1 30 67 CFG=1
M  V30 70 1 68 31
M  V30 71 1 69 31
M  V30 72 1 70 32
M  V30 73 1 71 32
M  V30 74 1 20 72 CFG=1
M  V30 75 1 73 7
M  V30 END BOND
M  V30 END CTAB
M  END
>  <i_epik_Tot_Q>  (1) 
2

>  <i_epik_Tot_abs_Q>  (1) 
2

>  <i_i_glide_confnum>  (1) 
2788

>  <i_i_glide_lignum>  (1) 
103

>  <i_i_glide_posenum>  (1) 
37

>  <i_i_glide_rotatable_bonds>  (1) 
14

>  <i_lp_mmshare_version>  (1) 
72125

>  <i_m_source_file_index>  (1) 
41

>  <i_f3d_flags>  (1) 
0

>  <num_sample>  (1) 
100

>  <b_lp_Chiralities_Consistent>  (1) 
1

>  <r_epik_Charging_Adjusted_Penalty>  (1) 
0.0037096170623772918

>  <r_epik_Ionization_Penalty>  (1) 
0.054330814931534903

>  <r_epik_Ionization_Penalty_Charging>  (1) 
0.0037096170623772918

>  <r_epik_Ionization_Penalty_Neutral>  (1) 
0.050621197869157614

>  <r_epik_State_Penalty>  (1) 
-0

>  <r_glide_ring_energy>  (1) 
0

>  <r_i_docking_score>  (1) 
-6.7897877388858747

>  <r_i_glide_ecoul>  (1) 
-1.8970365961314162

>  <r_i_glide_eff_state_penalty>  (1) 
-0

>  <r_i_glide_einternal>  (1) 
12.602673723482738

>  <r_i_glide_emodel>  (1) 
-62.809379375049986

>  <r_i_glide_emodel_strain>  (1) 
2.8516685486442839

>  <r_i_glide_energy>  (1) 
-46.619545070556718

>  <r_i_glide_erotb>  (1) 
0.95438045441749597

>  <r_i_glide_esite>  (1) 
-0.013230278119600904

>  <r_i_glide_evdw>  (1) 
-44.722508474425304

>  <r_i_glide_gscore>  (1) 
-6.7897877388858747

>  <r_i_glide_gscore_strain>  (1) 
0

>  <r_i_glide_hbond>  (1) 
0

>  <r_i_glide_ligand_efficiency>  (1) 
-0.21218086684018359

>  <r_i_glide_ligand_efficiency_ln>  (1) 
-1.5204185573600799

>  <r_i_glide_ligand_efficiency_sa>  (1) 
-0.67363226245926389

>  <r_i_glide_lipo>  (1) 
-3.1839364945082549

>  <r_i_glide_metal>  (1) 
-0

>  <r_i_glide_rewards>  (1) 
-2.026320507534539

>  <r_lp_Energy>  (1) 
39.041623999999999

>  <r_lp_tautomer_probability>  (1) 
1

>  <s_epik_Chemistry_Notes>  (1) 
This compound has an imine and may undergo hydrolysis.

>  <s_epik_cmdline>  (1) 
J2VwaWtfcHl0aG9uJywgJy1waHQnLCAnMS4wJywgJy1waCcsICc3LjQnLCAnLXRuJywgJzgnLCAnLW1hJywgJzUwMCcsICctaW1hZScsICc8aW5maWxlLm1hZT4nLCAnLW9tYWUnLCAnPG91dGZpbGUubWFlPic=

>  <s_epik_input>  (1) 
W2NIXTFbbkhdYyhbTkgyXSluYzFbQ0gyXVtDQEBIXShbQ0BIXShbQ0gzXSlbQ0gyXU4oW0NAQEhdMltDSDNdKVtDSDJdW0NIM10pW0NAQEhdMltDSDJdW0NIMl1bQ0gyXVtDQEBIXShbT0hdKVtDSDJdU0MoPVMpW0NIMl1bQ0BIXShbQ0gzXSlDMz1OTzM=

>  <s_glide_docking_method>  (1) 
confgen

>  <s_i_glide_gridfile>  (1) 
gpcr_5ht2c_6bqh_protein_autoprepared_prepared

>  <s_lp_Force_Field>  (1) 
S-OPLS

>  <s_lp_Variant>  (1) 
DiffSBDD_40_num_sample_100-4

>  <s_m_source_file>  (1) 
generated__ligand_DiffSBDD_2026-05-06_prepared.sdf

>  <GenAI_Model>  (1) 
DiffSBDD

>  <Protein>  (1) 
GPCR_5HT2C

$$$$
DiffSBDD_50_num_sample_100
     RDKit          3D

  0  0  0  0  0  0  0  0  0  0999 V3000
M  V30 BEGIN CTAB
M  V30 COUNTS 53 55 0 0 1
M  V30 BEGIN ATOM
M  V30 1 C 37.951232 25.776684 55.160043 0 CFG=1
M  V30 2 N 39.249145 25.222036 55.540275 0
M  V30 3 C 39.825691 29.065903 57.293555 0
M  V30 4 C 38.611215 30.002514 57.451328 0 CFG=1
M  V30 5 N 36.617356 31.013439 60.562115 0
M  V30 6 C 37.691754 33.203733 61.039146 0
M  V30 7 O 37.867419 31.708452 55.862561 0
M  V30 8 C 36.662318 35.087888 59.719895 0
M  V30 9 C 36.900667 30.808389 59.149654 0 CFG=1
M  V30 10 C 35.324169 33.076138 59.974392 0
M  V30 11 C 37.680333 34.608811 60.450255 0
M  V30 12 C 36.874400 25.009335 55.931341 0
M  V30 13 C 40.242816 26.236950 55.198035 0
M  V30 14 C 39.502191 27.582873 55.116647 0 CFG=1
M  V30 15 C 38.061997 27.261296 55.500298 0
M  V30 16 S 37.624573 24.421438 57.453492 0
M  V30 17 C 35.483605 34.300100 59.453342 0
M  V30 18 F 38.746327 35.399007 60.660849 0
M  V30 19 C 39.263973 24.993133 56.983584 0
M  V30 20 C 36.351957 32.414043 60.889036 0 CFG=1
M  V30 21 C 40.218218 28.755819 55.836890 0
M  V30 22 C 38.221850 30.070193 58.940589 0
M  V30 23 O 35.849879 30.021431 58.653506 0
M  V30 24 C 38.841811 31.415892 56.848526 0
M  V30 25 H 37.809325 25.665850 54.084011 0
M  V30 26 H 40.667424 29.527036 57.808804 0
M  V30 27 H 39.660099 28.130754 57.826393 0
M  V30 28 H 37.775813 29.547185 56.922473 0
M  V30 29 H 37.408637 30.682231 61.094521 0
M  V30 30 H 37.971827 33.260408 62.091034 0
M  V30 31 H 38.509426 32.681766 60.542720 0
M  V30 32 H 36.991879 31.766452 56.253646 0
M  V30 33 H 36.725914 36.089329 59.321003 0
M  V30 34 H 36.925632 31.755416 58.615303 0
M  V30 35 H 34.428426 32.511203 59.756506 0
M  V30 36 H 36.540952 24.144452 55.357418 0
M  V30 37 H 36.002874 25.621411 56.156604 0
M  V30 38 H 40.667398 26.000408 54.221981 0
M  V30 39 H 41.067394 26.244498 55.911523 0
M  V30 40 H 39.467381 27.838928 54.056084 0
M  V30 41 H 37.872002 27.393181 56.563771 0
M  V30 42 H 37.347851 27.870701 54.947560 0
M  V30 43 H 34.709461 34.708190 58.819707 0
M  V30 44 H 40.028500 24.268782 57.259162 0
M  V30 45 H 39.464248 25.911098 57.535386 0
M  V30 46 H 35.866450 32.402267 61.858173 0
M  V30 47 H 40.119340 29.649511 55.221978 0
M  V30 48 H 41.285995 28.545463 55.853503 0
M  V30 49 H 38.138190 29.063644 59.353891 0
M  V30 50 H 39.020316 30.563973 59.495327 0
M  V30 51 H 35.467408 30.556431 57.951556 0
M  V30 52 H 39.823959 31.501882 56.384954 0
M  V30 53 H 38.823607 32.196477 57.609431 0
M  V30 END ATOM
M  V30 BEGIN BOND
M  V30 1 1 2 1
M  V30 2 1 4 3
M  V30 3 1 9 5
M  V30 4 1 11 6
M  V30 5 2 11 8
M  V30 6 1 12 1
M  V30 7 1 13 2
M  V30 8 1 14 13
M  V30 9 1 15 1
M  V30 10 1 15 14
M  V30 11 1 16 12
M  V30 12 1 17 8
M  V30 13 2 17 10
M  V30 14 1 18 11
M  V30 15 1 19 2
M  V30 16 1 19 16
M  V30 17 1 20 5
M  V30 18 1 20 6
M  V30 19 1 20 10
M  V30 20 1 21 3
M  V30 21 1 21 14
M  V30 22 1 22 4
M  V30 23 1 22 9
M  V30 24 1 23 9
M  V30 25 1 24 4
M  V30 26 1 24 7
M  V30 27 1 1 25 CFG=3
M  V30 28 1 26 3
M  V30 29 1 27 3
M  V30 30 1 4 28 CFG=3
M  V30 31 1 29 5
M  V30 32 1 30 6
M  V30 33 1 31 6
M  V30 34 1 32 7
M  V30 35 1 33 8
M  V30 36 1 9 34 CFG=3
M  V30 37 1 35 10
M  V30 38 1 36 12
M  V30 39 1 37 12
M  V30 40 1 38 13
M  V30 41 1 39 13
M  V30 42 1 14 40 CFG=3
M  V30 43 1 41 15
M  V30 44 1 42 15
M  V30 45 1 43 17
M  V30 46 1 44 19
M  V30 47 1 45 19
M  V30 48 1 20 46 CFG=1
M  V30 49 1 47 21
M  V30 50 1 48 21
M  V30 51 1 49 22
M  V30 52 1 50 22
M  V30 53 1 51 23
M  V30 54 1 52 24
M  V30 55 1 53 24
M  V30 END BOND
M  V30 END CTAB
M  END
>  <i_epik_Tot_Q>  (1) 
0

>  <i_epik_Tot_abs_Q>  (1) 
0

>  <i_i_glide_confnum>  (1) 
96

>  <i_i_glide_lignum>  (1) 
134

>  <i_i_glide_posenum>  (1) 
285

>  <i_i_glide_rotatable_bonds>  (1) 
10

>  <i_lp_mmshare_version>  (1) 
72125

>  <i_m_source_file_index>  (1) 
51

>  <i_f3d_flags>  (1) 
0

>  <num_sample>  (1) 
100

>  <b_lp_Chiralities_Consistent>  (1) 
1

>  <r_epik_Charging_Adjusted_Penalty>  (1) 
0.070623884543316251

>  <r_epik_Ionization_Penalty>  (1) 
0.082390450655877454

>  <r_epik_Ionization_Penalty_Charging>  (1) 
0

>  <r_epik_Ionization_Penalty_Neutral>  (1) 
0.082390450655877454

>  <r_epik_State_Penalty>  (1) 
0.070623884543316251

>  <r_glide_ring_energy>  (1) 
0

>  <r_i_docking_score>  (1) 
-6.7889750642427815

>  <r_i_glide_ecoul>  (1) 
-9.8898704040573797

>  <r_i_glide_eff_state_penalty>  (1) 
0.070623884543316251

>  <r_i_glide_einternal>  (1) 
8.5918222702803622

>  <r_i_glide_emodel>  (1) 
-58.840095449437605

>  <r_i_glide_emodel_strain>  (1) 
1.3786158713123342

>  <r_i_glide_energy>  (1) 
-44.790949722400413

>  <r_i_glide_erotb>  (1) 
0.90323980524591641

>  <r_i_glide_esite>  (1) 
-0.098202962210032219

>  <r_i_glide_evdw>  (1) 
-34.901079318343037

>  <r_i_glide_gscore>  (1) 
-6.8595989487860978

>  <r_i_glide_gscore_strain>  (1) 
0

>  <r_i_glide_hbond>  (1) 
-0.30399999999999999

>  <r_i_glide_ligand_efficiency>  (1) 
-0.28287396101011592

>  <r_i_glide_ligand_efficiency_ln>  (1) 
-1.624913258639705

>  <r_i_glide_ligand_efficiency_sa>  (1) 
-0.81594969743598855

>  <r_i_glide_lipo>  (1) 
-2.5258583655273408

>  <r_i_glide_metal>  (1) 
-0

>  <r_i_glide_rewards>  (1) 
-1.606242899768882

>  <r_lp_Energy>  (1) 
-4.9771999999999998

>  <s_epik_Chemistry_Notes>  (1) 
This compound contains an acetal/aminal-like group ( X-CH(R)-Y where X, Y are N, S, or O) that may be acid/base labile, releasing an aldehyde.

>  <s_epik_cmdline>  (1) 
J2VwaWtfcHl0aG9uJywgJy1waHQnLCAnMS4wJywgJy1waCcsICc3LjQnLCAnLXRuJywgJzgnLCAnLW1hJywgJzUwMCcsICctaW1hZScsICc8aW5maWxlLm1hZT4nLCAnLW9tYWUnLCAnPG91dGZpbGUubWFlPic=

>  <s_epik_input>  (1) 
W0NIMl0xU1tDSDJdTihbQ0BASF0xMilbQ0gyXVtDQEBIXShbQ0gyXTIpW0NIMl1bQ0gyXVtDQEhdKFtDSDJdW09IXSlbQ0gyXVtDQEBIXShbT0hdKVtOSF1bQ0BASF0oW0NIMl0zKVtDSF09W0NIXVtDSF09QzNG

>  <s_glide_docking_method>  (1) 
confgen

>  <s_i_glide_gridfile>  (1) 
gpcr_5ht2c_6bqh_protein_autoprepared_prepared

>  <s_lp_Force_Field>  (1) 
S-OPLS

>  <s_lp_Variant>  (1) 
DiffSBDD_50_num_sample_100-1

>  <s_m_source_file>  (1) 
generated__ligand_DiffSBDD_2026-05-06_prepared.sdf

>  <GenAI_Model>  (1) 
DiffSBDD

>  <Protein>  (1) 
GPCR_5HT2C

$$$$
DiffSBDD_18_num_sample_100
     RDKit          3D

  0  0  0  0  0  0  0  0  0  0999 V3000
M  V30 BEGIN CTAB
M  V30 COUNTS 70 72 0 0 1
M  V30 BEGIN ATOM
M  V30 1 O 38.047418 31.867937 57.781370 0
M  V30 2 C 39.867510 30.207859 66.040280 0
M  V30 3 C 39.934026 32.907377 61.332971 0
M  V30 4 C 40.276260 29.814510 67.196326 0
M  V30 5 O 37.866270 31.069873 61.796838 0
M  V30 6 C 40.641336 31.404155 63.982377 0 CFG=2
M  V30 7 C 38.907133 27.022735 53.726525 0
M  V30 8 N 40.778527 30.946165 65.359969 0
M  V30 9 N 41.785710 30.908220 63.220767 0
M  V30 10 C 39.338211 30.248954 56.588378 0
M  V30 11 C 40.246295 26.753619 55.759626 0
M  V30 12 O 39.466517 26.821434 52.649936 0
M  V30 13 O 42.313444 30.142240 68.356830 0
M  V30 14 C 37.084751 24.620154 54.921983 0
M  V30 15 C 39.614285 35.012695 62.703318 0
M  V30 16 C 41.600421 30.313306 67.369892 0
M  V30 17 C 38.321051 25.021811 57.070863 0
M  V30 18 C 40.258482 28.027636 56.195624 0
M  V30 19 C 37.827672 31.776191 60.789795 0
M  V30 20 N 38.001702 28.006053 53.982178 0
M  V30 21 C 39.663905 33.473143 62.747926 0 CFG=2
M  V30 22 C 38.397883 31.449235 56.472365 0 CFG=2
M  V30 23 C 40.633283 32.939550 63.843105 0 CFG=2
M  V30 24 C 42.094374 33.207434 63.530632 0
M  V30 25 O 37.867613 25.574452 58.092934 0 CHG=-1
M  V30 26 C 42.072872 31.143058 66.111556 0
M  V30 27 C 38.104995 28.909090 54.885305 0
M  V30 28 C 36.721684 31.588509 59.764409 0
M  V30 29 C 37.312318 30.894966 58.529948 0
M  V30 30 C 39.090699 32.624990 55.779024 0
M  V30 31 C 39.247112 29.078827 55.907333 0
M  V30 32 C 39.187412 26.132219 54.913476 0 CFG=1
M  V30 33 C 37.932899 25.635926 55.714351 0 CFG=1
M  V30 34 N 38.744767 32.718757 60.517682 0
M  V30 35 N 42.575028 32.021326 62.833434 0
M  V30 36 O 39.066490 24.021645 57.053519 0
M  V30 37 H 38.913194 30.020443 65.570221 0
M  V30 38 H 40.404897 31.929062 61.359470 0
M  V30 39 H 40.635945 33.545660 60.800464 0
M  V30 40 H 39.744288 29.221328 67.919977 0
M  V30 41 H 39.732383 30.966628 63.568918 0
M  V30 42 H 42.337276 30.274673 63.795881 0
M  V30 43 H 40.137315 30.362398 57.303666 0
M  V30 44 H 41.050663 26.096317 56.057985 0
M  V30 45 H 42.933379 30.683569 65.624921 0
M  V30 46 H 36.225779 24.288542 55.505881 0
M  V30 47 H 36.704700 25.049490 53.994983 0
M  V30 48 H 37.663668 23.734221 54.660236 0
M  V30 49 H 40.538258 35.434309 62.307496 0
M  V30 50 H 38.797909 35.357442 62.067890 0
M  V30 51 H 39.466773 35.444830 63.692381 0
M  V30 52 H 41.086320 28.310293 56.829038 0
M  V30 53 H 38.677704 33.141515 63.053530 0
M  V30 54 H 37.462622 31.300422 55.954586 0
M  V30 55 H 40.367807 33.400447 64.794544 0
M  V30 56 H 42.266826 34.114362 62.959286 0
M  V30 57 H 42.650908 33.306006 64.461692 0
M  V30 58 H 42.263716 32.185076 66.367430 0
M  V30 59 H 37.338324 29.670865 54.950400 0
M  V30 60 H 36.260915 32.540285 59.498317 0
M  V30 61 H 35.940878 30.965402 60.201736 0
M  V30 62 H 36.528950 30.420936 57.941670 0
M  V30 63 H 37.968047 30.077162 58.833612 0
M  V30 64 H 39.307209 32.389210 54.737182 0
M  V30 65 H 38.454067 33.510370 55.789895 0
M  V30 66 H 40.031037 32.876919 56.265561 0
M  V30 67 H 39.664038 25.239173 54.505108 0
M  V30 68 H 37.284970 26.477503 55.956663 0
M  V30 69 H 38.654861 33.264445 59.671598 0
M  V30 70 H 43.554712 31.846386 63.049267 0
M  V30 END ATOM
M  V30 BEGIN BOND
M  V30 1 2 4 2
M  V30 2 1 8 2
M  V30 3 1 8 6
M  V30 4 1 9 6
M  V30 5 2 12 7
M  V30 6 1 16 4
M  V30 7 2 16 13
M  V30 8 2 18 11
M  V30 9 2 19 5
M  V30 10 1 20 7
M  V30 11 1 21 3
M  V30 12 1 21 15
M  V30 13 1 22 1
M  V30 14 1 22 10
M  V30 15 1 23 6
M  V30 16 1 23 21
M  V30 17 1 24 23
M  V30 18 1 25 17
M  V30 19 1 26 8
M  V30 20 1 26 16
M  V30 21 2 27 20
M  V30 22 1 28 19
M  V30 23 1 29 1
M  V30 24 1 29 28
M  V30 25 1 30 22
M  V30 26 2 31 10
M  V30 27 1 31 18
M  V30 28 1 31 27
M  V30 29 1 32 7
M  V30 30 1 32 11
M  V30 31 1 33 14
M  V30 32 1 33 17
M  V30 33 1 33 32
M  V30 34 1 34 3
M  V30 35 1 34 19
M  V30 36 1 35 9
M  V30 37 1 35 24
M  V30 38 2 36 17
M  V30 39 1 37 2
M  V30 40 1 38 3
M  V30 41 1 39 3
M  V30 42 1 40 4
M  V30 43 1 6 41 CFG=3
M  V30 44 1 42 9
M  V30 45 1 43 10
M  V30 46 1 44 11
M  V30 47 1 45 26
M  V30 48 1 46 14
M  V30 49 1 47 14
M  V30 50 1 48 14
M  V30 51 1 49 15
M  V30 52 1 50 15
M  V30 53 1 51 15
M  V30 54 1 52 18
M  V30 55 1 21 53 CFG=1
M  V30 56 1 22 54 CFG=3
M  V30 57 1 23 55 CFG=1
M  V30 58 1 56 24
M  V30 59 1 57 24
M  V30 60 1 58 26
M  V30 61 1 59 27
M  V30 62 1 60 28
M  V30 63 1 61 28
M  V30 64 1 62 29
M  V30 65 1 63 29
M  V30 66 1 64 30
M  V30 67 1 65 30
M  V30 68 1 66 30
M  V30 69 1 32 67 CFG=3
M  V30 70 1 33 68 CFG=1
M  V30 71 1 69 34
M  V30 72 1 70 35
M  V30 END BOND
M  V30 END CTAB
M  END
>  <i_epik_Tot_Q>  (1) 
-1

>  <i_epik_Tot_abs_Q>  (1) 
1

>  <i_i_glide_confnum>  (1) 
2208

>  <i_i_glide_lignum>  (1) 
42

>  <i_i_glide_posenum>  (1) 
89

>  <i_i_glide_rotatable_bonds>  (1) 
12

>  <i_lp_mmshare_version>  (1) 
72125

>  <i_m_source_file_index>  (1) 
19

>  <i_f3d_flags>  (1) 
0

>  <num_sample>  (1) 
100

>  <b_lp_Chiralities_Consistent>  (1) 
1

>  <r_epik_Charging_Adjusted_Penalty>  (1) 
0.37971815023500188

>  <r_epik_Ionization_Penalty>  (1) 
0.19445293645399606

>  <r_epik_Ionization_Penalty_Charging>  (1) 
0.18991606969001057

>  <r_epik_Ionization_Penalty_Neutral>  (1) 
0.004536866763985496

>  <r_epik_State_Penalty>  (1) 
0.18980208054499129

>  <r_glide_ring_energy>  (1) 
1.7561163794185952

>  <r_i_docking_score>  (1) 
-6.781758818418905

>  <r_i_glide_ecoul>  (1) 
-4.7241353928933076

>  <r_i_glide_eff_state_penalty>  (1) 
0.18980208054499129

>  <r_i_glide_einternal>  (1) 
13.838333468272378

>  <r_i_glide_emodel>  (1) 
-62.617019952589899

>  <r_i_glide_emodel_strain>  (1) 
1.9149664282085439

>  <r_i_glide_energy>  (1) 
-49.133381453824072

>  <r_i_glide_erotb>  (1) 
0.89642714384868305

>  <r_i_glide_esite>  (1) 
-0.0075588786820074824

>  <r_i_glide_evdw>  (1) 
-44.409246060930762

>  <r_i_glide_gscore>  (1) 
-6.9715608989638964

>  <r_i_glide_gscore_strain>  (1) 
0

>  <r_i_glide_hbond>  (1) 
-0.21481174888194976

>  <r_i_glide_ligand_efficiency>  (1) 
-0.18838218940052515

>  <r_i_glide_ligand_efficiency_ln>  (1) 
-1.4795965522296368

>  <r_i_glide_ligand_efficiency_sa>  (1) 
-0.6220242843880226

>  <r_i_glide_lipo>  (1) 
-2.7973883956212116

>  <r_i_glide_metal>  (1) 
-0

>  <r_i_glide_rewards>  (1) 
-1.9191464076468772

>  <r_lp_Energy>  (1) 
20.917635000000001

>  <r_lp_tautomer_probability>  (1) 
0.98846045845713826

>  <s_epik_Chemistry_Notes>  (1) 
This compound has an imine and may undergo hydrolysis. This compound contains an acetal/aminal-like group ( X-CH(R)-Y where X, Y are N, S, or O) that may be acid/base labile, releasing an aldehyde.

>  <s_epik_cmdline>  (1) 
J2VwaWtfcHl0aG9uJywgJy1waHQnLCAnMS4wJywgJy1waCcsICc3LjQnLCAnLXRuJywgJzgnLCAnLW1hJywgJzUwMCcsICctaW1hZScsICc8aW5maWxlLm1hZT4nLCAnLW9tYWUnLCAnPG91dGZpbGUubWFlPic=

>  <s_epik_input>  (1) 
W09IXUMoPU8pW0NASF0oW0NIM10pW0NAQEhdMVtDSF09W0NIXVxDKFtDSF09TkMxPU8pPVtDSF1cW0NASF0oW0NIM10pT1tDSDJdW0NIMl1DKD1PKVtOSF1bQ0gyXVtDQEhdKFtDSDNdKVtDQEBIXTJbQ0gyXVtOSF1bTkhdW0NASF0ybjNbY0hdW2NIXWMoW09IXSlbY0hdMw==

>  <s_glide_docking_method>  (1) 
confgen

>  <s_i_glide_gridfile>  (1) 
gpcr_5ht2c_6bqh_protein_autoprepared_prepared

>  <s_lp_Force_Field>  (1) 
S-OPLS

>  <s_lp_Variant>  (1) 
DiffSBDD_18_num_sample_100-2

>  <s_m_source_file>  (1) 
generated__ligand_DiffSBDD_2026-05-06_prepared.sdf

>  <GenAI_Model>  (1) 
DiffSBDD

>  <Protein>  (1) 
GPCR_5HT2C

$$$$
DiffSBDD_53_num_sample_100
     RDKit          3D

  0  0  0  0  0  0  0  0  0  0999 V3000
M  V30 BEGIN CTAB
M  V30 COUNTS 69 72 0 0 1
M  V30 BEGIN ATOM
M  V30 1 C 41.100663 31.981469 62.700664 0
M  V30 2 C 43.346650 30.325091 64.784698 0
M  V30 3 C 41.976081 32.944683 64.934027 0
M  V30 4 O 41.067440 28.701407 67.453494 0
M  V30 5 N 42.444405 27.969063 64.687934 0 CFG=2 CHG=1
M  V30 6 C 39.055718 30.138749 54.960105 0
M  V30 7 C 38.970903 28.830598 52.804091 0
M  V30 8 N 38.267405 30.600839 56.106218 0
M  V30 9 C 38.604839 30.348543 57.382011 0
M  V30 10 C 41.467332 34.453209 63.067748 0
M  V30 11 C 38.105233 30.698085 59.923428 0 CFG=1
M  V30 12 C 42.145446 26.752278 65.435031 0
M  V30 13 C 43.415531 28.890812 65.336939 0
M  V30 14 C 41.067435 27.772176 65.151994 0 CFG=1
M  V30 15 O 39.291625 31.429945 60.253497 0
M  V30 16 C 39.036567 32.440124 61.224882 0 CFG=1
M  V30 17 C 37.075161 31.194376 60.949951 0 CFG=1
M  V30 18 C 37.523131 32.607544 61.227737 0
M  V30 19 C 40.487290 28.758429 66.169161 0 CFG=2
M  V30 20 C 41.530421 33.144389 63.587242 0
M  V30 21 O 39.586966 29.678723 57.701416 0
M  V30 22 C 41.835642 35.550065 63.861851 0
M  V30 23 C 38.666364 27.588360 54.972541 0
M  V30 24 O 37.683132 26.821234 55.069797 0
M  V30 25 S 40.267982 30.416098 65.479731 0
M  V30 26 C 42.267397 35.352146 65.185268 0
M  V30 27 C 38.444791 28.916453 54.226714 0 CFG=1
M  V30 28 C 38.249933 28.388089 51.762986 0
M  V30 29 O 39.814479 27.366824 55.418243 0 CHG=-1
M  V30 30 C 37.692915 30.949894 58.451111 0
M  V30 31 S 42.083475 31.314217 65.650000 0 CHG=1
M  V30 32 C 42.336638 34.054008 65.720117 0
M  V30 33 C 35.612266 31.070316 60.544935 0
M  V30 34 C 39.571494 31.945894 62.577061 0
M  V30 35 H 41.552343 32.119635 61.716912 0
M  V30 36 H 41.439061 31.006842 63.016121 0
M  V30 37 H 43.248322 30.319192 63.702455 0
M  V30 38 H 44.298658 30.819360 64.982412 0
M  V30 39 H 40.465167 28.247982 68.040141 0
M  V30 40 H 39.091425 30.981330 54.268435 0
M  V30 41 H 40.097281 29.952169 55.230701 0
M  V30 42 H 39.989058 29.150524 52.646546 0
M  V30 43 H 37.436156 31.151132 55.919682 0
M  V30 44 H 41.132116 34.615650 62.054117 0
M  V30 45 H 38.284747 29.632624 60.073984 0
M  V30 46 H 42.259558 25.885422 64.786281 0
M  V30 47 H 42.636374 26.722168 66.406532 0
M  V30 48 H 44.405038 28.489636 65.113645 0
M  V30 49 H 43.350635 28.892115 66.424618 0
M  V30 50 H 40.442161 27.603318 64.277123 0
M  V30 51 H 39.519334 33.374327 60.938930 0
M  V30 52 H 37.216015 30.605412 61.853490 0
M  V30 53 H 37.127270 33.006873 62.161646 0
M  V30 54 H 37.217169 33.272084 60.417891 0
M  V30 55 H 39.467411 28.422318 66.340442 0
M  V30 56 H 41.785383 36.549075 63.453549 0
M  V30 57 H 42.548624 36.201963 65.791998 0
M  V30 58 H 37.366270 29.067673 54.153821 0
M  V30 59 H 38.672086 28.348154 50.770050 0
M  V30 60 H 37.229070 28.059881 51.892205 0
M  V30 61 H 36.716815 30.506109 58.257226 0
M  V30 62 H 37.588981 32.019904 58.265301 0
M  V30 63 H 42.670486 33.909331 66.737620 0
M  V30 64 H 35.332215 31.777724 59.762579 0
M  V30 65 H 35.467403 30.066033 60.154205 0
M  V30 66 H 34.949126 31.221570 61.395850 0
M  V30 67 H 39.232966 30.923778 62.746315 0
M  V30 68 H 39.130582 32.538319 63.378248 0
M  V30 69 H 42.587761 27.775595 63.705129 0
M  V30 END ATOM
M  V30 BEGIN BOND
M  V30 1 1 8 6
M  V30 2 1 9 8
M  V30 3 1 12 5
M  V30 4 1 13 2
M  V30 5 1 13 5
M  V30 6 1 14 5
M  V30 7 1 14 12
M  V30 8 1 15 11
M  V30 9 1 16 15
M  V30 10 1 17 11
M  V30 11 1 18 16
M  V30 12 1 18 17
M  V30 13 1 19 4
M  V30 14 1 19 14
M  V30 15 1 20 1
M  V30 16 1 20 3
M  V30 17 2 20 10
M  V30 18 2 21 9
M  V30 19 1 22 10
M  V30 20 2 24 23
M  V30 21 1 25 19
M  V30 22 2 26 22
M  V30 23 1 27 6
M  V30 24 1 27 7
M  V30 25 1 27 23
M  V30 26 2 28 7
M  V30 27 1 29 23
M  V30 28 1 30 9
M  V30 29 1 30 11
M  V30 30 1 31 2
M  V30 31 1 31 3 CFG=3
M  V30 32 1 31 25
M  V30 33 2 32 3
M  V30 34 1 32 26
M  V30 35 1 33 17
M  V30 36 1 34 1
M  V30 37 1 34 16
M  V30 38 1 35 1
M  V30 39 1 36 1
M  V30 40 1 37 2
M  V30 41 1 38 2
M  V30 42 1 39 4
M  V30 43 1 40 6
M  V30 44 1 41 6
M  V30 45 1 42 7
M  V30 46 1 43 8
M  V30 47 1 44 10
M  V30 48 1 11 45 CFG=3
M  V30 49 1 46 12
M  V30 50 1 47 12
M  V30 51 1 48 13
M  V30 52 1 49 13
M  V30 53 1 14 50 CFG=3
M  V30 54 1 16 51 CFG=3
M  V30 55 1 17 52 CFG=1
M  V30 56 1 53 18
M  V30 57 1 54 18
M  V30 58 1 19 55 CFG=1
M  V30 59 1 56 22
M  V30 60 1 57 26
M  V30 61 1 27 58 CFG=3
M  V30 62 1 59 28
M  V30 63 1 60 28
M  V30 64 1 61 30
M  V30 65 1 62 30
M  V30 66 1 63 32
M  V30 67 1 64 33
M  V30 68 1 65 33
M  V30 69 1 66 33
M  V30 70 1 67 34
M  V30 71 1 68 34
M  V30 72 1 5 69 CFG=3
M  V30 END BOND
M  V30 END CTAB
M  END
>  <i_epik_Tot_Q>  (1) 
1

>  <i_epik_Tot_abs_Q>  (1) 
3

>  <i_i_glide_confnum>  (1) 
522

>  <i_i_glide_lignum>  (1) 
140

>  <i_i_glide_posenum>  (1) 
71

>  <i_i_glide_rotatable_bonds>  (1) 
12

>  <i_lp_mmshare_version>  (1) 
72125

>  <i_m_source_file_index>  (1) 
54

>  <i_f3d_flags>  (1) 
0

>  <num_sample>  (1) 
100

>  <b_lp_Chiralities_Consistent>  (1) 
1

>  <r_epik_Charging_Adjusted_Penalty>  (1) 
0.046453037766825911

>  <r_epik_Ionization_Penalty>  (1) 
0.023481310305084564

>  <r_epik_Ionization_Penalty_Charging>  (1) 
0.023340632071334463

>  <r_epik_Ionization_Penalty_Neutral>  (1) 
0.0001406782337501018

>  <r_epik_State_Penalty>  (1) 
0.023112405695491445

>  <r_glide_ring_energy>  (1) 
0.17236391819081889

>  <r_i_docking_score>  (1) 
-6.7817279942815949

>  <r_i_glide_ecoul>  (1) 
-10.238921323400353

>  <r_i_glide_eff_state_penalty>  (1) 
0.023112405695491445

>  <r_i_glide_einternal>  (1) 
12.924855682488754

>  <r_i_glide_emodel>  (1) 
-69.61356293761888

>  <r_i_glide_emodel_strain>  (1) 
0.52400210461337338

>  <r_i_glide_energy>  (1) 
-51.560562061054611

>  <r_i_glide_erotb>  (1) 
0.79410111881252765

>  <r_i_glide_esite>  (1) 
-0.10152839319911924

>  <r_i_glide_evdw>  (1) 
-41.321640737654256

>  <r_i_glide_gscore>  (1) 
-6.8048403999770866

>  <r_i_glide_gscore_strain>  (1) 
0

>  <r_i_glide_hbond>  (1) 
-0.33224420107685271

>  <r_i_glide_ligand_efficiency>  (1) 
-0.19946258806710573

>  <r_i_glide_ligand_efficiency_ln>  (1) 
-1.4982739349638283

>  <r_i_glide_ligand_efficiency_sa>  (1) 
-0.64618135421554512

>  <r_i_glide_lipo>  (1) 
-2.8694885600545517

>  <r_i_glide_metal>  (1) 
-0

>  <r_i_glide_rewards>  (1) 
-0.69376012906632467

>  <r_lp_Energy>  (1) 
3.4646329999999996

>  <s_epik_Chemistry_Notes>  (1) 
This compound contains an acetal/aminal-like group ( X-CH(R)-Y where X, Y are N, S, or O) that may be acid/base labile, releasing an aldehyde.

>  <s_epik_cmdline>  (1) 
J2VwaWtfcHl0aG9uJywgJy1waHQnLCAnMS4wJywgJy1waCcsICc3LjQnLCAnLXRuJywgJzgnLCAnLW1hJywgJzUwMCcsICctaW1hZScsICc8aW5maWxlLm1hZT4nLCAnLW9tYWUnLCAnPG91dGZpbGUubWFlPic=

>  <s_epik_input>  (1) 
TjEyW0NAQEhdKFtDSDJdMSlbQ0BASF0oW09IXSlTW1MrXShbQ0gyXVtDSDJdMiljM2MoW2NIXVtjSF1bY0hdW2NIXTMpW0NIMl1bQ0gyXVtDQEhdKFtDSDJdW0NASF00W0NIM10pT1tDQEBIXTRbQ0gyXUMoPU8pW05IXVtDSDJdW0NAQEhdKFtDSF09W0NIMl0pQyg9TylbT0hd

>  <s_glide_docking_method>  (1) 
confgen

>  <s_i_glide_gridfile>  (1) 
gpcr_5ht2c_6bqh_protein_autoprepared_prepared

>  <s_lp_Force_Field>  (1) 
S-OPLS

>  <s_lp_Variant>  (1) 
DiffSBDD_53_num_sample_100-1

>  <s_m_source_file>  (1) 
generated__ligand_DiffSBDD_2026-05-06_prepared.sdf

>  <GenAI_Model>  (1) 
DiffSBDD

>  <Protein>  (1) 
GPCR_5HT2C

$$$$
DiffSBDD_40_num_sample_100
     RDKit          3D

  0  0  0  0  0  0  0  0  0  0999 V3000
M  V30 BEGIN CTAB
M  V30 COUNTS 73 75 0 0 1
M  V30 BEGIN ATOM
M  V30 1 C 43.428036 27.650567 57.527801 0
M  V30 2 C 40.487913 35.010715 63.041005 0 CFG=1
M  V30 3 N 40.307312 30.486164 51.355336 0
M  V30 4 C 40.138026 32.704095 61.930178 0
M  V30 5 C 38.966125 25.525310 54.936866 0
M  V30 6 C 37.713097 30.763292 58.504398 0
M  V30 7 N 39.011775 29.638837 53.142893 0 CHG=1
M  V30 8 C 38.686788 33.715596 59.720494 0
M  V30 9 O 36.370337 33.339747 59.053501 0
M  V30 10 C 38.033950 32.091634 57.789139 0
M  V30 11 C 41.067425 34.610914 64.401150 0
M  V30 12 C 40.795296 36.476176 62.686617 0
M  V30 13 N 39.125097 28.447930 51.359654 0
M  V30 14 C 39.763127 28.475575 57.950230 0 CFG=2
M  V30 15 C 40.853945 34.054243 61.875283 0
M  V30 16 C 38.316128 27.801188 55.896081 0 CFG=1
M  V30 17 C 39.488512 26.869343 55.475848 0 CFG=1
M  V30 18 S 40.824394 31.375141 62.653535 0
M  V30 19 C 38.234182 28.526495 53.382962 0
M  V30 20 N 40.920370 27.799215 57.305193 0 CFG=1 CHG=1
M  V30 21 S 38.537021 32.642134 61.188343 0
M  V30 22 C 42.069572 27.565817 58.223268 0
M  V30 23 C 38.317484 27.764470 52.229558 0
M  V30 24 C 37.702376 33.373339 58.587578 0 CFG=2
M  V30 25 C 40.492636 26.574630 56.593933 0
M  V30 26 O 41.808315 35.525719 65.100455 0
M  V30 27 C 39.147162 27.623031 59.092667 0
M  V30 28 N 42.266937 34.251154 64.484965 0
M  V30 29 C 39.527538 29.571940 51.922085 0
M  V30 30 C 38.733190 28.948869 56.875543 0 CFG=1
M  V30 31 C 37.489914 28.310864 54.665228 0
M  V30 32 C 37.477883 29.583511 57.544788 0
M  V30 33 H 44.231380 27.550083 58.253454 0
M  V30 34 H 43.565715 26.823292 56.837367 0
M  V30 35 H 43.565218 28.599176 57.008877 0
M  V30 36 H 39.406412 34.965903 63.164852 0
M  V30 37 H 40.572870 31.341549 51.826569 0
M  V30 38 H 40.659603 30.388816 50.412840 0
M  V30 39 H 38.397408 24.987655 55.696531 0
M  V30 40 H 38.312741 25.648817 54.074981 0
M  V30 41 H 39.790440 24.877293 54.640472 0
M  V30 42 H 38.471455 30.537677 59.250415 0
M  V30 43 H 36.788108 30.875487 59.069820 0
M  V30 44 H 39.689328 33.633068 59.302944 0
M  V30 45 H 38.541812 34.749431 60.036159 0
M  V30 46 H 35.854169 32.904364 58.378291 0
M  V30 47 H 37.467429 32.138252 56.858831 0
M  V30 48 H 39.078405 32.102496 57.479282 0
M  V30 49 H 40.415262 37.153563 63.452305 0
M  V30 50 H 41.867117 36.644172 62.596050 0
M  V30 51 H 40.332112 36.767102 61.743845 0
M  V30 52 H 39.369486 28.145757 50.423949 0
M  V30 53 H 40.175487 29.374001 58.410745 0
M  V30 54 H 41.926003 33.875748 61.855967 0
M  V30 55 H 40.667491 34.566902 60.940573 0
M  V30 56 H 37.634170 27.182518 56.481775 0
M  V30 57 H 40.067301 27.348543 54.690509 0
M  V30 58 H 42.060804 28.281171 59.047701 0
M  V30 59 H 41.984120 26.573715 58.653491 0
M  V30 60 H 37.867403 26.821481 51.976080 0
M  V30 61 H 37.745506 34.195489 57.872162 0
M  V30 62 H 40.105740 25.832630 57.293348 0
M  V30 63 H 41.354235 26.123729 56.116831 0
M  V30 64 H 38.459013 28.205738 59.704067 0
M  V30 65 H 38.590284 26.764356 58.718100 0
M  V30 66 H 39.903924 27.249081 59.781353 0
M  V30 67 H 39.222578 29.722003 56.281480 0
M  V30 68 H 36.730618 27.561101 54.439231 0
M  V30 69 H 36.933475 29.221423 54.870619 0
M  V30 70 H 36.933819 28.810528 58.087587 0
M  V30 71 H 36.760906 29.931973 56.806126 0
M  V30 72 H 41.260911 28.437801 56.602035 0
M  V30 73 H 39.156678 30.402773 53.791091 0
M  V30 END ATOM
M  V30 BEGIN BOND
M  V30 1 1 10 6
M  V30 2 1 11 2
M  V30 3 1 12 2
M  V30 4 1 15 2
M  V30 5 1 15 4
M  V30 6 1 17 5
M  V30 7 1 17 16
M  V30 8 2 18 4
M  V30 9 1 19 7
M  V30 10 1 20 14
M  V30 11 1 21 4
M  V30 12 1 21 8
M  V30 13 1 22 1
M  V30 14 1 22 20
M  V30 15 1 23 13
M  V30 16 2 23 19
M  V30 17 1 24 8
M  V30 18 1 24 9
M  V30 19 1 24 10
M  V30 20 1 25 17
M  V30 21 1 25 20
M  V30 22 1 26 11
M  V30 23 1 27 14
M  V30 24 2 28 11
M  V30 25 1 28 26
M  V30 26 1 29 3
M  V30 27 2 29 7
M  V30 28 1 29 13
M  V30 29 1 30 14
M  V30 30 1 30 16
M  V30 31 1 31 16
M  V30 32 1 31 19
M  V30 33 1 32 6
M  V30 34 1 32 30
M  V30 35 1 33 1
M  V30 36 1 34 1
M  V30 37 1 35 1
M  V30 38 1 2 36 CFG=1
M  V30 39 1 37 3
M  V30 40 1 38 3
M  V30 41 1 39 5
M  V30 42 1 40 5
M  V30 43 1 41 5
M  V30 44 1 42 6
M  V30 45 1 43 6
M  V30 46 1 44 8
M  V30 47 1 45 8
M  V30 48 1 46 9
M  V30 49 1 47 10
M  V30 50 1 48 10
M  V30 51 1 49 12
M  V30 52 1 50 12
M  V30 53 1 51 12
M  V30 54 1 52 13
M  V30 55 1 14 53 CFG=1
M  V30 56 1 54 15
M  V30 57 1 55 15
M  V30 58 1 16 56 CFG=1
M  V30 59 1 17 57 CFG=3
M  V30 60 1 58 22
M  V30 61 1 59 22
M  V30 62 1 60 23
M  V30 63 1 24 61 CFG=3
M  V30 64 1 62 25
M  V30 65 1 63 25
M  V30 66 1 64 27
M  V30 67 1 65 27
M  V30 68 1 66 27
M  V30 69 1 30 67 CFG=3
M  V30 70 1 68 31
M  V30 71 1 69 31
M  V30 72 1 70 32
M  V30 73 1 71 32
M  V30 74 1 20 72 CFG=3
M  V30 75 1 73 7
M  V30 END BOND
M  V30 END CTAB
M  END
>  <i_epik_Tot_Q>  (1) 
2

>  <i_epik_Tot_abs_Q>  (1) 
2

>  <i_i_glide_confnum>  (1) 
815

>  <i_i_glide_lignum>  (1) 
102

>  <i_i_glide_posenum>  (1) 
377

>  <i_i_glide_rotatable_bonds>  (1) 
14

>  <i_lp_mmshare_version>  (1) 
72125

>  <i_m_source_file_index>  (1) 
41

>  <i_f3d_flags>  (1) 
0

>  <num_sample>  (1) 
100

>  <b_lp_Chiralities_Consistent>  (1) 
1

>  <r_epik_Charging_Adjusted_Penalty>  (1) 
0.0037096170623772918

>  <r_epik_Ionization_Penalty>  (1) 
0.054330814931534903

>  <r_epik_Ionization_Penalty_Charging>  (1) 
0.0037096170623772918

>  <r_epik_Ionization_Penalty_Neutral>  (1) 
0.050621197869157614

>  <r_epik_State_Penalty>  (1) 
-0

>  <r_glide_ring_energy>  (1) 
0

>  <r_i_docking_score>  (1) 
-6.7792523924892452

>  <r_i_glide_ecoul>  (1) 
-5.7163006142763715

>  <r_i_glide_eff_state_penalty>  (1) 
-0

>  <r_i_glide_einternal>  (1) 
12.344528865085575

>  <r_i_glide_emodel>  (1) 
-60.350278477584268

>  <r_i_glide_emodel_strain>  (1) 
2.1104011462707604

>  <r_i_glide_energy>  (1) 
-48.014050322696981

>  <r_i_glide_erotb>  (1) 
0.95438045441749597

>  <r_i_glide_esite>  (1) 
-0.017996721737850056

>  <r_i_glide_evdw>  (1) 
-42.297749708420611

>  <r_i_glide_gscore>  (1) 
-6.7792523924892452

>  <r_i_glide_gscore_strain>  (1) 
0

>  <r_i_glide_hbond>  (1) 
-0.16

>  <r_i_glide_ligand_efficiency>  (1) 
-0.21185163726528891

>  <r_i_glide_ligand_efficiency_ln>  (1) 
-1.5180594061191781

>  <r_i_glide_ligand_efficiency_sa>  (1) 
-0.67258702371221013

>  <r_i_glide_lipo>  (1) 
-3.1394509312900265

>  <r_i_glide_metal>  (1) 
-0

>  <r_i_glide_rewards>  (1) 
-1.4438526163163785

>  <r_lp_Energy>  (1) 
37.242804999999997

>  <r_lp_tautomer_probability>  (1) 
1

>  <s_epik_Chemistry_Notes>  (1) 
This compound has an imine and may undergo hydrolysis.

>  <s_epik_cmdline>  (1) 
J2VwaWtfcHl0aG9uJywgJy1waHQnLCAnMS4wJywgJy1waCcsICc3LjQnLCAnLXRuJywgJzgnLCAnLW1hJywgJzUwMCcsICctaW1hZScsICc8aW5maWxlLm1hZT4nLCAnLW9tYWUnLCAnPG91dGZpbGUubWFlPic=

>  <s_epik_input>  (1) 
W2NIXTFbbkhdYyhbTkgyXSluYzFbQ0gyXVtDQEBIXShbQ0BIXShbQ0gzXSlbQ0gyXU4oW0NAQEhdMltDSDNdKVtDSDJdW0NIM10pW0NAQEhdMltDSDJdW0NIMl1bQ0gyXVtDQEBIXShbT0hdKVtDSDJdU0MoPVMpW0NIMl1bQ0BIXShbQ0gzXSlDMz1OTzM=

>  <s_glide_docking_method>  (1) 
confgen

>  <s_i_glide_gridfile>  (1) 
gpcr_5ht2c_6bqh_protein_autoprepared_prepared

>  <s_lp_Force_Field>  (1) 
S-OPLS

>  <s_lp_Variant>  (1) 
DiffSBDD_40_num_sample_100-3

>  <s_m_source_file>  (1) 
generated__ligand_DiffSBDD_2026-05-06_prepared.sdf

>  <GenAI_Model>  (1) 
DiffSBDD

>  <Protein>  (1) 
GPCR_5HT2C

$$$$
DiffSBDD_29_num_sample_100
     RDKit          3D

  0  0  0  0  0  0  0  0  0  0999 V3000
M  V30 BEGIN CTAB
M  V30 COUNTS 86 90 0 0 1
M  V30 BEGIN ATOM
M  V30 1 F 38.263397 27.593027 52.263581 0
M  V30 2 C 40.131567 26.024023 56.933286 0
M  V30 3 C 38.479395 29.417087 54.531129 0
M  V30 4 C 39.452335 30.543237 61.375646 0 CFG=2
M  V30 5 C 36.685521 33.406267 60.140671 0
M  V30 6 C 38.269113 30.449860 60.404055 0
M  V30 7 C 39.471657 29.144345 51.074876 0
M  V30 8 N 40.192553 27.431387 57.432374 0 CFG=2 CHG=1
M  V30 9 C 40.812567 31.951224 63.108072 0 CFG=1
M  V30 10 C 38.074393 36.078607 60.346016 0
M  V30 11 C 42.546435 27.452927 58.321315 0
M  V30 12 C 37.946154 35.167194 61.560641 0 CFG=2
M  V30 13 C 38.899434 28.771945 52.174260 0
M  V30 14 C 41.871037 28.768221 58.742142 0 CFG=2
M  V30 15 C 37.742686 26.448095 56.262626 0
M  V30 16 C 41.936196 33.069272 65.150142 0
M  V30 17 C 39.484332 31.861752 62.247526 0 CFG=1
M  V30 18 C 40.942378 28.846107 59.966296 0 CFG=1
M  V30 19 C 39.762065 30.878158 52.915015 0
M  V30 20 N 37.867445 27.739888 56.924354 0
M  V30 21 N 38.998830 29.639976 53.195642 0
M  V30 22 F 39.479107 28.421387 49.953992 0
M  V30 23 S 39.541834 34.718651 62.249665 0
M  V30 24 C 39.187417 28.334791 56.806915 0 CFG=2
M  V30 25 C 38.697712 25.478257 56.948933 0
M  V30 26 C 40.284275 31.221030 65.486649 0
M  V30 27 O 41.467383 28.021432 60.968623 0
M  V30 28 C 39.114010 33.148999 61.425229 0 CFG=2
M  V30 29 C 40.798024 30.212143 60.704597 0
M  V30 30 C 36.981053 35.790074 59.314710 0
M  V30 31 C 36.971509 34.301317 58.926502 0
M  V30 32 C 39.550285 28.700062 55.352188 0
M  V30 33 O 41.822647 32.652418 62.397830 0
M  V30 34 C 37.619563 33.661507 61.338059 0 CFG=2
M  V30 35 C 41.533881 28.066088 57.430398 0 CFG=2
M  V30 36 C 40.665163 32.412554 64.579816 0
M  V30 37 O 39.262073 29.478847 62.253477 0
M  V30 38 S 40.267391 30.670916 51.079938 0
M  V30 39 H 40.573569 25.939542 55.939878 0
M  V30 40 H 40.667746 25.365182 57.603485 0
M  V30 41 H 37.563347 28.827641 54.467872 0
M  V30 42 H 38.212005 30.369976 54.991328 0
M  V30 43 H 35.659255 33.598820 60.459615 0
M  V30 44 H 36.667600 32.376730 59.812457 0
M  V30 45 H 38.415672 31.122096 59.560297 0
M  V30 46 H 38.118748 29.452327 59.993879 0
M  V30 47 H 37.340781 30.692175 60.921353 0
M  V30 48 H 41.218650 30.960495 63.269191 0
M  V30 49 H 38.048930 37.127070 60.646138 0
M  V30 50 H 39.032625 35.920814 59.854690 0
M  V30 51 H 43.582481 27.523320 57.996880 0
M  V30 52 H 42.262775 26.466549 58.654994 0
M  V30 53 H 37.291026 35.605185 62.314758 0
M  V30 54 H 42.530055 29.621738 58.653523 0
M  V30 55 H 37.958911 26.529421 55.196022 0
M  V30 56 H 36.715830 26.090123 56.352063 0
M  V30 57 H 42.789979 32.392772 65.084614 0
M  V30 58 H 42.191192 33.985590 64.617364 0
M  V30 59 H 41.800200 33.335987 66.198524 0
M  V30 60 H 38.685012 31.733964 62.977894 0
M  V30 61 H 39.966685 28.444515 59.719694 0
M  V30 62 H 39.133642 31.758269 53.051719 0
M  V30 63 H 40.641543 30.964592 53.553421 0
M  V30 64 H 37.567321 27.677050 57.888411 0
M  V30 65 H 39.155633 29.260660 57.384101 0
M  V30 66 H 38.660752 24.504709 56.456618 0
M  V30 67 H 38.371918 25.313768 57.977738 0
M  V30 68 H 41.077773 30.472034 65.503395 0
M  V30 69 H 40.132871 31.535648 66.518124 0
M  V30 70 H 39.382233 30.713580 65.149327 0
M  V30 71 H 42.434504 28.021430 60.965231 0
M  V30 72 H 39.587070 33.160760 60.442371 0
M  V30 73 H 41.218622 31.086902 60.253514 0
M  V30 74 H 41.479060 30.137346 61.524217 0
M  V30 75 H 36.005610 36.068094 59.718194 0
M  V30 76 H 37.136809 36.414911 58.436660 0
M  V30 77 H 36.209963 34.114342 58.170220 0
M  V30 78 H 37.921795 34.020396 58.471537 0
M  V30 79 H 40.410599 29.367414 55.362652 0
M  V30 80 H 39.863287 27.807115 54.811185 0
M  V30 81 H 41.541306 33.554140 62.320807 0
M  V30 82 H 37.125896 33.278259 62.233269 0
M  V30 83 H 41.913240 28.420043 56.477389 0
M  V30 84 H 39.870006 33.145814 64.621489 0
M  V30 85 H 39.795464 28.743652 61.974221 0
M  V30 86 H 39.934544 27.360537 58.404726 0
M  V30 END ATOM
M  V30 BEGIN BOND
M  V30 1 1 6 4
M  V30 2 1 8 2
M  V30 3 1 12 10
M  V30 4 1 13 1
M  V30 5 2 13 7
M  V30 6 1 14 11
M  V30 7 1 17 4
M  V30 8 1 17 9
M  V30 9 1 18 14
M  V30 10 1 20 15
M  V30 11 1 21 3
M  V30 12 1 21 13
M  V30 13 1 21 19
M  V30 14 1 22 7
M  V30 15 1 23 12
M  V30 16 1 24 8
M  V30 17 1 24 20
M  V30 18 1 25 2
M  V30 19 1 25 15
M  V30 20 1 27 18
M  V30 21 1 28 17
M  V30 22 1 28 23
M  V30 23 1 29 4
M  V30 24 1 29 18
M  V30 25 1 30 10
M  V30 26 1 31 5
M  V30 27 1 31 30
M  V30 28 1 32 3
M  V30 29 1 32 24
M  V30 30 1 33 9
M  V30 31 1 34 5
M  V30 32 1 34 12
M  V30 33 1 34 28
M  V30 34 1 35 8
M  V30 35 1 35 11
M  V30 36 1 35 14
M  V30 37 1 36 9
M  V30 38 1 36 16
M  V30 39 1 36 26
M  V30 40 1 4 37 CFG=1
M  V30 41 1 38 7
M  V30 42 1 38 19
M  V30 43 1 39 2
M  V30 44 1 40 2
M  V30 45 1 41 3
M  V30 46 1 42 3
M  V30 47 1 43 5
M  V30 48 1 44 5
M  V30 49 1 45 6
M  V30 50 1 46 6
M  V30 51 1 47 6
M  V30 52 1 9 48 CFG=1
M  V30 53 1 49 10
M  V30 54 1 50 10
M  V30 55 1 51 11
M  V30 56 1 52 11
M  V30 57 1 12 53 CFG=1
M  V30 58 1 14 54 CFG=3
M  V30 59 1 55 15
M  V30 60 1 56 15
M  V30 61 1 57 16
M  V30 62 1 58 16
M  V30 63 1 59 16
M  V30 64 1 17 60 CFG=1
M  V30 65 1 18 61 CFG=3
M  V30 66 1 62 19
M  V30 67 1 63 19
M  V30 68 1 64 20
M  V30 69 1 24 65 CFG=1
M  V30 70 1 66 25
M  V30 71 1 67 25
M  V30 72 1 68 26
M  V30 73 1 69 26
M  V30 74 1 70 26
M  V30 75 1 71 27
M  V30 76 1 28 72 CFG=3
M  V30 77 1 73 29
M  V30 78 1 74 29
M  V30 79 1 75 30
M  V30 80 1 76 30
M  V30 81 1 77 31
M  V30 82 1 78 31
M  V30 83 1 79 32
M  V30 84 1 80 32
M  V30 85 1 81 33
M  V30 86 1 34 82 CFG=1
M  V30 87 1 35 83 CFG=3
M  V30 88 1 84 36
M  V30 89 1 85 37
M  V30 90 1 8 86 CFG=1
M  V30 END BOND
M  V30 END CTAB
M  END
>  <i_epik_Tot_Q>  (1) 
1

>  <i_epik_Tot_abs_Q>  (1) 
1

>  <i_i_glide_confnum>  (1) 
818

>  <i_i_glide_lignum>  (1) 
76

>  <i_i_glide_posenum>  (1) 
136

>  <i_i_glide_rotatable_bonds>  (1) 
14

>  <i_lp_mmshare_version>  (1) 
72125

>  <i_m_source_file_index>  (1) 
30

>  <i_f3d_flags>  (1) 
0

>  <num_sample>  (1) 
100

>  <b_lp_Chiralities_Consistent>  (1) 
1

>  <r_epik_Charging_Adjusted_Penalty>  (1) 
1.7477768688038313

>  <r_epik_Ionization_Penalty>  (1) 
0.56833185219894722

>  <r_epik_Ionization_Penalty_Charging>  (1) 
0.56833130032608237

>  <r_epik_Ionization_Penalty_Neutral>  (1) 
5.5187286482775955e-07

>  <r_epik_State_Penalty>  (1) 
1.179445568477749

>  <r_glide_ring_energy>  (1) 
2.3029442833190661

>  <r_i_docking_score>  (1) 
-6.7777634744901833

>  <r_i_glide_ecoul>  (1) 
-5.7225761539832174

>  <r_i_glide_eff_state_penalty>  (1) 
1.179445568477749

>  <r_i_glide_einternal>  (1) 
16.904215247425324

>  <r_i_glide_emodel>  (1) 
-46.056997142243191

>  <r_i_glide_emodel_strain>  (1) 
6.9522044673254015

>  <r_i_glide_energy>  (1) 
-37.651696813913844

>  <r_i_glide_erotb>  (1) 
0.46833353265868582

>  <r_i_glide_esite>  (1) 
0

>  <r_i_glide_evdw>  (1) 
-31.929120659930625

>  <r_i_glide_gscore>  (1) 
-7.9572090429679321

>  <r_i_glide_gscore_strain>  (1) 
0.73805111683135038

>  <r_i_glide_hbond>  (1) 
-0.36744112515293947

>  <r_i_glide_ligand_efficiency>  (1) 
-0.17836219669711009

>  <r_i_glide_ligand_efficiency_ln>  (1) 
-1.4614851867011063

>  <r_i_glide_ligand_efficiency_sa>  (1) 
-0.59964931879832351

>  <r_i_glide_lipo>  (1) 
-4.4534947304528707

>  <r_i_glide_metal>  (1) 
-0

>  <r_i_glide_rewards>  (1) 
-1.8878153807581441

>  <r_lp_Energy>  (1) 
42.485220999999996

>  <s_epik_Chemistry_Notes>  (1) 
This compound has an imine and may undergo hydrolysis. This compound contains an acetal/aminal-like group ( X-CH(R)-Y where X, Y are N, S, or O) that may be acid/base labile, releasing an aldehyde.

>  <s_epik_cmdline>  (1) 
J2VwaWtfcHl0aG9uJywgJy1waHQnLCAnMS4wJywgJy1waCcsICc3LjQnLCAnLXRuJywgJzgnLCAnLW1hJywgJzUwMCcsICctaW1hZScsICc8aW5maWxlLm1hZT4nLCAnLW9tYWUnLCAnPG91dGZpbGUubWFlPic=

>  <s_epik_input>  (1) 
RkMxPUMoRilOKFtDSDJdUzEpW0NIMl1bQ0gyXVtDQEhdMltOSF1bQ0gyXVtDSDJdW0NIMl1OMltDQEBIXTNbQ0gyXVtDQEBIXTNbQ0BASF0oW09IXSlbQ0gyXVtDQEBdKFtDSDNdKShbT0hdKVtDQEBIXShbQ0BASF0oW09IXSlbQ0hdKFtDSDNdKVtDSDNdKVtDQEhdKFM0KVtDQEBIXShbQ0BASF00NSlbQ0gyXVtDSDJdW0NIMl1bQ0gyXTU=

>  <s_glide_docking_method>  (1) 
confgen

>  <s_i_glide_gridfile>  (1) 
gpcr_5ht2c_6bqh_protein_autoprepared_prepared

>  <s_lp_Force_Field>  (1) 
S-OPLS

>  <s_lp_Variant>  (1) 
DiffSBDD_29_num_sample_100-6

>  <s_m_source_file>  (1) 
generated__ligand_DiffSBDD_2026-05-06_prepared.sdf

>  <GenAI_Model>  (1) 
DiffSBDD

>  <Protein>  (1) 
GPCR_5HT2C

$$$$
DiffSBDD_85_num_sample_100
     RDKit          3D

  0  0  0  0  0  0  0  0  0  0999 V3000
M  V30 BEGIN CTAB
M  V30 COUNTS 83 87 0 0 1
M  V30 BEGIN ATOM
M  V30 1 C 36.532349 33.728626 58.799377 0
M  V30 2 N 38.229787 28.255319 53.255229 0 CHG=1
M  V30 3 C 39.752143 29.221622 49.859066 0
M  V30 4 Cl 35.067542 33.219239 61.453482 0
M  V30 5 C 37.954066 34.226115 60.913094 0 CFG=1
M  V30 6 C 37.430899 26.436544 57.258096 0
M  V30 7 C 39.328278 28.628618 52.343049 0
M  V30 8 C 39.986221 30.674647 50.238101 0
M  V30 9 O 39.912994 31.896583 63.117472 0
M  V30 10 S 39.059204 29.725727 57.997655 0
M  V30 11 C 40.663495 30.648881 51.590881 0
M  V30 12 O 41.322921 32.006711 61.400039 0 CHG=-1
M  V30 13 C 38.872384 28.470512 50.878622 0
M  V30 14 C 39.667303 29.633860 59.706577 0 CFG=1
M  V30 15 C 40.540503 27.553433 58.687818 0 CFG=1
M  V30 16 C 39.476074 27.491817 56.249118 0 CFG=1
M  V30 17 C 37.779072 34.400967 59.390253 0
M  V30 18 N 38.219827 26.858709 53.653977 0
M  V30 19 C 37.783879 32.732602 61.350271 0 CFG=2
M  V30 20 C 37.796144 25.086230 56.663433 0 CFG=1
M  V30 21 C 39.812919 30.054147 52.702781 0
M  V30 22 C 39.247494 34.913669 61.379802 0
M  V30 23 C 37.425367 26.684141 54.862492 0 CFG=2
M  V30 24 C 40.106150 26.087019 56.075906 0
M  V30 25 C 37.930381 27.385653 56.157276 0 CFG=1
M  V30 26 C 36.313184 32.301743 59.324622 0
M  V30 27 C 40.178722 31.916504 61.896956 0
M  V30 28 C 38.989308 31.809048 60.913348 0 CFG=1
M  V30 29 C 37.307184 25.186843 55.214034 0
M  V30 30 O 41.952719 27.624474 58.705026 0
M  V30 31 C 38.705122 30.285817 60.721677 0
M  V30 32 C 39.910545 28.160540 59.958233 0 CFG=1
M  V30 33 C 36.408958 32.235509 60.839191 0 CFG=2
M  V30 34 C 39.321270 24.925269 56.734841 0
M  V30 35 C 40.064274 28.321950 57.434083 0 CFG=1
M  V30 36 O 40.749502 28.021699 61.081585 0
M  V30 37 H 35.653789 34.342609 58.999066 0
M  V30 38 H 36.639591 33.702247 57.715078 0
M  V30 39 H 37.337456 28.446782 52.823301 0
M  V30 40 H 40.666899 28.673293 49.833555 0
M  V30 41 H 39.458503 29.222627 48.821293 0
M  V30 42 H 37.157254 34.796469 61.389128 0
M  V30 43 H 36.352777 26.478488 57.400067 0
M  V30 44 H 37.889672 26.616512 58.229647 0
M  V30 45 H 40.158652 27.931790 52.464316 0
M  V30 46 H 40.634379 31.138704 49.491780 0
M  V30 47 H 39.066667 31.256713 50.251671 0
M  V30 48 H 41.476179 29.961222 51.453502 0
M  V30 49 H 41.041494 31.621243 51.872911 0
M  V30 50 H 38.824142 27.412230 50.620938 0
M  V30 51 H 37.867413 28.821453 50.830875 0
M  V30 52 H 40.642873 30.105820 59.766926 0
M  V30 53 H 40.279187 26.504702 58.666543 0
M  V30 54 H 39.803476 28.067894 55.385134 0
M  V30 55 H 37.709301 35.465569 59.173642 0
M  V30 56 H 38.657426 34.020296 58.869594 0
M  V30 57 H 37.749732 26.445351 52.857861 0
M  V30 58 H 37.706565 32.718275 62.437743 0
M  V30 59 H 37.308970 24.265842 57.192446 0
M  V30 60 H 39.009143 30.742609 52.936495 0
M  V30 61 H 40.408395 30.021488 53.617396 0
M  V30 62 H 40.120887 34.538061 60.847275 0
M  V30 63 H 39.204167 35.987887 61.198137 0
M  V30 64 H 39.414886 34.769762 62.446957 0
M  V30 65 H 36.447982 27.105806 54.652220 0
M  V30 66 H 40.211241 25.862090 55.015540 0
M  V30 67 H 41.120037 26.105874 56.439382 0
M  V30 68 H 37.475577 28.372787 56.237949 0
M  V30 69 H 35.321222 31.943679 59.053875 0
M  V30 70 H 37.024378 31.629805 58.850472 0
M  V30 71 H 39.331085 32.173194 59.945156 0
M  V30 72 H 37.879279 24.532673 54.553255 0
M  V30 73 H 36.268113 24.866006 55.151224 0
M  V30 74 H 42.215697 28.531309 58.760937 0
M  V30 75 H 37.701368 30.047851 60.386559 0
M  V30 76 H 38.788255 29.782073 61.686947 0
M  V30 77 H 38.957196 27.670271 60.158179 0
M  V30 78 H 36.190425 31.231845 61.193773 0
M  V30 79 H 39.586389 24.022145 56.217437 0
M  V30 80 H 39.621142 24.758649 57.766917 0
M  V30 81 H 40.940160 28.818583 57.013030 0
M  V30 82 H 41.631429 27.874207 60.762908 0
M  V30 83 H 38.309837 28.779148 54.115879 0
M  V30 END ATOM
M  V30 BEGIN BOND
M  V30 1 1 7 2
M  V30 2 1 8 3
M  V30 3 1 11 8
M  V30 4 1 13 3
M  V30 5 1 13 7
M  V30 6 1 14 10
M  V30 7 1 17 1
M  V30 8 1 17 5
M  V30 9 1 18 2
M  V30 10 1 19 5
M  V30 11 1 20 6
M  V30 12 1 21 7
M  V30 13 1 21 11
M  V30 14 1 22 5
M  V30 15 1 23 18
M  V30 16 1 24 16
M  V30 17 1 25 6
M  V30 18 1 25 16
M  V30 19 1 25 23
M  V30 20 1 26 1
M  V30 21 2 27 9
M  V30 22 1 27 12
M  V30 23 1 28 19
M  V30 24 1 28 27
M  V30 25 1 29 20
M  V30 26 1 29 23
M  V30 27 1 30 15
M  V30 28 1 31 14
M  V30 29 1 31 28
M  V30 30 1 32 14
M  V30 31 1 32 15
M  V30 32 1 33 4
M  V30 33 1 33 19
M  V30 34 1 33 26
M  V30 35 1 34 20
M  V30 36 1 34 24
M  V30 37 1 35 10
M  V30 38 1 35 15
M  V30 39 1 35 16
M  V30 40 1 36 32
M  V30 41 1 37 1
M  V30 42 1 38 1
M  V30 43 1 39 2
M  V30 44 1 40 3
M  V30 45 1 41 3
M  V30 46 1 5 42 CFG=1
M  V30 47 1 43 6
M  V30 48 1 44 6
M  V30 49 1 45 7
M  V30 50 1 46 8
M  V30 51 1 47 8
M  V30 52 1 48 11
M  V30 53 1 49 11
M  V30 54 1 50 13
M  V30 55 1 51 13
M  V30 56 1 14 52 CFG=3
M  V30 57 1 15 53 CFG=3
M  V30 58 1 16 54 CFG=3
M  V30 59 1 55 17
M  V30 60 1 56 17
M  V30 61 1 57 18
M  V30 62 1 19 58 CFG=1
M  V30 63 1 20 59 CFG=1
M  V30 64 1 60 21
M  V30 65 1 61 21
M  V30 66 1 62 22
M  V30 67 1 63 22
M  V30 68 1 64 22
M  V30 69 1 23 65 CFG=3
M  V30 70 1 66 24
M  V30 71 1 67 24
M  V30 72 1 25 68 CFG=1
M  V30 73 1 69 26
M  V30 74 1 70 26
M  V30 75 1 28 71 CFG=3
M  V30 76 1 72 29
M  V30 77 1 73 29
M  V30 78 1 74 30
M  V30 79 1 75 31
M  V30 80 1 76 31
M  V30 81 1 32 77 CFG=1
M  V30 82 1 33 78 CFG=1
M  V30 83 1 79 34
M  V30 84 1 80 34
M  V30 85 1 35 81 CFG=3
M  V30 86 1 82 36
M  V30 87 1 83 2
M  V30 END BOND
M  V30 END CTAB
M  END
>  <i_epik_Tot_Q>  (1) 
0

>  <i_epik_Tot_abs_Q>  (1) 
2

>  <i_i_glide_confnum>  (1) 
1575

>  <i_i_glide_lignum>  (1) 
222

>  <i_i_glide_posenum>  (1) 
85

>  <i_i_glide_rotatable_bonds>  (1) 
10

>  <i_lp_mmshare_version>  (1) 
72125

>  <i_m_source_file_index>  (1) 
86

>  <i_f3d_flags>  (1) 
0

>  <num_sample>  (1) 
100

>  <b_lp_Chiralities_Consistent>  (1) 
1

>  <r_epik_Charging_Adjusted_Penalty>  (1) 
0.73371446279801333

>  <r_epik_Ionization_Penalty>  (1) 
0.028997413797582132

>  <r_epik_Ionization_Penalty_Charging>  (1) 
0.028997299906531444

>  <r_epik_Ionization_Penalty_Neutral>  (1) 
1.138910506862436e-07

>  <r_epik_State_Penalty>  (1) 
0.7047171628914819

>  <r_glide_ring_energy>  (1) 
2.2711301210520229

>  <r_i_docking_score>  (1) 
-6.7754135687566208

>  <r_i_glide_ecoul>  (1) 
0.15942240819778164

>  <r_i_glide_eff_state_penalty>  (1) 
0.7047171628914819

>  <r_i_glide_einternal>  (1) 
15.483309678050762

>  <r_i_glide_emodel>  (1) 
-29.621219089341487

>  <r_i_glide_emodel_strain>  (1) 
5.5757530992381135

>  <r_i_glide_energy>  (1) 
-34.914895469387368

>  <r_i_glide_erotb>  (1) 
0.49083612240102314

>  <r_i_glide_esite>  (1) 
0

>  <r_i_glide_evdw>  (1) 
-35.074317877585152

>  <r_i_glide_gscore>  (1) 
-7.4801307316481029

>  <r_i_glide_gscore_strain>  (1) 
0.39393827480952837

>  <r_i_glide_hbond>  (1) 
-0.077879015648990899

>  <r_i_glide_ligand_efficiency>  (1) 
-0.18820593246546169

>  <r_i_glide_ligand_efficiency_ln>  (1) 
-1.4782121901821612

>  <r_i_glide_ligand_efficiency_sa>  (1) 
-0.6214422968113299

>  <r_i_glide_lipo>  (1) 
-5.4512915731992182

>  <r_i_glide_metal>  (1) 
-0

>  <r_i_glide_rewards>  (1) 
-1.1059320073608552

>  <r_lp_Energy>  (1) 
61.998908

>  <s_epik_cmdline>  (1) 
J2VwaWtfcHl0aG9uJywgJy1waHQnLCAnMS4wJywgJy1waCcsICc3LjQnLCAnLXRuJywgJzgnLCAnLW1hJywgJzUwMCcsICctaW1hZScsICc8aW5maWxlLm1hZT4nLCAnLW9tYWUnLCAnPG91dGZpbGUubWFlPic=

>  <s_epik_input>  (1) 
W0NIM11bQ0BIXTFbQ0gyXVtDSDJdW0NIMl1bQ0BIXShDbClbQ0BIXTFbQ0BASF0oQyg9TylbT0hdKVtDSDJdW0NAQEhdMlNbQ0BASF0oW0NAQEhdKFtPSF0pW0NASF0yW09IXSlbQ0BASF0oW0NIMl1bQ0gyXTMpW0NASF0oW0NIMl1bQ0BIXTM0KVtDQEhdKFtDSDJdNClbTkhdW05IXVtDSF01W0NIMl1bQ0gyXVtDSDJdW0NIMl1bQ0gyXTU=

>  <s_glide_docking_method>  (1) 
confgen

>  <s_i_glide_gridfile>  (1) 
gpcr_5ht2c_6bqh_protein_autoprepared_prepared

>  <s_lp_Force_Field>  (1) 
S-OPLS

>  <s_lp_Variant>  (1) 
DiffSBDD_85_num_sample_100-3

>  <s_m_source_file>  (1) 
generated__ligand_DiffSBDD_2026-05-06_prepared.sdf

>  <GenAI_Model>  (1) 
DiffSBDD

>  <Protein>  (1) 
GPCR_5HT2C

$$$$
DiffSBDD_50_num_sample_100
     RDKit          3D

  0  0  0  0  0  0  0  0  0  0999 V3000
M  V30 BEGIN CTAB
M  V30 COUNTS 53 55 0 0 1
M  V30 BEGIN ATOM
M  V30 1 C 40.562706 29.747870 51.980260 0 CFG=1
M  V30 2 N 39.673825 28.611750 51.856310 0
M  V30 3 C 39.086308 30.726319 56.087678 0
M  V30 4 C 38.199554 31.251845 57.227776 0 CFG=1
M  V30 5 N 37.866642 28.257271 57.671371 0
M  V30 6 C 37.901141 25.846668 58.000627 0
M  V30 7 O 37.867963 33.398757 56.154034 0
M  V30 8 C 38.939107 25.221533 55.797434 0
M  V30 9 C 37.604916 29.217904 58.730485 0 CFG=1
M  V30 10 C 39.865996 27.143633 56.951862 0
M  V30 11 C 37.994560 25.018722 56.724336 0
M  V30 12 C 40.382304 30.705560 50.823299 0
M  V30 13 C 38.504750 28.869640 52.675742 0
M  V30 14 C 39.173349 29.455146 53.914419 0 CFG=1
M  V30 15 C 40.254756 30.365396 53.345087 0
M  V30 16 S 40.267347 29.622298 49.453548 0
M  V30 17 C 39.923399 26.258842 55.944749 0
M  V30 18 F 37.103453 24.029204 56.530206 0
M  V30 19 C 39.474536 28.319554 50.450680 0
M  V30 20 C 38.756743 27.153292 57.999542 0 CFG=1
M  V30 21 C 38.264845 30.170624 54.907235 0
M  V30 22 C 38.426614 30.514416 58.570755 0
M  V30 23 O 36.219458 29.472999 58.654013 0
M  V30 24 C 38.264543 32.784823 57.366042 0
M  V30 25 H 41.495848 29.222466 51.854809 0
M  V30 26 H 39.742443 31.522362 55.731468 0
M  V30 27 H 39.765160 29.959428 56.454117 0
M  V30 28 H 37.187282 31.020325 56.932777 0
M  V30 29 H 38.166419 28.732397 56.832603 0
M  V30 30 H 38.257642 25.211756 58.807755 0
M  V30 31 H 36.855364 26.045509 58.228097 0
M  V30 32 H 36.939876 33.214318 56.000774 0
M  V30 33 H 38.964467 24.588532 54.920972 0
M  V30 34 H 37.791834 28.781008 59.710201 0
M  V30 35 H 40.622545 27.910310 57.035529 0
M  V30 36 H 41.235387 31.357607 50.681992 0
M  V30 37 H 39.474340 31.301743 50.892753 0
M  V30 38 H 37.928700 27.964993 52.873904 0
M  V30 39 H 37.865729 29.604268 52.207099 0
M  V30 40 H 39.650256 28.630049 54.438012 0
M  V30 41 H 39.865225 31.375264 53.211217 0
M  V30 42 H 41.066656 30.426601 54.053182 0
M  V30 43 H 40.724221 26.328042 55.226190 0
M  V30 44 H 39.919733 27.343140 50.251896 0
M  V30 45 H 38.420471 28.258076 50.245878 0
M  V30 46 H 39.207329 27.299122 58.982321 0
M  V30 47 H 37.510316 29.466186 55.255952 0
M  V30 48 H 37.716804 30.979648 54.421106 0
M  V30 49 H 39.482593 30.291706 58.716766 0
M  V30 50 H 38.163304 31.177441 59.396624 0
M  V30 51 H 36.062857 30.259340 58.139923 0
M  V30 52 H 39.270515 33.112183 57.628214 0
M  V30 53 H 37.589622 33.125375 58.154021 0
M  V30 END ATOM
M  V30 BEGIN BOND
M  V30 1 1 2 1
M  V30 2 1 4 3
M  V30 3 1 9 5
M  V30 4 1 11 6
M  V30 5 2 11 8
M  V30 6 1 12 1
M  V30 7 1 13 2
M  V30 8 1 14 13
M  V30 9 1 15 1
M  V30 10 1 15 14
M  V30 11 1 16 12
M  V30 12 1 17 8
M  V30 13 2 17 10
M  V30 14 1 18 11
M  V30 15 1 19 2
M  V30 16 1 19 16
M  V30 17 1 20 5
M  V30 18 1 20 6
M  V30 19 1 20 10
M  V30 20 1 21 3
M  V30 21 1 21 14
M  V30 22 1 22 4
M  V30 23 1 22 9
M  V30 24 1 23 9
M  V30 25 1 24 4
M  V30 26 1 24 7
M  V30 27 1 1 25 CFG=1
M  V30 28 1 26 3
M  V30 29 1 27 3
M  V30 30 1 4 28 CFG=3
M  V30 31 1 29 5
M  V30 32 1 30 6
M  V30 33 1 31 6
M  V30 34 1 32 7
M  V30 35 1 33 8
M  V30 36 1 9 34 CFG=1
M  V30 37 1 35 10
M  V30 38 1 36 12
M  V30 39 1 37 12
M  V30 40 1 38 13
M  V30 41 1 39 13
M  V30 42 1 14 40 CFG=1
M  V30 43 1 41 15
M  V30 44 1 42 15
M  V30 45 1 43 17
M  V30 46 1 44 19
M  V30 47 1 45 19
M  V30 48 1 20 46 CFG=1
M  V30 49 1 47 21
M  V30 50 1 48 21
M  V30 51 1 49 22
M  V30 52 1 50 22
M  V30 53 1 51 23
M  V30 54 1 52 24
M  V30 55 1 53 24
M  V30 END BOND
M  V30 END CTAB
M  END
>  <i_epik_Tot_Q>  (1) 
0

>  <i_epik_Tot_abs_Q>  (1) 
0

>  <i_i_glide_confnum>  (1) 
1399

>  <i_i_glide_lignum>  (1) 
134

>  <i_i_glide_posenum>  (1) 
42

>  <i_i_glide_rotatable_bonds>  (1) 
10

>  <i_lp_mmshare_version>  (1) 
72125

>  <i_m_source_file_index>  (1) 
51

>  <i_f3d_flags>  (1) 
0

>  <num_sample>  (1) 
100

>  <b_lp_Chiralities_Consistent>  (1) 
1

>  <r_epik_Charging_Adjusted_Penalty>  (1) 
0.070623884543316251

>  <r_epik_Ionization_Penalty>  (1) 
0.082390450655877454

>  <r_epik_Ionization_Penalty_Charging>  (1) 
0

>  <r_epik_Ionization_Penalty_Neutral>  (1) 
0.082390450655877454

>  <r_epik_State_Penalty>  (1) 
0.070623884543316251

>  <r_glide_ring_energy>  (1) 
0.058048771700043092

>  <r_i_docking_score>  (1) 
-6.7749066334092394

>  <r_i_glide_ecoul>  (1) 
-5.7892452681336701

>  <r_i_glide_eff_state_penalty>  (1) 
0.070623884543316251

>  <r_i_glide_einternal>  (1) 
5.8322386264256423

>  <r_i_glide_emodel>  (1) 
-46.702943170462632

>  <r_i_glide_emodel_strain>  (1) 
3.4158184222949188

>  <r_i_glide_energy>  (1) 
-33.351659681046428

>  <r_i_glide_erotb>  (1) 
0.90323980524591641

>  <r_i_glide_esite>  (1) 
-0.00070490183920444364

>  <r_i_glide_evdw>  (1) 
-27.562414412912755

>  <r_i_glide_gscore>  (1) 
-6.8455305179525556

>  <r_i_glide_gscore_strain>  (1) 
0

>  <r_i_glide_hbond>  (1) 
-0.19417087626830917

>  <r_i_glide_ligand_efficiency>  (1) 
-0.28228777639205166

>  <r_i_glide_ligand_efficiency_ln>  (1) 
-1.6215460375830126

>  <r_i_glide_ligand_efficiency_sa>  (1) 
-0.81425884840894047

>  <r_i_glide_lipo>  (1) 
-3.5208385374224425

>  <r_i_glide_metal>  (1) 
-0

>  <r_i_glide_rewards>  (1) 
-1.7865484968028262

>  <r_lp_Energy>  (1) 
-4.9771999999999998

>  <s_epik_Chemistry_Notes>  (1) 
This compound contains an acetal/aminal-like group ( X-CH(R)-Y where X, Y are N, S, or O) that may be acid/base labile, releasing an aldehyde.

>  <s_epik_cmdline>  (1) 
J2VwaWtfcHl0aG9uJywgJy1waHQnLCAnMS4wJywgJy1waCcsICc3LjQnLCAnLXRuJywgJzgnLCAnLW1hJywgJzUwMCcsICctaW1hZScsICc8aW5maWxlLm1hZT4nLCAnLW9tYWUnLCAnPG91dGZpbGUubWFlPic=

>  <s_epik_input>  (1) 
W0NIMl0xU1tDSDJdTihbQ0BASF0xMilbQ0gyXVtDQEBIXShbQ0gyXTIpW0NIMl1bQ0gyXVtDQEhdKFtDSDJdW09IXSlbQ0gyXVtDQEBIXShbT0hdKVtOSF1bQ0BASF0oW0NIMl0zKVtDSF09W0NIXVtDSF09QzNG

>  <s_glide_docking_method>  (1) 
confgen

>  <s_i_glide_gridfile>  (1) 
gpcr_5ht2c_6bqh_protein_autoprepared_prepared

>  <s_lp_Force_Field>  (1) 
S-OPLS

>  <s_lp_Variant>  (1) 
DiffSBDD_50_num_sample_100-1

>  <s_m_source_file>  (1) 
generated__ligand_DiffSBDD_2026-05-06_prepared.sdf

>  <GenAI_Model>  (1) 
DiffSBDD

>  <Protein>  (1) 
GPCR_5HT2C

$$$$
DiffSBDD_80_num_sample_100
     RDKit          3D

  0  0  0  0  0  0  0  0  0  0999 V3000
M  V30 BEGIN CTAB
M  V30 COUNTS 73 76 0 0 1
M  V30 BEGIN ATOM
M  V30 1 C 37.967550 29.095043 58.798535 0
M  V30 2 C 38.473227 33.892997 60.507720 0
M  V30 3 N 39.333839 34.684611 61.419140 0 CFG=1 CHG=1
M  V30 4 O 39.240097 30.102801 56.322663 0
M  V30 5 O 37.067237 31.687397 61.851347 0
M  V30 6 O 36.667624 29.036676 58.253518 0
M  V30 7 C 41.264735 35.873111 63.257044 0 CFG=2
M  V30 8 C 39.952973 35.301246 63.763749 0 CFG=1
M  V30 9 C 39.867367 29.722999 51.453840 0
M  V30 10 C 38.848156 32.123252 55.198595 0
M  V30 11 O 38.082127 28.303078 54.956827 0
M  V30 12 C 38.667122 28.774102 53.819687 0
M  V30 13 O 39.466608 35.550191 67.071151 0
M  V30 14 C 39.982632 30.465189 52.640967 0
M  V30 15 C 39.279188 37.256870 65.384864 0
M  V30 16 C 38.551659 28.039271 52.626598 0
M  V30 17 O 37.867387 33.323215 57.046534 0
M  V30 18 C 41.245726 36.127978 61.743716 0
M  V30 19 O 39.067428 27.787287 50.304624 0
M  V30 20 C 38.939526 36.419588 64.147089 0
M  V30 21 C 39.160208 28.508610 51.448969 0
M  V30 22 C 38.427460 30.939096 57.132611 0 CFG=1
M  V30 23 C 38.885422 32.437036 60.373926 0 CFG=2
M  V30 24 C 38.574179 30.496384 58.607699 0 CFG=1
M  V30 25 C 39.509791 34.165185 62.784582 0
M  V30 26 C 38.820246 32.347613 56.697520 0 CFG=1
M  V30 27 C 39.956593 36.557002 66.567983 0
M  V30 28 C 37.986654 31.479802 59.605991 0 CFG=1
M  V30 29 C 37.815370 36.648518 63.442082 0
M  V30 30 C 42.748148 35.010480 64.933871 0
M  V30 31 C 38.190827 31.301301 61.093287 0 CFG=2
M  V30 32 C 39.582231 30.788689 55.123005 0 CFG=2
M  V30 33 C 39.399038 29.993319 53.832187 0
M  V30 34 C 40.667375 34.990053 60.915638 0
M  V30 35 O 42.267313 34.927869 63.595727 0
M  V30 36 H 38.579518 28.339625 58.304327 0
M  V30 37 H 37.932759 28.821372 59.852658 0
M  V30 38 H 38.490551 34.350433 59.518186 0
M  V30 39 H 37.438982 33.967311 60.842080 0
M  V30 40 H 36.420164 32.049935 61.262185 0
M  V30 41 H 36.251115 29.885374 58.330029 0
M  V30 42 H 41.485133 36.821399 63.718918 0
M  V30 43 H 40.267394 34.775382 64.662808 0
M  V30 44 H 40.326326 30.084403 50.545530 0
M  V30 45 H 38.594107 26.973989 50.403411 0
M  V30 46 H 39.354255 32.906454 54.653768 0
M  V30 47 H 37.833478 32.036355 54.803921 0
M  V30 48 H 38.303763 28.857330 55.699303 0
M  V30 49 H 40.536255 31.391471 52.642233 0
M  V30 50 H 39.867392 38.123044 65.090575 0
M  V30 51 H 38.335451 37.621417 65.782997 0
M  V30 52 H 38.001101 27.108599 52.617780 0
M  V30 53 H 37.008050 33.021833 56.757958 0
M  V30 54 H 42.267397 36.192361 61.453416 0
M  V30 55 H 40.754807 37.073640 61.507828 0
M  V30 56 H 37.402195 30.801189 56.794694 0
M  V30 57 H 39.956330 32.301230 60.253428 0
M  V30 58 H 39.632941 30.406399 58.837423 0
M  V30 59 H 38.667377 33.573652 63.053501 0
M  V30 60 H 40.284613 33.396177 62.787850 0
M  V30 61 H 39.807609 32.634563 57.057286 0
M  V30 62 H 40.881096 37.014709 66.917891 0
M  V30 63 H 37.010093 31.859264 59.306920 0
M  V30 64 H 37.130386 37.432017 63.733535 0
M  V30 65 H 37.563269 36.063686 62.575253 0
M  V30 66 H 43.599711 34.347264 65.053500 0
M  V30 67 H 43.067373 36.021851 65.166841 0
M  V30 68 H 42.031550 34.707834 65.693446 0
M  V30 69 H 38.776725 30.478698 61.499373 0
M  V30 70 H 40.651056 30.996439 55.198316 0
M  V30 71 H 41.312600 34.120822 61.053507 0
M  V30 72 H 40.633987 35.221901 59.854519 0
M  V30 73 H 38.862723 35.573268 61.505653 0
M  V30 END ATOM
M  V30 BEGIN BOND
M  V30 1 1 3 2
M  V30 2 1 6 1
M  V30 3 1 8 7
M  V30 4 1 12 11
M  V30 5 2 14 9
M  V30 6 1 16 12
M  V30 7 1 18 7
M  V30 8 1 20 8
M  V30 9 1 20 15
M  V30 10 1 21 9
M  V30 11 2 21 16
M  V30 12 1 21 19
M  V30 13 1 22 4
M  V30 14 1 23 2
M  V30 15 1 24 1
M  V30 16 1 24 22
M  V30 17 1 25 3
M  V30 18 1 25 8
M  V30 19 1 26 10
M  V30 20 1 26 17
M  V30 21 1 26 22
M  V30 22 2 27 13
M  V30 23 1 27 15
M  V30 24 1 28 23
M  V30 25 1 28 24
M  V30 26 2 29 20
M  V30 27 1 31 5
M  V30 28 1 31 23
M  V30 29 1 31 28
M  V30 30 1 32 4
M  V30 31 1 32 10
M  V30 32 2 33 12
M  V30 33 1 33 14
M  V30 34 1 33 32
M  V30 35 1 34 3
M  V30 36 1 34 18
M  V30 37 1 35 7
M  V30 38 1 35 30
M  V30 39 1 36 1
M  V30 40 1 37 1
M  V30 41 1 38 2
M  V30 42 1 39 2
M  V30 43 1 40 5
M  V30 44 1 41 6
M  V30 45 1 7 42 CFG=1
M  V30 46 1 8 43 CFG=1
M  V30 47 1 44 9
M  V30 48 1 45 19
M  V30 49 1 46 10
M  V30 50 1 47 10
M  V30 51 1 48 11
M  V30 52 1 49 14
M  V30 53 1 50 15
M  V30 54 1 51 15
M  V30 55 1 52 16
M  V30 56 1 53 17
M  V30 57 1 54 18
M  V30 58 1 55 18
M  V30 59 1 22 56 CFG=3
M  V30 60 1 23 57 CFG=3
M  V30 61 1 24 58 CFG=1
M  V30 62 1 59 25
M  V30 63 1 60 25
M  V30 64 1 26 61 CFG=1
M  V30 65 1 62 27
M  V30 66 1 28 63 CFG=1
M  V30 67 1 64 29
M  V30 68 1 65 29
M  V30 69 1 66 30
M  V30 70 1 67 30
M  V30 71 1 68 30
M  V30 72 1 31 69 CFG=3
M  V30 73 1 32 70 CFG=1
M  V30 74 1 71 34
M  V30 75 1 72 34
M  V30 76 1 3 73 CFG=1
M  V30 END BOND
M  V30 END CTAB
M  END
>  <i_epik_Tot_Q>  (1) 
1

>  <i_epik_Tot_abs_Q>  (1) 
1

>  <i_i_glide_confnum>  (1) 
841

>  <i_i_glide_lignum>  (1) 
212

>  <i_i_glide_posenum>  (1) 
3

>  <i_i_glide_rotatable_bonds>  (1) 
15

>  <i_lp_mmshare_version>  (1) 
72125

>  <i_m_source_file_index>  (1) 
81

>  <i_f3d_flags>  (1) 
0

>  <num_sample>  (1) 
100

>  <b_lp_Chiralities_Consistent>  (1) 
1

>  <r_epik_Charging_Adjusted_Penalty>  (1) 
0.034071705691259377

>  <r_epik_Ionization_Penalty>  (1) 
0.043305258844254187

>  <r_epik_Ionization_Penalty_Charging>  (1) 
0.034071705691259377

>  <r_epik_Ionization_Penalty_Neutral>  (1) 
0.009233553152994808

>  <r_epik_State_Penalty>  (1) 
-0

>  <r_glide_ring_energy>  (1) 
0

>  <r_i_docking_score>  (1) 
-6.7737960824088699

>  <r_i_glide_ecoul>  (1) 
-9.5668832845299328

>  <r_i_glide_eff_state_penalty>  (1) 
-0

>  <r_i_glide_einternal>  (1) 
7.8996332008936214

>  <r_i_glide_emodel>  (1) 
-48.636799321391592

>  <r_i_glide_emodel_strain>  (1) 
6.2621215991433274

>  <r_i_glide_energy>  (1) 
-37.788910453285467

>  <r_i_glide_erotb>  (1) 
0.67144220787932085

>  <r_i_glide_esite>  (1) 
0

>  <r_i_glide_evdw>  (1) 
-28.222027168755535

>  <r_i_glide_gscore>  (1) 
-6.7737960824088699

>  <r_i_glide_gscore_strain>  (1) 
0.56553039978583186

>  <r_i_glide_hbond>  (1) 
-0.5105876216732802

>  <r_i_glide_ligand_efficiency>  (1) 
-0.19353703092596772

>  <r_i_glide_ligand_efficiency_ln>  (1) 
-1.4869985763928903

>  <r_i_glide_ligand_efficiency_sa>  (1) 
-0.63307246163586028

>  <r_i_glide_lipo>  (1) 
-3.7524325138843069

>  <r_i_glide_metal>  (1) 
-0

>  <r_i_glide_rewards>  (1) 
-0.90161470339916838

>  <r_lp_Energy>  (1) 
34.886631000000001

>  <r_lp_tautomer_probability>  (1) 
1

>  <s_epik_cmdline>  (1) 
J2VwaWtfcHl0aG9uJywgJy1waHQnLCAnMS4wJywgJy1waCcsICc3LjQnLCAnLXRuJywgJzgnLCAnLW1hJywgJzUwMCcsICctaW1hZScsICc8aW5maWxlLm1hZT4nLCAnLW9tYWUnLCAnPG91dGZpbGUubWFlPic=

>  <s_epik_input>  (1) 
Tz1bQ0hdW0NIMl1DKD1bQ0gyXSlbQ0BASF0oW0NASF0oW0NIMl1bQ0gyXTEpT1tDSDNdKVtDSDJdTjFbQ0gyXVtDQEBIXTJbQ0BASF0oW0NAQEhdMltPSF0pW0NAQEhdKFtDSDJdW09IXSlbQ0BASF0zT1tDQEhdKFtDSDJdW0NASF0zW09IXSlDND1bQ0hdW0NIMl1DKD1PKVtDSF09QzRbT0hd

>  <s_glide_docking_method>  (1) 
confgen

>  <s_i_glide_gridfile>  (1) 
gpcr_5ht2c_6bqh_protein_autoprepared_prepared

>  <s_lp_Force_Field>  (1) 
S-OPLS

>  <s_lp_Variant>  (1) 
DiffSBDD_80_num_sample_100-8

>  <s_m_source_file>  (1) 
generated__ligand_DiffSBDD_2026-05-06_prepared.sdf

>  <GenAI_Model>  (1) 
DiffSBDD

>  <Protein>  (1) 
GPCR_5HT2C

$$$$
DiffSBDD_51_num_sample_100
     RDKit          3D

  0  0  0  0  0  0  0  0  0  0999 V3000
M  V30 BEGIN CTAB
M  V30 COUNTS 64 65 0 0 1
M  V30 BEGIN ATOM
M  V30 1 C 38.189057 27.010848 56.512052 0 CFG=1
M  V30 2 O 39.467425 27.940191 52.238235 0
M  V30 3 C 39.077523 25.013525 55.512614 0
M  V30 4 N 38.737120 27.312217 54.321138 0
M  V30 5 C 38.896412 30.784107 57.301032 0
M  V30 6 C 40.469931 28.759053 57.906402 0 CFG=2
M  V30 7 C 38.387508 24.201243 56.647634 0
M  V30 8 C 38.231607 26.256394 55.177628 0 CFG=2
M  V30 9 N 37.536343 30.764364 59.263976 0
M  V30 10 O 39.175411 29.549711 54.333016 0
M  V30 11 N 38.127219 31.440681 58.185272 0
M  V30 12 C 38.251945 28.540915 56.313818 0 CFG=2
M  V30 13 N 41.245924 28.023825 56.884336 0 CHG=1
M  V30 14 C 36.669627 31.385782 60.071254 0
M  V30 15 C 36.889713 35.298424 60.173659 0
M  V30 16 C 34.011283 33.877804 58.972758 0
M  V30 17 C 37.836776 25.011144 57.849083 0
M  V30 18 C 39.150445 33.693808 61.723468 0
M  V30 19 C 39.072276 27.080196 53.026413 0
M  V30 20 O 36.191467 30.835528 61.053522 0
M  V30 21 C 38.775014 28.525730 54.884513 0
M  V30 22 C 40.460152 27.976694 59.233018 0
M  V30 23 C 34.716168 32.865665 59.859479 0
M  V30 24 C 39.039175 29.244266 57.459661 0 CFG=2
M  V30 25 C 37.033038 33.834176 60.622860 0 CFG=1
M  V30 26 O 39.467398 31.361286 56.383735 0
M  V30 27 C 36.260510 32.832837 59.722198 0 CFG=1
M  V30 28 C 37.198464 26.336997 57.421923 0
M  V30 29 O 38.425594 33.544330 60.512211 0
M  V30 30 H 39.126762 26.813464 57.011567 0
M  V30 31 H 40.093292 25.281769 55.806929 0
M  V30 32 H 39.194277 24.380003 54.653299 0
M  V30 33 H 41.067288 29.621452 58.157971 0
M  V30 34 H 37.566599 23.626077 56.216066 0
M  V30 35 H 39.114501 23.505205 57.055273 0
M  V30 36 H 37.233991 25.976948 54.830021 0
M  V30 37 H 37.851899 29.812021 59.348854 0
M  V30 38 H 37.908491 32.427553 58.174781 0
M  V30 39 H 37.252699 28.970019 56.268564 0
M  V30 40 H 40.793407 27.150893 56.656524 0
M  V30 41 H 42.169702 27.825276 57.243530 0
M  V30 42 H 35.868197 35.654020 60.253805 0
M  V30 43 H 37.200906 35.421912 59.135787 0
M  V30 44 H 37.501201 35.962039 60.784209 0
M  V30 45 H 32.956695 33.639931 58.836216 0
M  V30 46 H 34.480481 34.021480 58.005411 0
M  V30 47 H 34.070872 34.821435 59.453417 0
M  V30 48 H 37.111073 24.420092 58.400436 0
M  V30 49 H 38.646599 25.221326 58.547377 0
M  V30 50 H 39.071373 34.706587 62.119077 0
M  V30 51 H 40.204846 33.483269 61.543730 0
M  V30 52 H 38.795350 32.993452 62.481178 0
M  V30 53 H 38.943220 26.023986 52.774695 0
M  V30 54 H 40.018221 28.566010 60.037694 0
M  V30 55 H 41.473985 27.724592 59.548492 0
M  V30 56 H 39.896220 27.048620 59.163992 0
M  V30 57 H 34.432515 33.027043 60.899824 0
M  V30 58 H 34.294156 31.899559 59.575322 0
M  V30 59 H 38.438204 28.892968 58.288480 0
M  V30 60 H 36.692369 33.723744 61.655281 0
M  V30 61 H 36.464644 33.075275 58.681131 0
M  V30 62 H 37.007422 26.990546 58.253497 0
M  V30 63 H 36.267399 26.133319 56.905280 0
M  V30 64 H 41.331647 28.587707 56.048511 0
M  V30 END ATOM
M  V30 BEGIN BOND
M  V30 1 1 7 3
M  V30 2 1 8 1
M  V30 3 1 8 3
M  V30 4 1 8 4
M  V30 5 1 11 5
M  V30 6 1 11 9
M  V30 7 1 12 1
M  V30 8 1 13 6
M  V30 9 1 14 9
M  V30 10 1 17 7
M  V30 11 2 19 2
M  V30 12 1 19 4
M  V30 13 2 20 14
M  V30 14 1 21 4
M  V30 15 2 21 10
M  V30 16 1 21 12
M  V30 17 1 22 6
M  V30 18 1 23 16
M  V30 19 1 24 5
M  V30 20 1 24 6
M  V30 21 1 24 12
M  V30 22 1 25 15
M  V30 23 2 26 5
M  V30 24 1 27 14
M  V30 25 1 27 23
M  V30 26 1 27 25
M  V30 27 1 28 1
M  V30 28 1 28 17
M  V30 29 1 29 18
M  V30 30 1 29 25
M  V30 31 1 1 30 CFG=1
M  V30 32 1 31 3
M  V30 33 1 32 3
M  V30 34 1 6 33 CFG=1
M  V30 35 1 34 7
M  V30 36 1 35 7
M  V30 37 1 8 36 CFG=3
M  V30 38 1 37 9
M  V30 39 1 38 11
M  V30 40 1 12 39 CFG=3
M  V30 41 1 40 13
M  V30 42 1 41 13
M  V30 43 1 42 15
M  V30 44 1 43 15
M  V30 45 1 44 15
M  V30 46 1 45 16
M  V30 47 1 46 16
M  V30 48 1 47 16
M  V30 49 1 48 17
M  V30 50 1 49 17
M  V30 51 1 50 18
M  V30 52 1 51 18
M  V30 53 1 52 18
M  V30 54 1 53 19
M  V30 55 1 54 22
M  V30 56 1 55 22
M  V30 57 1 56 22
M  V30 58 1 57 23
M  V30 59 1 58 23
M  V30 60 1 24 59 CFG=1
M  V30 61 1 25 60 CFG=1
M  V30 62 1 27 61 CFG=3
M  V30 63 1 62 28
M  V30 64 1 63 28
M  V30 65 1 64 13
M  V30 END BOND
M  V30 END CTAB
M  END
>  <i_epik_Tot_Q>  (1) 
1

>  <i_epik_Tot_abs_Q>  (1) 
1

>  <i_i_glide_confnum>  (1) 
69

>  <i_i_glide_lignum>  (1) 
136

>  <i_i_glide_posenum>  (1) 
233

>  <i_i_glide_rotatable_bonds>  (1) 
11

>  <i_lp_mmshare_version>  (1) 
72125

>  <i_m_source_file_index>  (1) 
52

>  <i_f3d_flags>  (1) 
0

>  <num_sample>  (1) 
100

>  <b_lp_Chiralities_Consistent>  (1) 
1

>  <r_epik_Charging_Adjusted_Penalty>  (1) 
0.019458142528331109

>  <r_epik_Ionization_Penalty>  (1) 
0.0099781937774174462

>  <r_epik_Ionization_Penalty_Charging>  (1) 
0.0097290712641655529

>  <r_epik_Ionization_Penalty_Neutral>  (1) 
0.00024912251325189406

>  <r_epik_State_Penalty>  (1) 
0.0097290712641655563

>  <r_glide_ring_energy>  (1) 
0

>  <r_i_docking_score>  (1) 
-6.7729944918453429

>  <r_i_glide_ecoul>  (1) 
-4.6513719829726305

>  <r_i_glide_eff_state_penalty>  (1) 
0.0097290712641655563

>  <r_i_glide_einternal>  (1) 
25.331999712514545

>  <r_i_glide_emodel>  (1) 
-45.153543872401841

>  <r_i_glide_emodel_strain>  (1) 
1.6674317860562269

>  <r_i_glide_energy>  (1) 
-36.552843688497873

>  <r_i_glide_erotb>  (1) 
0.81470354957181534

>  <r_i_glide_esite>  (1) 
-0.23201092382922159

>  <r_i_glide_evdw>  (1) 
-31.901471705525243

>  <r_i_glide_gscore>  (1) 
-6.7827235631095082

>  <r_i_glide_gscore_strain>  (1) 
0

>  <r_i_glide_hbond>  (1) 
-0.32000000000000001

>  <r_i_glide_ligand_efficiency>  (1) 
-0.23355153420156355

>  <r_i_glide_ligand_efficiency_ln>  (1) 
-1.5508439903111209

>  <r_i_glide_ligand_efficiency_sa>  (1) 
-0.71754430819220738

>  <r_i_glide_lipo>  (1) 
-2.7429590539286548

>  <r_i_glide_metal>  (1) 
-0

>  <r_i_glide_rewards>  (1) 
-2.0096777522012896

>  <r_lp_Energy>  (1) 
35.249798999999996

>  <r_lp_tautomer_probability>  (1) 
0.99995000000000001

>  <s_epik_cmdline>  (1) 
J2VwaWtfcHl0aG9uJywgJy1waHQnLCAnMS4wJywgJy1waCcsICc3LjQnLCAnLXRuJywgJzgnLCAnLW1hJywgJzUwMCcsICctaW1hZScsICc8aW5maWxlLm1hZT4nLCAnLW9tYWUnLCAnPG91dGZpbGUubWFlPic=

>  <s_epik_input>  (1) 
W0NIMl0xW0NIMl1bQ0gyXVtDSDJdW0NAQEhdKFtDQEhdMTIpTihbQ0hdPU8pQyg9TylbQ0BASF0yW0NAQEhdKFtDQEhdKFtOSDJdKVtDSDNdKUMoPU8pW05IXVtOSF1DKD1PKVtDQEBIXShbQ0gyXVtDSDNdKVtDQEhdKFtDSDNdKU9bQ0gzXQ==

>  <s_glide_docking_method>  (1) 
confgen

>  <s_i_glide_gridfile>  (1) 
gpcr_5ht2c_6bqh_protein_autoprepared_prepared

>  <s_lp_Force_Field>  (1) 
S-OPLS

>  <s_lp_Variant>  (1) 
DiffSBDD_51_num_sample_100-1

>  <s_m_source_file>  (1) 
generated__ligand_DiffSBDD_2026-05-06_prepared.sdf

>  <GenAI_Model>  (1) 
DiffSBDD

>  <Protein>  (1) 
GPCR_5HT2C

$$$$
DiffSBDD_77_num_sample_100
     RDKit          3D

  0  0  0  0  0  0  0  0  0  0999 V3000
M  V30 BEGIN CTAB
M  V30 COUNTS 77 79 0 0 1
M  V30 BEGIN ATOM
M  V30 1 C 41.129528 30.557253 66.383346 0
M  V30 2 F 43.915273 28.812246 64.741075 0
M  V30 3 C 40.633325 27.643098 56.957137 0
M  V30 4 C 40.804765 31.511861 65.400521 0
M  V30 5 C 39.391613 30.746089 53.377507 0
M  V30 6 C 39.503042 31.006912 61.935046 0
M  V30 7 C 37.375304 29.565910 58.262567 0
M  V30 8 C 38.559699 31.372668 59.515535 0 CFG=2
M  V30 9 O 38.411864 30.941858 55.848481 0
M  V30 10 C 39.946316 31.057820 51.967098 0
M  V30 11 N 39.723983 36.009343 61.843704 0
M  V30 12 C 41.170047 32.583989 63.124079 0
M  V30 13 C 42.905473 29.688375 64.954659 0
M  V30 14 O 40.097640 28.049884 60.089025 0
M  V30 15 C 39.287889 27.408389 59.123279 0
M  V30 16 C 41.528486 31.555018 64.189599 0
M  V30 17 F 42.489421 28.727077 67.105742 0
M  V30 18 C 39.798878 33.465777 60.306518 0
M  V30 19 O 39.865949 38.257617 61.853499 0
M  V30 20 O 37.138992 31.499610 61.453465 0
M  V30 21 C 42.178812 29.645270 66.160483 0
M  V30 22 C 39.682463 28.630721 51.398252 0
M  V30 23 N 39.102088 28.901544 55.085795 0
M  V30 24 C 39.069864 34.810931 62.332120 0
M  V30 25 C 42.581661 30.642099 63.970179 0
M  V30 26 C 39.427414 28.113564 57.782258 0
M  V30 27 C 39.352138 37.222268 62.254077 0
M  V30 28 C 39.461463 28.267443 52.785821 0
M  V30 29 C 38.741624 32.896111 59.368255 0
M  V30 30 F 39.677822 27.664751 50.469315 0
M  V30 31 C 39.375427 26.804989 53.184164 0
M  V30 32 C 39.727839 32.396426 62.584697 0 CFG=1
M  V30 33 C 38.689476 29.763035 56.058532 0
M  V30 34 N 37.454903 30.969112 58.656987 0
M  V30 35 C 38.541853 29.099907 57.380234 0
M  V30 36 C 39.322040 29.243721 53.714267 0
M  V30 37 C 39.888854 29.893738 51.009859 0
M  V30 38 C 38.306301 30.870117 60.961559 0 CFG=2
M  V30 39 N 39.271569 33.490466 61.687503 0 CFG=2 CHG=1
M  V30 40 H 40.572795 30.523916 67.308337 0
M  V30 41 H 41.400436 27.262356 57.633147 0
M  V30 42 H 40.366561 26.816837 56.299991 0
M  V30 43 H 41.135166 28.432634 56.400083 0
M  V30 44 H 39.999617 32.209211 65.574264 0
M  V30 45 H 38.389811 31.167856 53.453509 0
M  V30 46 H 40.031416 31.270595 54.087740 0
M  V30 47 H 40.404683 30.689491 61.410312 0
M  V30 48 H 39.377676 30.280148 62.739387 0
M  V30 49 H 36.467817 29.433462 57.671805 0
M  V30 50 H 37.211770 28.953190 59.138089 0
M  V30 51 H 39.467391 30.887019 59.161996 0
M  V30 52 H 41.002536 31.303574 52.043077 0
M  V30 53 H 39.467334 31.931135 51.531661 0
M  V30 54 H 40.471425 35.916671 61.172057 0
M  V30 55 H 41.891852 32.532884 62.307410 0
M  V30 56 H 41.295336 33.571066 63.568955 0
M  V30 57 H 40.429927 27.399759 60.691889 0
M  V30 58 H 39.637528 26.382416 59.004512 0
M  V30 59 H 38.268124 27.310434 59.480983 0
M  V30 60 H 40.667408 32.821487 60.262471 0
M  V30 61 H 40.104510 34.448011 59.949924 0
M  V30 62 H 36.503094 31.443181 60.747715 0
M  V30 63 H 39.205671 27.927769 55.327340 0
M  V30 64 H 37.996564 34.991346 62.253507 0
M  V30 65 H 39.311309 34.752061 63.392864 0
M  V30 66 H 43.140075 30.671610 63.050970 0
M  V30 67 H 38.534050 37.166455 62.989100 0
M  V30 68 H 39.043620 33.105356 58.340506 0
M  V30 69 H 37.794672 33.421096 59.508510 0
M  V30 70 H 39.741385 26.168685 52.379249 0
M  V30 71 H 39.993399 26.589624 54.054178 0
M  V30 72 H 38.344561 26.524111 53.401857 0
M  V30 73 H 39.067387 32.449978 63.449039 0
M  V30 74 H 37.351658 31.562286 57.830578 0
M  V30 75 H 40.049085 30.114469 49.964920 0
M  V30 76 H 38.105710 29.804728 60.904369 0
M  V30 77 H 38.313978 33.186547 61.538434 0
M  V30 END ATOM
M  V30 BEGIN BOND
M  V30 1 2 4 1
M  V30 2 1 10 5
M  V30 3 1 13 2
M  V30 4 1 15 14
M  V30 5 1 16 4
M  V30 6 1 16 12
M  V30 7 1 21 1
M  V30 8 2 21 13
M  V30 9 1 21 17
M  V30 10 1 24 11
M  V30 11 1 25 13
M  V30 12 2 25 16
M  V30 13 1 26 3
M  V30 14 1 26 15
M  V30 15 1 27 11
M  V30 16 2 27 19
M  V30 17 1 28 22
M  V30 18 1 29 8
M  V30 19 1 29 18
M  V30 20 1 30 22
M  V30 21 1 31 28
M  V30 22 1 32 6
M  V30 23 1 32 12
M  V30 24 2 33 9
M  V30 25 1 33 23
M  V30 26 1 34 7
M  V30 27 1 34 8
M  V30 28 1 35 7
M  V30 29 2 35 26
M  V30 30 1 35 33
M  V30 31 1 36 5
M  V30 32 1 36 23
M  V30 33 2 36 28
M  V30 34 1 37 10
M  V30 35 2 37 22
M  V30 36 1 38 6
M  V30 37 1 38 8
M  V30 38 1 38 20
M  V30 39 1 39 18
M  V30 40 1 39 24
M  V30 41 1 39 32
M  V30 42 1 40 1
M  V30 43 1 41 3
M  V30 44 1 42 3
M  V30 45 1 43 3
M  V30 46 1 44 4
M  V30 47 1 45 5
M  V30 48 1 46 5
M  V30 49 1 47 6
M  V30 50 1 48 6
M  V30 51 1 49 7
M  V30 52 1 50 7
M  V30 53 1 8 51 CFG=3
M  V30 54 1 52 10
M  V30 55 1 53 10
M  V30 56 1 54 11
M  V30 57 1 55 12
M  V30 58 1 56 12
M  V30 59 1 57 14
M  V30 60 1 58 15
M  V30 61 1 59 15
M  V30 62 1 60 18
M  V30 63 1 61 18
M  V30 64 1 62 20
M  V30 65 1 63 23
M  V30 66 1 64 24
M  V30 67 1 65 24
M  V30 68 1 66 25
M  V30 69 1 67 27
M  V30 70 1 68 29
M  V30 71 1 69 29
M  V30 72 1 70 31
M  V30 73 1 71 31
M  V30 74 1 72 31
M  V30 75 1 32 73 CFG=1
M  V30 76 1 74 34
M  V30 77 1 75 37
M  V30 78 1 38 76 CFG=3
M  V30 79 1 39 77 CFG=3
M  V30 END BOND
M  V30 END CTAB
M  END
>  <i_epik_Tot_Q>  (1) 
1

>  <i_epik_Tot_abs_Q>  (1) 
1

>  <i_i_glide_confnum>  (1) 
9666

>  <i_i_glide_lignum>  (1) 
197

>  <i_i_glide_posenum>  (1) 
122

>  <i_i_glide_rotatable_bonds>  (1) 
14

>  <i_lp_mmshare_version>  (1) 
72125

>  <i_m_source_file_index>  (1) 
78

>  <i_f3d_flags>  (1) 
0

>  <num_sample>  (1) 
100

>  <b_lp_Chiralities_Consistent>  (1) 
1

>  <r_epik_Charging_Adjusted_Penalty>  (1) 
1.2599673287133732

>  <r_epik_Ionization_Penalty>  (1) 
0.56885031527891383

>  <r_epik_Ionization_Penalty_Charging>  (1) 
0.52000942162343

>  <r_epik_Ionization_Penalty_Neutral>  (1) 
0.048840893655483872

>  <r_epik_State_Penalty>  (1) 
0.73995790708994325

>  <r_glide_ring_energy>  (1) 
0

>  <r_i_docking_score>  (1) 
-6.7706143161207146

>  <r_i_glide_ecoul>  (1) 
-2.4794711035269801

>  <r_i_glide_eff_state_penalty>  (1) 
0.73995790708994325

>  <r_i_glide_einternal>  (1) 
31.34802465036962

>  <r_i_glide_emodel>  (1) 
-50.188494718199273

>  <r_i_glide_emodel_strain>  (1) 
5.0883077783854844

>  <r_i_glide_energy>  (1) 
-44.814079480370928

>  <r_i_glide_erotb>  (1) 
0.67934156738045093

>  <r_i_glide_esite>  (1) 
0

>  <r_i_glide_evdw>  (1) 
-42.334608376843946

>  <r_i_glide_gscore>  (1) 
-7.5105722232106578

>  <r_i_glide_gscore_strain>  (1) 
0.27207694459637111

>  <r_i_glide_hbond>  (1) 
-0.35179028084274722

>  <r_i_glide_ligand_efficiency>  (1) 
-0.17360549528514652

>  <r_i_glide_ligand_efficiency_ln>  (1) 
-1.4518119046930023

>  <r_i_glide_ligand_efficiency_sa>  (1) 
-0.58873294218113092

>  <r_i_glide_lipo>  (1) 
-3.8653842471006072

>  <r_i_glide_metal>  (1) 
-0

>  <r_i_glide_rewards>  (1) 
-1.7561651228728801

>  <r_lp_Energy>  (1) 
45.825868999999997

>  <s_epik_Chemistry_Notes>  (1) 
This compound contains an acetal/aminal-like group ( X-CH(R)-Y where X, Y are N, S, or O) that may be acid/base labile, releasing an aldehyde.

>  <s_epik_cmdline>  (1) 
J2VwaWtfcHl0aG9uJywgJy1waHQnLCAnMS4wJywgJy1waCcsICc3LjQnLCAnLXRuJywgJzgnLCAnLW1hJywgJzUwMCcsICctaW1hZScsICc8aW5maWxlLm1hZT4nLCAnLW9tYWUnLCAnPG91dGZpbGUubWFlPic=

>  <s_epik_input>  (1) 
RmMxYyhGKVtjSF1bY0hdYyhbY0hdMSlbQ0gyXVtDQEhdKFtDSDJdW0NASF0yW09IXSlOKFtDSDJdW05IXVtDSF09TylbQ0gyXVtDSDJdW0NAQEhdMltOSF1bQ0gyXVxDKD1DKFxbQ0gzXSlbQ0gyXVtPSF0pQyg9TylbTkhdQyg9QzNbQ0gzXSlbQ0gyXVtDSDJdW0NIXT1DM0Y=

>  <s_glide_docking_method>  (1) 
confgen

>  <s_i_glide_gridfile>  (1) 
gpcr_5ht2c_6bqh_protein_autoprepared_prepared

>  <s_lp_Force_Field>  (1) 
S-OPLS

>  <s_lp_Variant>  (1) 
DiffSBDD_77_num_sample_100-8

>  <s_m_source_file>  (1) 
generated__ligand_DiffSBDD_2026-05-06_prepared.sdf

>  <GenAI_Model>  (1) 
DiffSBDD

>  <Protein>  (1) 
GPCR_5HT2C

$$$$
DiffSBDD_91_num_sample_100
     RDKit          3D

  0  0  0  0  0  0  0  0  0  0999 V3000
M  V30 BEGIN CTAB
M  V30 COUNTS 73 75 0 0 1
M  V30 BEGIN ATOM
M  V30 1 C 42.744590 32.731669 68.470798 0
M  V30 2 C 41.700977 34.708728 64.504783 0 CFG=1
M  V30 3 N 36.523429 33.284750 59.125969 0
M  V30 4 C 40.440477 32.747096 62.778400 0 CFG=2
M  V30 5 O 40.518498 31.783597 61.759436 0
M  V30 6 C 40.833987 35.158196 63.315042 0 CFG=2
M  V30 7 F 44.618567 31.440149 69.208042 0
M  V30 8 C 40.856853 34.111061 62.181053 0 CFG=2
M  V30 9 C 42.177987 32.776436 66.093472 0
M  V30 10 C 37.847861 31.637338 55.711108 0
M  V30 11 C 39.644843 30.747303 61.845418 0
M  V30 12 C 37.183975 32.106085 59.333301 0
M  V30 13 C 38.461015 28.576586 54.797603 0 CFG=1
M  V30 14 O 38.721945 30.662242 62.653682 0
M  V30 15 C 38.819085 31.137664 54.636420 0
M  V30 16 C 39.878778 34.490817 61.046064 0
M  V30 17 S 38.667405 32.514900 57.071637 0
M  V30 18 C 41.921194 33.184017 67.420934 0
M  V30 19 O 41.483359 35.621430 65.566832 0
M  V30 20 O 41.337443 36.382354 62.815152 0
M  V30 21 C 39.436806 29.764039 54.938522 0
M  V30 22 C 38.837135 29.440805 59.725061 0
M  V30 23 C 41.291576 33.283145 64.953566 0 CFG=2
M  V30 24 C 43.825625 31.871494 68.198517 0
M  V30 25 C 44.082468 31.460130 66.876754 0
M  V30 26 N 38.890410 30.421373 58.648104 0
M  V30 27 O 38.073403 28.439736 53.444558 0
M  V30 28 C 43.259743 31.910265 65.825181 0
M  V30 29 C 38.164476 31.619174 58.513763 0
M  V30 30 C 36.679786 31.516040 60.466885 0
M  V30 31 C 39.916491 29.647687 60.815701 0
M  V30 32 C 39.091051 27.253682 55.250499 0
M  V30 33 C 35.413319 33.564824 60.112547 0 CFG=2
M  V30 34 C 35.711141 32.268251 60.939322 0
M  V30 35 C 34.029790 33.549348 59.453534 0
M  V30 36 O 41.328490 32.418819 63.813951 0
M  V30 37 H 42.548022 33.046623 69.484763 0
M  V30 38 H 42.756028 34.714023 64.232105 0
M  V30 39 H 39.430469 32.821898 63.187037 0
M  V30 40 H 39.806731 35.316661 63.644797 0
M  V30 41 H 41.867169 34.010012 61.782426 0
M  V30 42 H 37.157944 32.340520 55.248997 0
M  V30 43 H 37.236690 30.824437 56.103358 0
M  V30 44 H 37.565093 28.751832 55.392379 0
M  V30 45 H 39.608863 31.875310 54.497689 0
M  V30 46 H 38.298338 31.088184 53.680659 0
M  V30 47 H 38.856697 34.578460 61.416165 0
M  V30 48 H 40.149282 35.446785 60.597093 0
M  V30 49 H 39.867529 33.753430 60.242749 0
M  V30 50 H 41.094942 33.847475 67.631855 0
M  V30 51 H 41.853090 36.467648 65.339865 0
M  V30 52 H 41.348203 37.023905 63.515092 0
M  V30 53 H 39.867941 29.776657 55.939493 0
M  V30 54 H 40.267404 29.621374 54.252752 0
M  V30 55 H 37.851985 29.154542 60.068126 0
M  V30 56 H 39.139128 28.522401 59.221254 0
M  V30 57 H 40.267405 33.283011 65.327946 0
M  V30 58 H 44.911972 30.800072 66.668600 0
M  V30 59 H 39.565942 30.219980 57.925597 0
M  V30 60 H 37.468320 27.716869 53.370588 0
M  V30 61 H 43.461494 31.594409 64.812515 0
M  V30 62 H 37.000042 30.603383 60.905623 0
M  V30 63 H 40.029465 28.718408 61.374573 0
M  V30 64 H 40.880306 29.832497 60.341245 0
M  V30 65 H 39.402057 27.308692 56.294059 0
M  V30 66 H 38.382561 26.429341 55.163959 0
M  V30 67 H 39.969549 27.002168 54.655415 0
M  V30 68 H 35.606626 34.466120 60.693524 0
M  V30 69 H 35.141793 32.033042 61.825661 0
M  V30 70 H 33.239725 33.621324 60.198240 0
M  V30 71 H 33.916323 34.382893 58.759708 0
M  V30 72 H 33.867640 32.626434 58.896353 0
M  V30 73 H 36.569650 33.779314 58.245217 0
M  V30 END ATOM
M  V30 BEGIN BOND
M  V30 1 1 5 4
M  V30 2 1 6 2
M  V30 3 1 8 4
M  V30 4 1 8 6
M  V30 5 1 11 5
M  V30 6 1 12 3
M  V30 7 2 14 11
M  V30 8 1 15 10
M  V30 9 1 16 8
M  V30 10 1 17 10
M  V30 11 2 18 1
M  V30 12 1 18 9
M  V30 13 1 19 2
M  V30 14 1 20 6
M  V30 15 1 21 13
M  V30 16 1 21 15
M  V30 17 1 23 2
M  V30 18 1 23 9
M  V30 19 1 24 1
M  V30 20 1 24 7
M  V30 21 2 25 24
M  V30 22 1 26 22
M  V30 23 1 27 13
M  V30 24 2 28 9
M  V30 25 1 28 25
M  V30 26 2 29 12
M  V30 27 1 29 17
M  V30 28 1 29 26
M  V30 29 1 30 12
M  V30 30 1 31 11
M  V30 31 1 31 22
M  V30 32 1 32 13
M  V30 33 1 33 3
M  V30 34 2 34 30
M  V30 35 1 34 33
M  V30 36 1 35 33
M  V30 37 1 36 4
M  V30 38 1 36 23
M  V30 39 1 37 1
M  V30 40 1 2 38 CFG=3
M  V30 41 1 4 39 CFG=1
M  V30 42 1 6 40 CFG=1
M  V30 43 1 8 41 CFG=3
M  V30 44 1 42 10
M  V30 45 1 43 10
M  V30 46 1 13 44 CFG=1
M  V30 47 1 45 15
M  V30 48 1 46 15
M  V30 49 1 47 16
M  V30 50 1 48 16
M  V30 51 1 49 16
M  V30 52 1 50 18
M  V30 53 1 51 19
M  V30 54 1 52 20
M  V30 55 1 53 21
M  V30 56 1 54 21
M  V30 57 1 55 22
M  V30 58 1 56 22
M  V30 59 1 23 57 CFG=1
M  V30 60 1 58 25
M  V30 61 1 59 26
M  V30 62 1 60 27
M  V30 63 1 61 28
M  V30 64 1 62 30
M  V30 65 1 63 31
M  V30 66 1 64 31
M  V30 67 1 65 32
M  V30 68 1 66 32
M  V30 69 1 67 32
M  V30 70 1 33 68 CFG=1
M  V30 71 1 69 34
M  V30 72 1 70 35
M  V30 73 1 71 35
M  V30 74 1 72 35
M  V30 75 1 73 3
M  V30 END BOND
M  V30 END CTAB
M  END
>  <i_epik_Tot_Q>  (1) 
0

>  <i_epik_Tot_abs_Q>  (1) 
0

>  <i_i_glide_confnum>  (1) 
3660

>  <i_i_glide_lignum>  (1) 
246

>  <i_i_glide_posenum>  (1) 
266

>  <i_i_glide_rotatable_bonds>  (1) 
15

>  <i_lp_mmshare_version>  (1) 
72125

>  <i_m_source_file_index>  (1) 
92

>  <i_f3d_flags>  (1) 
0

>  <num_sample>  (1) 
100

>  <b_lp_Chiralities_Consistent>  (1) 
1

>  <r_epik_Charging_Adjusted_Penalty>  (1) 
0.41626047813520761

>  <r_epik_Ionization_Penalty>  (1) 
0.0056919315549441929

>  <r_epik_Ionization_Penalty_Charging>  (1) 
0.0055806391826036302

>  <r_epik_Ionization_Penalty_Neutral>  (1) 
0.00011129237234056257

>  <r_epik_State_Penalty>  (1) 
0.41067983895260396

>  <r_glide_ring_energy>  (1) 
0

>  <r_i_docking_score>  (1) 
-6.7700315267130176

>  <r_i_glide_ecoul>  (1) 
-5.3724114548166266

>  <r_i_glide_eff_state_penalty>  (1) 
0.41067983895260396

>  <r_i_glide_einternal>  (1) 
10.133543634617514

>  <r_i_glide_emodel>  (1) 
-68.345135489061434

>  <r_i_glide_emodel_strain>  (1) 
2.3157988073975702

>  <r_i_glide_energy>  (1) 
-54.173612872146506

>  <r_i_glide_erotb>  (1) 
0.89707811728232589

>  <r_i_glide_esite>  (1) 
-0.090825665706468633

>  <r_i_glide_evdw>  (1) 
-48.801201417329878

>  <r_i_glide_gscore>  (1) 
-7.1807113656656218

>  <r_i_glide_gscore_strain>  (1) 
0

>  <r_i_glide_hbond>  (1) 
-0.60799999999999998

>  <r_i_glide_ligand_efficiency>  (1) 
-0.18805643129758381

>  <r_i_glide_ligand_efficiency_ln>  (1) 
-1.4770379740142192

>  <r_i_glide_ligand_efficiency_sa>  (1) 
-0.6209486548313724

>  <r_i_glide_lipo>  (1) 
-3.2354810118994877

>  <r_i_glide_metal>  (1) 
-0

>  <r_i_glide_rewards>  (1) 
-0.89756101625300433

>  <r_lp_Energy>  (1) 
23.896531

>  <r_lp_tautomer_probability>  (1) 
0.49957765584955821

>  <s_epik_Chemistry_Notes>  (1) 
This compound has an ester and may undergo hydrolysis at high or low pH. This compound has an imine and may undergo hydrolysis. This compound contains an acetal/aminal-like group ( X-CH(R)-Y where X, Y are N, S, or O) that may be acid/base labile, releasing an aldehyde.

>  <s_epik_cmdline>  (1) 
J2VwaWtfcHl0aG9uJywgJy1waHQnLCAnMS4wJywgJy1waCcsICc3LjQnLCAnLXRuJywgJzgnLCAnLW1hJywgJzUwMCcsICctaW1hZScsICc8aW5maWxlLm1hZT4nLCAnLW9tYWUnLCAnPG91dGZpbGUubWFlPic=

>  <s_epik_input>  (1) 
W2NIXTFbY0hdYyhGKVtjSF1bY0hdYzFbQ0BASF0yT1tDQEBIXShbQ0BASF0oW0NIM10pW0NASF0oW09IXSlbQ0BIXTJbT0hdKU9DKD1PKVtDSDJdW0NIMl1bTkhdW0NAQEhdKEMzPU5bQ0BASF0oW0NIM10pW0NIXT1bQ0hdMylTW0NIMl1bQ0gyXVtDSDJdW0NAQEhdKFtPSF0pW0NIM10=

>  <s_glide_docking_method>  (1) 
confgen

>  <s_i_glide_gridfile>  (1) 
gpcr_5ht2c_6bqh_protein_autoprepared_prepared

>  <s_lp_Force_Field>  (1) 
S-OPLS

>  <s_lp_Variant>  (1) 
DiffSBDD_91_num_sample_100-2

>  <s_m_source_file>  (1) 
generated__ligand_DiffSBDD_2026-05-06_prepared.sdf

>  <GenAI_Model>  (1) 
DiffSBDD

>  <Protein>  (1) 
GPCR_5HT2C

$$$$
DiffSBDD_30_num_sample_100
     RDKit          3D

  0  0  0  0  0  0  0  0  0  0999 V3000
M  V30 BEGIN CTAB
M  V30 COUNTS 70 73 0 0 1
M  V30 BEGIN ATOM
M  V30 1 C 41.306376 28.234185 58.628653 0
M  V30 2 C 38.483556 26.232289 55.735718 0 CFG=2
M  V30 3 O 40.658405 26.122160 57.853467 0
M  V30 4 C 40.267392 31.386442 63.730711 0
M  V30 5 C 41.411368 31.992799 64.277114 0
M  V30 6 N 38.912424 29.353087 57.417518 0
M  V30 7 C 41.011404 33.975487 62.917954 0
M  V30 8 C 39.397901 28.061452 56.936700 0 CFG=1
M  V30 9 O 37.867394 27.621479 52.477160 0
M  V30 10 O 36.667407 25.221427 56.978432 0
M  V30 11 C 38.803812 36.209529 62.763982 0
M  V30 12 C 37.324966 25.239497 55.938988 0
M  V30 13 C 37.026110 24.271776 54.803042 0
M  V30 14 C 39.308435 37.621422 62.653327 0
M  V30 15 C 37.588982 34.560362 61.373040 0 CFG=2
M  V30 16 C 38.249669 32.791244 56.752342 0
M  V30 17 N 37.867404 31.428821 57.150463 0 CHG=1
M  V30 18 C 37.830431 37.348905 62.870321 0
M  V30 19 C 37.674217 33.584700 59.151060 0 CFG=1
M  V30 20 C 41.783742 33.285161 63.870270 0
M  V30 21 C 36.916628 34.591530 60.021706 0
M  V30 22 N 38.693428 35.515808 61.466598 0 CFG=2 CHG=1
M  V30 23 C 39.486426 32.074095 62.779588 0
M  V30 24 C 38.481213 30.317063 56.413294 0
M  V30 25 C 39.849248 33.380148 62.369667 0
M  V30 26 C 37.524363 33.819988 57.644805 0
M  V30 27 C 37.723229 27.470486 53.868468 0
M  V30 28 C 40.112161 27.384120 58.149286 0 CFG=2
M  V30 29 C 39.030107 34.110061 61.339508 0 CFG=1
M  V30 30 O 38.376981 31.472387 62.252750 0
M  V30 31 S 39.400634 33.621408 59.669095 0
M  V30 32 O 38.267399 27.317311 56.599528 0
M  V30 33 O 38.654433 26.568420 54.381584 0
M  V30 34 H 40.996371 29.212193 58.996269 0
M  V30 35 H 41.832320 27.744617 59.450670 0
M  V30 36 H 42.028362 28.395135 57.827059 0
M  V30 37 H 39.386398 25.692654 56.001219 0
M  V30 38 H 41.418865 26.218739 57.294808 0
M  V30 39 H 39.984245 30.389968 64.041691 0
M  V30 40 H 42.005762 31.463591 65.007622 0
M  V30 41 H 38.135571 29.142742 58.037881 0
M  V30 42 H 41.309322 34.966374 62.605826 0
M  V30 43 H 40.060612 28.190054 56.078053 0
M  V30 44 H 37.405814 26.909682 52.047582 0
M  V30 45 H 39.038035 35.621462 63.645501 0
M  V30 46 H 36.818887 24.806939 53.876471 0
M  V30 47 H 37.881607 23.616863 54.653440 0
M  V30 48 H 36.160916 23.655738 55.047003 0
M  V30 49 H 39.867442 38.019046 63.498084 0
M  V30 50 H 39.617274 37.991770 61.677834 0
M  V30 51 H 36.961977 34.666769 62.253491 0
M  V30 52 H 37.980886 32.951940 55.706759 0
M  V30 53 H 39.332516 32.903619 56.828411 0
M  V30 54 H 38.097279 31.321526 58.124489 0
M  V30 55 H 37.156963 37.543300 62.036646 0
M  V30 56 H 37.417005 37.556346 63.853585 0
M  V30 57 H 37.290812 32.597377 59.412376 0
M  V30 58 H 42.665672 33.749116 64.287635 0
M  V30 59 H 36.949301 35.600158 59.604630 0
M  V30 60 H 35.866770 34.312228 60.117776 0
M  V30 61 H 37.717767 29.903842 55.758702 0
M  V30 62 H 39.322403 30.651024 55.803544 0
M  V30 63 H 36.457431 33.811701 57.453502 0
M  V30 64 H 37.867407 34.815981 57.374717 0
M  V30 65 H 36.689162 27.188394 54.066239 0
M  V30 66 H 37.904938 28.448806 54.298439 0
M  V30 67 H 39.390096 27.259109 58.957924 0
M  V30 68 H 38.000987 31.934119 61.522074 0
M  V30 69 H 36.844105 31.394343 57.053509 0
M  V30 70 H 38.814540 36.065225 60.628939 0
M  V30 END ATOM
M  V30 BEGIN BOND
M  V30 1 1 5 4
M  V30 2 1 8 6
M  V30 3 1 12 2
M  V30 4 2 12 10
M  V30 5 1 13 12
M  V30 6 1 14 11
M  V30 7 1 17 16
M  V30 8 1 18 11
M  V30 9 1 18 14
M  V30 10 2 20 5
M  V30 11 1 20 7
M  V30 12 1 21 15
M  V30 13 1 21 19
M  V30 14 1 22 11
M  V30 15 1 22 15
M  V30 16 2 23 4
M  V30 17 1 24 6
M  V30 18 1 24 17
M  V30 19 2 25 7
M  V30 20 1 25 23
M  V30 21 1 26 16
M  V30 22 1 26 19
M  V30 23 1 27 9
M  V30 24 1 28 1
M  V30 25 1 28 3
M  V30 26 1 28 8
M  V30 27 1 29 15
M  V30 28 1 29 22
M  V30 29 1 29 25 CFG=1
M  V30 30 1 30 23
M  V30 31 1 31 19
M  V30 32 1 31 29
M  V30 33 1 32 2
M  V30 34 1 32 8
M  V30 35 1 33 2
M  V30 36 1 33 27
M  V30 37 1 34 1
M  V30 38 1 35 1
M  V30 39 1 36 1
M  V30 40 1 2 37 CFG=1
M  V30 41 1 38 3
M  V30 42 1 39 4
M  V30 43 1 40 5
M  V30 44 1 41 6
M  V30 45 1 42 7
M  V30 46 1 8 43 CFG=3
M  V30 47 1 44 9
M  V30 48 1 45 11
M  V30 49 1 46 13
M  V30 50 1 47 13
M  V30 51 1 48 13
M  V30 52 1 49 14
M  V30 53 1 50 14
M  V30 54 1 15 51 CFG=1
M  V30 55 1 52 16
M  V30 56 1 53 16
M  V30 57 1 54 17
M  V30 58 1 55 18
M  V30 59 1 56 18
M  V30 60 1 19 57 CFG=3
M  V30 61 1 58 20
M  V30 62 1 59 21
M  V30 63 1 60 21
M  V30 64 1 61 24
M  V30 65 1 62 24
M  V30 66 1 63 26
M  V30 67 1 64 26
M  V30 68 1 65 27
M  V30 69 1 66 27
M  V30 70 1 28 67 CFG=1
M  V30 71 1 68 30
M  V30 72 1 69 17
M  V30 73 1 22 70 CFG=3
M  V30 END BOND
M  V30 END CTAB
M  END
>  <i_epik_Tot_Q>  (1) 
2

>  <i_epik_Tot_abs_Q>  (1) 
2

>  <i_i_glide_confnum>  (1) 
629

>  <i_i_glide_lignum>  (1) 
84

>  <i_i_glide_posenum>  (1) 
123

>  <i_i_glide_rotatable_bonds>  (1) 
17

>  <i_lp_mmshare_version>  (1) 
72125

>  <i_m_source_file_index>  (1) 
31

>  <i_f3d_flags>  (1) 
0

>  <num_sample>  (1) 
100

>  <b_lp_Chiralities_Consistent>  (1) 
1

>  <r_epik_Charging_Adjusted_Penalty>  (1) 
1.979093595035226

>  <r_epik_Ionization_Penalty>  (1) 
0.79989620662071081

>  <r_epik_Ionization_Penalty_Charging>  (1) 
0.66086891892205935

>  <r_epik_Ionization_Penalty_Neutral>  (1) 
0.13902728769865147

>  <r_epik_State_Penalty>  (1) 
1.3182246761131666

>  <r_glide_ring_energy>  (1) 
0

>  <r_i_docking_score>  (1) 
-6.7683933352007646

>  <r_i_glide_ecoul>  (1) 
-13.09465727644047

>  <r_i_glide_eff_state_penalty>  (1) 
1.3182246761131666

>  <r_i_glide_einternal>  (1) 
20.02612709717318

>  <r_i_glide_emodel>  (1) 
-66.569044140970774

>  <r_i_glide_emodel_strain>  (1) 
0.91632837089093755

>  <r_i_glide_energy>  (1) 
-48.577471562995925

>  <r_i_glide_erotb>  (1) 
1.1283805066766976

>  <r_i_glide_esite>  (1) 
-0.1396861373207082

>  <r_i_glide_evdw>  (1) 
-35.482814286555453

>  <r_i_glide_gscore>  (1) 
-8.0866180113139308

>  <r_i_glide_gscore_strain>  (1) 
0

>  <r_i_glide_hbond>  (1) 
-0.66663385554476629

>  <r_i_glide_ligand_efficiency>  (1) 
-0.20510282833941712

>  <r_i_glide_ligand_efficiency_ln>  (1) 
-1.5052556328835212

>  <r_i_glide_ligand_efficiency_sa>  (1) 
-0.65787436307792135

>  <r_i_glide_lipo>  (1) 
-2.6833559867509491

>  <r_i_glide_metal>  (1) 
-0

>  <r_i_glide_rewards>  (1) 
-1.986983232580362

>  <r_lp_Energy>  (1) 
25.051933999999999

>  <r_lp_tautomer_probability>  (1) 
0.99999996999736518

>  <s_epik_Chemistry_Notes>  (1) 
This compound contains an acetal/aminal-like group ( X-CH(R)-Y where X, Y are N, S, or O) that may be acid/base labile, releasing an aldehyde.

>  <s_epik_cmdline>  (1) 
J2VwaWtfcHl0aG9uJywgJy1waHQnLCAnMS4wJywgJy1waCcsICc3LjQnLCAnLXRuJywgJzgnLCAnLW1hJywgJzUwMCcsICctaW1hZScsICc8aW5maWxlLm1hZT4nLCAnLW9tYWUnLCAnPG91dGZpbGUubWFlPic=

>  <s_epik_input>  (1) 
W09IXVtDSDJdT1tDQEBIXShDKD1PKVtDSDNdKU9bQ0BIXShbQ0BIXShbQ0gzXSlbT0hdKVtOSF1bQ0gyXVtOSF1bQ0gyXVtDSDJdW0NAQEhdKFMxKVtDSDJdW0NASF0oTjJbQ0hdM1tDSDJdW0NIMl0zKVtDQEBdMTJjNFtjSF1bY0hdW2NIXVtjSF1jNFtPSF0=

>  <s_glide_docking_method>  (1) 
confgen

>  <s_i_glide_gridfile>  (1) 
gpcr_5ht2c_6bqh_protein_autoprepared_prepared

>  <s_lp_Force_Field>  (1) 
S-OPLS

>  <s_lp_Variant>  (1) 
DiffSBDD_30_num_sample_100-6

>  <s_m_source_file>  (1) 
generated__ligand_DiffSBDD_2026-05-06_prepared.sdf

>  <GenAI_Model>  (1) 
DiffSBDD

>  <Protein>  (1) 
GPCR_5HT2C

$$$$
DiffSBDD_97_num_sample_100
     RDKit          3D

  0  0  0  0  0  0  0  0  0  0999 V3000
M  V30 BEGIN CTAB
M  V30 COUNTS 74 78 0 0 1
M  V30 BEGIN ATOM
M  V30 1 C 38.889133 25.048281 56.563155 0
M  V30 2 C 37.744404 32.812274 59.002330 0
M  V30 3 C 37.501502 37.256365 60.748118 0
M  V30 4 S 37.144238 34.435732 59.497803 0 CHG=1
M  V30 5 C 40.908831 32.937986 62.653973 0
M  V30 6 C 35.919950 37.723283 63.034499 0
M  V30 7 C 37.007630 31.738364 59.822076 0 CFG=2
M  V30 8 C 39.193899 29.272261 56.078081 0
M  V30 9 C 35.483949 33.756161 59.700967 0
M  V30 10 C 39.173225 34.571158 61.562808 0 CFG=1
M  V30 11 N 42.203866 33.801318 64.705708 0 CHG=1
M  V30 12 N 39.069275 27.807983 56.243743 0 CFG=2 CHG=1
M  V30 13 C 37.067453 38.552871 61.053555 0
M  V30 14 C 36.936103 30.353515 59.141223 0
M  V30 15 C 40.027906 27.203668 57.211231 0 CFG=1
M  V30 16 C 35.611945 32.299348 60.185413 0
M  V30 17 N 39.532219 35.488693 62.655272 0
M  V30 18 C 39.529920 33.111316 61.986496 0
M  V30 19 O 42.667402 34.815328 65.204869 0
M  V30 20 C 40.887248 35.364156 63.171295 0
M  V30 21 O 42.606221 32.662554 64.919377 0 CHG=-1
M  V30 22 C 36.267411 38.785010 62.186998 0
M  V30 23 C 38.619332 28.439380 58.992925 0
M  V30 24 C 38.102932 29.949342 56.924710 0
M  V30 25 C 40.018944 27.961263 58.556529 0
M  V30 26 C 39.684262 25.732827 57.397858 0
M  V30 27 C 38.898585 27.020194 54.997415 0
M  V30 28 C 36.362840 36.423004 62.741656 0
M  V30 29 F 35.867403 40.032494 62.473938 0
M  V30 30 C 38.245220 29.848320 58.470906 0 CFG=1
M  V30 31 C 37.638161 34.759566 61.248455 0 CFG=1
M  V30 32 C 38.249527 25.661846 55.335181 0
M  V30 33 C 37.149934 36.180796 61.584755 0
M  V30 34 C 41.037796 33.962522 63.784681 0 CFG=1
M  V30 35 H 38.679121 24.007833 56.754689 0
M  V30 36 H 38.830357 32.752160 59.054374 0
M  V30 37 H 37.470479 32.712547 57.951778 0
M  V30 38 H 38.111635 37.085972 59.873880 0
M  V30 39 H 41.709002 33.081433 61.926437 0
M  V30 40 H 41.002838 31.921027 63.036881 0
M  V30 41 H 35.315204 37.905290 63.910623 0
M  V30 42 H 37.543911 31.598637 60.757694 0
M  V30 43 H 39.043713 29.549593 55.034021 0
M  V30 44 H 40.190199 29.627816 56.339151 0
M  V30 45 H 34.880529 34.373360 60.362760 0
M  V30 46 H 35.006906 33.764971 58.719655 0
M  V30 47 H 39.770828 34.866040 60.699139 0
M  V30 48 H 37.349550 39.377756 60.416828 0
M  V30 49 H 36.133792 30.363508 58.404598 0
M  V30 50 H 36.592962 29.632705 59.882793 0
M  V30 51 H 41.036191 27.241560 56.794766 0
M  V30 52 H 34.809126 31.703433 59.749089 0
M  V30 53 H 35.471396 32.249523 61.265906 0
M  V30 54 H 38.874421 35.402862 63.418555 0
M  V30 55 H 38.771402 32.737342 62.675152 0
M  V30 56 H 39.514028 32.451697 61.124793 0
M  V30 57 H 41.621627 35.538947 62.383742 0
M  V30 58 H 41.028894 36.141439 63.923337 0
M  V30 59 H 37.867402 27.710084 58.695284 0
M  V30 60 H 38.608375 28.463761 60.083747 0
M  V30 61 H 37.140016 29.536614 56.617411 0
M  V30 62 H 38.057842 31.000211 56.641898 0
M  V30 63 H 40.440054 27.317078 59.328101 0
M  V30 64 H 40.698307 28.813753 58.509698 0
M  V30 65 H 40.115455 25.235754 58.253993 0
M  V30 66 H 38.265661 27.549436 54.283667 0
M  V30 67 H 39.869655 26.880599 54.520864 0
M  V30 68 H 36.086841 35.621427 63.392367 0
M  V30 69 H 39.067574 30.494700 58.776640 0
M  V30 70 H 37.069358 34.058644 61.853500 0
M  V30 71 H 38.335692 24.974777 54.494288 0
M  V30 72 H 37.183992 25.788659 55.534227 0
M  V30 73 H 40.267409 33.785420 64.520209 0
M  V30 74 H 38.174179 27.709405 56.700966 0
M  V30 END ATOM
M  V30 BEGIN BOND
M  V30 1 1 4 2 CFG=1
M  V30 2 1 7 2
M  V30 3 1 9 4
M  V30 4 1 12 8
M  V30 5 1 13 3
M  V30 6 1 14 7
M  V30 7 1 15 12
M  V30 8 1 16 7
M  V30 9 1 16 9
M  V30 10 1 17 10
M  V30 11 1 18 5
M  V30 12 1 18 10
M  V30 13 2 19 11
M  V30 14 1 20 17
M  V30 15 1 21 11
M  V30 16 1 22 6
M  V30 17 2 22 13
M  V30 18 1 24 8
M  V30 19 1 25 15
M  V30 20 1 25 23
M  V30 21 2 26 1
M  V30 22 1 26 15
M  V30 23 1 27 12
M  V30 24 2 28 6
M  V30 25 1 29 22
M  V30 26 1 30 14
M  V30 27 1 30 23
M  V30 28 1 30 24
M  V30 29 1 31 4
M  V30 30 1 31 10
M  V30 31 1 32 1
M  V30 32 1 32 27
M  V30 33 2 33 3
M  V30 34 1 33 28
M  V30 35 1 33 31
M  V30 36 1 34 5
M  V30 37 1 34 11
M  V30 38 1 34 20
M  V30 39 1 35 1
M  V30 40 1 36 2
M  V30 41 1 37 2
M  V30 42 1 38 3
M  V30 43 1 39 5
M  V30 44 1 40 5
M  V30 45 1 41 6
M  V30 46 1 7 42 CFG=1
M  V30 47 1 43 8
M  V30 48 1 44 8
M  V30 49 1 45 9
M  V30 50 1 46 9
M  V30 51 1 10 47 CFG=3
M  V30 52 1 48 13
M  V30 53 1 49 14
M  V30 54 1 50 14
M  V30 55 1 15 51 CFG=3
M  V30 56 1 52 16
M  V30 57 1 53 16
M  V30 58 1 54 17
M  V30 59 1 55 18
M  V30 60 1 56 18
M  V30 61 1 57 20
M  V30 62 1 58 20
M  V30 63 1 59 23
M  V30 64 1 60 23
M  V30 65 1 61 24
M  V30 66 1 62 24
M  V30 67 1 63 25
M  V30 68 1 64 25
M  V30 69 1 65 26
M  V30 70 1 66 27
M  V30 71 1 67 27
M  V30 72 1 68 28
M  V30 73 1 30 69 CFG=1
M  V30 74 1 31 70 CFG=1
M  V30 75 1 71 32
M  V30 76 1 72 32
M  V30 77 1 34 73 CFG=1
M  V30 78 1 12 74 CFG=1
M  V30 END BOND
M  V30 END CTAB
M  END
>  <i_epik_Tot_Q>  (1) 
2

>  <i_epik_Tot_abs_Q>  (1) 
4

>  <i_i_glide_confnum>  (1) 
56

>  <i_i_glide_lignum>  (1) 
269

>  <i_i_glide_posenum>  (1) 
124

>  <i_i_glide_rotatable_bonds>  (1) 
6

>  <i_lp_mmshare_version>  (1) 
72125

>  <i_m_source_file_index>  (1) 
98

>  <i_f3d_flags>  (1) 
0

>  <num_sample>  (1) 
100

>  <b_lp_Chiralities_Consistent>  (1) 
1

>  <r_epik_Charging_Adjusted_Penalty>  (1) 
0.028424460748094963

>  <r_epik_Ionization_Penalty>  (1) 
0.031653010901111077

>  <r_epik_Ionization_Penalty_Charging>  (1) 
0.0018620536084809386

>  <r_epik_Ionization_Penalty_Neutral>  (1) 
0.029790957292630139

>  <r_epik_State_Penalty>  (1) 
0.026562407139614025

>  <r_glide_ring_energy>  (1) 
1.3700077463138101

>  <r_i_docking_score>  (1) 
-6.767681437459208

>  <r_i_glide_ecoul>  (1) 
-0.78949798639392554

>  <r_i_glide_eff_state_penalty>  (1) 
0.026562407139614025

>  <r_i_glide_einternal>  (1) 
14.276082454559216

>  <r_i_glide_emodel>  (1) 
-41.999830642448835

>  <r_i_glide_emodel_strain>  (1) 
1.8203037903222565

>  <r_i_glide_energy>  (1) 
-34.516365612523934

>  <r_i_glide_erotb>  (1) 
0.42420227184638803

>  <r_i_glide_esite>  (1) 
-0.033395769508001549

>  <r_i_glide_evdw>  (1) 
-33.726867626130009

>  <r_i_glide_gscore>  (1) 
-6.7942438445988218

>  <r_i_glide_gscore_strain>  (1) 
0

>  <r_i_glide_hbond>  (1) 
0

>  <r_i_glide_ligand_efficiency>  (1) 
-0.19904945404291788

>  <r_i_glide_ligand_efficiency_ln>  (1) 
-1.4951706565691896

>  <r_i_glide_ligand_efficiency_sa>  (1) 
-0.64484296035527688

>  <r_i_glide_lipo>  (1) 
-4.1529958327508085

>  <r_i_glide_metal>  (1) 
-0

>  <r_i_glide_rewards>  (1) 
-1.2272864349208101

>  <r_lp_Energy>  (1) 
45.469682999999996

>  <s_epik_cmdline>  (1) 
J2VwaWtfcHl0aG9uJywgJy1waHQnLCAnMS4wJywgJy1waCcsICc3LjQnLCAnLXRuJywgJzgnLCAnLW1hJywgJzUwMCcsICctaW1hZScsICc8aW5maWxlLm1hZT4nLCAnLW9tYWUnLCAnPG91dGZpbGUubWFlPic=

>  <s_epik_input>  (1) 
W0NIMl0xW0NIMl1bQ0hdPVtDSF1bQ0BASF0oTjEyKVtDSDJdW0NIMl1bQ0BASF0oW0NIMl1bQ0gyXTIpW0NIMl1bQ0BIXShbQ0gyXVtDSDJdMylbQ0gyXVtTK10zW0NASF0oYyhbY0hdW2NIXTQpW2NIXVtjSF1jNEYpW0NASF01W05IXVtDSDJdW0NASF0oW04rXSg9TylbTy1dKVtDSDJdW0NIMl01

>  <s_glide_docking_method>  (1) 
confgen

>  <s_i_glide_gridfile>  (1) 
gpcr_5ht2c_6bqh_protein_autoprepared_prepared

>  <s_lp_Force_Field>  (1) 
S-OPLS

>  <s_lp_Variant>  (1) 
DiffSBDD_97_num_sample_100-2

>  <s_m_source_file>  (1) 
generated__ligand_DiffSBDD_2026-05-06_prepared.sdf

>  <GenAI_Model>  (1) 
DiffSBDD

>  <Protein>  (1) 
GPCR_5HT2C

$$$$
DiffSBDD_2_num_sample_100
     RDKit          3D

  0  0  0  0  0  0  0  0  0  0999 V3000
M  V30 BEGIN CTAB
M  V30 COUNTS 52 52 0 0 1
M  V30 BEGIN ATOM
M  V30 1 C 37.959801 31.347779 55.878700 0
M  V30 2 C 38.804329 30.369162 59.997548 0
M  V30 3 O 36.706383 33.297512 61.086841 0
M  V30 4 O 35.867414 30.421414 59.053500 0
M  V30 5 C 38.121288 31.399626 60.910617 0
M  V30 6 F 39.978251 28.881916 50.958080 0
M  V30 7 C 39.210187 28.890137 52.072269 0
M  V30 8 C 39.234394 26.183582 57.350908 0
M  V30 9 O 38.306018 25.786258 58.052064 0
M  V30 10 C 39.685045 28.607197 56.717520 0
M  V30 11 C 38.135347 29.317150 54.253575 0
M  V30 12 S 39.467403 30.021414 53.339189 0
M  V30 13 C 40.668061 28.683261 59.656310 0
M  V30 14 O 34.739509 32.407021 59.453511 0
M  V30 15 O 39.316447 31.713117 56.015242 0
M  V30 16 N 38.242476 28.975084 56.726661 0 CHG=1
M  V30 17 C 37.022090 32.235708 60.210852 0 CFG=1
M  V30 18 C 39.644558 25.438948 56.088181 0
M  V30 19 C 40.018936 27.457470 57.702005 0 CFG=1
M  V30 20 O 39.698521 27.852667 59.029288 0
M  V30 21 C 35.691238 31.490944 59.950734 0
M  V30 22 C 38.185500 28.026346 52.290788 0
M  V30 23 C 39.949947 29.592222 60.663671 0
M  V30 24 C 37.554333 28.268537 53.554558 0
M  V30 25 C 37.750630 29.836054 55.617387 0 CFG=1
M  V30 26 H 37.499623 31.939083 55.084801 0
M  V30 27 H 37.467408 31.636848 56.806256 0
M  V30 28 H 38.074277 29.633505 59.671599 0
M  V30 29 H 39.161968 30.868746 59.098213 0
M  V30 30 H 35.895665 33.675457 60.770345 0
M  V30 31 H 35.745128 30.775351 58.170238 0
M  V30 32 H 38.891039 32.078403 61.281165 0
M  V30 33 H 37.711838 30.902034 61.790440 0
M  V30 34 H 40.267403 29.495727 56.944337 0
M  V30 35 H 39.997704 28.294244 55.722031 0
M  V30 36 H 41.207126 29.301368 58.938692 0
M  V30 37 H 41.413785 28.061021 60.153006 0
M  V30 38 H 34.897661 32.497546 58.514832 0
M  V30 39 H 39.363620 32.654337 56.101333 0
M  V30 40 H 37.710452 28.117637 56.688715 0
M  V30 41 H 37.404816 32.662976 59.282406 0
M  V30 42 H 40.691517 25.622948 55.851623 0
M  V30 43 H 39.503503 24.368689 56.226877 0
M  V30 44 H 39.035073 25.761365 55.244125 0
M  V30 45 H 41.081161 27.213176 57.649438 0
M  V30 46 H 35.315548 31.086907 60.891975 0
M  V30 47 H 37.867659 27.246357 51.613617 0
M  V30 48 H 40.667332 30.284846 61.104498 0
M  V30 49 H 39.553114 28.991105 61.483349 0
M  V30 50 H 36.719922 27.678312 53.905066 0
M  V30 51 H 36.667421 29.725417 55.673040 0
M  V30 52 H 38.027434 29.426553 57.605538 0
M  V30 END ATOM
M  V30 BEGIN BOND
M  V30 1 1 5 2
M  V30 2 1 7 6
M  V30 3 2 9 8
M  V30 4 1 12 7
M  V30 5 1 12 11
M  V30 6 1 15 1
M  V30 7 1 16 10
M  V30 8 1 17 3
M  V30 9 1 17 5
M  V30 10 1 18 8
M  V30 11 1 19 8
M  V30 12 1 19 10
M  V30 13 1 20 13
M  V30 14 1 20 19
M  V30 15 1 21 4
M  V30 16 1 21 14
M  V30 17 1 21 17
M  V30 18 2 22 7
M  V30 19 1 23 2
M  V30 20 1 23 13
M  V30 21 2 24 11
M  V30 22 1 24 22
M  V30 23 1 25 1
M  V30 24 1 25 11
M  V30 25 1 25 16
M  V30 26 1 26 1
M  V30 27 1 27 1
M  V30 28 1 28 2
M  V30 29 1 29 2
M  V30 30 1 30 3
M  V30 31 1 31 4
M  V30 32 1 32 5
M  V30 33 1 33 5
M  V30 34 1 34 10
M  V30 35 1 35 10
M  V30 36 1 36 13
M  V30 37 1 37 13
M  V30 38 1 38 14
M  V30 39 1 39 15
M  V30 40 1 40 16
M  V30 41 1 17 41 CFG=3
M  V30 42 1 42 18
M  V30 43 1 43 18
M  V30 44 1 44 18
M  V30 45 1 19 45 CFG=1
M  V30 46 1 46 21
M  V30 47 1 47 22
M  V30 48 1 48 23
M  V30 49 1 49 23
M  V30 50 1 50 24
M  V30 51 1 25 51 CFG=3
M  V30 52 1 52 16
M  V30 END BOND
M  V30 END CTAB
M  END
>  <i_epik_Tot_Q>  (1) 
1

>  <i_epik_Tot_abs_Q>  (1) 
1

>  <i_i_glide_confnum>  (1) 
1110

>  <i_i_glide_lignum>  (1) 
20

>  <i_i_glide_posenum>  (1) 
232

>  <i_i_glide_rotatable_bonds>  (1) 
17

>  <i_lp_mmshare_version>  (1) 
72125

>  <i_m_source_file_index>  (1) 
3

>  <i_f3d_flags>  (1) 
0

>  <num_sample>  (1) 
100

>  <b_lp_Chiralities_Consistent>  (1) 
1

>  <r_epik_Charging_Adjusted_Penalty>  (1) 
1.2755826654989224

>  <r_epik_Ionization_Penalty>  (1) 
0.63780895661999681

>  <r_epik_Ionization_Penalty_Charging>  (1) 
0.6377913327494612

>  <r_epik_Ionization_Penalty_Neutral>  (1) 
1.7623870535632096e-05

>  <r_epik_State_Penalty>  (1) 
0.6377913327494612

>  <r_glide_ring_energy>  (1) 
0

>  <r_i_docking_score>  (1) 
-6.766541502964313

>  <r_i_glide_ecoul>  (1) 
-11.065305504564368

>  <r_i_glide_eff_state_penalty>  (1) 
0.6377913327494612

>  <r_i_glide_einternal>  (1) 
10.862629114348906

>  <r_i_glide_emodel>  (1) 
-71.265216199441241

>  <r_i_glide_emodel_strain>  (1) 
1.3732495800631348

>  <r_i_glide_energy>  (1) 
-50.45481496678228

>  <r_i_glide_erotb>  (1) 
1.4743289393995902

>  <r_i_glide_esite>  (1) 
-0.089608415852625384

>  <r_i_glide_evdw>  (1) 
-39.389509462217916

>  <r_i_glide_gscore>  (1) 
-7.4043328357137739

>  <r_i_glide_gscore_strain>  (1) 
0

>  <r_i_glide_hbond>  (1) 
-0.30399999999999999

>  <r_i_glide_ligand_efficiency>  (1) 
-0.27066166011857251

>  <r_i_glide_ligand_efficiency_ln>  (1) 
-1.6038731130882957

>  <r_i_glide_ligand_efficiency_sa>  (1) 
-0.79141949524084798

>  <r_i_glide_lipo>  (1) 
-2.7957799362349753

>  <r_i_glide_metal>  (1) 
-0

>  <r_i_glide_rewards>  (1) 
-2.0600021242302118

>  <r_lp_Energy>  (1) 
15.151610999999999

>  <r_lp_tautomer_probability>  (1) 
0.9999999700000004

>  <s_epik_Chemistry_Notes>  (1) 
This compound contains an acetal/aminal-like group ( X-CH(R)-Y where X, Y are N, S, or O) that may be acid/base labile, releasing an aldehyde.

>  <s_epik_cmdline>  (1) 
J2VwaWtfcHl0aG9uJywgJy1waHQnLCAnMS4wJywgJy1waCcsICc3LjQnLCAnLXRuJywgJzgnLCAnLW1hJywgJzUwMCcsICctaW1hZScsICc8aW5maWxlLm1hZT4nLCAnLW9tYWUnLCAnPG91dGZpbGUubWFlPic=

>  <s_epik_input>  (1) 
RmMxc2MoW2NIXVtjSF0xKVtDQEhdKFtDSDJdW09IXSlbTkhdW0NIMl1bQ0BIXShDKD1PKVtDSDNdKU9bQ0gyXVtDSDJdW0NIMl1bQ0gyXVtDQEhdKFtPSF0pW0NIXShbT0hdKVtPSF0=

>  <s_glide_docking_method>  (1) 
confgen

>  <s_i_glide_gridfile>  (1) 
gpcr_5ht2c_6bqh_protein_autoprepared_prepared

>  <s_lp_Force_Field>  (1) 
S-OPLS

>  <s_lp_Variant>  (1) 
DiffSBDD_2_num_sample_100-2

>  <s_m_source_file>  (1) 
generated__ligand_DiffSBDD_2026-05-06_prepared.sdf

>  <GenAI_Model>  (1) 
DiffSBDD

>  <Protein>  (1) 
GPCR_5HT2C

$$$$
DiffSBDD_97_num_sample_100
     RDKit          3D

  0  0  0  0  0  0  0  0  0  0999 V3000
M  V30 BEGIN CTAB
M  V30 COUNTS 74 78 0 0 1
M  V30 BEGIN ATOM
M  V30 1 C 39.867404 29.642765 51.889726 0
M  V30 2 C 38.763109 28.966611 59.834193 0
M  V30 3 C 39.937816 30.705298 64.105900 0
M  V30 4 S 39.495586 29.194374 61.467629 0 CHG=1
M  V30 5 C 38.736009 34.310987 60.246248 0
M  V30 6 C 42.202841 32.325981 64.496403 0
M  V30 7 C 39.881044 28.908143 58.777274 0 CFG=2
M  V30 8 C 38.816865 27.396708 54.445128 0
M  V30 9 C 40.948241 28.267075 60.964030 0
M  V30 10 C 39.127482 31.955673 61.004087 0 CFG=1
M  V30 11 N 36.368891 35.010383 59.904062 0 CHG=1
M  V30 12 N 38.054988 28.447797 53.720228 0 CFG=1 CHG=1
M  V30 13 C 40.385012 30.989455 65.408943 0
M  V30 14 C 39.599719 27.918573 57.627690 0
M  V30 15 C 38.480077 29.860056 53.988347 0 CFG=1
M  V30 16 C 41.208982 28.571232 59.482634 0
M  V30 17 N 37.836043 31.937682 61.693941 0
M  V30 18 C 39.658086 33.399234 61.055358 0
M  V30 19 O 36.577332 36.218272 59.843551 0
M  V30 20 C 36.864998 32.706809 60.908033 0
M  V30 21 O 35.467415 34.421437 59.318287 0 CHG=-1
M  V30 22 C 41.514840 31.800371 65.604071 0
M  V30 23 C 37.923000 29.539082 56.473350 0
M  V30 24 C 38.114151 27.037817 55.764628 0
M  V30 25 C 38.899810 30.127063 55.443723 0
M  V30 26 C 39.557469 30.310941 53.012238 0
M  V30 27 C 37.880441 28.157968 52.271839 0
M  V30 28 C 41.763038 32.037947 63.186068 0
M  V30 29 F 41.940601 32.077244 66.858676 0
M  V30 30 C 38.244380 28.082721 56.899552 0 CFG=1
M  V30 31 C 40.131228 30.916091 61.563847 0 CFG=1
M  V30 32 C 39.179883 28.364340 51.469293 0
M  V30 33 C 40.623813 31.225559 62.987151 0
M  V30 34 C 37.292036 34.194016 60.763559 0 CFG=1
M  V30 35 H 40.646404 30.014728 51.239333 0
M  V30 36 H 37.991123 29.705297 59.621065 0
M  V30 37 H 38.267404 27.997758 59.874198 0
M  V30 38 H 39.067401 30.089862 63.966671 0
M  V30 39 H 38.769989 34.021406 59.195015 0
M  V30 40 H 39.084218 35.342974 60.300470 0
M  V30 41 H 43.067361 32.951230 64.653509 0
M  V30 42 H 39.984182 29.904977 58.350084 0
M  V30 43 H 39.858163 27.677614 54.600952 0
M  V30 44 H 38.851472 26.488467 53.841414 0
M  V30 45 H 41.803922 28.439420 61.616745 0
M  V30 46 H 40.667400 27.221430 61.055643 0
M  V30 47 H 38.960700 31.698512 59.957868 0
M  V30 48 H 39.855947 30.586938 66.260635 0
M  V30 49 H 39.651172 26.904326 58.027329 0
M  V30 50 H 40.417391 27.982348 56.908688 0
M  V30 51 H 37.608091 30.487226 53.805727 0
M  V30 52 H 41.735270 27.737808 59.014127 0
M  V30 53 H 41.867400 29.427981 59.376597 0
M  V30 54 H 37.953827 32.380182 62.596234 0
M  V30 55 H 39.721854 33.758048 62.084052 0
M  V30 56 H 40.667398 33.443856 60.653507 0
M  V30 57 H 36.745569 32.243738 59.926520 0
M  V30 58 H 35.892176 32.650768 61.398129 0
M  V30 59 H 37.923831 30.184211 57.350502 0
M  V30 60 H 36.902208 29.621433 56.098178 0
M  V30 61 H 38.513708 26.086951 56.120079 0
M  V30 62 H 37.067406 26.821434 55.558428 0
M  V30 63 H 39.919379 29.791177 55.628582 0
M  V30 64 H 38.932988 31.208422 55.583581 0
M  V30 65 H 40.086224 31.221439 53.256178 0
M  V30 66 H 37.500373 27.148138 52.139730 0
M  V30 67 H 37.107898 28.821409 51.884930 0
M  V30 68 H 42.295298 32.444126 62.338262 0
M  V30 69 H 37.476885 27.814049 57.626163 0
M  V30 70 H 41.003144 30.963953 60.913453 0
M  V30 71 H 38.961076 28.399990 50.401121 0
M  V30 72 H 39.867388 27.533310 51.626429 0
M  V30 73 H 37.223812 34.675525 61.739638 0
M  V30 74 H 37.125748 28.378154 54.109887 0
M  V30 END ATOM
M  V30 BEGIN BOND
M  V30 1 1 4 2 CFG=3
M  V30 2 1 7 2
M  V30 3 1 9 4
M  V30 4 1 12 8
M  V30 5 1 13 3
M  V30 6 1 14 7
M  V30 7 1 15 12
M  V30 8 1 16 7
M  V30 9 1 16 9
M  V30 10 1 17 10
M  V30 11 1 18 5
M  V30 12 1 18 10
M  V30 13 2 19 11
M  V30 14 1 20 17
M  V30 15 1 21 11
M  V30 16 1 22 6
M  V30 17 2 22 13
M  V30 18 1 24 8
M  V30 19 1 25 15
M  V30 20 1 25 23
M  V30 21 2 26 1
M  V30 22 1 26 15
M  V30 23 1 27 12
M  V30 24 2 28 6
M  V30 25 1 29 22
M  V30 26 1 30 14
M  V30 27 1 30 23
M  V30 28 1 30 24
M  V30 29 1 31 4
M  V30 30 1 31 10
M  V30 31 1 32 1
M  V30 32 1 32 27
M  V30 33 2 33 3
M  V30 34 1 33 28
M  V30 35 1 33 31
M  V30 36 1 34 5
M  V30 37 1 34 11
M  V30 38 1 34 20
M  V30 39 1 35 1
M  V30 40 1 36 2
M  V30 41 1 37 2
M  V30 42 1 38 3
M  V30 43 1 39 5
M  V30 44 1 40 5
M  V30 45 1 41 6
M  V30 46 1 7 42 CFG=3
M  V30 47 1 43 8
M  V30 48 1 44 8
M  V30 49 1 45 9
M  V30 50 1 46 9
M  V30 51 1 10 47 CFG=3
M  V30 52 1 48 13
M  V30 53 1 49 14
M  V30 54 1 50 14
M  V30 55 1 15 51 CFG=3
M  V30 56 1 52 16
M  V30 57 1 53 16
M  V30 58 1 54 17
M  V30 59 1 55 18
M  V30 60 1 56 18
M  V30 61 1 57 20
M  V30 62 1 58 20
M  V30 63 1 59 23
M  V30 64 1 60 23
M  V30 65 1 61 24
M  V30 66 1 62 24
M  V30 67 1 63 25
M  V30 68 1 64 25
M  V30 69 1 65 26
M  V30 70 1 66 27
M  V30 71 1 67 27
M  V30 72 1 68 28
M  V30 73 1 30 69 CFG=1
M  V30 74 1 31 70 CFG=3
M  V30 75 1 71 32
M  V30 76 1 72 32
M  V30 77 1 34 73 CFG=1
M  V30 78 1 12 74 CFG=1
M  V30 END BOND
M  V30 END CTAB
M  END
>  <i_epik_Tot_Q>  (1) 
2

>  <i_epik_Tot_abs_Q>  (1) 
4

>  <i_i_glide_confnum>  (1) 
9

>  <i_i_glide_lignum>  (1) 
268

>  <i_i_glide_posenum>  (1) 
216

>  <i_i_glide_rotatable_bonds>  (1) 
6

>  <i_lp_mmshare_version>  (1) 
72125

>  <i_m_source_file_index>  (1) 
98

>  <i_f3d_flags>  (1) 
0

>  <num_sample>  (1) 
100

>  <b_lp_Chiralities_Consistent>  (1) 
1

>  <r_epik_Charging_Adjusted_Penalty>  (1) 
0.028424460748094963

>  <r_epik_Ionization_Penalty>  (1) 
0.031653010901111077

>  <r_epik_Ionization_Penalty_Charging>  (1) 
0.0018620536084809386

>  <r_epik_Ionization_Penalty_Neutral>  (1) 
0.029790957292630139

>  <r_epik_State_Penalty>  (1) 
0.026562407139614025

>  <r_glide_ring_energy>  (1) 
1.3700077463138134

>  <r_i_docking_score>  (1) 
-6.7638194183852391

>  <r_i_glide_ecoul>  (1) 
-0.21591693467680284

>  <r_i_glide_eff_state_penalty>  (1) 
0.026562407139614025

>  <r_i_glide_einternal>  (1) 
14.881581307691734

>  <r_i_glide_emodel>  (1) 
-43.984126326591564

>  <r_i_glide_emodel_strain>  (1) 
1.0530079657064562

>  <r_i_glide_energy>  (1) 
-39.88534534470913

>  <r_i_glide_erotb>  (1) 
0.42420227184638803

>  <r_i_glide_esite>  (1) 
-0.012218035636134612

>  <r_i_glide_evdw>  (1) 
-39.669428410032324

>  <r_i_glide_gscore>  (1) 
-6.7903818255248529

>  <r_i_glide_gscore_strain>  (1) 
0

>  <r_i_glide_hbond>  (1) 
0

>  <r_i_glide_ligand_efficiency>  (1) 
-0.19893586524662468

>  <r_i_glide_ligand_efficiency_ln>  (1) 
-1.4943174282297842

>  <r_i_glide_ligand_efficiency_sa>  (1) 
-0.64447497675031251

>  <r_i_glide_lipo>  (1) 
-4.2091371959770578

>  <r_i_glide_metal>  (1) 
-0

>  <r_i_glide_rewards>  (1) 
-0.97736990505491161

>  <r_lp_Energy>  (1) 
45.035862999999999

>  <s_epik_cmdline>  (1) 
J2VwaWtfcHl0aG9uJywgJy1waHQnLCAnMS4wJywgJy1waCcsICc3LjQnLCAnLXRuJywgJzgnLCAnLW1hJywgJzUwMCcsICctaW1hZScsICc8aW5maWxlLm1hZT4nLCAnLW9tYWUnLCAnPG91dGZpbGUubWFlPic=

>  <s_epik_input>  (1) 
W0NIMl0xW0NIMl1bQ0hdPVtDSF1bQ0BASF0oTjEyKVtDSDJdW0NIMl1bQ0BASF0oW0NIMl1bQ0gyXTIpW0NIMl1bQ0BIXShbQ0gyXVtDSDJdMylbQ0gyXVtTK10zW0NASF0oYyhbY0hdW2NIXTQpW2NIXVtjSF1jNEYpW0NASF01W05IXVtDSDJdW0NASF0oW04rXSg9TylbTy1dKVtDSDJdW0NIMl01

>  <s_glide_docking_method>  (1) 
confgen

>  <s_i_glide_gridfile>  (1) 
gpcr_5ht2c_6bqh_protein_autoprepared_prepared

>  <s_lp_Force_Field>  (1) 
S-OPLS

>  <s_lp_Variant>  (1) 
DiffSBDD_97_num_sample_100-1

>  <s_m_source_file>  (1) 
generated__ligand_DiffSBDD_2026-05-06_prepared.sdf

>  <GenAI_Model>  (1) 
DiffSBDD

>  <Protein>  (1) 
GPCR_5HT2C

$$$$
DiffSBDD_61_num_sample_100
     RDKit          3D

  0  0  0  0  0  0  0  0  0  0999 V3000
M  V30 BEGIN CTAB
M  V30 COUNTS 50 53 0 0 1
M  V30 BEGIN ATOM
M  V30 1 N 39.518122 29.469163 60.444225 0
M  V30 2 C 39.940671 30.782294 51.717922 0
M  V30 3 N 38.600802 31.629038 60.925241 0
M  V30 4 C 41.425025 30.740493 64.066079 0
M  V30 5 C 38.651266 28.927244 52.564592 0 CFG=1
M  V30 6 C 38.869368 27.200044 54.257457 0
M  V30 7 S 37.869862 29.634120 54.107243 0
M  V30 8 N 41.467437 28.767100 62.592508 0
M  V30 9 O 39.928043 29.469602 52.253502 0
M  V30 10 C 41.022411 30.029357 62.971702 0
M  V30 11 C 38.366885 28.239652 54.992548 0
M  V30 12 C 38.351416 34.780090 60.697143 0
M  V30 13 C 38.698977 29.842772 58.271734 0
M  V30 14 C 39.386765 34.012942 61.529193 0
M  V30 15 C 39.390644 30.620943 61.208626 0
M  V30 16 C 38.701713 26.982056 57.053724 0
M  V30 17 C 39.226283 25.910003 56.291033 0
M  V30 18 O 38.489802 29.158846 59.502558 0
M  V30 19 C 38.268831 28.162076 56.403534 0
M  V30 20 C 37.709576 29.328306 57.220442 0
M  V30 21 N 40.115186 30.798503 62.338910 0
M  V30 22 C 40.661443 31.995252 63.998847 0
M  V30 23 C 39.870513 31.900785 62.858891 0
M  V30 24 C 38.919173 27.386318 52.766469 0
M  V30 25 C 38.854007 32.681554 62.082596 0 CFG=2
M  V30 26 C 39.311267 26.021590 54.884856 0
M  V30 27 H 39.966951 28.618076 60.732835 0
M  V30 28 H 40.971919 31.103259 51.574920 0
M  V30 29 H 39.467343 30.819547 50.738136 0
M  V30 30 H 39.467420 31.498704 52.388971 0
M  V30 31 H 42.148399 30.432671 64.806538 0
M  V30 32 H 37.989521 29.073494 51.710317 0
M  V30 33 H 42.159479 28.260024 63.128726 0
M  V30 34 H 41.151120 28.278874 61.775441 0
M  V30 35 H 38.759930 35.728985 60.349297 0
M  V30 36 H 38.049624 34.208961 59.818410 0
M  V30 37 H 37.455908 34.996917 61.280338 0
M  V30 38 H 39.726235 29.745998 57.915483 0
M  V30 39 H 38.515970 30.906911 58.420071 0
M  V30 40 H 39.708194 34.640638 62.361070 0
M  V30 41 H 40.273980 33.830981 60.922287 0
M  V30 42 H 38.635933 26.899509 58.129017 0
M  V30 43 H 39.561391 25.008232 56.782949 0
M  V30 44 H 37.418313 30.174299 56.602703 0
M  V30 45 H 36.784935 29.013760 57.705476 0
M  V30 46 H 40.693737 32.829575 64.684127 0
M  V30 47 H 39.865826 27.056128 52.337926 0
M  V30 48 H 38.109471 26.821422 52.308772 0
M  V30 49 H 37.938787 32.821063 62.653596 0
M  V30 50 H 39.710824 25.209385 54.298350 0
M  V30 END ATOM
M  V30 BEGIN BOND
M  V30 1 1 7 5
M  V30 2 1 9 2
M  V30 3 1 9 5
M  V30 4 2 10 4
M  V30 5 1 10 8
M  V30 6 1 11 6
M  V30 7 1 11 7
M  V30 8 1 14 12
M  V30 9 1 15 1
M  V30 10 2 15 3
M  V30 11 2 17 16
M  V30 12 1 18 1
M  V30 13 1 18 13
M  V30 14 2 19 11
M  V30 15 1 19 16
M  V30 16 1 20 13
M  V30 17 1 20 19
M  V30 18 1 21 10
M  V30 19 1 21 15
M  V30 20 1 22 4
M  V30 21 1 23 21
M  V30 22 2 23 22
M  V30 23 1 24 5
M  V30 24 1 24 6
M  V30 25 1 25 3
M  V30 26 1 25 14
M  V30 27 1 25 23
M  V30 28 2 26 6
M  V30 29 1 26 17
M  V30 30 1 27 1
M  V30 31 1 28 2
M  V30 32 1 29 2
M  V30 33 1 30 2
M  V30 34 1 31 4
M  V30 35 1 5 32 CFG=3
M  V30 36 1 33 8
M  V30 37 1 34 8
M  V30 38 1 35 12
M  V30 39 1 36 12
M  V30 40 1 37 12
M  V30 41 1 38 13
M  V30 42 1 39 13
M  V30 43 1 40 14
M  V30 44 1 41 14
M  V30 45 1 42 16
M  V30 46 1 43 17
M  V30 47 1 44 20
M  V30 48 1 45 20
M  V30 49 1 46 22
M  V30 50 1 47 24
M  V30 51 1 48 24
M  V30 52 1 25 49 CFG=1
M  V30 53 1 50 26
M  V30 END BOND
M  V30 END CTAB
M  END
>  <i_epik_Tot_Q>  (1) 
0

>  <i_epik_Tot_abs_Q>  (1) 
0

>  <i_i_glide_confnum>  (1) 
18

>  <i_i_glide_lignum>  (1) 
156

>  <i_i_glide_posenum>  (1) 
148

>  <i_i_glide_rotatable_bonds>  (1) 
7

>  <i_lp_mmshare_version>  (1) 
72125

>  <i_m_source_file_index>  (1) 
62

>  <i_f3d_flags>  (1) 
0

>  <num_sample>  (1) 
100

>  <b_lp_Chiralities_Consistent>  (1) 
1

>  <r_epik_Charging_Adjusted_Penalty>  (1) 
7.696981497401035e-09

>  <r_epik_Ionization_Penalty>  (1) 
0.0074591056384177897

>  <r_epik_Ionization_Penalty_Charging>  (1) 
0

>  <r_epik_Ionization_Penalty_Neutral>  (1) 
0.0074591056384177897

>  <r_epik_State_Penalty>  (1) 
7.696981497401035e-09

>  <r_glide_ring_energy>  (1) 
0

>  <r_i_docking_score>  (1) 
-6.7578973708818042

>  <r_i_glide_ecoul>  (1) 
-2.2754821909547918

>  <r_i_glide_eff_state_penalty>  (1) 
7.696981497401035e-09

>  <r_i_glide_einternal>  (1) 
6.832564162444573

>  <r_i_glide_emodel>  (1) 
-60.28461417736731

>  <r_i_glide_emodel_strain>  (1) 
0.18663319918530874

>  <r_i_glide_energy>  (1) 
-43.302305625368788

>  <r_i_glide_erotb>  (1) 
0.69602230450698876

>  <r_i_glide_esite>  (1) 
-0.029632586944558184

>  <r_i_glide_evdw>  (1) 
-41.026823434413998

>  <r_i_glide_gscore>  (1) 
-6.7578973785787859

>  <r_i_glide_gscore_strain>  (1) 
0

>  <r_i_glide_hbond>  (1) 
0

>  <r_i_glide_ligand_efficiency>  (1) 
-0.25991912964930014

>  <r_i_glide_ligand_efficiency_ln>  (1) 
-1.587070023081687

>  <r_i_glide_ligand_efficiency_sa>  (1) 
-0.77000939968991744

>  <r_i_glide_lipo>  (1) 
-3.449212419163767

>  <r_i_glide_metal>  (1) 
-0

>  <r_i_glide_rewards>  (1) 
-1.5824111766135314

>  <r_lp_Energy>  (1) 
14.504761999999999

>  <s_epik_Chemistry_Notes>  (1) 
This compound has an imine and may undergo hydrolysis. This compound contains an acetal/aminal-like group ( X-CH(R)-Y where X, Y are N, S, or O) that may be acid/base labile, releasing an aldehyde. This compound has a N-S or N-O group and may undergo hydrolysis at high or low pH.

>  <s_epik_cmdline>  (1) 
J2VwaWtfcHl0aG9uJywgJy1waHQnLCAnMS4wJywgJy1waCcsICc3LjQnLCAnLXRuJywgJzgnLCAnLW1hJywgJzUwMCcsICctaW1hZScsICc8aW5maWxlLm1hZT4nLCAnLW9tYWUnLCAnPG91dGZpbGUubWFlPic=

>  <s_epik_input>  (1) 
W05IMl1jMVtjSF1bY0hdYyhuMTIpW0NAQEhdKFtDSDJdW0NIM10pTj1DMltOSF1PW0NIMl1bQ0gyXWMoW2NIXVtjSF1bY0hdMyljKGMzNClTW0NASF0oW0NIMl00KU9bQ0gzXQ==

>  <s_glide_docking_method>  (1) 
confgen

>  <s_i_glide_gridfile>  (1) 
gpcr_5ht2c_6bqh_protein_autoprepared_prepared

>  <s_lp_Force_Field>  (1) 
S-OPLS

>  <s_lp_Variant>  (1) 
DiffSBDD_61_num_sample_100-1

>  <s_m_source_file>  (1) 
generated__ligand_DiffSBDD_2026-05-06_prepared.sdf

>  <GenAI_Model>  (1) 
DiffSBDD

>  <Protein>  (1) 
GPCR_5HT2C

$$$$
DiffSBDD_0_num_sample_100
     RDKit          3D

  0  0  0  0  0  0  0  0  0  0999 V3000
M  V30 BEGIN CTAB
M  V30 COUNTS 60 62 0 0 1
M  V30 BEGIN ATOM
M  V30 1 C 37.615916 36.335968 62.641156 0
M  V30 2 C 38.212515 33.424466 59.689457 0 CFG=1
M  V30 3 C 37.902176 26.510480 54.425471 0
M  V30 4 C 38.278937 30.066189 54.830306 0
M  V30 5 C 36.668480 37.261868 62.083402 0
M  V30 6 C 37.467459 36.522788 59.737981 0
M  V30 7 C 38.863283 27.398534 56.489553 0
M  V30 8 C 37.529582 25.336032 55.107562 0
M  V30 9 C 38.574595 27.545742 55.115808 0
M  V30 10 C 36.025077 32.352356 60.064257 0 CFG=2
M  V30 11 N 37.867400 32.263007 57.414132 0 CHG=1
M  V30 12 C 38.159206 32.313968 55.965803 0
M  V30 13 C 38.865544 31.054443 55.525828 0
M  V30 14 C 37.823606 25.192517 56.477349 0
M  V30 15 F 38.768203 26.083423 58.485300 0
M  V30 16 C 38.487604 26.223664 57.167944 0
M  V30 17 C 39.001003 28.813398 54.384393 0 CFG=1
M  V30 18 C 36.577947 37.361036 60.724151 0
M  V30 19 N 39.007567 28.599573 51.761724 0
M  V30 20 C 38.102305 33.535665 58.137146 0
M  V30 21 C 38.450036 35.714575 61.834609 0
M  V30 22 C 39.126574 34.553327 60.253651 0 CFG=1
M  V30 23 N 36.913197 33.464047 60.352426 0
M  V30 24 O 37.467418 24.053962 57.135525 0
M  V30 25 C 34.578327 32.840625 60.173684 0
M  V30 26 C 36.338250 31.235017 61.053499 0
M  V30 27 C 34.265267 34.016758 59.253576 0
M  V30 28 N 38.560519 35.905211 60.508940 0
M  V30 29 S 39.593256 34.455752 62.063711 0
M  V30 30 C 39.002450 28.693321 52.914731 0
M  V30 31 Cl 35.633474 38.190723 63.104461 0
M  V30 32 H 37.605600 36.114825 63.694957 0
M  V30 33 H 38.689631 32.473064 59.924985 0
M  V30 34 H 37.676783 26.612338 53.373728 0
M  V30 35 H 37.235435 30.146806 54.558842 0
M  V30 36 H 36.847013 35.805774 59.211273 0
M  V30 37 H 37.880256 37.202733 58.993518 0
M  V30 38 H 39.377233 28.185285 57.021190 0
M  V30 39 H 37.020796 24.543678 54.577990 0
M  V30 40 H 36.140385 31.978049 59.053830 0
M  V30 41 H 36.871111 32.021425 57.459652 0
M  V30 42 H 38.789204 33.163240 55.698326 0
M  V30 43 H 37.230749 32.421417 55.409309 0
M  V30 44 H 39.907812 30.967856 55.797022 0
M  V30 45 H 40.043422 28.966687 54.654166 0
M  V30 46 H 35.857281 38.021435 60.282270 0
M  V30 47 H 39.067390 33.873993 57.784221 0
M  V30 48 H 37.370577 34.275766 57.818322 0
M  V30 49 H 40.053826 34.651306 59.691403 0
M  V30 50 H 36.451477 34.338632 60.148588 0
M  V30 51 H 37.732699 24.068304 58.043044 0
M  V30 52 H 33.930840 32.022444 59.853502 0
M  V30 53 H 34.323700 33.105569 61.201363 0
M  V30 54 H 35.627620 30.421429 60.935924 0
M  V30 55 H 37.339493 30.829153 60.904789 0
M  V30 56 H 36.277603 31.621414 62.069420 0
M  V30 57 H 33.197266 34.230574 59.232825 0
M  V30 58 H 34.802564 34.916955 59.530878 0
M  V30 59 H 34.577220 33.781473 58.253485 0
M  V30 60 H 38.408431 31.525875 57.838949 0
M  V30 END ATOM
M  V30 BEGIN BOND
M  V30 1 1 5 1
M  V30 2 2 8 3
M  V30 3 1 9 3
M  V30 4 2 9 7
M  V30 5 1 12 11
M  V30 6 2 13 4
M  V30 7 1 13 12
M  V30 8 1 14 8
M  V30 9 1 16 7
M  V30 10 2 16 14
M  V30 11 1 16 15
M  V30 12 1 17 4
M  V30 13 1 17 9
M  V30 14 2 18 5
M  V30 15 1 18 6
M  V30 16 1 20 2
M  V30 17 1 20 11
M  V30 18 2 21 1
M  V30 19 1 22 2
M  V30 20 1 23 2
M  V30 21 1 23 10
M  V30 22 1 24 14
M  V30 23 1 25 10
M  V30 24 1 26 10
M  V30 25 1 27 25
M  V30 26 1 28 6
M  V30 27 1 28 21
M  V30 28 1 28 22
M  V30 29 1 29 21
M  V30 30 1 29 22
M  V30 31 1 30 17
M  V30 32 3 30 19
M  V30 33 1 31 5
M  V30 34 1 32 1
M  V30 35 1 2 33 CFG=3
M  V30 36 1 34 3
M  V30 37 1 35 4
M  V30 38 1 36 6
M  V30 39 1 37 6
M  V30 40 1 38 7
M  V30 41 1 39 8
M  V30 42 1 10 40 CFG=3
M  V30 43 1 41 11
M  V30 44 1 42 12
M  V30 45 1 43 12
M  V30 46 1 44 13
M  V30 47 1 17 45 CFG=1
M  V30 48 1 46 18
M  V30 49 1 47 20
M  V30 50 1 48 20
M  V30 51 1 22 49 CFG=3
M  V30 52 1 50 23
M  V30 53 1 51 24
M  V30 54 1 52 25
M  V30 55 1 53 25
M  V30 56 1 54 26
M  V30 57 1 55 26
M  V30 58 1 56 26
M  V30 59 1 57 27
M  V30 60 1 58 27
M  V30 61 1 59 27
M  V30 62 1 60 11
M  V30 END BOND
M  V30 END CTAB
M  END
>  <i_epik_Tot_Q>  (1) 
1

>  <i_epik_Tot_abs_Q>  (1) 
1

>  <i_i_glide_confnum>  (1) 
579

>  <i_i_glide_lignum>  (1) 
5

>  <i_i_glide_posenum>  (1) 
339

>  <i_i_glide_rotatable_bonds>  (1) 
11

>  <i_lp_mmshare_version>  (1) 
72125

>  <i_m_source_file_index>  (1) 
1

>  <i_f3d_flags>  (1) 
0

>  <num_sample>  (1) 
100

>  <b_lp_Chiralities_Consistent>  (1) 
1

>  <r_epik_Charging_Adjusted_Penalty>  (1) 
1.8065071523224812

>  <r_epik_Ionization_Penalty>  (1) 
0.92614417087394063

>  <r_epik_Ionization_Penalty_Charging>  (1) 
0.760298405215594

>  <r_epik_Ionization_Penalty_Neutral>  (1) 
0.16584576565834661

>  <r_epik_State_Penalty>  (1) 
1.0462087471068873

>  <r_glide_ring_energy>  (1) 
0

>  <r_i_docking_score>  (1) 
-6.7546784504588757

>  <r_i_glide_ecoul>  (1) 
-5.4014461737842421

>  <r_i_glide_eff_state_penalty>  (1) 
1.0462087471068873

>  <r_i_glide_einternal>  (1) 
16.780860455553757

>  <r_i_glide_emodel>  (1) 
-61.923083778839114

>  <r_i_glide_emodel_strain>  (1) 
1.0522224837318248

>  <r_i_glide_energy>  (1) 
-45.368108643598418

>  <r_i_glide_erotb>  (1) 
0.74887478347211667

>  <r_i_glide_esite>  (1) 
-0.10000000000000001

>  <r_i_glide_evdw>  (1) 
-39.966662469814175

>  <r_i_glide_gscore>  (1) 
-7.8008871975657632

>  <r_i_glide_gscore_strain>  (1) 
0

>  <r_i_glide_hbond>  (1) 
-0.20000000000000001

>  <r_i_glide_ligand_efficiency>  (1) 
-0.21789285324060889

>  <r_i_glide_ligand_efficiency_ln>  (1) 
-1.5233869966124987

>  <r_i_glide_ligand_efficiency_sa>  (1) 
-0.68448439346440615

>  <r_i_glide_lipo>  (1) 
-3.5569246257801024

>  <r_i_glide_metal>  (1) 
-0

>  <r_i_glide_rewards>  (1) 
-1.884287305699432

>  <r_lp_Energy>  (1) 
41.265557999999999

>  <s_epik_Chemistry_Notes>  (1) 
This compound contains an acetal/aminal-like group ( X-CH(R)-Y where X, Y are N, S, or O) that may be acid/base labile, releasing an aldehyde.

>  <s_epik_cmdline>  (1) 
J2VwaWtfcHl0aG9uJywgJy1waHQnLCAnMS4wJywgJy1waCcsICc3LjQnLCAnLXRuJywgJzgnLCAnLW1hJywgJzUwMCcsICctaW1hZScsICc8aW5maWxlLm1hZT4nLCAnLW9tYWUnLCAnPG91dGZpbGUubWFlPic=

>  <s_epik_input>  (1) 
W0NIXT0xQyhDbCk9W0NIXVtDSDJdTihDMTIpW0NAQEhdKFMyKVtDQEBIXShbTkhdW0NAQEhdKFtDSDNdKVtDSDJdW0NIM10pW0NIMl1bTkhdW0NIMl1cW0NIXT1bQ0hdXFtDQEhdKEMjTiljM1tjSF1bY0hdYyhbT0hdKWMoRilbY0hdMw==

>  <s_glide_docking_method>  (1) 
confgen

>  <s_i_glide_gridfile>  (1) 
gpcr_5ht2c_6bqh_protein_autoprepared_prepared

>  <s_lp_Force_Field>  (1) 
S-OPLS

>  <s_lp_Variant>  (1) 
DiffSBDD_0_num_sample_100-5

>  <s_m_source_file>  (1) 
generated__ligand_DiffSBDD_2026-05-06_prepared.sdf

>  <GenAI_Model>  (1) 
DiffSBDD

>  <Protein>  (1) 
GPCR_5HT2C

$$$$
DiffSBDD_44_num_sample_100
     RDKit          3D

  0  0  0  0  0  0  0  0  0  0999 V3000
M  V30 BEGIN CTAB
M  V30 COUNTS 58 59 0 0 1
M  V30 BEGIN ATOM
M  V30 1 C 39.780457 28.029386 50.529305 0
M  V30 2 O 37.385792 28.732936 53.937373 0 CHG=-1
M  V30 3 C 38.433770 26.114056 55.592160 0
M  V30 4 C 39.786484 30.110788 51.700782 0 CFG=1
M  V30 5 N 38.778073 29.239645 52.318186 0 CFG=1 CHG=1
M  V30 6 C 38.667515 24.904172 57.704401 0
M  V30 7 N 40.122336 28.222251 56.340437 0
M  V30 8 C 38.947555 26.080890 56.796320 0
M  V30 9 O 41.054705 26.658903 57.853609 0
M  V30 10 C 39.954683 29.539819 50.317059 0 CFG=1
M  V30 11 C 41.219308 30.086232 49.639311 0
M  V30 12 C 39.355737 29.942840 54.786335 0 CFG=1
M  V30 13 C 39.247824 29.104774 56.046696 0
M  V30 14 C 39.229082 27.872171 51.972425 0
M  V30 15 C 41.877268 27.581001 58.556336 0
M  V30 16 C 36.731078 24.549351 54.804703 0
M  V30 17 C 38.273118 29.644153 53.666998 0 CFG=2
M  V30 18 C 39.847911 27.203351 57.349136 0 CFG=1
M  V30 19 F 36.267403 22.624668 55.853315 0
M  V30 20 C 37.183865 23.599094 55.874501 0 CFG=2
M  V30 21 C 37.606939 25.752870 54.653600 0
M  V30 22 C 39.441397 31.425925 55.205695 0
M  V30 23 C 38.023459 29.386437 56.914491 0
M  V30 24 C 39.517870 31.610402 51.630154 0
M  V30 25 C 37.380865 24.102474 57.342477 0
M  V30 26 H 40.666325 27.459440 50.263535 0
M  V30 27 H 39.013804 27.666764 49.853812 0
M  V30 28 H 40.688138 29.951865 52.272707 0
M  V30 29 H 39.544470 24.255697 57.681917 0
M  V30 30 H 38.562945 25.279405 58.722150 0
M  V30 31 H 39.094161 29.864732 49.748590 0
M  V30 32 H 42.089546 30.020999 50.290405 0
M  V30 33 H 41.425104 29.621277 48.676469 0
M  V30 34 H 41.098818 31.152474 49.452462 0
M  V30 35 H 40.327493 29.697604 54.377819 0
M  V30 36 H 40.004247 27.537889 52.653440 0
M  V30 37 H 38.414234 27.154234 52.003925 0
M  V30 38 H 42.756707 27.052407 58.925402 0
M  V30 39 H 42.233856 28.389036 57.916685 0
M  V30 40 H 41.362586 28.016232 59.413273 0
M  V30 41 H 35.759222 24.821412 55.120613 0
M  V30 42 H 36.630383 24.041926 53.853555 0
M  V30 43 H 37.865655 30.623734 53.459500 0
M  V30 44 H 39.324197 27.622758 58.210755 0
M  V30 45 H 38.101170 23.221659 55.453577 0
M  V30 46 H 37.478250 26.331815 53.759865 0
M  V30 47 H 40.088148 31.568821 56.071042 0
M  V30 48 H 39.867385 32.021141 54.414360 0
M  V30 49 H 38.465994 31.846291 55.449325 0
M  V30 50 H 38.329120 29.770996 57.887019 0
M  V30 51 H 37.363106 30.120048 56.450811 0
M  V30 52 H 37.437414 28.482942 57.063716 0
M  V30 53 H 40.516578 32.019000 51.635924 0
M  V30 54 H 39.067446 31.970434 50.702274 0
M  V30 55 H 39.066963 32.038219 52.505668 0
M  V30 56 H 37.386780 23.225639 57.991109 0
M  V30 57 H 36.517480 24.706256 57.623299 0
M  V30 58 H 37.946833 29.335230 51.757366 0
M  V30 END ATOM
M  V30 BEGIN BOND
M  V30 1 1 5 4
M  V30 2 2 8 3
M  V30 3 1 8 6
M  V30 4 1 10 1
M  V30 5 1 10 4
M  V30 6 1 11 10
M  V30 7 2 13 7
M  V30 8 1 13 12
M  V30 9 1 14 1
M  V30 10 1 14 5
M  V30 11 1 15 9
M  V30 12 1 17 2
M  V30 13 1 17 5
M  V30 14 1 17 12
M  V30 15 1 18 7
M  V30 16 1 18 8
M  V30 17 1 18 9
M  V30 18 1 20 16
M  V30 19 1 20 19
M  V30 20 2 21 3
M  V30 21 1 21 16
M  V30 22 1 22 12
M  V30 23 1 23 13
M  V30 24 1 24 4
M  V30 25 1 25 6
M  V30 26 1 25 20
M  V30 27 1 26 1
M  V30 28 1 27 1
M  V30 29 1 4 28 CFG=1
M  V30 30 1 29 6
M  V30 31 1 30 6
M  V30 32 1 10 31 CFG=3
M  V30 33 1 32 11
M  V30 34 1 33 11
M  V30 35 1 34 11
M  V30 36 1 12 35 CFG=3
M  V30 37 1 36 14
M  V30 38 1 37 14
M  V30 39 1 38 15
M  V30 40 1 39 15
M  V30 41 1 40 15
M  V30 42 1 41 16
M  V30 43 1 42 16
M  V30 44 1 17 43 CFG=3
M  V30 45 1 18 44 CFG=1
M  V30 46 1 20 45 CFG=3
M  V30 47 1 46 21
M  V30 48 1 47 22
M  V30 49 1 48 22
M  V30 50 1 49 22
M  V30 51 1 50 23
M  V30 52 1 51 23
M  V30 53 1 52 23
M  V30 54 1 53 24
M  V30 55 1 54 24
M  V30 56 1 55 24
M  V30 57 1 56 25
M  V30 58 1 57 25
M  V30 59 1 5 58 CFG=3
M  V30 END BOND
M  V30 END CTAB
M  END
>  <i_epik_Tot_Q>  (1) 
0

>  <i_epik_Tot_abs_Q>  (1) 
2

>  <i_i_glide_confnum>  (1) 
53

>  <i_i_glide_lignum>  (1) 
120

>  <i_i_glide_posenum>  (1) 
16

>  <i_i_glide_rotatable_bonds>  (1) 
6

>  <i_lp_mmshare_version>  (1) 
72125

>  <i_m_source_file_index>  (1) 
45

>  <i_f3d_flags>  (1) 
0

>  <num_sample>  (1) 
100

>  <b_lp_Chiralities_Consistent>  (1) 
1

>  <r_epik_Charging_Adjusted_Penalty>  (1) 
0.41733257654759531

>  <r_epik_Ionization_Penalty>  (1) 
0.0069177268181324029

>  <r_epik_Ionization_Penalty_Charging>  (1) 
0.0066527375949913311

>  <r_epik_Ionization_Penalty_Neutral>  (1) 
0.00026498922314107146

>  <r_epik_State_Penalty>  (1) 
0.41067983895260396

>  <r_glide_ring_energy>  (1) 
0

>  <r_i_docking_score>  (1) 
-6.7515723900658005

>  <r_i_glide_ecoul>  (1) 
0.019237924688602859

>  <r_i_glide_eff_state_penalty>  (1) 
0.41067983895260396

>  <r_i_glide_einternal>  (1) 
15.487283854596726

>  <r_i_glide_emodel>  (1) 
-20.778644778805116

>  <r_i_glide_emodel_strain>  (1) 
4.005986592319303

>  <r_i_glide_energy>  (1) 
-15.421051425418375

>  <r_i_glide_erotb>  (1) 
0.61440649929112812

>  <r_i_glide_esite>  (1) 
0

>  <r_i_glide_evdw>  (1) 
-15.440289350106978

>  <r_i_glide_gscore>  (1) 
-7.1622522290184047

>  <r_i_glide_gscore_strain>  (1) 
0.0014966480798257464

>  <r_i_glide_hbond>  (1) 
0

>  <r_i_glide_ligand_efficiency>  (1) 
-0.27006289560263202

>  <r_i_glide_ligand_efficiency_ln>  (1) 
-1.6003249847432335

>  <r_i_glide_ligand_efficiency_sa>  (1) 
-0.78966869717522548

>  <r_i_glide_lipo>  (1) 
-4.1942052149221896

>  <r_i_glide_metal>  (1) 
-0

>  <r_i_glide_rewards>  (1) 
-2.8148213826651114

>  <r_lp_Energy>  (1) 
10.956301

>  <r_lp_tautomer_probability>  (1) 
0.49999399997599986

>  <s_epik_Chemistry_Notes>  (1) 
This compound has an imine and may undergo hydrolysis. This compound contains an acetal/aminal-like group ( X-CH(R)-Y where X, Y are N, S, or O) that may be acid/base labile, releasing an aldehyde.

>  <s_epik_cmdline>  (1) 
J2VwaWtfcHl0aG9uJywgJy1waHQnLCAnMS4wJywgJy1waCcsICc3LjQnLCAnLXRuJywgJzgnLCAnLW1hJywgJzUwMCcsICctaW1hZScsICc8aW5maWxlLm1hZT4nLCAnLW9tYWUnLCAnPG91dGZpbGUubWFlPic=

>  <s_epik_input>  (1) 
W0NIM11bQ0BIXTFbQ0gyXVtDSDJdTihbQ0BASF0xW0NIM10pW0NAQEhdKFtPSF0pW0NAQEhdKFtDSDNdKVxDKFtDSDNdKT1OXFtDQEBIXShPW0NIM10pQzI9Qz1bQ0hdW0NIMl1bQ0BASF0oRilbQ0gyXVtDSDJdMg==

>  <s_glide_docking_method>  (1) 
confgen

>  <s_i_glide_gridfile>  (1) 
gpcr_5ht2c_6bqh_protein_autoprepared_prepared

>  <s_lp_Force_Field>  (1) 
S-OPLS

>  <s_lp_Variant>  (1) 
DiffSBDD_44_num_sample_100-13

>  <s_m_source_file>  (1) 
generated__ligand_DiffSBDD_2026-05-06_prepared.sdf

>  <GenAI_Model>  (1) 
DiffSBDD

>  <Protein>  (1) 
GPCR_5HT2C

$$$$
DiffSBDD_46_num_sample_100
     RDKit          3D

  0  0  0  0  0  0  0  0  0  0999 V3000
M  V30 BEGIN CTAB
M  V30 COUNTS 67 70 0 0 1
M  V30 BEGIN ATOM
M  V30 1 N 41.867275 29.621601 62.705716 0 CHG=-1
M  V30 2 N 38.644370 27.666288 55.677584 0
M  V30 3 C 38.499328 29.329064 59.940124 0
M  V30 4 C 37.066302 36.916185 59.908871 0
M  V30 5 C 40.170731 27.940581 58.337914 0
M  V30 6 O 39.191208 30.846516 63.053468 0
M  V30 7 O 40.605436 30.321923 66.152605 0
M  V30 8 C 38.548343 35.757781 61.404653 0
M  V30 9 N 37.890987 36.820959 60.797389 0
M  V30 10 F 37.094094 34.167147 60.316397 0
M  V30 11 C 39.637390 29.232125 58.961692 0 CFG=2
M  V30 12 N 40.600557 32.659673 63.347730 0
M  V30 13 C 39.120846 26.845146 58.007899 0 CFG=2
M  V30 14 C 38.796824 33.371858 61.781575 0
M  V30 15 C 41.040813 29.548174 65.050612 0
M  V30 16 C 37.920305 24.734966 56.238164 0
M  V30 17 C 38.660210 31.778272 54.653520 0
M  V30 18 C 38.632552 29.044470 55.355534 0
M  V30 19 C 38.129609 34.424204 61.152094 0
M  V30 20 C 41.210554 28.521322 62.299231 0
M  V30 21 C 40.225097 35.028033 62.832085 0
M  V30 22 C 39.867622 33.678001 62.652149 0
M  V30 23 N 39.584290 36.053830 62.228094 0
M  V30 24 C 37.137775 25.998966 56.616745 0
M  V30 25 C 38.180576 31.386423 55.910805 0
M  V30 26 C 41.402454 30.424436 63.823856 0 CFG=2
M  V30 27 C 39.852297 25.547911 57.615358 0
M  V30 28 C 38.160120 30.027053 56.267556 0
M  V30 29 C 40.308466 28.301050 61.289153 0
M  V30 30 C 39.126293 30.813463 53.746103 0
M  V30 31 C 38.877446 24.391829 57.372127 0
M  V30 32 C 40.272492 31.348841 63.365392 0
M  V30 33 C 39.109547 29.451069 54.093809 0
M  V30 34 O 36.267410 36.821443 59.053510 0
M  V30 35 C 38.043860 27.212771 56.936245 0 CFG=2
M  V30 36 N 39.873342 29.399618 60.402068 0 CFG=2 CHG=1
M  V30 37 H 38.927936 26.983465 54.990255 0
M  V30 38 H 37.994697 28.422200 60.253497 0
M  V30 39 H 38.000213 30.280910 60.110398 0
M  V30 40 H 40.684993 28.217586 57.417406 0
M  V30 41 H 40.965952 27.526725 58.956429 0
M  V30 42 H 40.326867 29.729638 66.835573 0
M  V30 43 H 39.867406 30.141778 58.420284 0
M  V30 44 H 41.423362 32.949915 63.856471 0
M  V30 45 H 38.589478 26.618874 58.932337 0
M  V30 46 H 38.489209 32.362265 61.592354 0
M  V30 47 H 41.911176 28.971830 65.365765 0
M  V30 48 H 40.267447 28.822611 64.811039 0
M  V30 49 H 38.471039 24.881877 55.307989 0
M  V30 50 H 37.230214 23.908553 56.064897 0
M  V30 51 H 38.666907 32.821428 54.383010 0
M  V30 52 H 41.454384 27.621432 62.901200 0
M  V30 53 H 41.041400 35.294477 63.487214 0
M  V30 54 H 36.460849 26.232831 55.797844 0
M  V30 55 H 36.509643 25.783641 57.481883 0
M  V30 56 H 37.818435 32.131044 56.605822 0
M  V30 57 H 42.224159 31.060324 64.157715 0
M  V30 58 H 40.447612 25.718669 56.717148 0
M  V30 59 H 40.558097 25.258062 58.390768 0
M  V30 60 H 37.786762 29.753566 57.233696 0
M  V30 61 H 39.867427 27.351730 61.075701 0
M  V30 62 H 39.495475 31.118566 52.777757 0
M  V30 63 H 39.450239 23.495013 57.154551 0
M  V30 64 H 38.268189 24.183917 58.253492 0
M  V30 65 H 39.467427 28.714252 53.390692 0
M  V30 66 H 37.348287 27.917482 57.372922 0
M  V30 67 H 40.120588 30.326568 60.722901 0
M  V30 END ATOM
M  V30 BEGIN BOND
M  V30 1 2 9 4
M  V30 2 1 9 8
M  V30 3 1 11 3
M  V30 4 1 11 5
M  V30 5 1 13 5
M  V30 6 1 15 7
M  V30 7 1 18 2
M  V30 8 2 19 8
M  V30 9 1 19 10
M  V30 10 1 19 14
M  V30 11 1 20 1
M  V30 12 1 22 12
M  V30 13 2 22 14
M  V30 14 1 22 21
M  V30 15 1 23 8
M  V30 16 2 23 21
M  V30 17 1 24 16
M  V30 18 2 25 17
M  V30 19 1 26 1
M  V30 20 1 26 15
M  V30 21 1 27 13
M  V30 22 2 28 18
M  V30 23 1 28 25
M  V30 24 2 29 20
M  V30 25 1 30 17
M  V30 26 1 31 16
M  V30 27 1 31 27
M  V30 28 2 32 6
M  V30 29 1 32 12
M  V30 30 1 32 26
M  V30 31 1 33 18
M  V30 32 2 33 30
M  V30 33 2 34 4
M  V30 34 1 35 2
M  V30 35 1 35 13
M  V30 36 1 35 24
M  V30 37 1 36 3
M  V30 38 1 36 11
M  V30 39 1 36 29
M  V30 40 1 37 2
M  V30 41 1 38 3
M  V30 42 1 39 3
M  V30 43 1 40 5
M  V30 44 1 41 5
M  V30 45 1 42 7
M  V30 46 1 11 43 CFG=3
M  V30 47 1 44 12
M  V30 48 1 13 45 CFG=1
M  V30 49 1 46 14
M  V30 50 1 47 15
M  V30 51 1 48 15
M  V30 52 1 49 16
M  V30 53 1 50 16
M  V30 54 1 51 17
M  V30 55 1 52 20
M  V30 56 1 53 21
M  V30 57 1 54 24
M  V30 58 1 55 24
M  V30 59 1 56 25
M  V30 60 1 26 57 CFG=1
M  V30 61 1 58 27
M  V30 62 1 59 27
M  V30 63 1 60 28
M  V30 64 1 61 29
M  V30 65 1 62 30
M  V30 66 1 63 31
M  V30 67 1 64 31
M  V30 68 1 65 33
M  V30 69 1 35 66 CFG=1
M  V30 70 1 36 67 CFG=3
M  V30 END BOND
M  V30 END CTAB
M  END
>  <i_epik_Tot_Q>  (1) 
0

>  <i_epik_Tot_abs_Q>  (1) 
2

>  <i_i_glide_confnum>  (1) 
2099

>  <i_i_glide_lignum>  (1) 
125

>  <i_i_glide_posenum>  (1) 
220

>  <i_i_glide_rotatable_bonds>  (1) 
13

>  <i_lp_mmshare_version>  (1) 
72125

>  <i_m_source_file_index>  (1) 
47

>  <i_f3d_flags>  (1) 
0

>  <num_sample>  (1) 
100

>  <b_lp_Chiralities_Consistent>  (1) 
1

>  <r_epik_Charging_Adjusted_Penalty>  (1) 
0.33342598172051213

>  <r_epik_Ionization_Penalty>  (1) 
0.027696632267336825

>  <r_epik_Ionization_Penalty_Charging>  (1) 
0.022930597766060493

>  <r_epik_Ionization_Penalty_Neutral>  (1) 
0.0047660345012763301

>  <r_epik_State_Penalty>  (1) 
0.31049538395445164

>  <r_glide_ring_energy>  (1) 
0.011219957445994763

>  <r_i_docking_score>  (1) 
-6.746864351366832

>  <r_i_glide_ecoul>  (1) 
-2.8101404354432509

>  <r_i_glide_eff_state_penalty>  (1) 
0.31049538395445164

>  <r_i_glide_einternal>  (1) 
13.763777969679971

>  <r_i_glide_emodel>  (1) 
-63.696082662771943

>  <r_i_glide_emodel_strain>  (1) 
0

>  <r_i_glide_energy>  (1) 
-46.88055152595426

>  <r_i_glide_erotb>  (1) 
0.99979395072351473

>  <r_i_glide_esite>  (1) 
0

>  <r_i_glide_evdw>  (1) 
-44.070411090511008

>  <r_i_glide_gscore>  (1) 
-7.0573597353212838

>  <r_i_glide_gscore_strain>  (1) 
0

>  <r_i_glide_hbond>  (1) 
-0.17388370472204531

>  <r_i_glide_ligand_efficiency>  (1) 
-0.18741289864907867

>  <r_i_glide_ligand_efficiency_ln>  (1) 
-1.4719835222584272

>  <r_i_glide_ligand_efficiency_sa>  (1) 
-0.61882375684371993

>  <r_i_glide_lipo>  (1) 
-3.9373336708637341

>  <r_i_glide_metal>  (1) 
-0

>  <r_i_glide_rewards>  (1) 
-1.3208946906169812

>  <r_lp_Energy>  (1) 
58.099483999999997

>  <s_epik_Chemistry_Notes>  (1) 
This compound has an imine and may undergo hydrolysis.

>  <s_epik_cmdline>  (1) 
J2VwaWtfcHl0aG9uJywgJy1waHQnLCAnMS4wJywgJy1waCcsICc3LjQnLCAnLXRuJywgJzgnLCAnLW1hJywgJzUwMCcsICctaW1hZScsICc8aW5maWxlLm1hZT4nLCAnLW9tYWUnLCAnPG91dGZpbGUubWFlPic=

>  <s_epik_input>  (1) 
Tz1DPU5jMWMoRilbY0hdYyhbY0hdbjEpW05IXUMoPU8pW0NAQEhdKFtDSDJdW09IXSkvTj1bQ0hdL1tDSDJdTjJbQ0gyXVtDQEBIXTJbQ0gyXVtDQEBIXTNbQ0gyXVtDSDJdW0NIMl1bQ0gyXVtDQEBIXTNbTkhdYzRbY0hdW2NIXVtjSF1bY0hdW2NIXTQ=

>  <s_glide_docking_method>  (1) 
confgen

>  <s_i_glide_gridfile>  (1) 
gpcr_5ht2c_6bqh_protein_autoprepared_prepared

>  <s_lp_Force_Field>  (1) 
S-OPLS

>  <s_lp_Variant>  (1) 
DiffSBDD_46_num_sample_100-1

>  <s_m_source_file>  (1) 
generated__ligand_DiffSBDD_2026-05-06_prepared.sdf

>  <GenAI_Model>  (1) 
DiffSBDD

>  <Protein>  (1) 
GPCR_5HT2C

$$$$
DiffSBDD_59_num_sample_100
     RDKit          3D

  0  0  0  0  0  0  0  0  0  0999 V3000
M  V30 BEGIN CTAB
M  V30 COUNTS 54 55 0 0 1
M  V30 BEGIN ATOM
M  V30 1 O 39.467446 31.082120 49.916611 0
M  V30 2 N 38.343215 31.706684 59.005341 0 CFG=2 CHG=1
M  V30 3 C 39.867297 33.782375 61.054471 0
M  V30 4 C 37.875378 30.370658 58.543234 0
M  V30 5 C 40.270864 29.524380 51.642629 0
M  V30 6 C 37.790969 35.645396 61.453325 0
M  V30 7 C 37.480481 34.321014 61.086260 0
M  V30 8 C 38.522094 33.379616 60.883923 0
M  V30 9 C 38.486769 28.883208 54.348594 0
M  V30 10 C 38.266055 28.450705 56.902389 0
M  V30 11 Cl 35.830609 33.855070 60.890852 0
M  V30 12 C 38.711079 29.852826 57.360143 0
M  V30 13 O 37.963312 30.129837 54.203376 0
M  V30 14 N 38.965080 28.199171 53.266363 0
M  V30 15 N 39.446142 26.985226 53.630015 0
M  V30 16 C 40.472680 30.146994 50.243835 0
M  V30 17 C 38.639177 28.129403 55.470101 0
M  V30 18 C 38.197284 31.929452 60.481548 0 CFG=2
M  V30 19 C 37.770978 32.791394 58.159556 0
M  V30 20 C 39.032109 28.626897 51.860109 0 CFG=2
M  V30 21 C 40.168558 35.107189 61.423412 0
M  V30 22 C 39.248165 26.934158 54.958775 0
M  V30 23 C 39.005963 27.431465 50.888999 0
M  V30 24 C 39.049365 30.943934 61.318799 0
M  V30 25 C 39.132552 36.036706 61.622604 0
M  V30 26 H 38.765865 30.630334 49.456750 0
M  V30 27 H 40.667439 33.075876 60.903169 0
M  V30 28 H 36.818533 30.425920 58.271960 0
M  V30 29 H 37.930474 29.621831 59.328709 0
M  V30 30 H 40.275338 30.325366 52.382615 0
M  V30 31 H 41.145866 28.914559 51.853495 0
M  V30 32 H 36.997329 36.361739 61.608740 0
M  V30 33 H 37.192578 28.362235 57.053247 0
M  V30 34 H 38.693937 27.712507 57.580853 0
M  V30 35 H 39.774065 29.835752 57.604195 0
M  V30 36 H 38.603835 30.563145 56.545862 0
M  V30 37 H 41.425622 30.677426 50.226685 0
M  V30 38 H 40.533004 29.390638 49.462245 0
M  V30 39 H 38.259192 30.473982 53.375508 0
M  V30 40 H 37.163284 31.700859 60.733935 0
M  V30 41 H 36.710331 32.931358 58.366307 0
M  V30 42 H 38.276554 33.742811 58.319148 0
M  V30 43 H 37.867410 32.574485 57.095520 0
M  V30 44 H 38.140678 29.221433 51.663978 0
M  V30 45 H 41.197261 35.410581 61.553670 0
M  V30 46 H 39.551080 26.048513 55.497794 0
M  V30 47 H 39.005364 27.763778 49.853634 0
M  V30 48 H 39.867402 26.780381 51.010757 0
M  V30 49 H 38.118684 26.821750 51.053202 0
M  V30 50 H 39.019097 31.215619 62.374676 0
M  V30 51 H 38.689021 29.918028 61.270953 0
M  V30 52 H 40.094396 30.934533 61.010316 0
M  V30 53 H 39.367026 37.051983 61.906643 0
M  V30 54 H 39.335719 31.727850 58.831640 0
M  V30 END ATOM
M  V30 BEGIN BOND
M  V30 1 1 4 2
M  V30 2 2 7 6
M  V30 3 2 8 3
M  V30 4 1 8 7
M  V30 5 1 11 7
M  V30 6 1 12 4
M  V30 7 1 12 10
M  V30 8 1 13 9
M  V30 9 1 14 9
M  V30 10 1 15 14
M  V30 11 1 16 1
M  V30 12 1 16 5
M  V30 13 2 17 9
M  V30 14 1 17 10
M  V30 15 1 18 2
M  V30 16 1 18 8
M  V30 17 1 19 2
M  V30 18 1 20 5
M  V30 19 1 20 14
M  V30 20 1 21 3
M  V30 21 2 22 15
M  V30 22 1 22 17
M  V30 23 1 23 20
M  V30 24 1 24 18
M  V30 25 1 25 6
M  V30 26 2 25 21
M  V30 27 1 26 1
M  V30 28 1 27 3
M  V30 29 1 28 4
M  V30 30 1 29 4
M  V30 31 1 30 5
M  V30 32 1 31 5
M  V30 33 1 32 6
M  V30 34 1 33 10
M  V30 35 1 34 10
M  V30 36 1 35 12
M  V30 37 1 36 12
M  V30 38 1 37 16
M  V30 39 1 38 16
M  V30 40 1 39 13
M  V30 41 1 18 40 CFG=1
M  V30 42 1 41 19
M  V30 43 1 42 19
M  V30 44 1 43 19
M  V30 45 1 20 44 CFG=3
M  V30 46 1 45 21
M  V30 47 1 46 22
M  V30 48 1 47 23
M  V30 49 1 48 23
M  V30 50 1 49 23
M  V30 51 1 50 24
M  V30 52 1 51 24
M  V30 53 1 52 24
M  V30 54 1 53 25
M  V30 55 1 2 54 CFG=1
M  V30 END BOND
M  V30 END CTAB
M  END
>  <i_epik_Tot_Q>  (1) 
1

>  <i_epik_Tot_abs_Q>  (1) 
1

>  <i_i_glide_confnum>  (1) 
329

>  <i_i_glide_lignum>  (1) 
149

>  <i_i_glide_posenum>  (1) 
39

>  <i_i_glide_rotatable_bonds>  (1) 
11

>  <i_lp_mmshare_version>  (1) 
72125

>  <i_m_source_file_index>  (1) 
60

>  <i_f3d_flags>  (1) 
0

>  <num_sample>  (1) 
100

>  <b_lp_Chiralities_Consistent>  (1) 
1

>  <r_epik_Charging_Adjusted_Penalty>  (1) 
0.34288875783321848

>  <r_epik_Ionization_Penalty>  (1) 
0.16299728195075516

>  <r_epik_Ionization_Penalty_Charging>  (1) 
0.10603582337888565

>  <r_epik_Ionization_Penalty_Neutral>  (1) 
0.05696145857186951

>  <r_epik_State_Penalty>  (1) 
0.23685293445433284

>  <r_glide_ring_energy>  (1) 
0

>  <r_i_docking_score>  (1) 
-6.7451132867420087

>  <r_i_glide_ecoul>  (1) 
-2.9158346724910595

>  <r_i_glide_eff_state_penalty>  (1) 
0.23685293445433284

>  <r_i_glide_einternal>  (1) 
5.5878908583910558

>  <r_i_glide_emodel>  (1) 
-61.579698805525723

>  <r_i_glide_emodel_strain>  (1) 
1.026916314827151

>  <r_i_glide_energy>  (1) 
-40.926817667570951

>  <r_i_glide_erotb>  (1) 
1.1440711446639862

>  <r_i_glide_esite>  (1) 
-0.042407183174152908

>  <r_i_glide_evdw>  (1) 
-38.010982995079893

>  <r_i_glide_gscore>  (1) 
-6.9819662211963411

>  <r_i_glide_gscore_strain>  (1) 
0

>  <r_i_glide_hbond>  (1) 
-0.32000000000000001

>  <r_i_glide_ligand_efficiency>  (1) 
-0.26980453146968036

>  <r_i_glide_ligand_efficiency_ln>  (1) 
-1.5987939836917879

>  <r_i_glide_ligand_efficiency_sa>  (1) 
-0.78891323586755679

>  <r_i_glide_lipo>  (1) 
-3.4949879283486038

>  <r_i_glide_metal>  (1) 
-0

>  <r_i_glide_rewards>  (1) 
-1.9307179037099154

>  <r_lp_Energy>  (1) 
26.033631999999997

>  <r_lp_tautomer_probability>  (1) 
0.67048000943507491

>  <s_epik_cmdline>  (1) 
J2VwaWtfcHl0aG9uJywgJy1waHQnLCAnMS4wJywgJy1waCcsICc3LjQnLCAnLXRuJywgJzgnLCAnLW1hJywgJzUwMCcsICctaW1hZScsICc8aW5maWxlLm1hZT4nLCAnLW9tYWUnLCAnPG91dGZpbGUubWFlPic=

>  <s_epik_input>  (1) 
W09IXVtDSDJdW0NIMl1bQ0BASF0oW0NIM10pTihDMT1PKU49W0NIXVtDQEBIXTFbQ0gyXVtDSDJdW0NIMl1OKFtDSDNdKVtDQEBIXShbQ0gzXSljMltjSF1bY0hdW2NIXVtjSF1jMkNs

>  <s_glide_docking_method>  (1) 
confgen

>  <s_i_glide_gridfile>  (1) 
gpcr_5ht2c_6bqh_protein_autoprepared_prepared

>  <s_lp_Force_Field>  (1) 
S-OPLS

>  <s_lp_Variant>  (1) 
DiffSBDD_59_num_sample_100-2

>  <s_m_source_file>  (1) 
generated__ligand_DiffSBDD_2026-05-06_prepared.sdf

>  <GenAI_Model>  (1) 
DiffSBDD

>  <Protein>  (1) 
GPCR_5HT2C

$$$$
DiffSBDD_46_num_sample_100
     RDKit          3D

  0  0  0  0  0  0  0  0  0  0999 V3000
M  V30 BEGIN CTAB
M  V30 COUNTS 66 69 0 0 1
M  V30 BEGIN ATOM
M  V30 1 N 39.687959 34.384789 61.215217 0 CHG=-1
M  V30 2 N 38.828053 29.677583 55.116149 0
M  V30 3 C 38.042290 30.427928 60.600822 0
M  V30 4 C 44.665289 29.026875 66.683727 0
M  V30 5 C 38.853337 30.243597 58.100075 0
M  V30 6 O 41.739768 35.509635 63.932445 0
M  V30 7 O 39.867379 37.580320 63.053380 0
M  V30 8 C 43.481677 30.990961 65.900681 0
M  V30 9 N 44.255055 30.175369 66.724474 0
M  V30 10 F 43.832078 32.848282 67.386234 0
M  V30 11 C 37.923653 30.784540 59.175182 0 CFG=2
M  V30 12 N 41.182594 33.363239 63.301230 0
M  V30 13 C 38.240605 28.983395 57.432740 0 CFG=2
M  V30 14 C 42.515631 33.167308 65.411086 0
M  V30 15 C 40.037067 36.687977 61.969623 0
M  V30 16 C 40.262621 26.774588 57.195381 0
M  V30 17 C 39.599184 28.802915 51.040495 0
M  V30 18 C 39.070308 29.368536 53.758919 0
M  V30 19 C 43.283924 32.345761 66.253167 0
M  V30 20 C 38.418256 34.053883 60.905901 0
M  V30 21 C 42.206517 31.236553 63.972260 0
M  V30 22 C 41.969769 32.598801 64.232689 0
M  V30 23 N 42.945532 30.440816 64.778747 0
M  V30 24 C 40.250129 27.965368 56.234082 0
M  V30 25 C 39.867366 30.082119 51.560231 0
M  V30 26 C 39.903102 35.210856 62.405184 0 CFG=2
M  V30 27 C 38.267365 27.769046 58.384462 0
M  V30 28 C 39.599580 30.366203 52.914439 0
M  V30 29 C 37.840518 32.899078 60.428356 0
M  V30 30 C 39.065260 27.802206 51.871495 0
M  V30 31 C 39.662882 27.150424 58.548947 0
M  V30 32 C 41.035040 34.705273 63.323891 0
M  V30 33 C 38.801195 28.075806 53.227966 0
M  V30 34 O 45.062946 27.923240 66.781729 0
M  V30 35 C 38.833648 28.562463 56.065112 0 CFG=2
M  V30 36 N 38.517373 31.728515 60.126371 0
M  V30 37 H 39.134559 30.576746 55.459567 0
M  V30 38 H 38.892210 29.853298 60.962757 0
M  V30 39 H 37.202211 30.566465 61.277610 0
M  V30 40 H 39.001328 31.041293 57.372840 0
M  V30 41 H 39.830915 30.021413 58.527333 0
M  V30 42 H 40.583785 37.445287 63.665530 0
M  V30 43 H 36.958858 31.143625 58.818497 0
M  V30 44 H 40.720695 32.858155 62.553431 0
M  V30 45 H 37.192094 29.222871 57.243706 0
M  V30 46 H 42.355623 34.198167 65.669098 0
M  V30 47 H 39.258787 36.927135 61.245267 0
M  V30 48 H 40.996609 36.869680 61.482229 0
M  V30 49 H 41.284015 26.421625 57.331698 0
M  V30 50 H 39.699321 25.947791 56.761093 0
M  V30 51 H 39.801740 28.589544 50.001177 0
M  V30 52 H 37.698037 34.883118 61.078788 0
M  V30 53 H 41.801117 30.772208 63.085075 0
M  V30 54 H 40.940615 28.731685 56.585020 0
M  V30 55 H 40.635795 27.614419 55.281961 0
M  V30 56 H 40.276288 30.850145 50.919377 0
M  V30 57 H 39.027530 35.173963 63.053656 0
M  V30 58 H 37.893309 28.063662 59.360099 0
M  V30 59 H 37.583801 27.006067 58.009004 0
M  V30 60 H 39.807496 31.351285 53.306908 0
M  V30 61 H 36.776121 32.835079 60.252685 0
M  V30 62 H 38.857995 26.821556 51.469026 0
M  V30 63 H 40.324915 27.839469 59.073099 0
M  V30 64 H 39.597039 26.256636 59.164401 0
M  V30 65 H 38.394102 27.298171 53.849314 0
M  V30 66 H 38.157424 27.782452 55.726992 0
M  V30 END ATOM
M  V30 BEGIN BOND
M  V30 1 2 9 4
M  V30 2 1 9 8
M  V30 3 1 11 3
M  V30 4 1 11 5
M  V30 5 1 13 5
M  V30 6 1 15 7
M  V30 7 1 18 2
M  V30 8 2 19 8
M  V30 9 1 19 10
M  V30 10 1 19 14
M  V30 11 1 20 1
M  V30 12 1 22 12
M  V30 13 2 22 14
M  V30 14 1 22 21
M  V30 15 1 23 8
M  V30 16 2 23 21
M  V30 17 1 24 16
M  V30 18 2 25 17
M  V30 19 1 26 1
M  V30 20 1 26 15
M  V30 21 1 27 13
M  V30 22 2 28 18
M  V30 23 1 28 25
M  V30 24 2 29 20
M  V30 25 1 30 17
M  V30 26 1 31 16
M  V30 27 1 31 27
M  V30 28 2 32 6
M  V30 29 1 32 12
M  V30 30 1 32 26
M  V30 31 1 33 18
M  V30 32 2 33 30
M  V30 33 2 34 4
M  V30 34 1 35 2
M  V30 35 1 35 13
M  V30 36 1 35 24
M  V30 37 1 36 3
M  V30 38 1 36 11
M  V30 39 1 36 29
M  V30 40 1 37 2
M  V30 41 1 38 3
M  V30 42 1 39 3
M  V30 43 1 40 5
M  V30 44 1 41 5
M  V30 45 1 42 7
M  V30 46 1 11 43 CFG=3
M  V30 47 1 44 12
M  V30 48 1 13 45 CFG=3
M  V30 49 1 46 14
M  V30 50 1 47 15
M  V30 51 1 48 15
M  V30 52 1 49 16
M  V30 53 1 50 16
M  V30 54 1 51 17
M  V30 55 1 52 20
M  V30 56 1 53 21
M  V30 57 1 54 24
M  V30 58 1 55 24
M  V30 59 1 56 25
M  V30 60 1 26 57 CFG=1
M  V30 61 1 58 27
M  V30 62 1 59 27
M  V30 63 1 60 28
M  V30 64 1 61 29
M  V30 65 1 62 30
M  V30 66 1 63 31
M  V30 67 1 64 31
M  V30 68 1 65 33
M  V30 69 1 35 66 CFG=3
M  V30 END BOND
M  V30 END CTAB
M  END
>  <i_epik_Tot_Q>  (1) 
-1

>  <i_epik_Tot_abs_Q>  (1) 
1

>  <i_i_glide_confnum>  (1) 
270

>  <i_i_glide_lignum>  (1) 
127

>  <i_i_glide_posenum>  (1) 
165

>  <i_i_glide_rotatable_bonds>  (1) 
13

>  <i_lp_mmshare_version>  (1) 
72125

>  <i_m_source_file_index>  (1) 
47

>  <i_f3d_flags>  (1) 
0

>  <num_sample>  (1) 
100

>  <b_lp_Chiralities_Consistent>  (1) 
1

>  <r_epik_Charging_Adjusted_Penalty>  (1) 
0.89067625700486475

>  <r_epik_Ionization_Penalty>  (1) 
0.26609996420413234

>  <r_epik_Ionization_Penalty_Charging>  (1) 
0.17619897240493029

>  <r_epik_Ionization_Penalty_Neutral>  (1) 
0.089900991799202065

>  <r_epik_State_Penalty>  (1) 
0.71447728459993443

>  <r_glide_ring_energy>  (1) 
0

>  <r_i_docking_score>  (1) 
-6.7432739963620065

>  <r_i_glide_ecoul>  (1) 
-2.4325644572510394

>  <r_i_glide_eff_state_penalty>  (1) 
0.71447728459993443

>  <r_i_glide_einternal>  (1) 
19.324297183944978

>  <r_i_glide_emodel>  (1) 
-67.610831762372086

>  <r_i_glide_emodel_strain>  (1) 
1.0607646163939108

>  <r_i_glide_energy>  (1) 
-52.173730970146082

>  <r_i_glide_erotb>  (1) 
1.0035370279361706

>  <r_i_glide_esite>  (1) 
-0.0078667371882747226

>  <r_i_glide_evdw>  (1) 
-49.741166512895042

>  <r_i_glide_gscore>  (1) 
-7.4577512809619408

>  <r_i_glide_gscore_strain>  (1) 
0

>  <r_i_glide_hbond>  (1) 
-0.27341985501834548

>  <r_i_glide_ligand_efficiency>  (1) 
-0.18731316656561128

>  <r_i_glide_ligand_efficiency_ln>  (1) 
-1.4712002037965568

>  <r_i_glide_ligand_efficiency_sa>  (1) 
-0.61849444875973003

>  <r_i_glide_lipo>  (1) 
-4.1355939679983322

>  <r_i_glide_metal>  (1) 
-0

>  <r_i_glide_rewards>  (1) 
-1.1924647544607501

>  <r_lp_Energy>  (1) 
55.207712000000001

>  <s_epik_Chemistry_Notes>  (1) 
This compound has an imine and may undergo hydrolysis.

>  <s_epik_cmdline>  (1) 
J2VwaWtfcHl0aG9uJywgJy1waHQnLCAnMS4wJywgJy1waCcsICc3LjQnLCAnLXRuJywgJzgnLCAnLW1hJywgJzUwMCcsICctaW1hZScsICc8aW5maWxlLm1hZT4nLCAnLW9tYWUnLCAnPG91dGZpbGUubWFlPic=

>  <s_epik_input>  (1) 
Tz1DPU5jMWMoRilbY0hdYyhbY0hdbjEpW05IXUMoPU8pW0NAQEhdKFtDSDJdW09IXSkvTj1bQ0hdL1tDSDJdTjJbQ0gyXVtDQEBIXTJbQ0gyXVtDQEBIXTNbQ0gyXVtDSDJdW0NIMl1bQ0gyXVtDQEBIXTNbTkhdYzRbY0hdW2NIXVtjSF1bY0hdW2NIXTQ=

>  <s_glide_docking_method>  (1) 
confgen

>  <s_i_glide_gridfile>  (1) 
gpcr_5ht2c_6bqh_protein_autoprepared_prepared

>  <s_lp_Force_Field>  (1) 
S-OPLS

>  <s_lp_Variant>  (1) 
DiffSBDD_46_num_sample_100-3

>  <s_m_source_file>  (1) 
generated__ligand_DiffSBDD_2026-05-06_prepared.sdf

>  <GenAI_Model>  (1) 
DiffSBDD

>  <Protein>  (1) 
GPCR_5HT2C

$$$$
DiffSBDD_15_num_sample_100
     RDKit          3D

  0  0  0  0  0  0  0  0  0  0999 V3000
M  V30 BEGIN CTAB
M  V30 COUNTS 74 79 0 0 1
M  V30 BEGIN ATOM
M  V30 1 C 38.673398 31.954240 59.783345 0
M  V30 2 S 38.234293 31.957808 55.659680 0
M  V30 3 N 43.000443 32.557352 65.894826 0
M  V30 4 C 40.180977 28.480518 50.645990 0
M  V30 5 C 40.524606 35.141997 63.796508 0
M  V30 6 C 43.553701 28.722562 65.615497 0
M  V30 7 S 40.932745 30.184698 63.601079 0
M  V30 8 S 41.711028 34.940734 65.168542 0
M  V30 9 O 39.867405 30.421465 64.581748 0
M  V30 10 C 38.952365 29.066006 53.265129 0
M  V30 11 C 39.538430 30.115143 52.653546 0
M  V30 12 C 38.801569 31.385140 57.287345 0 CFG=1
M  V30 13 C 42.960354 30.024520 66.133557 0 CFG=1
M  V30 14 N 38.475799 29.445349 54.505417 0
M  V30 15 C 41.195501 35.392802 62.439410 0
M  V30 16 C 40.171010 35.528773 61.307687 0
M  V30 17 C 43.117969 31.237191 65.192983 0 CFG=1
M  V30 18 C 39.254764 28.285065 59.504167 0
M  V30 19 S 40.267412 30.241324 51.084428 0
M  V30 20 C 38.785854 27.684808 52.726962 0
M  V30 21 N 41.833645 32.568348 63.985859 0
M  V30 22 C 38.575841 30.447174 60.068999 0 CFG=2
M  V30 23 N 41.679706 29.887502 66.808942 0
M  V30 24 O 38.267416 33.621350 58.133408 0
M  V30 25 C 38.931881 27.722924 51.181041 0
M  V30 26 C 40.321513 30.798037 61.968098 0
M  V30 27 C 38.121337 32.247245 58.382384 0 CFG=2
M  V30 28 N 42.228257 31.288189 63.946958 0
M  V30 29 C 39.209908 29.905755 61.369507 0 CFG=2
M  V30 30 C 42.834105 30.192384 67.630749 0
M  V30 31 C 42.267396 33.201695 65.074492 0
M  V30 32 C 39.681104 28.486591 60.967842 0
M  V30 33 O 41.494345 28.839769 63.416824 0
M  V30 34 C 38.767941 30.756339 54.514207 0
M  V30 35 N 39.193155 29.658068 58.986916 0 CFG=2 CHG=1
M  V30 36 O 39.476983 31.212694 53.441930 0
M  V30 37 C 38.597596 29.890850 57.644813 0
M  V30 38 H 39.698637 32.314335 59.853533 0
M  V30 39 H 38.106991 32.510443 60.531283 0
M  V30 40 H 40.246258 28.421442 49.561915 0
M  V30 41 H 41.067406 28.021457 51.060626 0
M  V30 42 H 39.867459 34.275496 63.739625 0
M  V30 43 H 39.887160 35.992865 64.041439 0
M  V30 44 H 43.732765 28.770438 64.541464 0
M  V30 45 H 44.514611 28.539463 66.096680 0
M  V30 46 H 42.899249 27.874430 65.820200 0
M  V30 47 H 39.867325 31.576049 57.242913 0
M  V30 48 H 41.807783 36.294523 62.490893 0
M  V30 49 H 41.867350 34.572547 62.197202 0
M  V30 50 H 40.666541 35.636226 60.344028 0
M  V30 51 H 39.527694 34.651193 61.244477 0
M  V30 52 H 39.533928 36.401023 61.457090 0
M  V30 53 H 44.144637 31.174368 64.827560 0
M  V30 54 H 39.956137 27.664846 58.944825 0
M  V30 55 H 38.267572 27.824341 59.447752 0
M  V30 56 H 39.539722 27.023157 53.154230 0
M  V30 57 H 37.814455 27.270466 53.000311 0
M  V30 58 H 41.237079 32.968211 63.280569 0
M  V30 59 H 37.516798 30.180067 60.088872 0
M  V30 60 H 41.280247 28.961902 66.889048 0
M  V30 61 H 37.775411 33.827403 57.348673 0
M  V30 62 H 38.046872 28.199579 50.767224 0
M  V30 63 H 38.932038 26.704839 50.793071 0
M  V30 64 H 41.166846 30.900086 61.294464 0
M  V30 65 H 39.928840 31.796051 62.154659 0
M  V30 66 H 37.056014 32.035031 58.381343 0
M  V30 67 H 38.431259 29.833243 62.129492 0
M  V30 68 H 43.206697 29.395437 68.270610 0
M  V30 69 H 42.878589 31.187905 68.067450 0
M  V30 70 H 40.767880 28.408409 61.024310 0
M  V30 71 H 39.270921 27.725868 61.631060 0
M  V30 72 H 39.120632 29.242289 56.945362 0
M  V30 73 H 37.539209 29.619662 57.632052 0
M  V30 74 H 40.153883 29.961561 58.925501 0
M  V30 END ATOM
M  V30 BEGIN BOND
M  V30 1 1 8 5
M  V30 2 2 9 7
M  V30 3 2 11 10
M  V30 4 1 12 2
M  V30 5 1 13 6 CFG=1
M  V30 6 1 14 10
M  V30 7 1 15 5
M  V30 8 1 16 15
M  V30 9 1 17 3
M  V30 10 1 17 13
M  V30 11 1 19 4
M  V30 12 1 19 11
M  V30 13 1 20 10
M  V30 14 1 22 1
M  V30 15 1 23 13
M  V30 16 1 25 4
M  V30 17 1 25 20
M  V30 18 1 26 7
M  V30 19 1 27 1
M  V30 20 1 27 12
M  V30 21 1 27 24
M  V30 22 1 28 7
M  V30 23 1 28 17
M  V30 24 1 28 21
M  V30 25 1 29 22
M  V30 26 1 29 26
M  V30 27 1 30 13
M  V30 28 1 30 23
M  V30 29 2 31 3
M  V30 30 1 31 8
M  V30 31 1 31 21
M  V30 32 1 32 18
M  V30 33 1 32 29
M  V30 34 2 33 7
M  V30 35 1 34 2
M  V30 36 2 34 14
M  V30 37 1 35 18
M  V30 38 1 35 22
M  V30 39 1 36 11
M  V30 40 1 36 34
M  V30 41 1 37 12
M  V30 42 1 37 35
M  V30 43 1 38 1
M  V30 44 1 39 1
M  V30 45 1 40 4
M  V30 46 1 41 4
M  V30 47 1 42 5
M  V30 48 1 43 5
M  V30 49 1 44 6
M  V30 50 1 45 6
M  V30 51 1 46 6
M  V30 52 1 12 47 CFG=3
M  V30 53 1 48 15
M  V30 54 1 49 15
M  V30 55 1 50 16
M  V30 56 1 51 16
M  V30 57 1 52 16
M  V30 58 1 17 53 CFG=3
M  V30 59 1 54 18
M  V30 60 1 55 18
M  V30 61 1 56 20
M  V30 62 1 57 20
M  V30 63 1 58 21
M  V30 64 1 22 59 CFG=1
M  V30 65 1 60 23
M  V30 66 1 61 24
M  V30 67 1 62 25
M  V30 68 1 63 25
M  V30 69 1 64 26
M  V30 70 1 65 26
M  V30 71 1 27 66 CFG=1
M  V30 72 1 29 67 CFG=1
M  V30 73 1 68 30
M  V30 74 1 69 30
M  V30 75 1 70 32
M  V30 76 1 71 32
M  V30 77 1 72 37
M  V30 78 1 73 37
M  V30 79 1 35 74 CFG=3
M  V30 END BOND
M  V30 END CTAB
M  END
>  <i_epik_Tot_Q>  (1) 
1

>  <i_epik_Tot_abs_Q>  (1) 
1

>  <i_i_glide_confnum>  (1) 
539

>  <i_i_glide_lignum>  (1) 
37

>  <i_i_glide_posenum>  (1) 
290

>  <i_i_glide_rotatable_bonds>  (1) 
10

>  <i_lp_mmshare_version>  (1) 
72125

>  <i_m_source_file_index>  (1) 
16

>  <i_f3d_flags>  (1) 
0

>  <num_sample>  (1) 
100

>  <b_lp_Chiralities_Consistent>  (1) 
1

>  <r_epik_Charging_Adjusted_Penalty>  (1) 
0.0082019649409003706

>  <r_epik_Ionization_Penalty>  (1) 
0.015626865898487191

>  <r_epik_Ionization_Penalty_Charging>  (1) 
0.0082019649409003706

>  <r_epik_Ionization_Penalty_Neutral>  (1) 
0.0074249009575868222

>  <r_epik_State_Penalty>  (1) 
-0

>  <r_glide_ring_energy>  (1) 
0

>  <r_i_docking_score>  (1) 
-6.7383763781038484

>  <r_i_glide_ecoul>  (1) 
2.9128346907656146

>  <r_i_glide_eff_state_penalty>  (1) 
-0

>  <r_i_glide_einternal>  (1) 
10.17340199247711

>  <r_i_glide_emodel>  (1) 
-54.648608351334829

>  <r_i_glide_emodel_strain>  (1) 
1.2020966179192243

>  <r_i_glide_energy>  (1) 
-49.51412823641688

>  <r_i_glide_erotb>  (1) 
0.37349522713264072

>  <r_i_glide_esite>  (1) 
-0.06150096103401631

>  <r_i_glide_evdw>  (1) 
-52.426962927182494

>  <r_i_glide_gscore>  (1) 
-6.7383763781038484

>  <r_i_glide_gscore_strain>  (1) 
0

>  <r_i_glide_hbond>  (1) 
0

>  <r_i_glide_ligand_efficiency>  (1) 
-0.18211828048929321

>  <r_i_glide_ligand_efficiency_ln>  (1) 
-1.4613958664554907

>  <r_i_glide_ligand_efficiency_sa>  (1) 
-0.60685851383060974

>  <r_i_glide_lipo>  (1) 
-3.6940455934200345

>  <r_i_glide_metal>  (1) 
-0

>  <r_i_glide_rewards>  (1) 
-1.1719021080381555

>  <r_lp_Energy>  (1) 
9.5312570000000001

>  <r_lp_tautomer_probability>  (1) 
1

>  <s_epik_Chemistry_Notes>  (1) 
This compound has an imine and may undergo hydrolysis. This compound contains an acetal/aminal-like group ( X-CH(R)-Y where X, Y are N, S, or O) that may be acid/base labile, releasing an aldehyde.

>  <s_epik_cmdline>  (1) 
J2VwaWtfcHl0aG9uJywgJy1waHQnLCAnMS4wJywgJy1waCcsICc3LjQnLCAnLXRuJywgJzgnLCAnLW1hJywgJzUwMCcsICctaW1hZScsICc8aW5maWxlLm1hZT4nLCAnLW9tYWUnLCAnPG91dGZpbGUubWFlPic=

>  <s_epik_input>  (1) 
W0NIMl0xW0NIMl1bQ0gyXVNjKGMxMilvYyhuMilTW0NAQEhdKFtDQEBIXShbQ0gyXTMpW09IXSlbQ0gyXU4oW0NASF0zNClbQ0gyXVtDSDJdW0NASF00W0NIMl1TKD1PKSg9TylONVtOSF1DKFNbQ0gyXVtDSDJdW0NIM10pPU5bQ0BASF01W0NAXTYoW0NIM10pW05IXVtDSDJdNg==

>  <s_glide_docking_method>  (1) 
confgen

>  <s_i_glide_gridfile>  (1) 
gpcr_5ht2c_6bqh_protein_autoprepared_prepared

>  <s_lp_Force_Field>  (1) 
S-OPLS

>  <s_lp_Variant>  (1) 
DiffSBDD_15_num_sample_100-4

>  <s_m_source_file>  (1) 
generated__ligand_DiffSBDD_2026-05-06_prepared.sdf

>  <GenAI_Model>  (1) 
DiffSBDD

>  <Protein>  (1) 
GPCR_5HT2C

$$$$
DiffSBDD_5_num_sample_100
     RDKit          3D

  0  0  0  0  0  0  0  0  0  0999 V3000
M  V30 BEGIN CTAB
M  V30 COUNTS 50 52 0 0 1
M  V30 BEGIN ATOM
M  V30 1 C 36.833879 24.399854 56.203827 0
M  V30 2 O 39.313439 25.981378 56.136466 0
M  V30 3 C 38.544584 31.013273 56.430824 0
M  V30 4 C 39.867413 30.121334 52.367234 0
M  V30 5 C 38.677672 29.548269 55.965307 0 CFG=1
M  V30 6 C 39.669029 28.604683 50.343956 0
M  V30 7 C 38.546605 28.187251 53.813008 0
M  V30 8 C 36.267847 23.031143 55.814806 0
M  V30 9 C 37.883832 27.839084 58.252975 0
M  V30 10 C 40.879221 28.421466 56.488841 0
M  V30 11 N 38.770912 27.951760 52.500659 0
M  V30 12 N 37.750764 26.629426 57.849229 0
M  V30 13 S 37.869747 31.121646 58.116230 0
M  V30 14 C 38.039180 24.330274 57.175404 0
M  V30 15 C 38.955788 29.365574 54.473053 0
M  V30 16 C 39.626965 30.356791 53.730153 0
M  V30 17 C 39.195063 28.603658 58.343144 0 CFG=1
M  V30 18 C 41.571958 27.621429 58.660249 0
M  V30 19 C 38.748082 25.679770 57.390297 0 CFG=1
M  V30 20 C 41.841862 27.834495 57.380440 0
M  V30 21 C 39.667121 28.821568 56.901328 0
M  V30 22 C 38.917062 29.959489 59.030870 0
M  V30 23 C 39.424885 28.907233 51.802169 0
M  V30 24 C 40.235272 27.911373 59.293730 0
M  V30 25 H 36.038996 24.990205 56.658712 0
M  V30 26 H 37.104332 24.930817 55.290438 0
M  V30 27 H 40.211122 26.247156 56.273493 0
M  V30 28 H 39.509852 31.520932 56.410183 0
M  V30 29 H 37.869064 31.566001 55.776067 0
M  V30 30 H 40.383764 30.855374 51.765504 0
M  V30 31 H 37.684081 29.112850 56.060867 0
M  V30 32 H 40.180851 29.421563 49.834371 0
M  V30 33 H 38.716266 28.421440 49.853325 0
M  V30 34 H 40.267339 27.699113 50.253579 0
M  V30 35 H 38.028361 27.410000 54.354442 0
M  V30 36 H 35.244463 23.128588 55.453577 0
M  V30 37 H 36.267394 22.338465 56.653572 0
M  V30 38 H 36.862541 22.580042 55.020843 0
M  V30 39 H 37.013062 28.421468 58.563843 0
M  V30 40 H 41.156422 28.600984 55.470366 0
M  V30 41 H 37.705167 23.935735 58.136786 0
M  V30 42 H 38.776576 23.622252 56.804087 0
M  V30 43 H 39.957765 31.273180 54.195116 0
M  V30 44 H 42.332909 27.213527 59.302798 0
M  V30 45 H 39.545680 25.538794 58.116363 0
M  V30 46 H 42.824468 27.589573 57.009960 0
M  V30 47 H 38.452203 29.812062 60.007367 0
M  V30 48 H 39.867411 30.423683 59.240359 0
M  V30 49 H 40.443315 28.506391 60.184465 0
M  V30 50 H 39.861001 26.976184 59.699362 0
M  V30 END ATOM
M  V30 BEGIN BOND
M  V30 1 1 5 3
M  V30 2 1 8 1
M  V30 3 1 11 7
M  V30 4 2 12 9
M  V30 5 1 13 3
M  V30 6 1 14 1
M  V30 7 1 15 5
M  V30 8 2 15 7
M  V30 9 2 16 4
M  V30 10 1 16 15
M  V30 11 1 17 9 CFG=3
M  V30 12 1 19 2
M  V30 13 1 19 12
M  V30 14 1 19 14
M  V30 15 1 20 10
M  V30 16 2 20 18
M  V30 17 1 21 5
M  V30 18 2 21 10
M  V30 19 1 21 17
M  V30 20 1 22 13
M  V30 21 1 22 17
M  V30 22 1 23 4
M  V30 23 1 23 6
M  V30 24 2 23 11
M  V30 25 1 24 17
M  V30 26 1 24 18
M  V30 27 1 25 1
M  V30 28 1 26 1
M  V30 29 1 27 2
M  V30 30 1 28 3
M  V30 31 1 29 3
M  V30 32 1 30 4
M  V30 33 1 5 31 CFG=3
M  V30 34 1 32 6
M  V30 35 1 33 6
M  V30 36 1 34 6
M  V30 37 1 35 7
M  V30 38 1 36 8
M  V30 39 1 37 8
M  V30 40 1 38 8
M  V30 41 1 39 9
M  V30 42 1 40 10
M  V30 43 1 41 14
M  V30 44 1 42 14
M  V30 45 1 43 16
M  V30 46 1 44 18
M  V30 47 1 19 45 CFG=1
M  V30 48 1 46 20
M  V30 49 1 47 22
M  V30 50 1 48 22
M  V30 51 1 49 24
M  V30 52 1 50 24
M  V30 END BOND
M  V30 END CTAB
M  END
>  <i_epik_Tot_Q>  (1) 
0

>  <i_epik_Tot_abs_Q>  (1) 
0

>  <i_i_glide_confnum>  (1) 
32

>  <i_i_glide_lignum>  (1) 
24

>  <i_i_glide_posenum>  (1) 
391

>  <i_i_glide_rotatable_bonds>  (1) 
6

>  <i_lp_mmshare_version>  (1) 
72125

>  <i_m_source_file_index>  (1) 
6

>  <i_f3d_flags>  (1) 
0

>  <num_sample>  (1) 
100

>  <b_lp_Chiralities_Consistent>  (1) 
1

>  <r_epik_Charging_Adjusted_Penalty>  (1) 
0.0081103479682914613

>  <r_epik_Ionization_Penalty>  (1) 
0.0085425111303935736

>  <r_epik_Ionization_Penalty_Charging>  (1) 
0

>  <r_epik_Ionization_Penalty_Neutral>  (1) 
0.0085425111303935736

>  <r_epik_State_Penalty>  (1) 
0.0081103479682914613

>  <r_glide_ring_energy>  (1) 
0

>  <r_i_docking_score>  (1) 
-6.7376214449995508

>  <r_i_glide_ecoul>  (1) 
-0.53819245245962266

>  <r_i_glide_eff_state_penalty>  (1) 
0.0081103479682914613

>  <r_i_glide_einternal>  (1) 
1.9979477787458588

>  <r_i_glide_emodel>  (1) 
-31.561709114852626

>  <r_i_glide_emodel_strain>  (1) 
1.9302631427146437

>  <r_i_glide_energy>  (1) 
-27.222488605478592

>  <r_i_glide_erotb>  (1) 
0.64660109196089122

>  <r_i_glide_esite>  (1) 
0

>  <r_i_glide_evdw>  (1) 
-26.68429615301897

>  <r_i_glide_gscore>  (1) 
-6.7457317929678426

>  <r_i_glide_gscore_strain>  (1) 
0

>  <r_i_glide_hbond>  (1) 
0

>  <r_i_glide_ligand_efficiency>  (1) 
-0.28073422687498129

>  <r_i_glide_ligand_efficiency_ln>  (1) 
-1.6126219810907623

>  <r_i_glide_ligand_efficiency_sa>  (1) 
-0.80977763616204856

>  <r_i_glide_lipo>  (1) 
-3.5809406257319263

>  <r_i_glide_metal>  (1) 
-0

>  <r_i_glide_rewards>  (1) 
-2.3964485836769152

>  <r_lp_Energy>  (1) 
34.052436999999998

>  <s_epik_Chemistry_Notes>  (1) 
This compound has an imine and may undergo hydrolysis. This compound contains an acetal/aminal-like group ( X-CH(R)-Y where X, Y are N, S, or O) that may be acid/base labile, releasing an aldehyde.

>  <s_epik_cmdline>  (1) 
J2VwaWtfcHl0aG9uJywgJy1waHQnLCAnMS4wJywgJy1waCcsICc3LjQnLCAnLXRuJywgJzgnLCAnLW1hJywgJzUwMCcsICctaW1hZScsICc8aW5maWxlLm1hZT4nLCAnLW9tYWUnLCAnPG91dGZpbGUubWFlPic=

>  <s_epik_input>  (1) 
W0NIM11bQ0gyXVtDSDJdW0NAQEhdKFtPSF0pL049W0NIXVxbQ0BAXTEyQyg9W0NIXVtDSF09W0NIXVtDSDJdMilbQ0BASF0oW0NIMl1TW0NIMl0xKWMzW2NIXW5jKFtDSDNdKVtjSF1bY0hdMw==

>  <s_glide_docking_method>  (1) 
confgen

>  <s_i_glide_gridfile>  (1) 
gpcr_5ht2c_6bqh_protein_autoprepared_prepared

>  <s_lp_Force_Field>  (1) 
S-OPLS

>  <s_lp_Variant>  (1) 
DiffSBDD_5_num_sample_100-2

>  <s_m_source_file>  (1) 
generated__ligand_DiffSBDD_2026-05-06_prepared.sdf

>  <GenAI_Model>  (1) 
DiffSBDD

>  <Protein>  (1) 
GPCR_5HT2C

$$$$
DiffSBDD_91_num_sample_100
     RDKit          3D

  0  0  0  0  0  0  0  0  0  0999 V3000
M  V30 BEGIN CTAB
M  V30 COUNTS 73 75 0 0 1
M  V30 BEGIN ATOM
M  V30 1 C 44.218608 31.363045 66.807348 0
M  V30 2 C 41.769646 34.727332 64.581406 0 CFG=1
M  V30 3 N 36.586015 33.223454 59.053525 0
M  V30 4 C 40.479033 32.777844 62.866938 0 CFG=2
M  V30 5 O 40.509862 31.820196 61.839434 0
M  V30 6 C 40.872511 35.184088 63.415350 0 CFG=2
M  V30 7 F 44.921904 31.383576 69.093496 0
M  V30 8 C 40.869475 34.148077 62.270095 0 CFG=2
M  V30 9 C 42.337814 32.764321 66.115551 0
M  V30 10 C 38.203656 30.973014 55.850503 0
M  V30 11 C 39.806873 30.686004 62.081545 0
M  V30 12 C 37.311810 32.114791 59.385146 0
M  V30 13 C 38.429095 28.987684 53.350362 0 CFG=1
M  V30 14 O 39.067252 30.504581 63.045573 0
M  V30 15 C 39.381496 30.040125 55.509895 0
M  V30 16 C 39.865471 34.527611 61.159362 0
M  V30 17 S 38.667372 32.284105 57.018027 0
M  V30 18 C 43.347974 31.828234 65.801493 0
M  V30 19 O 41.547869 35.621440 65.658066 0
M  V30 20 O 41.362659 36.413716 62.912469 0
M  V30 21 C 38.961307 28.753861 54.773623 0
M  V30 22 C 38.929235 29.464911 59.929676 0
M  V30 23 C 41.397806 33.286570 65.022244 0 CFG=2
M  V30 24 C 44.082592 31.829107 68.128569 0
M  V30 25 C 43.074108 32.758333 68.447244 0
M  V30 26 N 39.055474 30.421403 58.842325 0
M  V30 27 O 39.467363 29.500279 52.539469 0
M  V30 28 C 42.201337 33.224753 67.444120 0
M  V30 29 C 38.275924 31.565687 58.590694 0
M  V30 30 C 36.887045 31.660698 60.607264 0
M  V30 31 C 40.021204 29.605806 61.018955 0
M  V30 32 C 37.899193 27.706641 52.696231 0
M  V30 33 C 35.500877 33.579701 60.040713 0 CFG=2
M  V30 34 C 35.893953 32.418834 61.013410 0
M  V30 35 C 34.093602 33.436630 59.453704 0
M  V30 36 O 41.405469 32.445175 63.865541 0
M  V30 37 H 44.992377 30.648892 66.564592 0
M  V30 38 H 42.818708 34.759425 64.286336 0
M  V30 39 H 39.481346 32.837012 63.308312 0
M  V30 40 H 39.853497 35.336513 63.771716 0
M  V30 41 H 41.867295 34.054602 61.842428 0
M  V30 42 H 37.823210 31.448381 54.946645 0
M  V30 43 H 37.372084 30.413359 56.280722 0
M  V30 44 H 37.617961 29.711383 53.394379 0
M  V30 45 H 39.882327 29.739179 56.426910 0
M  V30 46 H 40.129600 30.583627 54.931428 0
M  V30 47 H 38.846844 34.580637 61.544897 0
M  V30 48 H 40.104419 35.497803 60.723754 0
M  V30 49 H 39.867126 33.805596 60.342311 0
M  V30 50 H 43.458343 31.469964 64.788695 0
M  V30 51 H 41.867402 36.485660 65.425478 0
M  V30 52 H 41.403000 37.051687 63.615583 0
M  V30 53 H 38.199969 28.245352 55.366572 0
M  V30 54 H 39.809185 28.069303 54.736497 0
M  V30 55 H 37.913499 29.275081 60.253718 0
M  V30 56 H 39.156821 28.516717 59.442181 0
M  V30 57 H 40.386798 33.266247 65.433776 0
M  V30 58 H 42.970887 33.115242 69.461335 0
M  V30 59 H 39.716658 30.160682 58.125756 0
M  V30 60 H 39.130354 29.652376 51.669681 0
M  V30 61 H 41.430344 33.939954 67.691424 0
M  V30 62 H 37.275823 30.830729 61.149826 0
M  V30 63 H 40.098113 28.657594 61.552495 0
M  V30 64 H 40.990769 29.761718 60.546069 0
M  V30 65 H 37.082247 27.276908 53.276972 0
M  V30 66 H 37.515661 27.909261 51.695974 0
M  V30 67 H 38.678443 26.948987 52.607255 0
M  V30 68 H 35.676951 34.556810 60.490130 0
M  V30 69 H 35.366904 32.274627 61.935889 0
M  V30 70 H 33.334439 33.621430 60.211416 0
M  V30 71 H 33.932029 34.152589 58.647712 0
M  V30 72 H 33.931919 32.435382 59.053469 0
M  V30 73 H 36.526394 33.543936 58.094963 0
M  V30 END ATOM
M  V30 BEGIN BOND
M  V30 1 1 5 4
M  V30 2 1 6 2
M  V30 3 1 8 4
M  V30 4 1 8 6
M  V30 5 1 11 5
M  V30 6 1 12 3
M  V30 7 2 14 11
M  V30 8 1 15 10
M  V30 9 1 16 8
M  V30 10 1 17 10
M  V30 11 2 18 1
M  V30 12 1 18 9
M  V30 13 1 19 2
M  V30 14 1 20 6
M  V30 15 1 21 13
M  V30 16 1 21 15
M  V30 17 1 23 2
M  V30 18 1 23 9
M  V30 19 1 24 1
M  V30 20 1 24 7
M  V30 21 2 25 24
M  V30 22 1 26 22
M  V30 23 1 27 13
M  V30 24 2 28 9
M  V30 25 1 28 25
M  V30 26 2 29 12
M  V30 27 1 29 17
M  V30 28 1 29 26
M  V30 29 1 30 12
M  V30 30 1 31 11
M  V30 31 1 31 22
M  V30 32 1 32 13
M  V30 33 1 33 3
M  V30 34 2 34 30
M  V30 35 1 34 33
M  V30 36 1 35 33
M  V30 37 1 36 4
M  V30 38 1 36 23
M  V30 39 1 37 1
M  V30 40 1 2 38 CFG=3
M  V30 41 1 4 39 CFG=1
M  V30 42 1 6 40 CFG=1
M  V30 43 1 8 41 CFG=3
M  V30 44 1 42 10
M  V30 45 1 43 10
M  V30 46 1 13 44 CFG=1
M  V30 47 1 45 15
M  V30 48 1 46 15
M  V30 49 1 47 16
M  V30 50 1 48 16
M  V30 51 1 49 16
M  V30 52 1 50 18
M  V30 53 1 51 19
M  V30 54 1 52 20
M  V30 55 1 53 21
M  V30 56 1 54 21
M  V30 57 1 55 22
M  V30 58 1 56 22
M  V30 59 1 23 57 CFG=1
M  V30 60 1 58 25
M  V30 61 1 59 26
M  V30 62 1 60 27
M  V30 63 1 61 28
M  V30 64 1 62 30
M  V30 65 1 63 31
M  V30 66 1 64 31
M  V30 67 1 65 32
M  V30 68 1 66 32
M  V30 69 1 67 32
M  V30 70 1 33 68 CFG=1
M  V30 71 1 69 34
M  V30 72 1 70 35
M  V30 73 1 71 35
M  V30 74 1 72 35
M  V30 75 1 73 3
M  V30 END BOND
M  V30 END CTAB
M  END
>  <i_epik_Tot_Q>  (1) 
0

>  <i_epik_Tot_abs_Q>  (1) 
0

>  <i_i_glide_confnum>  (1) 
3660

>  <i_i_glide_lignum>  (1) 
246

>  <i_i_glide_posenum>  (1) 
266

>  <i_i_glide_rotatable_bonds>  (1) 
15

>  <i_lp_mmshare_version>  (1) 
72125

>  <i_m_source_file_index>  (1) 
92

>  <i_f3d_flags>  (1) 
0

>  <num_sample>  (1) 
100

>  <b_lp_Chiralities_Consistent>  (1) 
1

>  <r_epik_Charging_Adjusted_Penalty>  (1) 
0.41626047813520761

>  <r_epik_Ionization_Penalty>  (1) 
0.0056919315549441929

>  <r_epik_Ionization_Penalty_Charging>  (1) 
0.0055806391826036302

>  <r_epik_Ionization_Penalty_Neutral>  (1) 
0.00011129237234056257

>  <r_epik_State_Penalty>  (1) 
0.41067983895260396

>  <r_glide_ring_energy>  (1) 
0

>  <r_i_docking_score>  (1) 
-6.7294945498698091

>  <r_i_glide_ecoul>  (1) 
-4.511561139945206

>  <r_i_glide_eff_state_penalty>  (1) 
0.41067983895260396

>  <r_i_glide_einternal>  (1) 
9.6171603498315594

>  <r_i_glide_emodel>  (1) 
-69.128381512420091

>  <r_i_glide_emodel_strain>  (1) 
1.1132337842312836

>  <r_i_glide_energy>  (1) 
-53.61778067294663

>  <r_i_glide_erotb>  (1) 
0.89707811728232589

>  <r_i_glide_esite>  (1) 
-0.091750297288909238

>  <r_i_glide_evdw>  (1) 
-49.106219533001422

>  <r_i_glide_gscore>  (1) 
-7.1401743888224134

>  <r_i_glide_gscore_strain>  (1) 
0

>  <r_i_glide_hbond>  (1) 
-0.61071183461192757

>  <r_i_glide_ligand_efficiency>  (1) 
-0.18693040416305026

>  <r_i_glide_ligand_efficiency_ln>  (1) 
-1.4681939008495815

>  <r_i_glide_ligand_efficiency_sa>  (1) 
-0.61723059515286127

>  <r_i_glide_lipo>  (1) 
-3.369639128768275

>  <r_i_glide_metal>  (1) 
-0

>  <r_i_glide_rewards>  (1) 
-0.83310609779377487

>  <r_lp_Energy>  (1) 
23.896531

>  <r_lp_tautomer_probability>  (1) 
0.49957765584955821

>  <s_epik_Chemistry_Notes>  (1) 
This compound has an ester and may undergo hydrolysis at high or low pH. This compound has an imine and may undergo hydrolysis. This compound contains an acetal/aminal-like group ( X-CH(R)-Y where X, Y are N, S, or O) that may be acid/base labile, releasing an aldehyde.

>  <s_epik_cmdline>  (1) 
J2VwaWtfcHl0aG9uJywgJy1waHQnLCAnMS4wJywgJy1waCcsICc3LjQnLCAnLXRuJywgJzgnLCAnLW1hJywgJzUwMCcsICctaW1hZScsICc8aW5maWxlLm1hZT4nLCAnLW9tYWUnLCAnPG91dGZpbGUubWFlPic=

>  <s_epik_input>  (1) 
W2NIXTFbY0hdYyhGKVtjSF1bY0hdYzFbQ0BASF0yT1tDQEBIXShbQ0BASF0oW0NIM10pW0NASF0oW09IXSlbQ0BIXTJbT0hdKU9DKD1PKVtDSDJdW0NIMl1bTkhdW0NAQEhdKEMzPU5bQ0BASF0oW0NIM10pW0NIXT1bQ0hdMylTW0NIMl1bQ0gyXVtDSDJdW0NAQEhdKFtPSF0pW0NIM10=

>  <s_glide_docking_method>  (1) 
confgen

>  <s_i_glide_gridfile>  (1) 
gpcr_5ht2c_6bqh_protein_autoprepared_prepared

>  <s_lp_Force_Field>  (1) 
S-OPLS

>  <s_lp_Variant>  (1) 
DiffSBDD_91_num_sample_100-2

>  <s_m_source_file>  (1) 
generated__ligand_DiffSBDD_2026-05-06_prepared.sdf

>  <GenAI_Model>  (1) 
DiffSBDD

>  <Protein>  (1) 
GPCR_5HT2C

$$$$
DiffSBDD_63_num_sample_100
     RDKit          3D

  0  0  0  0  0  0  0  0  0  0999 V3000
M  V30 BEGIN CTAB
M  V30 COUNTS 66 69 0 0 1
M  V30 BEGIN ATOM
M  V30 1 C 36.479114 29.947803 58.803989 0
M  V30 2 O 38.238765 27.150691 55.117426 0
M  V30 3 C 38.260120 28.463648 54.624956 0 CFG=2
M  V30 4 O 41.300120 28.098436 58.744532 0
M  V30 5 C 37.011707 32.008685 60.133071 0
M  V30 6 C 41.169162 27.335073 57.562600 0
M  V30 7 C 39.192526 27.923527 51.015649 0
M  V30 8 C 39.466361 26.714071 55.707166 0 CFG=1
M  V30 9 F 41.723527 36.421405 62.653747 0
M  V30 10 C 40.581575 35.823266 62.296960 0
M  V30 11 C 39.544103 33.535374 62.221976 0
M  V30 12 S 37.129144 32.484303 61.863201 0
M  V30 13 C 38.328472 32.113815 59.342825 0
M  V30 14 C 38.392933 27.856797 52.316196 0
M  V30 15 N 39.067404 28.551969 53.407289 0
M  V30 16 O 39.354351 29.286591 50.653495 0
M  V30 17 C 40.560403 34.389289 62.419121 0
M  V30 18 C 40.063584 30.024544 51.634608 0
M  V30 19 F 36.441508 35.024867 60.960961 0
M  V30 20 C 37.704230 35.040100 61.421052 0
M  V30 21 C 39.597429 36.627274 61.872278 0
M  V30 22 C 38.668330 29.391348 55.800619 0 CFG=2
M  V30 23 C 39.810610 27.626022 56.909400 0 CFG=2
M  V30 24 C 36.573623 30.553389 60.184751 0
M  V30 25 C 39.380989 29.924895 53.011466 0
M  V30 26 C 39.301193 25.221344 56.035239 0
M  V30 27 C 38.166254 31.449757 57.966565 0
M  V30 28 O 39.881211 28.948164 56.396967 0
M  V30 29 O 38.435257 25.020062 57.132865 0
M  V30 30 F 39.843280 32.243239 62.448951 0
M  V30 31 N 37.728986 30.052221 58.064647 0
M  V30 32 N 38.232948 33.812580 61.829181 0
M  V30 33 C 38.281810 36.250967 61.431216 0
M  V30 34 F 39.867399 37.942829 61.853561 0
M  V30 35 C 37.484037 29.462132 56.766570 0
M  V30 36 H 35.666746 30.421425 58.260548 0
M  V30 37 H 36.189496 28.901999 58.897914 0
M  V30 38 H 37.232480 28.706046 54.347992 0
M  V30 39 H 40.510002 28.001405 59.253789 0
M  V30 40 H 36.244264 32.615462 59.649893 0
M  V30 41 H 41.230842 26.288106 57.853521 0
M  V30 42 H 41.995845 27.544663 56.886218 0
M  V30 43 H 40.168317 27.458581 51.128325 0
M  V30 44 H 38.667872 27.382576 50.234697 0
M  V30 45 H 40.263010 26.794038 54.965046 0
M  V30 46 H 38.618688 33.155932 59.212740 0
M  V30 47 H 39.132402 31.619713 59.889261 0
M  V30 48 H 38.231625 26.813460 52.586386 0
M  V30 49 H 37.405699 28.288378 52.145322 0
M  V30 50 H 41.490697 33.938713 62.733956 0
M  V30 51 H 41.067400 29.618338 51.687594 0
M  V30 52 H 40.150995 31.065116 51.320729 0
M  V30 53 H 38.822099 30.405640 55.439686 0
M  V30 54 H 39.039168 27.545082 57.675162 0
M  V30 55 H 35.617288 30.449534 60.695095 0
M  V30 56 H 37.325449 30.021433 60.758911 0
M  V30 57 H 38.476156 30.526400 53.053504 0
M  V30 58 H 40.069989 30.367506 53.731077 0
M  V30 59 H 40.267442 24.791165 56.286904 0
M  V30 60 H 38.929864 24.676678 55.166091 0
M  V30 61 H 39.122871 31.501016 57.447023 0
M  V30 62 H 37.467414 32.028741 57.363183 0
M  V30 63 H 37.602712 25.415314 56.919759 0
M  V30 64 H 37.665379 37.062184 61.071760 0
M  V30 65 H 36.667182 29.989426 56.269596 0
M  V30 66 H 37.132401 28.449435 56.951112 0
M  V30 END ATOM
M  V30 BEGIN BOND
M  V30 1 1 3 2
M  V30 2 1 6 4
M  V30 3 1 8 2
M  V30 4 1 10 9
M  V30 5 1 12 5
M  V30 6 1 13 5
M  V30 7 1 14 7
M  V30 8 1 15 3
M  V30 9 1 15 14
M  V30 10 1 16 7
M  V30 11 1 17 10
M  V30 12 2 17 11
M  V30 13 1 18 16
M  V30 14 1 20 19
M  V30 15 2 21 10
M  V30 16 1 22 3
M  V30 17 1 23 6
M  V30 18 1 23 8
M  V30 19 1 24 1
M  V30 20 1 24 5
M  V30 21 1 25 15
M  V30 22 1 25 18
M  V30 23 1 26 8
M  V30 24 1 27 13
M  V30 25 1 28 22
M  V30 26 1 28 23
M  V30 27 1 29 26
M  V30 28 1 30 11
M  V30 29 1 31 1
M  V30 30 1 31 27
M  V30 31 1 32 11
M  V30 32 1 32 12
M  V30 33 1 32 20
M  V30 34 2 33 20
M  V30 35 1 33 21
M  V30 36 1 34 21
M  V30 37 1 35 22
M  V30 38 1 35 31
M  V30 39 1 36 1
M  V30 40 1 37 1
M  V30 41 1 3 38 CFG=3
M  V30 42 1 39 4
M  V30 43 1 40 5
M  V30 44 1 41 6
M  V30 45 1 42 6
M  V30 46 1 43 7
M  V30 47 1 44 7
M  V30 48 1 8 45 CFG=3
M  V30 49 1 46 13
M  V30 50 1 47 13
M  V30 51 1 48 14
M  V30 52 1 49 14
M  V30 53 1 50 17
M  V30 54 1 51 18
M  V30 55 1 52 18
M  V30 56 1 22 53 CFG=3
M  V30 57 1 23 54 CFG=1
M  V30 58 1 55 24
M  V30 59 1 56 24
M  V30 60 1 57 25
M  V30 61 1 58 25
M  V30 62 1 59 26
M  V30 63 1 60 26
M  V30 64 1 61 27
M  V30 65 1 62 27
M  V30 66 1 63 29
M  V30 67 1 64 33
M  V30 68 1 65 35
M  V30 69 1 66 35
M  V30 END BOND
M  V30 END CTAB
M  END
>  <i_epik_Tot_Q>  (1) 
0

>  <i_epik_Tot_abs_Q>  (1) 
0

>  <i_i_glide_confnum>  (1) 
288

>  <i_i_glide_lignum>  (1) 
160

>  <i_i_glide_posenum>  (1) 
231

>  <i_i_glide_rotatable_bonds>  (1) 
9

>  <i_lp_mmshare_version>  (1) 
72125

>  <i_m_source_file_index>  (1) 
64

>  <i_f3d_flags>  (1) 
0

>  <num_sample>  (1) 
100

>  <b_lp_Chiralities_Consistent>  (1) 
1

>  <r_epik_Charging_Adjusted_Penalty>  (1) 
0.48877855165897433

>  <r_epik_Ionization_Penalty>  (1) 
0.48879775138492404

>  <r_epik_Ionization_Penalty_Charging>  (1) 
0

>  <r_epik_Ionization_Penalty_Neutral>  (1) 
0.48879775138492404

>  <r_epik_State_Penalty>  (1) 
0.48877855165897433

>  <r_glide_ring_energy>  (1) 
0.0045149093831275133

>  <r_i_docking_score>  (1) 
-6.7254187625300945

>  <r_i_glide_ecoul>  (1) 
-1.4453477547087576

>  <r_i_glide_eff_state_penalty>  (1) 
0.48877855165897433

>  <r_i_glide_einternal>  (1) 
10.481471902038741

>  <r_i_glide_emodel>  (1) 
-54.13615090777563

>  <r_i_glide_emodel_strain>  (1) 
0.1638574804432551

>  <r_i_glide_energy>  (1) 
-44.462708994178719

>  <r_i_glide_erotb>  (1) 
0.52162944545335954

>  <r_i_glide_esite>  (1) 
0

>  <r_i_glide_evdw>  (1) 
-43.017361239469963

>  <r_i_glide_gscore>  (1) 
-7.214197314189069

>  <r_i_glide_gscore_strain>  (1) 
0

>  <r_i_glide_hbond>  (1) 
0

>  <r_i_glide_ligand_efficiency>  (1) 
-0.19215482178657414

>  <r_i_glide_ligand_efficiency_ln>  (1) 
-1.4763786810027326

>  <r_i_glide_ligand_efficiency_sa>  (1) 
-0.62855116388635512

>  <r_i_glide_lipo>  (1) 
-3.5803085872758804

>  <r_i_glide_metal>  (1) 
-0

>  <r_i_glide_rewards>  (1) 
-1.787847947186735

>  <r_lp_Energy>  (1) 
32.449697999999998

>  <s_epik_Chemistry_Notes>  (1) 
This compound contains an acetal/aminal-like group ( X-CH(R)-Y where X, Y are N, S, or O) that may be acid/base labile, releasing an aldehyde. This compound has a N-S or N-O group and may undergo hydrolysis at high or low pH.

>  <s_epik_cmdline>  (1) 
J2VwaWtfcHl0aG9uJywgJy1waHQnLCAnMS4wJywgJy1waCcsICc3LjQnLCAnLXRuJywgJzgnLCAnLW1hJywgJzUwMCcsICctaW1hZScsICc8aW5maWxlLm1hZT4nLCAnLW9tYWUnLCAnPG91dGZpbGUubWFlPic=

>  <s_epik_input>  (1) 
RkMxPUMoRilbQ0hdPUMoRilOKEMoRik9W0NIXTEpU1tDSF0yW0NIMl1bQ0gyXU4oW0NIMl1bQ0gyXTIpW0NIMl1bQ0BIXTNPW0NASF0oW0NIMl1bT0hdKVtDQEBIXShbQ0gyXVtPSF0pT1tDQEBIXTNONFtDSDJdW0NIMl1PW0NIMl1bQ0gyXTQ=

>  <s_glide_docking_method>  (1) 
confgen

>  <s_i_glide_gridfile>  (1) 
gpcr_5ht2c_6bqh_protein_autoprepared_prepared

>  <s_lp_Force_Field>  (1) 
S-OPLS

>  <s_lp_Variant>  (1) 
DiffSBDD_63_num_sample_100-3

>  <s_m_source_file>  (1) 
generated__ligand_DiffSBDD_2026-05-06_prepared.sdf

>  <GenAI_Model>  (1) 
DiffSBDD

>  <Protein>  (1) 
GPCR_5HT2C

$$$$
DiffSBDD_18_num_sample_100
     RDKit          3D

  0  0  0  0  0  0  0  0  0  0999 V3000
M  V30 BEGIN CTAB
M  V30 COUNTS 70 72 0 0 1
M  V30 BEGIN ATOM
M  V30 1 O 38.751775 32.490074 57.831266 0
M  V30 2 C 42.174245 30.809870 64.747585 0
M  V30 3 C 39.799555 32.046386 62.135193 0
M  V30 4 C 42.025849 29.979902 65.726536 0
M  V30 5 O 37.004701 32.018911 61.853472 0
M  V30 6 C 41.960583 33.250946 64.191845 0 CFG=2
M  V30 7 C 38.421050 27.236085 53.955024 0
M  V30 8 N 41.993500 32.111634 65.102132 0
M  V30 9 N 42.667425 34.384979 64.779692 0
M  V30 10 C 39.341753 30.392951 56.773739 0
M  V30 11 C 39.848555 26.820615 55.905478 0
M  V30 12 O 38.888904 26.972848 52.848029 0
M  V30 13 O 41.487615 30.302410 68.011117 0
M  V30 14 C 37.265711 26.683076 57.368842 0
M  V30 15 C 40.719544 34.336050 61.435944 0
M  V30 16 C 41.704357 30.748599 66.886684 0
M  V30 17 C 37.469414 24.421438 56.312228 0
M  V30 18 C 40.022530 28.089074 56.330572 0
M  V30 19 C 37.705487 31.916428 60.848506 0
M  V30 20 N 37.642218 28.307888 54.253596 0
M  V30 21 C 39.956155 33.540489 62.507345 0 CFG=2
M  V30 22 C 38.509400 31.671673 56.687816 0 CFG=2
M  V30 23 C 40.532051 33.744492 63.925577 0 CFG=2
M  V30 24 C 40.608998 35.224205 64.340402 0
M  V30 25 O 37.051950 23.667693 55.405979 0 CHG=-1
M  V30 26 C 41.652905 32.294174 66.559475 0
M  V30 27 C 37.910514 29.208725 55.121255 0
M  V30 28 C 37.061511 31.821118 59.466446 0
M  V30 29 C 37.576931 32.920817 58.513636 0
M  V30 30 C 38.825511 32.518532 55.452172 0
M  V30 31 C 39.109204 29.243954 56.092922 0
M  V30 32 C 38.680495 26.324670 55.129362 0 CFG=1
M  V30 33 C 37.448889 25.927826 56.024744 0 CFG=2
M  V30 34 N 39.046546 31.892833 60.891143 0
M  V30 35 N 42.012571 35.561024 64.380583 0
M  V30 36 O 37.903113 24.053738 57.428144 0
M  V30 37 H 42.412657 30.590404 63.716594 0
M  V30 38 H 39.313771 31.494611 62.943501 0
M  V30 39 H 40.779723 31.589076 62.001101 0
M  V30 40 H 42.112944 28.903966 65.706871 0
M  V30 41 H 42.465009 32.990251 63.261752 0
M  V30 42 H 42.631071 34.328136 65.794687 0
M  V30 43 H 40.175069 30.421827 57.453490 0
M  V30 44 H 40.593344 26.079544 56.159934 0
M  V30 45 H 42.415827 32.847299 67.107364 0
M  V30 46 H 36.363195 26.317421 57.853530 0
M  V30 47 H 38.098743 26.519599 58.053084 0
M  V30 48 H 37.135701 27.755974 57.268140 0
M  V30 49 H 41.762591 34.027792 61.396914 0
M  V30 50 H 40.267401 34.201257 60.452608 0
M  V30 51 H 40.709227 35.407056 61.629019 0
M  V30 52 H 40.911237 28.284519 56.913578 0
M  V30 53 H 38.952109 33.963390 62.536698 0
M  V30 54 H 37.467387 31.393072 56.692668 0
M  V30 55 H 39.867590 33.212233 64.600321 0
M  V30 56 H 40.053427 35.910487 63.701472 0
M  V30 57 H 40.243936 35.347818 65.358800 0
M  V30 58 H 40.664171 32.721448 66.717932 0
M  V30 59 H 37.258990 30.075674 55.197506 0
M  V30 60 H 35.984429 31.938401 59.589870 0
M  V30 61 H 37.209836 30.824373 59.050357 0
M  V30 62 H 37.829588 33.819964 59.076640 0
M  V30 63 H 36.805038 33.240517 57.816144 0
M  V30 64 H 38.640918 31.979391 54.523869 0
M  V30 65 H 38.211909 33.419721 55.436086 0
M  V30 66 H 39.867394 32.821585 55.462817 0
M  V30 67 H 39.049641 25.412858 54.653546 0
M  V30 68 H 36.538830 26.086159 55.453504 0
M  V30 69 H 39.563831 31.806117 60.028741 0
M  V30 70 H 42.197425 36.324761 65.031895 0
M  V30 END ATOM
M  V30 BEGIN BOND
M  V30 1 2 4 2
M  V30 2 1 8 2
M  V30 3 1 8 6
M  V30 4 1 9 6
M  V30 5 2 12 7
M  V30 6 1 16 4
M  V30 7 2 16 13
M  V30 8 2 18 11
M  V30 9 2 19 5
M  V30 10 1 20 7
M  V30 11 1 21 3
M  V30 12 1 21 15
M  V30 13 1 22 1
M  V30 14 1 22 10
M  V30 15 1 23 6
M  V30 16 1 23 21
M  V30 17 1 24 23
M  V30 18 1 25 17
M  V30 19 1 26 8
M  V30 20 1 26 16
M  V30 21 2 27 20
M  V30 22 1 28 19
M  V30 23 1 29 1
M  V30 24 1 29 28
M  V30 25 1 30 22
M  V30 26 2 31 10
M  V30 27 1 31 18
M  V30 28 1 31 27
M  V30 29 1 32 7
M  V30 30 1 32 11
M  V30 31 1 33 14
M  V30 32 1 33 17
M  V30 33 1 33 32
M  V30 34 1 34 3
M  V30 35 1 34 19
M  V30 36 1 35 9
M  V30 37 1 35 24
M  V30 38 2 36 17
M  V30 39 1 37 2
M  V30 40 1 38 3
M  V30 41 1 39 3
M  V30 42 1 40 4
M  V30 43 1 6 41 CFG=3
M  V30 44 1 42 9
M  V30 45 1 43 10
M  V30 46 1 44 11
M  V30 47 1 45 26
M  V30 48 1 46 14
M  V30 49 1 47 14
M  V30 50 1 48 14
M  V30 51 1 49 15
M  V30 52 1 50 15
M  V30 53 1 51 15
M  V30 54 1 52 18
M  V30 55 1 21 53 CFG=1
M  V30 56 1 22 54 CFG=3
M  V30 57 1 23 55 CFG=1
M  V30 58 1 56 24
M  V30 59 1 57 24
M  V30 60 1 58 26
M  V30 61 1 59 27
M  V30 62 1 60 28
M  V30 63 1 61 28
M  V30 64 1 62 29
M  V30 65 1 63 29
M  V30 66 1 64 30
M  V30 67 1 65 30
M  V30 68 1 66 30
M  V30 69 1 32 67 CFG=3
M  V30 70 1 33 68 CFG=3
M  V30 71 1 69 34
M  V30 72 1 70 35
M  V30 END BOND
M  V30 END CTAB
M  END
>  <i_epik_Tot_Q>  (1) 
-1

>  <i_epik_Tot_abs_Q>  (1) 
1

>  <i_i_glide_confnum>  (1) 
1879

>  <i_i_glide_lignum>  (1) 
44

>  <i_i_glide_posenum>  (1) 
2

>  <i_i_glide_rotatable_bonds>  (1) 
12

>  <i_lp_mmshare_version>  (1) 
72125

>  <i_m_source_file_index>  (1) 
19

>  <i_f3d_flags>  (1) 
0

>  <num_sample>  (1) 
100

>  <b_lp_Chiralities_Consistent>  (1) 
1

>  <r_epik_Charging_Adjusted_Penalty>  (1) 
0.37971815023500188

>  <r_epik_Ionization_Penalty>  (1) 
0.19445293645399606

>  <r_epik_Ionization_Penalty_Charging>  (1) 
0.18991606969001057

>  <r_epik_Ionization_Penalty_Neutral>  (1) 
0.004536866763985496

>  <r_epik_State_Penalty>  (1) 
0.18980208054499129

>  <r_glide_ring_energy>  (1) 
1.7561163794185886

>  <r_i_docking_score>  (1) 
-6.7245023818397049

>  <r_i_glide_ecoul>  (1) 
-4.4087671873667791

>  <r_i_glide_eff_state_penalty>  (1) 
0.18980208054499129

>  <r_i_glide_einternal>  (1) 
17.07338798585948

>  <r_i_glide_emodel>  (1) 
-61.799526787265023

>  <r_i_glide_emodel_strain>  (1) 
2.0214727311862362

>  <r_i_glide_energy>  (1) 
-50.54967577047794

>  <r_i_glide_erotb>  (1) 
0.89642714384868305

>  <r_i_glide_esite>  (1) 
-0.019146573075180334

>  <r_i_glide_evdw>  (1) 
-46.140908583111162

>  <r_i_glide_gscore>  (1) 
-6.9143044623846963

>  <r_i_glide_gscore_strain>  (1) 
0

>  <r_i_glide_hbond>  (1) 
-0.47890401710695607

>  <r_i_glide_ligand_efficiency>  (1) 
-0.1867917328288807

>  <r_i_glide_ligand_efficiency_ln>  (1) 
-1.4671047446582066

>  <r_i_glide_ligand_efficiency_sa>  (1) 
-0.61677271249592625

>  <r_i_glide_lipo>  (1) 
-2.363305668588044

>  <r_i_glide_metal>  (1) 
-0

>  <r_i_glide_rewards>  (1) 
-1.9810148402026255

>  <r_lp_Energy>  (1) 
18.74419

>  <r_lp_tautomer_probability>  (1) 
0.98846045845713826

>  <s_epik_Chemistry_Notes>  (1) 
This compound has an imine and may undergo hydrolysis. This compound contains an acetal/aminal-like group ( X-CH(R)-Y where X, Y are N, S, or O) that may be acid/base labile, releasing an aldehyde.

>  <s_epik_cmdline>  (1) 
J2VwaWtfcHl0aG9uJywgJy1waHQnLCAnMS4wJywgJy1waCcsICc3LjQnLCAnLXRuJywgJzgnLCAnLW1hJywgJzUwMCcsICctaW1hZScsICc8aW5maWxlLm1hZT4nLCAnLW9tYWUnLCAnPG91dGZpbGUubWFlPic=

>  <s_epik_input>  (1) 
W09IXUMoPU8pW0NASF0oW0NIM10pW0NAQEhdMVtDSF09W0NIXVxDKFtDSF09TkMxPU8pPVtDSF1cW0NASF0oW0NIM10pT1tDSDJdW0NIMl1DKD1PKVtOSF1bQ0gyXVtDQEhdKFtDSDNdKVtDQEBIXTJbQ0gyXVtOSF1bTkhdW0NASF0ybjNbY0hdW2NIXWMoW09IXSlbY0hdMw==

>  <s_glide_docking_method>  (1) 
confgen

>  <s_i_glide_gridfile>  (1) 
gpcr_5ht2c_6bqh_protein_autoprepared_prepared

>  <s_lp_Force_Field>  (1) 
S-OPLS

>  <s_lp_Variant>  (1) 
DiffSBDD_18_num_sample_100-4

>  <s_m_source_file>  (1) 
generated__ligand_DiffSBDD_2026-05-06_prepared.sdf

>  <GenAI_Model>  (1) 
DiffSBDD

>  <Protein>  (1) 
GPCR_5HT2C

$$$$
DiffSBDD_50_num_sample_100
     RDKit          3D

  0  0  0  0  0  0  0  0  0  0999 V3000
M  V30 BEGIN CTAB
M  V30 COUNTS 54 56 0 0 1
M  V30 BEGIN ATOM
M  V30 1 C 38.696057 27.916392 51.566682 0 CFG=1
M  V30 2 N 38.181788 28.855772 52.543359 0
M  V30 3 C 38.636617 26.730426 56.271877 0
M  V30 4 C 39.353897 27.893167 57.007786 0 CFG=1
M  V30 5 N 37.467403 31.041450 58.334748 0 CHG=1
M  V30 6 C 37.507652 33.309561 59.364264 0
M  V30 7 O 41.340250 28.421325 58.321299 0
M  V30 8 C 38.727236 33.436652 61.560987 0
M  V30 9 C 38.098931 30.132192 57.353271 0 CFG=1
M  V30 10 C 39.067277 31.439484 60.226928 0
M  V30 11 C 37.938787 34.013979 60.643322 0
M  V30 12 C 39.614161 28.651291 50.595890 0
M  V30 13 C 37.748197 28.067333 53.689258 0
M  V30 14 C 38.523011 26.738825 53.647911 0 CFG=1
M  V30 15 C 39.408767 26.889379 52.410228 0
M  V30 16 S 40.267401 30.090523 51.453498 0
M  V30 17 C 39.246260 32.105568 61.376225 0
M  V30 18 F 37.491612 35.259077 60.871663 0
M  V30 19 C 39.246561 29.784943 52.921369 0
M  V30 20 C 38.330745 32.029859 59.019984 0 CFG=1
M  V30 21 C 39.313097 26.363328 54.927295 0
M  V30 22 C 38.399932 28.720757 57.913832 0
M  V30 23 O 37.067406 30.021438 56.389387 0
M  V30 24 C 40.570545 27.358346 57.796224 0
M  V30 25 H 37.867390 27.433097 51.053484 0
M  V30 26 H 38.619574 25.854093 56.921687 0
M  V30 27 H 37.584801 26.962565 56.106585 0
M  V30 28 H 39.746514 28.566011 56.243824 0
M  V30 29 H 36.791995 31.602424 57.814477 0
M  V30 30 H 37.530029 34.015380 58.532561 0
M  V30 31 H 36.458367 33.050368 59.509303 0
M  V30 32 H 42.074069 28.054707 58.795365 0
M  V30 33 H 38.980144 33.982071 62.458099 0
M  V30 34 H 38.973562 30.600944 56.899465 0
M  V30 35 H 39.476747 30.448250 60.116995 0
M  V30 36 H 39.067404 28.983184 49.719425 0
M  V30 37 H 40.412761 27.998785 50.253421 0
M  V30 38 H 36.678710 27.871985 53.596207 0
M  V30 39 H 37.896949 28.622516 54.608555 0
M  V30 40 H 37.782617 25.961510 53.458478 0
M  V30 41 H 40.408784 27.221464 52.653568 0
M  V30 42 H 39.537003 26.021473 51.799962 0
M  V30 43 H 39.798371 31.637200 62.178987 0
M  V30 44 H 38.830511 30.711747 53.317205 0
M  V30 45 H 39.867403 29.350408 53.701709 0
M  V30 46 H 39.095347 32.349788 58.313626 0
M  V30 47 H 40.305531 26.811822 54.890982 0
M  V30 48 H 39.498345 25.287894 54.905987 0
M  V30 49 H 37.471247 28.179777 58.100041 0
M  V30 50 H 38.850706 28.817857 58.898221 0
M  V30 51 H 36.384849 30.688360 56.511900 0
M  V30 52 H 41.216331 26.761544 57.151743 0
M  V30 53 H 40.250134 26.710786 58.613257 0
M  V30 54 H 36.940258 30.505880 59.007541 0
M  V30 END ATOM
M  V30 BEGIN BOND
M  V30 1 1 2 1
M  V30 2 1 4 3
M  V30 3 1 9 5
M  V30 4 1 11 6
M  V30 5 2 11 8
M  V30 6 1 12 1
M  V30 7 1 13 2
M  V30 8 1 14 13
M  V30 9 1 15 1
M  V30 10 1 15 14
M  V30 11 1 16 12
M  V30 12 1 17 8
M  V30 13 2 17 10
M  V30 14 1 18 11
M  V30 15 1 19 2
M  V30 16 1 19 16
M  V30 17 1 20 5
M  V30 18 1 20 6
M  V30 19 1 20 10
M  V30 20 1 21 3
M  V30 21 1 21 14
M  V30 22 1 22 4
M  V30 23 1 22 9
M  V30 24 1 23 9
M  V30 25 1 24 4
M  V30 26 1 24 7
M  V30 27 1 1 25 CFG=3
M  V30 28 1 26 3
M  V30 29 1 27 3
M  V30 30 1 4 28 CFG=3
M  V30 31 1 29 5
M  V30 32 1 30 6
M  V30 33 1 31 6
M  V30 34 1 32 7
M  V30 35 1 33 8
M  V30 36 1 9 34 CFG=3
M  V30 37 1 35 10
M  V30 38 1 36 12
M  V30 39 1 37 12
M  V30 40 1 38 13
M  V30 41 1 39 13
M  V30 42 1 14 40 CFG=3
M  V30 43 1 41 15
M  V30 44 1 42 15
M  V30 45 1 43 17
M  V30 46 1 44 19
M  V30 47 1 45 19
M  V30 48 1 20 46 CFG=3
M  V30 49 1 47 21
M  V30 50 1 48 21
M  V30 51 1 49 22
M  V30 52 1 50 22
M  V30 53 1 51 23
M  V30 54 1 52 24
M  V30 55 1 53 24
M  V30 56 1 54 5
M  V30 END BOND
M  V30 END CTAB
M  END
>  <i_epik_Tot_Q>  (1) 
1

>  <i_epik_Tot_abs_Q>  (1) 
1

>  <i_i_glide_confnum>  (1) 
602

>  <i_i_glide_lignum>  (1) 
135

>  <i_i_glide_posenum>  (1) 
269

>  <i_i_glide_rotatable_bonds>  (1) 
10

>  <i_lp_mmshare_version>  (1) 
72125

>  <i_m_source_file_index>  (1) 
51

>  <i_f3d_flags>  (1) 
0

>  <num_sample>  (1) 
100

>  <b_lp_Chiralities_Consistent>  (1) 
1

>  <r_epik_Charging_Adjusted_Penalty>  (1) 
2.5903076652609913

>  <r_epik_Ionization_Penalty>  (1) 
1.4636165094899594

>  <r_epik_Ionization_Penalty_Charging>  (1) 
1.2951538326304957

>  <r_epik_Ionization_Penalty_Neutral>  (1) 
0.1684626768594637

>  <r_epik_State_Penalty>  (1) 
1.2951538326304957

>  <r_glide_ring_energy>  (1) 
0

>  <r_i_docking_score>  (1) 
-6.7239794303067004

>  <r_i_glide_ecoul>  (1) 
-11.170366835602243

>  <r_i_glide_eff_state_penalty>  (1) 
1.2951538326304957

>  <r_i_glide_einternal>  (1) 
8.9084821862235692

>  <r_i_glide_emodel>  (1) 
-60.268618362369871

>  <r_i_glide_emodel_strain>  (1) 
1.6501620912314792

>  <r_i_glide_energy>  (1) 
-42.321596228434942

>  <r_i_glide_erotb>  (1) 
0.89870886967847008

>  <r_i_glide_esite>  (1) 
-0.15691163270956771

>  <r_i_glide_evdw>  (1) 
-31.151229392832697

>  <r_i_glide_gscore>  (1) 
-8.0191332629371956

>  <r_i_glide_gscore_strain>  (1) 
0

>  <r_i_glide_hbond>  (1) 
-0.35999999999999999

>  <r_i_glide_ligand_efficiency>  (1) 
-0.28016580959611254

>  <r_i_glide_ligand_efficiency_ln>  (1) 
-1.609356820983499

>  <r_i_glide_ligand_efficiency_sa>  (1) 
-0.80813803700964093

>  <r_i_glide_lipo>  (1) 
-3.4586751286814037

>  <r_i_glide_metal>  (1) 
-0

>  <r_i_glide_rewards>  (1) 
-1.7091388762427218

>  <r_lp_Energy>  (1) 
5.0849209999999996

>  <s_epik_Chemistry_Notes>  (1) 
This compound contains an acetal/aminal-like group ( X-CH(R)-Y where X, Y are N, S, or O) that may be acid/base labile, releasing an aldehyde.

>  <s_epik_cmdline>  (1) 
J2VwaWtfcHl0aG9uJywgJy1waHQnLCAnMS4wJywgJy1waCcsICc3LjQnLCAnLXRuJywgJzgnLCAnLW1hJywgJzUwMCcsICctaW1hZScsICc8aW5maWxlLm1hZT4nLCAnLW9tYWUnLCAnPG91dGZpbGUubWFlPic=

>  <s_epik_input>  (1) 
W0NIMl0xU1tDSDJdTihbQ0BASF0xMilbQ0gyXVtDQEBIXShbQ0gyXTIpW0NIMl1bQ0gyXVtDQEhdKFtDSDJdW09IXSlbQ0gyXVtDQEBIXShbT0hdKVtOSF1bQ0BASF0oW0NIMl0zKVtDSF09W0NIXVtDSF09QzNG

>  <s_glide_docking_method>  (1) 
confgen

>  <s_i_glide_gridfile>  (1) 
gpcr_5ht2c_6bqh_protein_autoprepared_prepared

>  <s_lp_Force_Field>  (1) 
S-OPLS

>  <s_lp_Variant>  (1) 
DiffSBDD_50_num_sample_100-2

>  <s_m_source_file>  (1) 
generated__ligand_DiffSBDD_2026-05-06_prepared.sdf

>  <GenAI_Model>  (1) 
DiffSBDD

>  <Protein>  (1) 
GPCR_5HT2C

$$$$
DiffSBDD_65_num_sample_100
     RDKit          3D

  0  0  0  0  0  0  0  0  0  0999 V3000
M  V30 BEGIN CTAB
M  V30 COUNTS 35 36 0 0 1
M  V30 BEGIN ATOM
M  V30 1 C 37.945104 28.713244 53.602498 0 CFG=2
M  V30 2 C 38.816570 29.880954 54.038213 0
M  V30 3 C 38.948837 30.273822 55.319689 0
M  V30 4 N 38.667404 26.595186 58.469575 0
M  V30 5 C 38.652932 27.361131 53.713714 0 CFG=2
M  V30 6 C 38.931057 28.326960 57.023648 0 CFG=1
M  V30 7 F 37.592843 28.821432 52.324037 0
M  V30 8 O 38.324427 27.974004 58.246696 0
M  V30 9 F 37.719297 26.412509 53.661612 0
M  V30 10 C 38.033417 23.738235 57.853503 0
M  V30 11 C 38.890324 26.045514 57.143337 0 CFG=2
M  V30 12 C 39.511457 27.158632 54.972134 0 CFG=1
M  V30 13 N 38.708457 27.145509 56.202635 0
M  V30 14 C 36.463479 25.251245 56.610333 0
M  V30 15 C 38.248291 29.610262 56.498386 0
M  V30 16 C 37.937233 24.856920 56.812885 0
M  V30 17 O 40.176569 25.927896 54.807405 0
M  V30 18 F 39.487137 30.560236 53.093667 0
M  V30 19 H 37.019835 28.708711 54.175767 0
M  V30 20 H 39.588531 31.113207 55.552651 0
M  V30 21 H 39.547099 26.630414 58.964732 0
M  V30 22 H 39.282437 27.224274 52.832328 0
M  V30 23 H 39.997361 28.483885 57.201631 0
M  V30 24 H 37.867351 24.135787 58.850195 0
M  V30 25 H 39.012667 23.257656 57.853092 0
M  V30 26 H 37.273765 22.972963 57.702651 0
M  V30 27 H 39.923967 25.697195 57.161825 0
M  V30 28 H 40.282391 27.918918 55.053548 0
M  V30 29 H 36.022267 25.621339 57.535915 0
M  V30 30 H 35.868443 24.408553 56.253507 0
M  V30 31 H 36.355319 26.021703 55.852728 0
M  V30 32 H 38.225770 30.349977 57.299575 0
M  V30 33 H 37.200042 29.424366 56.267868 0
M  V30 34 H 38.264454 24.425859 55.866625 0
M  V30 35 H 39.611615 25.363043 54.299783 0
M  V30 END ATOM
M  V30 BEGIN BOND
M  V30 1 1 2 1
M  V30 2 2 3 2
M  V30 3 1 5 1
M  V30 4 1 7 1
M  V30 5 1 8 4
M  V30 6 1 8 6
M  V30 7 1 9 5
M  V30 8 1 11 4
M  V30 9 1 12 5
M  V30 10 1 13 6
M  V30 11 1 13 11
M  V30 12 1 13 12
M  V30 13 1 15 3
M  V30 14 1 15 6
M  V30 15 1 16 10
M  V30 16 1 16 11
M  V30 17 1 16 14
M  V30 18 1 17 12
M  V30 19 1 18 2
M  V30 20 1 1 19 CFG=1
M  V30 21 1 20 3
M  V30 22 1 21 4
M  V30 23 1 5 22 CFG=3
M  V30 24 1 6 23 CFG=1
M  V30 25 1 24 10
M  V30 26 1 25 10
M  V30 27 1 26 10
M  V30 28 1 11 27 CFG=1
M  V30 29 1 12 28 CFG=1
M  V30 30 1 29 14
M  V30 31 1 30 14
M  V30 32 1 31 14
M  V30 33 1 32 15
M  V30 34 1 33 15
M  V30 35 1 34 16
M  V30 36 1 35 17
M  V30 END BOND
M  V30 END CTAB
M  END
>  <i_epik_Tot_Q>  (1) 
0

>  <i_epik_Tot_abs_Q>  (1) 
0

>  <i_i_glide_confnum>  (1) 
1

>  <i_i_glide_lignum>  (1) 
163

>  <i_i_glide_posenum>  (1) 
213

>  <i_i_glide_rotatable_bonds>  (1) 
2

>  <i_lp_mmshare_version>  (1) 
72125

>  <i_m_source_file_index>  (1) 
66

>  <i_f3d_flags>  (1) 
0

>  <num_sample>  (1) 
100

>  <b_lp_Chiralities_Consistent>  (1) 
1

>  <r_epik_Charging_Adjusted_Penalty>  (1) 
0

>  <r_epik_Ionization_Penalty>  (1) 
3.2857673984672069e-05

>  <r_epik_Ionization_Penalty_Charging>  (1) 
0

>  <r_epik_Ionization_Penalty_Neutral>  (1) 
3.2857673984672069e-05

>  <r_epik_State_Penalty>  (1) 
-0

>  <r_glide_ring_energy>  (1) 
0

>  <r_i_docking_score>  (1) 
-6.7231993594886719

>  <r_i_glide_ecoul>  (1) 
0.094295848323658726

>  <r_i_glide_eff_state_penalty>  (1) 
-0

>  <r_i_glide_einternal>  (1) 
0.57542741056855995

>  <r_i_glide_emodel>  (1) 
-32.429640766734067

>  <r_i_glide_emodel_strain>  (1) 
0.076999368658000833

>  <r_i_glide_energy>  (1) 
-22.58064248174221

>  <r_i_glide_erotb>  (1) 
0

>  <r_i_glide_esite>  (1) 
0

>  <r_i_glide_evdw>  (1) 
-22.674938330065867

>  <r_i_glide_gscore>  (1) 
-6.7231993594886719

>  <r_i_glide_gscore_strain>  (1) 
0

>  <r_i_glide_hbond>  (1) 
0

>  <r_i_glide_ligand_efficiency>  (1) 
-0.37351107552714846

>  <r_i_glide_ligand_efficiency_ln>  (1) 
-1.7281637277575868

>  <r_i_glide_ligand_efficiency_sa>  (1) 
-0.97887593682948348

>  <r_i_glide_lipo>  (1) 
-1.879147151448588

>  <r_i_glide_metal>  (1) 
-0

>  <r_i_glide_rewards>  (1) 
-3.724449668785339

>  <r_lp_Energy>  (1) 
7.9581929999999996

>  <r_lp_tautomer_probability>  (1) 
1

>  <s_epik_Chemistry_Notes>  (1) 
This compound contains an acetal/aminal-like group ( X-CH(R)-Y where X, Y are N, S, or O) that may be acid/base labile, releasing an aldehyde. This compound has a N-S or N-O group and may undergo hydrolysis at high or low pH.

>  <s_epik_cmdline>  (1) 
J2VwaWtfcHl0aG9uJywgJy1waHQnLCAnMS4wJywgJy1waCcsICc3LjQnLCAnLXRuJywgJzgnLCAnLW1hJywgJzUwMCcsICctaW1hZScsICc8aW5maWxlLm1hZT4nLCAnLW9tYWUnLCAnPG91dGZpbGUubWFlPic=

>  <s_epik_input>  (1) 
W0NIMl0xL1tDSF09QyhGKVxbQ0BASF0oRilbQ0BIXShGKVtDQEhdKFtPSF0pTihbQ0BASF0xMilbQ0BASF0oW05IXU8yKVtDSF0oW0NIM10pW0NIM10=

>  <s_glide_docking_method>  (1) 
confgen

>  <s_i_glide_gridfile>  (1) 
gpcr_5ht2c_6bqh_protein_autoprepared_prepared

>  <s_lp_Force_Field>  (1) 
S-OPLS

>  <s_lp_Variant>  (1) 
DiffSBDD_65_num_sample_100-1

>  <s_m_source_file>  (1) 
generated__ligand_DiffSBDD_2026-05-06_prepared.sdf

>  <GenAI_Model>  (1) 
DiffSBDD

>  <Protein>  (1) 
GPCR_5HT2C

$$$$
DiffSBDD_6_num_sample_100
     RDKit          3D

  0  0  0  0  0  0  0  0  0  0999 V3000
M  V30 BEGIN CTAB
M  V30 COUNTS 67 70 0 0 1
M  V30 BEGIN ATOM
M  V30 1 C 38.102494 34.663549 60.477670 0 CFG=1
M  V30 2 C 40.295758 30.024864 50.999258 0
M  V30 3 O 39.467401 30.929698 57.434450 0
M  V30 4 C 39.148573 27.345787 57.863615 0 CFG=2
M  V30 5 N 37.994582 33.221047 60.725631 0
M  V30 6 N 38.423119 28.908215 55.351155 0
M  V30 7 O 39.945137 27.621444 60.230207 0
M  V30 8 C 38.379741 28.652161 58.140712 0 CFG=1
M  V30 9 O 38.156571 26.339619 57.694371 0
M  V30 10 O 38.232372 31.045489 54.589419 0
M  V30 11 S 40.923678 35.302709 62.656922 0
M  V30 12 S 39.461853 30.021438 58.666255 0
M  V30 13 O 40.979108 28.385939 56.482416 0
M  V30 14 C 39.979399 26.830683 59.053527 0
M  V30 15 C 36.799049 35.096370 59.752803 0
M  V30 16 C 39.945069 28.782394 50.446405 0
M  V30 17 C 38.659746 36.850746 61.708668 0
M  V30 18 S 40.267422 37.221440 62.253854 0
M  V30 19 C 42.232451 28.151038 57.118738 0
M  V30 20 O 41.467362 34.675629 61.453496 0
M  V30 21 C 38.492257 32.436666 59.602869 0
M  V30 22 C 39.867409 30.365722 52.291761 0
M  V30 23 C 36.598435 36.610399 59.531764 0
M  V30 24 S 37.467406 29.233868 56.745948 0
M  V30 25 C 39.226086 34.759181 62.876147 0
M  V30 26 C 39.087799 29.458089 53.042181 0
M  V30 27 C 38.235952 35.385164 61.841272 0 CFG=2
M  V30 28 C 36.591493 37.478985 60.815395 0
M  V30 29 O 41.635339 35.258942 63.942976 0
M  V30 30 C 39.104276 27.595665 55.298383 0
M  V30 31 C 38.559933 29.874893 54.398207 0
M  V30 32 C 39.172407 27.870865 51.183072 0
M  V30 33 C 38.736710 28.203564 52.474307 0
M  V30 34 C 39.978760 27.363350 56.548394 0 CFG=2
M  V30 35 N 37.918781 37.765398 61.236197 0
M  V30 36 C 38.360855 30.920047 59.870801 0
M  V30 37 H 38.987545 34.868477 59.873094 0
M  V30 38 H 40.887945 30.722364 50.425680 0
M  V30 39 H 38.560033 32.993103 61.528198 0
M  V30 40 H 39.127266 27.469945 60.678155 0
M  V30 41 H 37.675174 28.482332 58.952044 0
M  V30 42 H 37.553705 26.623332 57.022418 0
M  V30 43 H 41.015617 26.821376 58.761988 0
M  V30 44 H 39.757267 25.788662 59.282035 0
M  V30 45 H 36.748154 34.608383 58.779345 0
M  V30 46 H 35.937782 34.721926 60.307690 0
M  V30 47 H 40.267447 28.529434 49.453572 0
M  V30 48 H 43.013671 28.755696 56.653574 0
M  V30 49 H 42.208116 28.455776 58.164966 0
M  V30 50 H 42.547348 27.111605 57.053580 0
M  V30 51 H 39.534857 32.707223 59.451887 0
M  V30 52 H 37.959571 32.693909 58.685554 0
M  V30 53 H 40.125395 31.329108 52.707204 0
M  V30 54 H 37.356458 36.982415 58.840712 0
M  V30 55 H 35.650552 36.741598 59.012101 0
M  V30 56 H 39.178295 33.682809 63.032115 0
M  V30 57 H 39.067398 35.259814 63.824521 0
M  V30 58 H 36.077055 38.421566 60.653508 0
M  V30 59 H 36.068767 37.077178 61.671350 0
M  V30 60 H 38.367778 26.803062 55.171906 0
M  V30 61 H 39.829254 27.485587 54.497555 0
M  V30 62 H 38.899514 26.918389 50.749359 0
M  V30 63 H 38.112622 27.510835 53.016950 0
M  V30 64 H 40.463947 26.393835 56.417923 0
M  V30 65 H 37.236024 35.343924 62.257386 0
M  V30 66 H 37.320732 30.622991 59.742218 0
M  V30 67 H 38.664341 30.651331 60.882976 0
M  V30 END ATOM
M  V30 BEGIN BOND
M  V30 1 1 5 1
M  V30 2 1 8 4
M  V30 3 1 4 9 CFG=3
M  V30 4 2 12 3
M  V30 5 1 12 8
M  V30 6 1 14 4
M  V30 7 1 14 7
M  V30 8 1 15 1
M  V30 9 2 16 2
M  V30 10 1 18 11
M  V30 11 1 18 17
M  V30 12 1 19 13
M  V30 13 2 20 11
M  V30 14 1 21 5
M  V30 15 1 22 2
M  V30 16 1 23 15
M  V30 17 1 24 6
M  V30 18 1 24 8
M  V30 19 1 25 11
M  V30 20 2 26 22
M  V30 21 1 27 1
M  V30 22 1 27 17
M  V30 23 1 27 25
M  V30 24 1 28 23
M  V30 25 2 29 11
M  V30 26 1 30 6
M  V30 27 1 31 6
M  V30 28 2 31 10
M  V30 29 1 31 26
M  V30 30 1 32 16
M  V30 31 1 33 26
M  V30 32 2 33 32
M  V30 33 1 34 4
M  V30 34 1 34 13
M  V30 35 1 34 30
M  V30 36 2 35 17
M  V30 37 1 35 28
M  V30 38 1 12 36 CFG=1
M  V30 39 1 36 21
M  V30 40 1 1 37 CFG=3
M  V30 41 1 38 2
M  V30 42 1 39 5
M  V30 43 1 40 7
M  V30 44 1 8 41 CFG=1
M  V30 45 1 42 9
M  V30 46 1 43 14
M  V30 47 1 44 14
M  V30 48 1 45 15
M  V30 49 1 46 15
M  V30 50 1 47 16
M  V30 51 1 48 19
M  V30 52 1 49 19
M  V30 53 1 50 19
M  V30 54 1 51 21
M  V30 55 1 52 21
M  V30 56 1 53 22
M  V30 57 1 54 23
M  V30 58 1 55 23
M  V30 59 1 56 25
M  V30 60 1 57 25
M  V30 61 1 58 28
M  V30 62 1 59 28
M  V30 63 1 60 30
M  V30 64 1 61 30
M  V30 65 1 62 32
M  V30 66 1 63 33
M  V30 67 1 34 64 CFG=3
M  V30 68 1 27 65 CFG=1
M  V30 69 1 66 36
M  V30 70 1 67 36
M  V30 END BOND
M  V30 END CTAB
M  END
>  <i_epik_Tot_Q>  (1) 
0

>  <i_epik_Tot_abs_Q>  (1) 
0

>  <i_i_glide_confnum>  (1) 
412

>  <i_i_glide_lignum>  (1) 
26

>  <i_i_glide_posenum>  (1) 
63

>  <i_i_glide_rotatable_bonds>  (1) 
11

>  <i_lp_mmshare_version>  (1) 
72125

>  <i_m_source_file_index>  (1) 
7

>  <i_f3d_flags>  (1) 
0

>  <num_sample>  (1) 
100

>  <b_lp_Chiralities_Consistent>  (1) 
1

>  <r_epik_Charging_Adjusted_Penalty>  (1) 
0.04024977574551479

>  <r_epik_Ionization_Penalty>  (1) 
0.04050266925573108

>  <r_epik_Ionization_Penalty_Charging>  (1) 
0

>  <r_epik_Ionization_Penalty_Neutral>  (1) 
0.04050266925573108

>  <r_epik_State_Penalty>  (1) 
0.04024977574551479

>  <r_glide_ring_energy>  (1) 
1.1347446578081875

>  <r_i_docking_score>  (1) 
-6.7228248765376879

>  <r_i_glide_ecoul>  (1) 
-1.1173994538273209

>  <r_i_glide_eff_state_penalty>  (1) 
0.04024977574551479

>  <r_i_glide_einternal>  (1) 
12.194369575917769

>  <r_i_glide_emodel>  (1) 
-41.136733822359005

>  <r_i_glide_emodel_strain>  (1) 
0.49716955556249331

>  <r_i_glide_energy>  (1) 
-25.938200276533752

>  <r_i_glide_erotb>  (1) 
0.34065271397431773

>  <r_i_glide_esite>  (1) 
0

>  <r_i_glide_evdw>  (1) 
-24.820800822706431

>  <r_i_glide_gscore>  (1) 
-6.763074652283203

>  <r_i_glide_gscore_strain>  (1) 
0

>  <r_i_glide_hbond>  (1) 
0

>  <r_i_glide_ligand_efficiency>  (1) 
-0.18674513545938021

>  <r_i_glide_ligand_efficiency_ln>  (1) 
-1.4667387583222622

>  <r_i_glide_ligand_efficiency_sa>  (1) 
-0.6166188513718458

>  <r_i_glide_lipo>  (1) 
-3.7109914372355521

>  <r_i_glide_metal>  (1) 
-0

>  <r_i_glide_rewards>  (1) 
-1.9840859698125475

>  <r_lp_Energy>  (1) 
36.868558999999998

>  <r_lp_tautomer_probability>  (1) 
0.99960115913750414

>  <s_epik_Chemistry_Notes>  (1) 
This compound has an imine and may undergo hydrolysis. This compound contains an acetal/aminal-like group ( X-CH(R)-Y where X, Y are N, S, or O) that may be acid/base labile, releasing an aldehyde. This compound has a N-S or N-O group and may undergo hydrolysis at high or low pH.

>  <s_epik_cmdline>  (1) 
J2VwaWtfcHl0aG9uJywgJy1waHQnLCAnMS4wJywgJy1waCcsICc3LjQnLCAnLXRuJywgJzgnLCAnLW1hJywgJzUwMCcsICctaW1hZScsICc8aW5maWxlLm1hZT4nLCAnLW9tYWUnLCAnPG91dGZpbGUubWFlPic=

>  <s_epik_input>  (1) 
UzFTKD1PKSg9TylbQ0gyXUMoPUMxMilbQ0BIXShbQ0gyXVtDSDJdW0NIMl1bTkhdMilbTkhdW0NIMl1bQ0gyXVtTQF0oPU8pW0NASF0oW0NAXTMoW09IXSlbQ0gyXVtPSF0pU04oW0NIMl1bQ0BIXTNPW0NIM10pQyg9TyljNFtjSF1bY0hdW2NIXVtjSF1bY0hdNA==

>  <s_glide_docking_method>  (1) 
confgen

>  <s_i_glide_gridfile>  (1) 
gpcr_5ht2c_6bqh_protein_autoprepared_prepared

>  <s_lp_Force_Field>  (1) 
S-OPLS

>  <s_lp_Variant>  (1) 
DiffSBDD_6_num_sample_100-2

>  <s_m_source_file>  (1) 
generated__ligand_DiffSBDD_2026-05-06_prepared.sdf

>  <GenAI_Model>  (1) 
DiffSBDD

>  <Protein>  (1) 
GPCR_5HT2C

$$$$
DiffSBDD_18_num_sample_100
     RDKit          3D

  0  0  0  0  0  0  0  0  0  0999 V3000
M  V30 BEGIN CTAB
M  V30 COUNTS 70 72 0 0 1
M  V30 BEGIN ATOM
M  V30 1 O 37.877978 33.184964 60.130620 0
M  V30 2 C 38.346783 25.636376 57.437863 0
M  V30 3 C 39.582002 30.769446 55.398763 0
M  V30 4 C 37.620234 24.610660 57.148816 0
M  V30 5 O 38.667363 33.441899 55.453519 0
M  V30 6 C 39.422589 27.612076 56.296175 0 CFG=2
M  V30 7 C 41.487275 32.137607 63.257118 0
M  V30 8 N 38.912413 26.240017 56.346310 0
M  V30 9 N 39.953967 28.043713 57.593757 0
M  V30 10 C 38.938134 35.026956 61.454619 0
M  V30 11 C 41.721655 34.502347 63.890512 0
M  V30 12 O 42.420725 31.621557 62.655106 0
M  V30 13 O 37.034381 23.618177 55.084631 0
M  V30 14 C 41.190888 31.400424 66.280047 0
M  V30 15 C 37.264314 30.337387 54.472396 0
M  V30 16 C 37.640524 24.466269 55.731506 0
M  V30 17 C 41.276142 33.839760 66.794850 0
M  V30 18 C 40.860667 35.018003 62.980063 0
M  V30 19 C 38.623820 32.770282 56.478682 0
M  V30 20 N 40.174250 31.933387 63.010630 0
M  V30 21 C 38.571652 29.695628 54.946646 0 CFG=2
M  V30 22 C 37.732551 34.491938 60.665868 0 CFG=2
M  V30 23 C 38.264808 28.559666 55.963690 0 CFG=2
M  V30 24 C 37.805769 28.960727 57.371526 0
M  V30 25 O 40.316045 34.421457 67.346159 0 CHG=-1
M  V30 26 C 38.551255 25.559635 55.052873 0
M  V30 27 C 39.409725 32.825515 62.518555 0
M  V30 28 C 38.020824 33.353554 57.752087 0
M  V30 29 C 38.776147 33.039621 59.047169 0
M  V30 30 C 36.425825 34.550987 61.464051 0
M  V30 31 C 39.738483 34.309979 62.294196 0
M  V30 32 C 41.742029 33.087619 64.391321 0 CFG=1
M  V30 33 C 40.937760 32.809819 65.702772 0 CFG=1
M  V30 34 N 39.067417 31.506522 56.548592 0
M  V30 35 N 38.985408 28.875537 58.234317 0
M  V30 36 O 42.487409 34.017481 67.053374 0
M  V30 37 H 38.535425 26.060741 58.412204 0
M  V30 38 H 39.835431 31.429874 54.566688 0
M  V30 39 H 40.507314 30.270168 55.666745 0
M  V30 40 H 37.067340 23.976001 57.824210 0
M  V30 41 H 40.216802 27.654322 55.550098 0
M  V30 42 H 40.170450 27.238390 58.178224 0
M  V30 43 H 39.153577 36.075634 61.307969 0
M  V30 44 H 42.478362 35.152697 64.308413 0
M  V30 45 H 37.993065 26.187946 54.359565 0
M  V30 46 H 40.689533 31.274415 67.240806 0
M  V30 47 H 40.810210 30.621471 65.619490 0
M  V30 48 H 42.254592 31.217179 66.436008 0
M  V30 49 H 36.664415 30.680868 55.312900 0
M  V30 50 H 37.466116 31.209568 53.853638 0
M  V30 51 H 36.669323 29.623226 53.902865 0
M  V30 52 H 40.993629 36.062449 62.735878 0
M  V30 53 H 39.010641 29.219725 54.068402 0
M  V30 54 H 37.610222 35.177755 59.827030 0
M  V30 55 H 37.467500 27.988068 55.498306 0
M  V30 56 H 37.319876 29.933646 57.438940 0
M  V30 57 H 37.081163 28.229389 57.730907 0
M  V30 58 H 39.427088 25.119987 54.577338 0
M  V30 59 H 38.412189 32.544800 62.192244 0
M  V30 60 H 37.033656 32.918056 57.846906 0
M  V30 61 H 37.867336 34.421463 57.628879 0
M  V30 62 H 39.678425 33.641049 59.161780 0
M  V30 63 H 39.067545 31.990635 59.073447 0
M  V30 64 H 36.303180 35.518253 61.952548 0
M  V30 65 H 35.568346 34.399270 60.808163 0
M  V30 66 H 36.383287 33.778652 62.231102 0
M  V30 67 H 42.785757 32.920501 64.654890 0
M  V30 68 H 39.872005 32.868171 65.491926 0
M  V30 69 H 38.996675 31.011182 57.426285 0
M  V30 70 H 38.744262 28.493865 59.147345 0
M  V30 END ATOM
M  V30 BEGIN BOND
M  V30 1 2 4 2
M  V30 2 1 8 2
M  V30 3 1 8 6
M  V30 4 1 9 6
M  V30 5 2 12 7
M  V30 6 1 16 4
M  V30 7 2 16 13
M  V30 8 2 18 11
M  V30 9 2 19 5
M  V30 10 1 20 7
M  V30 11 1 21 3
M  V30 12 1 21 15
M  V30 13 1 22 1
M  V30 14 1 22 10
M  V30 15 1 23 6
M  V30 16 1 23 21
M  V30 17 1 24 23
M  V30 18 1 25 17
M  V30 19 1 26 8
M  V30 20 1 26 16
M  V30 21 2 27 20
M  V30 22 1 28 19
M  V30 23 1 29 1
M  V30 24 1 29 28
M  V30 25 1 30 22
M  V30 26 2 31 10
M  V30 27 1 31 18
M  V30 28 1 31 27
M  V30 29 1 32 7
M  V30 30 1 32 11
M  V30 31 1 33 14
M  V30 32 1 33 17
M  V30 33 1 33 32
M  V30 34 1 34 3
M  V30 35 1 34 19
M  V30 36 1 35 9
M  V30 37 1 35 24
M  V30 38 2 36 17
M  V30 39 1 37 2
M  V30 40 1 38 3
M  V30 41 1 39 3
M  V30 42 1 40 4
M  V30 43 1 6 41 CFG=3
M  V30 44 1 42 9
M  V30 45 1 43 10
M  V30 46 1 44 11
M  V30 47 1 45 26
M  V30 48 1 46 14
M  V30 49 1 47 14
M  V30 50 1 48 14
M  V30 51 1 49 15
M  V30 52 1 50 15
M  V30 53 1 51 15
M  V30 54 1 52 18
M  V30 55 1 21 53 CFG=3
M  V30 56 1 22 54 CFG=3
M  V30 57 1 23 55 CFG=3
M  V30 58 1 56 24
M  V30 59 1 57 24
M  V30 60 1 58 26
M  V30 61 1 59 27
M  V30 62 1 60 28
M  V30 63 1 61 28
M  V30 64 1 62 29
M  V30 65 1 63 29
M  V30 66 1 64 30
M  V30 67 1 65 30
M  V30 68 1 66 30
M  V30 69 1 32 67 CFG=1
M  V30 70 1 33 68 CFG=3
M  V30 71 1 69 34
M  V30 72 1 70 35
M  V30 END BOND
M  V30 END CTAB
M  END
>  <i_epik_Tot_Q>  (1) 
-1

>  <i_epik_Tot_abs_Q>  (1) 
1

>  <i_i_glide_confnum>  (1) 
1051

>  <i_i_glide_lignum>  (1) 
42

>  <i_i_glide_posenum>  (1) 
106

>  <i_i_glide_rotatable_bonds>  (1) 
12

>  <i_lp_mmshare_version>  (1) 
72125

>  <i_m_source_file_index>  (1) 
19

>  <i_f3d_flags>  (1) 
0

>  <num_sample>  (1) 
100

>  <b_lp_Chiralities_Consistent>  (1) 
1

>  <r_epik_Charging_Adjusted_Penalty>  (1) 
0.37971815023500188

>  <r_epik_Ionization_Penalty>  (1) 
0.19445293645399606

>  <r_epik_Ionization_Penalty_Charging>  (1) 
0.18991606969001057

>  <r_epik_Ionization_Penalty_Neutral>  (1) 
0.004536866763985496

>  <r_epik_State_Penalty>  (1) 
0.18980208054499129

>  <r_glide_ring_energy>  (1) 
1.7561163794185952

>  <r_i_docking_score>  (1) 
-6.7213980105676852

>  <r_i_glide_ecoul>  (1) 
-1.2213028323434845

>  <r_i_glide_eff_state_penalty>  (1) 
0.18980208054499129

>  <r_i_glide_einternal>  (1) 
11.219350104127528

>  <r_i_glide_emodel>  (1) 
-67.216482221973294

>  <r_i_glide_emodel_strain>  (1) 
0.6905453500523322

>  <r_i_glide_energy>  (1) 
-51.392161538803528

>  <r_i_glide_erotb>  (1) 
0.89642714384868305

>  <r_i_glide_esite>  (1) 
-0.041315215824494149

>  <r_i_glide_evdw>  (1) 
-50.170858706460045

>  <r_i_glide_gscore>  (1) 
-6.9112000911126765

>  <r_i_glide_gscore_strain>  (1) 
0

>  <r_i_glide_hbond>  (1) 
-0.045443905888227241

>  <r_i_glide_ligand_efficiency>  (1) 
-0.18670550029354682

>  <r_i_glide_ligand_efficiency_ln>  (1) 
-1.4664274547170713

>  <r_i_glide_ligand_efficiency_sa>  (1) 
-0.61648797893776608

>  <r_i_glide_lipo>  (1) 
-3.045860579426841

>  <r_i_glide_metal>  (1) 
-0

>  <r_i_glide_rewards>  (1) 
-1.9832691736472712

>  <r_lp_Energy>  (1) 
20.917635000000001

>  <r_lp_tautomer_probability>  (1) 
0.98846045845713826

>  <s_epik_Chemistry_Notes>  (1) 
This compound has an imine and may undergo hydrolysis. This compound contains an acetal/aminal-like group ( X-CH(R)-Y where X, Y are N, S, or O) that may be acid/base labile, releasing an aldehyde.

>  <s_epik_cmdline>  (1) 
J2VwaWtfcHl0aG9uJywgJy1waHQnLCAnMS4wJywgJy1waCcsICc3LjQnLCAnLXRuJywgJzgnLCAnLW1hJywgJzUwMCcsICctaW1hZScsICc8aW5maWxlLm1hZT4nLCAnLW9tYWUnLCAnPG91dGZpbGUubWFlPic=

>  <s_epik_input>  (1) 
W09IXUMoPU8pW0NASF0oW0NIM10pW0NAQEhdMVtDSF09W0NIXVxDKFtDSF09TkMxPU8pPVtDSF1cW0NASF0oW0NIM10pT1tDSDJdW0NIMl1DKD1PKVtOSF1bQ0gyXVtDQEhdKFtDSDNdKVtDQEBIXTJbQ0gyXVtOSF1bTkhdW0NASF0ybjNbY0hdW2NIXWMoW09IXSlbY0hdMw==

>  <s_glide_docking_method>  (1) 
confgen

>  <s_i_glide_gridfile>  (1) 
gpcr_5ht2c_6bqh_protein_autoprepared_prepared

>  <s_lp_Force_Field>  (1) 
S-OPLS

>  <s_lp_Variant>  (1) 
DiffSBDD_18_num_sample_100-2

>  <s_m_source_file>  (1) 
generated__ligand_DiffSBDD_2026-05-06_prepared.sdf

>  <GenAI_Model>  (1) 
DiffSBDD

>  <Protein>  (1) 
GPCR_5HT2C

$$$$
DiffSBDD_85_num_sample_100
     RDKit          3D

  0  0  0  0  0  0  0  0  0  0999 V3000
M  V30 BEGIN CTAB
M  V30 COUNTS 83 87 0 0 1
M  V30 BEGIN ATOM
M  V30 1 C 36.516913 33.714810 58.788562 0
M  V30 2 N 38.357110 28.255176 53.146642 0 CHG=1
M  V30 3 C 39.753339 29.229842 49.698460 0
M  V30 4 Cl 35.067441 33.221417 61.453497 0
M  V30 5 C 37.955707 34.224931 60.886444 0 CFG=1
M  V30 6 C 37.457583 26.411876 57.143780 0
M  V30 7 C 39.417402 28.595092 52.169763 0
M  V30 8 C 39.992573 30.683031 50.093240 0
M  V30 9 O 39.920059 32.162450 63.094168 0
M  V30 10 S 39.046979 29.714152 57.935101 0
M  V30 11 C 40.756177 30.638580 51.382510 0
M  V30 12 O 41.340947 31.686911 61.451937 0 CHG=-1
M  V30 13 C 38.885755 28.465993 50.727637 0
M  V30 14 C 39.667142 29.621506 59.634771 0 CFG=1
M  V30 15 C 40.522113 27.531495 58.642149 0 CFG=1
M  V30 16 C 39.493700 27.501868 56.171543 0 CFG=1
M  V30 17 C 37.768550 34.391715 59.364024 0
M  V30 18 N 38.274135 26.856082 53.537710 0
M  V30 19 C 37.793491 32.732609 61.329296 0 CFG=2
M  V30 20 C 37.839626 25.078631 56.530925 0 CFG=1
M  V30 21 C 39.913587 30.017570 52.499112 0
M  V30 22 C 39.250773 34.915430 61.348434 0
M  V30 23 C 37.461614 26.704987 54.743263 0 CFG=2
M  V30 24 C 40.148547 26.111694 55.966075 0
M  V30 25 C 37.950502 27.383572 56.058554 0 CFG=1
M  V30 26 C 36.313281 32.287866 59.318824 0
M  V30 27 C 40.194574 31.897757 61.904428 0
M  V30 28 C 39.013907 31.813666 60.902452 0 CFG=1
M  V30 29 C 37.320309 25.205967 55.091928 0
M  V30 30 O 41.935563 27.621542 58.666153 0
M  V30 31 C 38.726605 30.297941 60.664732 0
M  V30 32 C 39.873386 28.149196 59.898507 0 CFG=1
M  V30 33 C 36.412672 32.232631 60.833910 0 CFG=2
M  V30 34 C 39.367715 24.922731 56.586475 0
M  V30 35 C 40.062212 28.310630 57.382868 0 CFG=1
M  V30 36 O 40.667726 28.021437 61.058924 0
M  V30 37 H 35.635920 34.322298 59.001125 0
M  V30 38 H 36.611015 33.685863 57.703274 0
M  V30 39 H 37.451100 28.520072 52.787484 0
M  V30 40 H 40.667402 28.684376 49.662455 0
M  V30 41 H 39.467250 29.221456 48.656880 0
M  V30 42 H 37.159712 34.796638 61.364808 0
M  V30 43 H 36.377907 26.421448 57.275452 0
M  V30 44 H 37.900760 26.580445 58.124725 0
M  V30 45 H 40.260028 27.907540 52.253726 0
M  V30 46 H 40.611934 31.198190 49.366183 0
M  V30 47 H 39.067462 31.248103 50.178617 0
M  V30 48 H 41.654166 30.080306 51.105481 0
M  V30 49 H 41.067325 31.621425 51.691528 0
M  V30 50 H 38.827729 27.412124 50.451483 0
M  V30 51 H 37.868013 28.821438 50.730592 0
M  V30 52 H 40.673876 30.021457 59.653296 0
M  V30 53 H 40.265963 26.479250 58.618356 0
M  V30 54 H 39.812647 28.108817 55.326616 0
M  V30 55 H 37.691830 35.454024 59.139173 0
M  V30 56 H 38.646057 34.013740 58.840593 0
M  V30 57 H 37.771628 26.482199 52.742684 0
M  V30 58 H 37.706790 32.725570 62.414623 0
M  V30 59 H 37.364817 24.245149 57.051235 0
M  V30 60 H 39.067354 30.673728 52.689917 0
M  V30 61 H 40.480715 30.021589 53.429058 0
M  V30 62 H 40.126393 34.524826 60.829085 0
M  V30 63 H 39.211116 35.987040 61.152435 0
M  V30 64 H 39.407759 34.788899 62.419913 0
M  V30 65 H 36.497322 27.151078 54.516252 0
M  V30 66 H 40.258893 25.920775 54.900134 0
M  V30 67 H 41.163788 26.139237 56.335529 0
M  V30 68 H 37.479462 28.361690 56.161263 0
M  V30 69 H 35.325821 31.915379 59.053500 0
M  V30 70 H 37.035111 31.625541 58.845846 0
M  V30 71 H 39.379619 32.199046 59.952817 0
M  V30 72 H 37.857265 24.545779 54.410884 0
M  V30 73 H 36.273392 24.900647 55.061299 0
M  V30 74 H 42.257986 27.179671 59.438863 0
M  V30 75 H 37.719208 30.083650 60.326550 0
M  V30 76 H 38.793878 29.783594 61.626206 0
M  V30 77 H 38.903407 27.679112 60.070581 0
M  V30 78 H 36.200830 31.229364 61.196218 0
M  V30 79 H 39.616715 24.021464 56.051686 0
M  V30 80 H 39.679327 24.732570 57.610573 0
M  V30 81 H 40.944382 28.814277 56.984163 0
M  V30 82 H 41.510515 28.421611 60.899771 0
M  V30 83 H 38.535978 28.756919 54.006052 0
M  V30 END ATOM
M  V30 BEGIN BOND
M  V30 1 1 7 2
M  V30 2 1 8 3
M  V30 3 1 11 8
M  V30 4 1 13 3
M  V30 5 1 13 7
M  V30 6 1 14 10
M  V30 7 1 17 1
M  V30 8 1 17 5
M  V30 9 1 18 2
M  V30 10 1 19 5
M  V30 11 1 20 6
M  V30 12 1 21 7
M  V30 13 1 21 11
M  V30 14 1 22 5
M  V30 15 1 23 18
M  V30 16 1 24 16
M  V30 17 1 25 6
M  V30 18 1 25 16
M  V30 19 1 25 23
M  V30 20 1 26 1
M  V30 21 2 27 9
M  V30 22 1 27 12
M  V30 23 1 28 19
M  V30 24 1 28 27
M  V30 25 1 29 20
M  V30 26 1 29 23
M  V30 27 1 30 15
M  V30 28 1 31 14
M  V30 29 1 31 28
M  V30 30 1 32 14
M  V30 31 1 32 15
M  V30 32 1 33 4
M  V30 33 1 33 19
M  V30 34 1 33 26
M  V30 35 1 34 20
M  V30 36 1 34 24
M  V30 37 1 35 10
M  V30 38 1 35 15
M  V30 39 1 35 16
M  V30 40 1 36 32
M  V30 41 1 37 1
M  V30 42 1 38 1
M  V30 43 1 39 2
M  V30 44 1 40 3
M  V30 45 1 41 3
M  V30 46 1 5 42 CFG=1
M  V30 47 1 43 6
M  V30 48 1 44 6
M  V30 49 1 45 7
M  V30 50 1 46 8
M  V30 51 1 47 8
M  V30 52 1 48 11
M  V30 53 1 49 11
M  V30 54 1 50 13
M  V30 55 1 51 13
M  V30 56 1 14 52 CFG=3
M  V30 57 1 15 53 CFG=3
M  V30 58 1 16 54 CFG=3
M  V30 59 1 55 17
M  V30 60 1 56 17
M  V30 61 1 57 18
M  V30 62 1 19 58 CFG=1
M  V30 63 1 20 59 CFG=1
M  V30 64 1 60 21
M  V30 65 1 61 21
M  V30 66 1 62 22
M  V30 67 1 63 22
M  V30 68 1 64 22
M  V30 69 1 23 65 CFG=3
M  V30 70 1 66 24
M  V30 71 1 67 24
M  V30 72 1 25 68 CFG=1
M  V30 73 1 69 26
M  V30 74 1 70 26
M  V30 75 1 28 71 CFG=3
M  V30 76 1 72 29
M  V30 77 1 73 29
M  V30 78 1 74 30
M  V30 79 1 75 31
M  V30 80 1 76 31
M  V30 81 1 32 77 CFG=1
M  V30 82 1 33 78 CFG=1
M  V30 83 1 79 34
M  V30 84 1 80 34
M  V30 85 1 35 81 CFG=3
M  V30 86 1 82 36
M  V30 87 1 83 2
M  V30 END BOND
M  V30 END CTAB
M  END
>  <i_epik_Tot_Q>  (1) 
0

>  <i_epik_Tot_abs_Q>  (1) 
2

>  <i_i_glide_confnum>  (1) 
1575

>  <i_i_glide_lignum>  (1) 
222

>  <i_i_glide_posenum>  (1) 
15

>  <i_i_glide_rotatable_bonds>  (1) 
10

>  <i_lp_mmshare_version>  (1) 
72125

>  <i_m_source_file_index>  (1) 
86

>  <i_f3d_flags>  (1) 
0

>  <num_sample>  (1) 
100

>  <b_lp_Chiralities_Consistent>  (1) 
1

>  <r_epik_Charging_Adjusted_Penalty>  (1) 
0.73371446279801333

>  <r_epik_Ionization_Penalty>  (1) 
0.028997413797582132

>  <r_epik_Ionization_Penalty_Charging>  (1) 
0.028997299906531444

>  <r_epik_Ionization_Penalty_Neutral>  (1) 
1.138910506862436e-07

>  <r_epik_State_Penalty>  (1) 
0.7047171628914819

>  <r_glide_ring_energy>  (1) 
2.2711301210520229

>  <r_i_docking_score>  (1) 
-6.7113231533147975

>  <r_i_glide_ecoul>  (1) 
-0.5297731722213137

>  <r_i_glide_eff_state_penalty>  (1) 
0.7047171628914819

>  <r_i_glide_einternal>  (1) 
16.250769340246126

>  <r_i_glide_emodel>  (1) 
-28.361477448672666

>  <r_i_glide_emodel_strain>  (1) 
6.3258012103822665

>  <r_i_glide_energy>  (1) 
-34.857679805909036

>  <r_i_glide_erotb>  (1) 
0.49083612240102314

>  <r_i_glide_esite>  (1) 
0

>  <r_i_glide_evdw>  (1) 
-34.327906633687725

>  <r_i_glide_gscore>  (1) 
-7.4160403162062796

>  <r_i_glide_gscore_strain>  (1) 
0.58145030259556663

>  <r_i_glide_hbond>  (1) 
-0.07898135688732201

>  <r_i_glide_ligand_efficiency>  (1) 
-0.18642564314763327

>  <r_i_glide_ligand_efficiency_ln>  (1) 
-1.4642293930556785

>  <r_i_glide_ligand_efficiency_sa>  (1) 
-0.61556391100187624

>  <r_i_glide_lipo>  (1) 
-5.5106245637281361

>  <r_i_glide_metal>  (1) 
-0

>  <r_i_glide_rewards>  (1) 
-1.102859513069828

>  <r_lp_Energy>  (1) 
61.998908

>  <s_epik_cmdline>  (1) 
J2VwaWtfcHl0aG9uJywgJy1waHQnLCAnMS4wJywgJy1waCcsICc3LjQnLCAnLXRuJywgJzgnLCAnLW1hJywgJzUwMCcsICctaW1hZScsICc8aW5maWxlLm1hZT4nLCAnLW9tYWUnLCAnPG91dGZpbGUubWFlPic=

>  <s_epik_input>  (1) 
W0NIM11bQ0BIXTFbQ0gyXVtDSDJdW0NIMl1bQ0BIXShDbClbQ0BIXTFbQ0BASF0oQyg9TylbT0hdKVtDSDJdW0NAQEhdMlNbQ0BASF0oW0NAQEhdKFtPSF0pW0NASF0yW09IXSlbQ0BASF0oW0NIMl1bQ0gyXTMpW0NASF0oW0NIMl1bQ0BIXTM0KVtDQEhdKFtDSDJdNClbTkhdW05IXVtDSF01W0NIMl1bQ0gyXVtDSDJdW0NIMl1bQ0gyXTU=

>  <s_glide_docking_method>  (1) 
confgen

>  <s_i_glide_gridfile>  (1) 
gpcr_5ht2c_6bqh_protein_autoprepared_prepared

>  <s_lp_Force_Field>  (1) 
S-OPLS

>  <s_lp_Variant>  (1) 
DiffSBDD_85_num_sample_100-3

>  <s_m_source_file>  (1) 
generated__ligand_DiffSBDD_2026-05-06_prepared.sdf

>  <GenAI_Model>  (1) 
DiffSBDD

>  <Protein>  (1) 
GPCR_5HT2C

$$$$
DiffSBDD_15_num_sample_100
     RDKit          3D

  0  0  0  0  0  0  0  0  0  0999 V3000
M  V30 BEGIN CTAB
M  V30 COUNTS 74 79 0 0 1
M  V30 BEGIN ATOM
M  V30 1 C 40.048569 28.656982 59.150575 0
M  V30 2 S 40.552323 29.942018 63.054632 0
M  V30 3 N 37.720733 27.622622 52.510906 0
M  V30 4 C 41.564130 35.901707 65.214154 0
M  V30 5 C 38.014747 25.571745 56.089871 0
M  V30 6 C 40.094356 27.774956 51.037932 0
M  V30 7 S 38.626022 30.443485 54.811197 0
M  V30 8 S 37.467442 25.621102 54.386526 0
M  V30 9 O 37.155208 30.443556 54.809514 0
M  V30 10 C 40.853578 33.752308 63.324923 0
M  V30 11 C 41.116816 33.347844 64.585658 0
M  V30 12 C 40.143592 29.998319 61.283716 0 CFG=1
M  V30 13 C 39.381430 29.044484 51.347354 0 CFG=1
M  V30 14 N 40.644237 32.660579 62.510899 0
M  V30 15 C 37.321195 24.355559 56.676819 0
M  V30 16 C 37.931070 23.871686 57.967527 0
M  V30 17 C 38.420702 28.918847 52.537686 0 CFG=2
M  V30 18 C 37.136733 30.951225 59.128652 0
M  V30 19 S 41.448783 34.268893 66.014751 0
M  V30 20 C 40.770794 35.152966 62.821768 0
M  V30 21 N 38.713163 27.916561 54.474498 0
M  V30 22 C 38.666711 29.235049 58.905847 0 CFG=2
M  V30 23 N 40.294203 30.160486 51.509496 0
M  V30 24 O 41.467128 28.021508 60.942378 0
M  V30 25 C 40.578336 36.116023 64.019477 0
M  V30 26 C 39.301340 30.034159 56.497287 0
M  V30 27 C 40.232568 28.596467 60.665583 0 CFG=2
M  V30 28 N 39.073884 29.067305 53.903140 0
M  V30 29 C 38.229064 29.455584 57.462970 0 CFG=2
M  V30 30 C 39.467581 30.160718 50.328040 0
M  V30 31 C 37.976429 27.175813 53.667933 0
M  V30 32 C 37.089466 30.430467 57.694169 0
M  V30 33 O 39.361516 31.590538 54.267394 0
M  V30 34 C 40.764213 31.646524 63.380072 0
M  V30 35 N 38.471194 30.541945 59.562956 0 CFG=2 CHG=1
M  V30 36 O 41.079613 31.994958 64.663219 0
M  V30 37 C 38.735477 30.572540 61.017052 0
M  V30 38 H 40.828542 29.269216 58.694423 0
M  V30 39 H 40.116952 27.664202 58.706520 0
M  V30 40 H 41.391715 36.648220 65.987754 0
M  V30 41 H 42.588062 36.023418 64.859808 0
M  V30 42 H 39.100099 25.473075 56.132420 0
M  V30 43 H 37.715366 26.464709 56.633473 0
M  V30 44 H 39.538192 27.176548 50.312448 0
M  V30 45 H 41.067402 28.030133 50.654859 0
M  V30 46 H 40.226759 27.199508 51.951373 0
M  V30 47 H 40.893761 30.627999 60.798331 0
M  V30 48 H 36.270848 24.588064 56.807103 0
M  V30 49 H 37.352499 23.539770 55.957741 0
M  V30 50 H 37.466993 22.934182 58.254466 0
M  V30 51 H 38.991766 23.676557 57.827659 0
M  V30 52 H 37.832468 24.598074 58.771658 0
M  V30 53 H 37.626882 29.621538 52.450733 0
M  V30 54 H 37.004133 32.032664 59.182599 0
M  V30 55 H 36.361736 30.474280 59.733755 0
M  V30 56 H 41.684202 35.415555 62.289080 0
M  V30 57 H 39.952243 35.270713 62.109501 0
M  V30 58 H 38.963297 27.683080 55.420359 0
M  V30 59 H 37.944124 28.550037 59.350508 0
M  V30 60 H 41.275303 29.966405 51.380458 0
M  V30 61 H 42.164405 28.415293 60.434123 0
M  V30 62 H 39.556863 36.029718 64.388332 0
M  V30 63 H 40.655520 37.132953 63.636017 0
M  V30 64 H 39.704583 30.972113 56.872751 0
M  V30 65 H 40.154586 29.375250 56.356465 0
M  V30 66 H 39.474878 27.955547 61.111882 0
M  V30 67 H 37.829369 28.542929 57.038147 0
M  V30 68 H 39.964041 29.946459 49.384884 0
M  V30 69 H 38.682753 30.901818 50.253028 0
M  V30 70 H 37.304926 31.290279 57.069872 0
M  V30 71 H 36.121444 30.008050 57.441067 0
M  V30 72 H 38.654462 31.606468 61.348668 0
M  V30 73 H 37.979968 30.022736 61.566625 0
M  V30 74 H 39.116112 31.186956 59.132537 0
M  V30 END ATOM
M  V30 BEGIN BOND
M  V30 1 1 8 5
M  V30 2 2 9 7
M  V30 3 2 11 10
M  V30 4 1 12 2
M  V30 5 1 13 6 CFG=3
M  V30 6 1 14 10
M  V30 7 1 15 5
M  V30 8 1 16 15
M  V30 9 1 17 3
M  V30 10 1 17 13
M  V30 11 1 19 4
M  V30 12 1 19 11
M  V30 13 1 20 10
M  V30 14 1 22 1
M  V30 15 1 23 13
M  V30 16 1 25 4
M  V30 17 1 25 20
M  V30 18 1 26 7
M  V30 19 1 27 1
M  V30 20 1 27 12
M  V30 21 1 27 24
M  V30 22 1 28 7
M  V30 23 1 28 17
M  V30 24 1 28 21
M  V30 25 1 29 22
M  V30 26 1 29 26
M  V30 27 1 30 13
M  V30 28 1 30 23
M  V30 29 2 31 3
M  V30 30 1 31 8
M  V30 31 1 31 21
M  V30 32 1 32 18
M  V30 33 1 32 29
M  V30 34 2 33 7
M  V30 35 1 34 2
M  V30 36 2 34 14
M  V30 37 1 35 18
M  V30 38 1 35 22
M  V30 39 1 36 11
M  V30 40 1 36 34
M  V30 41 1 37 12
M  V30 42 1 37 35
M  V30 43 1 38 1
M  V30 44 1 39 1
M  V30 45 1 40 4
M  V30 46 1 41 4
M  V30 47 1 42 5
M  V30 48 1 43 5
M  V30 49 1 44 6
M  V30 50 1 45 6
M  V30 51 1 46 6
M  V30 52 1 12 47 CFG=3
M  V30 53 1 48 15
M  V30 54 1 49 15
M  V30 55 1 50 16
M  V30 56 1 51 16
M  V30 57 1 52 16
M  V30 58 1 17 53 CFG=3
M  V30 59 1 54 18
M  V30 60 1 55 18
M  V30 61 1 56 20
M  V30 62 1 57 20
M  V30 63 1 58 21
M  V30 64 1 22 59 CFG=1
M  V30 65 1 60 23
M  V30 66 1 61 24
M  V30 67 1 62 25
M  V30 68 1 63 25
M  V30 69 1 64 26
M  V30 70 1 65 26
M  V30 71 1 27 66 CFG=1
M  V30 72 1 29 67 CFG=3
M  V30 73 1 68 30
M  V30 74 1 69 30
M  V30 75 1 70 32
M  V30 76 1 71 32
M  V30 77 1 72 37
M  V30 78 1 73 37
M  V30 79 1 35 74 CFG=3
M  V30 END BOND
M  V30 END CTAB
M  END
>  <i_epik_Tot_Q>  (1) 
1

>  <i_epik_Tot_abs_Q>  (1) 
1

>  <i_i_glide_confnum>  (1) 
311

>  <i_i_glide_lignum>  (1) 
35

>  <i_i_glide_posenum>  (1) 
229

>  <i_i_glide_rotatable_bonds>  (1) 
10

>  <i_lp_mmshare_version>  (1) 
72125

>  <i_m_source_file_index>  (1) 
16

>  <i_f3d_flags>  (1) 
0

>  <num_sample>  (1) 
100

>  <b_lp_Chiralities_Consistent>  (1) 
1

>  <r_epik_Charging_Adjusted_Penalty>  (1) 
0.0082019649409003706

>  <r_epik_Ionization_Penalty>  (1) 
0.015626865898487191

>  <r_epik_Ionization_Penalty_Charging>  (1) 
0.0082019649409003706

>  <r_epik_Ionization_Penalty_Neutral>  (1) 
0.0074249009575868222

>  <r_epik_State_Penalty>  (1) 
-0

>  <r_glide_ring_energy>  (1) 
0

>  <r_i_docking_score>  (1) 
-6.706760151379485

>  <r_i_glide_ecoul>  (1) 
0.86395348437673014

>  <r_i_glide_eff_state_penalty>  (1) 
-0

>  <r_i_glide_einternal>  (1) 
7.4795723087682857

>  <r_i_glide_emodel>  (1) 
-33.689219039299189

>  <r_i_glide_emodel_strain>  (1) 
1.6160419410852853

>  <r_i_glide_energy>  (1) 
-32.34525366090898

>  <r_i_glide_erotb>  (1) 
0.37349522713264072

>  <r_i_glide_esite>  (1) 
-0.071028902707552771

>  <r_i_glide_evdw>  (1) 
-33.20920714528571

>  <r_i_glide_gscore>  (1) 
-6.706760151379485

>  <r_i_glide_gscore_strain>  (1) 
0

>  <r_i_glide_hbond>  (1) 
-0.15636125484152916

>  <r_i_glide_ligand_efficiency>  (1) 
-0.18126378787512121

>  <r_i_glide_ligand_efficiency_ln>  (1) 
-1.4545390480684914

>  <r_i_glide_ligand_efficiency_sa>  (1) 
-0.60401115486959578

>  <r_i_glide_lipo>  (1) 
-3.7764525446517712

>  <r_i_glide_metal>  (1) 
-0

>  <r_i_glide_rewards>  (1) 
-1.5455453417034972

>  <r_lp_Energy>  (1) 
14.877502999999999

>  <r_lp_tautomer_probability>  (1) 
1

>  <s_epik_Chemistry_Notes>  (1) 
This compound has an imine and may undergo hydrolysis. This compound contains an acetal/aminal-like group ( X-CH(R)-Y where X, Y are N, S, or O) that may be acid/base labile, releasing an aldehyde.

>  <s_epik_cmdline>  (1) 
J2VwaWtfcHl0aG9uJywgJy1waHQnLCAnMS4wJywgJy1waCcsICc3LjQnLCAnLXRuJywgJzgnLCAnLW1hJywgJzUwMCcsICctaW1hZScsICc8aW5maWxlLm1hZT4nLCAnLW9tYWUnLCAnPG91dGZpbGUubWFlPic=

>  <s_epik_input>  (1) 
W0NIMl0xW0NIMl1bQ0gyXVNjKGMxMilvYyhuMilTW0NAQEhdKFtDQEBIXShbQ0gyXTMpW09IXSlbQ0gyXU4oW0NASF0zNClbQ0gyXVtDSDJdW0NASF00W0NIMl1TKD1PKSg9TylONVtOSF1DKFNbQ0gyXVtDSDJdW0NIM10pPU5bQ0BASF01W0NAXTYoW0NIM10pW05IXVtDSDJdNg==

>  <s_glide_docking_method>  (1) 
confgen

>  <s_i_glide_gridfile>  (1) 
gpcr_5ht2c_6bqh_protein_autoprepared_prepared

>  <s_lp_Force_Field>  (1) 
S-OPLS

>  <s_lp_Variant>  (1) 
DiffSBDD_15_num_sample_100-2

>  <s_m_source_file>  (1) 
generated__ligand_DiffSBDD_2026-05-06_prepared.sdf

>  <GenAI_Model>  (1) 
DiffSBDD

>  <Protein>  (1) 
GPCR_5HT2C

$$$$
DiffSBDD_15_num_sample_100
     RDKit          3D

  0  0  0  0  0  0  0  0  0  0999 V3000
M  V30 BEGIN CTAB
M  V30 COUNTS 74 79 0 0 1
M  V30 BEGIN ATOM
M  V30 1 C 39.140867 31.466135 60.299862 0
M  V30 2 S 38.267407 31.682617 56.258008 0
M  V30 3 N 43.739636 30.692672 66.483017 0
M  V30 4 C 40.038991 28.336900 51.032592 0
M  V30 5 C 41.599387 34.164974 65.687510 0
M  V30 6 C 45.321701 29.612835 63.925808 0
M  V30 7 S 40.891319 29.430484 64.281368 0
M  V30 8 S 42.837126 33.329576 66.735263 0
M  V30 9 O 40.138662 29.746003 65.505311 0
M  V30 10 C 38.969859 28.847227 53.753881 0
M  V30 11 C 39.354775 29.943154 53.070785 0
M  V30 12 C 38.808534 30.939515 57.836869 0 CFG=1
M  V30 13 C 44.511107 28.859732 64.957594 0 CFG=1
M  V30 14 N 38.594232 29.194177 55.039926 0
M  V30 15 C 42.210571 34.737440 64.398429 0
M  V30 16 C 41.181654 35.466670 63.527686 0
M  V30 17 C 43.320021 29.603125 65.552077 0 CFG=2
M  V30 18 C 39.927943 28.405844 59.530864 0
M  V30 19 S 39.904374 30.107978 51.429439 0
M  V30 20 C 38.920319 27.441732 53.250076 0
M  V30 21 N 42.322334 31.458281 64.929571 0
M  V30 22 C 38.643303 30.064224 60.702093 0 CFG=2
M  V30 23 N 44.170241 27.527097 64.499764 0
M  V30 24 O 39.067402 33.221410 58.689785 0
M  V30 25 C 38.947674 27.443141 51.693078 0
M  V30 26 C 40.126056 30.333304 62.854262 0
M  V30 27 C 38.538719 31.948915 58.976018 0 CFG=2
M  V30 28 N 42.414016 30.196900 64.488919 0
M  V30 29 C 39.559641 29.392932 61.752521 0 CFG=2
M  V30 30 C 45.072120 27.643210 65.636501 0
M  V30 31 C 43.036240 31.657295 66.037967 0
M  V30 32 C 40.600786 28.669276 60.887134 0
M  V30 33 O 41.134355 28.032664 63.897937 0
M  V30 34 C 38.736428 30.529173 55.015235 0
M  V30 35 N 38.626290 29.109814 59.559480 0 CFG=1 CHG=1
M  V30 36 O 39.245498 31.049003 53.853622 0
M  V30 37 C 38.119157 29.620935 58.248816 0
M  V30 38 H 40.227579 31.468574 60.253495 0
M  V30 39 H 38.887385 32.177317 61.087580 0
M  V30 40 H 40.016073 28.229560 49.948537 0
M  V30 41 H 41.022398 28.021442 51.367101 0
M  V30 42 H 40.760296 33.500446 65.479984 0
M  V30 43 H 41.188157 34.987475 66.274095 0
M  V30 44 H 45.872244 30.421411 64.404117 0
M  V30 45 H 46.034498 28.941760 63.453510 0
M  V30 46 H 44.677419 30.021420 63.148657 0
M  V30 47 H 39.867403 30.738141 57.697816 0
M  V30 48 H 43.012372 35.432166 64.653669 0
M  V30 49 H 42.667443 33.942005 63.811801 0
M  V30 50 H 41.653227 35.878619 62.634731 0
M  V30 51 H 40.385245 34.795147 63.206117 0
M  V30 52 H 40.724825 36.295218 64.070178 0
M  V30 53 H 42.738069 28.882728 66.133136 0
M  V30 54 H 40.564764 28.766918 58.722272 0
M  V30 55 H 39.761948 27.340365 59.366277 0
M  V30 56 H 39.772509 26.878141 53.631268 0
M  V30 57 H 38.023963 26.931600 53.604942 0
M  V30 58 H 41.695710 32.128880 64.512932 0
M  V30 59 H 37.625976 30.174455 61.073713 0
M  V30 60 H 44.563633 27.228615 63.617136 0
M  V30 61 H 38.667977 33.529504 57.886983 0
M  V30 62 H 37.973842 27.773821 51.329525 0
M  V30 63 H 39.067362 26.421484 51.335195 0
M  V30 64 H 40.870718 31.020767 62.456756 0
M  V30 65 H 39.323781 30.935303 63.279488 0
M  V30 66 H 37.460820 32.075939 59.095270 0
M  V30 67 H 38.984793 28.616110 62.253106 0
M  V30 68 H 46.122464 27.406902 65.478190 0
M  V30 69 H 44.681292 27.378739 66.617120 0
M  V30 70 H 41.467308 29.303973 60.734332 0
M  V30 71 H 40.951948 27.745782 61.346566 0
M  V30 72 H 38.253987 28.837709 57.507290 0
M  V30 73 H 37.042743 29.782025 58.330340 0
M  V30 74 H 37.972372 28.391122 59.836356 0
M  V30 END ATOM
M  V30 BEGIN BOND
M  V30 1 1 8 5
M  V30 2 2 9 7
M  V30 3 2 11 10
M  V30 4 1 12 2
M  V30 5 1 13 6 CFG=3
M  V30 6 1 14 10
M  V30 7 1 15 5
M  V30 8 1 16 15
M  V30 9 1 17 3
M  V30 10 1 17 13
M  V30 11 1 19 4
M  V30 12 1 19 11
M  V30 13 1 20 10
M  V30 14 1 22 1
M  V30 15 1 23 13
M  V30 16 1 25 4
M  V30 17 1 25 20
M  V30 18 1 26 7
M  V30 19 1 27 1
M  V30 20 1 27 12
M  V30 21 1 27 24
M  V30 22 1 28 7
M  V30 23 1 28 17
M  V30 24 1 28 21
M  V30 25 1 29 22
M  V30 26 1 29 26
M  V30 27 1 30 13
M  V30 28 1 30 23
M  V30 29 2 31 3
M  V30 30 1 31 8
M  V30 31 1 31 21
M  V30 32 1 32 18
M  V30 33 1 32 29
M  V30 34 2 33 7
M  V30 35 1 34 2
M  V30 36 2 34 14
M  V30 37 1 35 18
M  V30 38 1 35 22
M  V30 39 1 36 11
M  V30 40 1 36 34
M  V30 41 1 37 12
M  V30 42 1 37 35
M  V30 43 1 38 1
M  V30 44 1 39 1
M  V30 45 1 40 4
M  V30 46 1 41 4
M  V30 47 1 42 5
M  V30 48 1 43 5
M  V30 49 1 44 6
M  V30 50 1 45 6
M  V30 51 1 46 6
M  V30 52 1 12 47 CFG=3
M  V30 53 1 48 15
M  V30 54 1 49 15
M  V30 55 1 50 16
M  V30 56 1 51 16
M  V30 57 1 52 16
M  V30 58 1 17 53 CFG=1
M  V30 59 1 54 18
M  V30 60 1 55 18
M  V30 61 1 56 20
M  V30 62 1 57 20
M  V30 63 1 58 21
M  V30 64 1 22 59 CFG=1
M  V30 65 1 60 23
M  V30 66 1 61 24
M  V30 67 1 62 25
M  V30 68 1 63 25
M  V30 69 1 64 26
M  V30 70 1 65 26
M  V30 71 1 27 66 CFG=1
M  V30 72 1 29 67 CFG=1
M  V30 73 1 68 30
M  V30 74 1 69 30
M  V30 75 1 70 32
M  V30 76 1 71 32
M  V30 77 1 72 37
M  V30 78 1 73 37
M  V30 79 1 35 74 CFG=1
M  V30 END BOND
M  V30 END CTAB
M  END
>  <i_epik_Tot_Q>  (1) 
1

>  <i_epik_Tot_abs_Q>  (1) 
1

>  <i_i_glide_confnum>  (1) 
306

>  <i_i_glide_lignum>  (1) 
34

>  <i_i_glide_posenum>  (1) 
68

>  <i_i_glide_rotatable_bonds>  (1) 
10

>  <i_lp_mmshare_version>  (1) 
72125

>  <i_m_source_file_index>  (1) 
16

>  <i_f3d_flags>  (1) 
0

>  <num_sample>  (1) 
100

>  <b_lp_Chiralities_Consistent>  (1) 
1

>  <r_epik_Charging_Adjusted_Penalty>  (1) 
0.0082019649409003706

>  <r_epik_Ionization_Penalty>  (1) 
0.015626865898487191

>  <r_epik_Ionization_Penalty_Charging>  (1) 
0.0082019649409003706

>  <r_epik_Ionization_Penalty_Neutral>  (1) 
0.0074249009575868222

>  <r_epik_State_Penalty>  (1) 
-0

>  <r_glide_ring_energy>  (1) 
0

>  <r_i_docking_score>  (1) 
-6.7061031796545976

>  <r_i_glide_ecoul>  (1) 
1.0616727212029549

>  <r_i_glide_eff_state_penalty>  (1) 
-0

>  <r_i_glide_einternal>  (1) 
8.1963323744165386

>  <r_i_glide_emodel>  (1) 
-60.604807985935118

>  <r_i_glide_emodel_strain>  (1) 
0.14722704136754317

>  <r_i_glide_energy>  (1) 
-48.682618352953348

>  <r_i_glide_erotb>  (1) 
0.37349522713264072

>  <r_i_glide_esite>  (1) 
-0.048273590846931468

>  <r_i_glide_evdw>  (1) 
-49.744291074156301

>  <r_i_glide_gscore>  (1) 
-6.7061031796545976

>  <r_i_glide_gscore_strain>  (1) 
0

>  <r_i_glide_hbond>  (1) 
0

>  <r_i_glide_ligand_efficiency>  (1) 
-0.1812460318825567

>  <r_i_glide_ligand_efficiency_ln>  (1) 
-1.4543965663029659

>  <r_i_glide_ligand_efficiency_sa>  (1) 
-0.60395198796317462

>  <r_i_glide_lipo>  (1) 
-3.5943340067305352

>  <r_i_glide_metal>  (1) 
-0

>  <r_i_glide_rewards>  (1) 
-1.1090271636823985

>  <r_lp_Energy>  (1) 
9.9370189999999994

>  <r_lp_tautomer_probability>  (1) 
1

>  <s_epik_Chemistry_Notes>  (1) 
This compound has an imine and may undergo hydrolysis. This compound contains an acetal/aminal-like group ( X-CH(R)-Y where X, Y are N, S, or O) that may be acid/base labile, releasing an aldehyde.

>  <s_epik_cmdline>  (1) 
J2VwaWtfcHl0aG9uJywgJy1waHQnLCAnMS4wJywgJy1waCcsICc3LjQnLCAnLXRuJywgJzgnLCAnLW1hJywgJzUwMCcsICctaW1hZScsICc8aW5maWxlLm1hZT4nLCAnLW9tYWUnLCAnPG91dGZpbGUubWFlPic=

>  <s_epik_input>  (1) 
W0NIMl0xW0NIMl1bQ0gyXVNjKGMxMilvYyhuMilTW0NAQEhdKFtDQEBIXShbQ0gyXTMpW09IXSlbQ0gyXU4oW0NASF0zNClbQ0gyXVtDSDJdW0NASF00W0NIMl1TKD1PKSg9TylONVtOSF1DKFNbQ0gyXVtDSDJdW0NIM10pPU5bQ0BASF01W0NAXTYoW0NIM10pW05IXVtDSDJdNg==

>  <s_glide_docking_method>  (1) 
confgen

>  <s_i_glide_gridfile>  (1) 
gpcr_5ht2c_6bqh_protein_autoprepared_prepared

>  <s_lp_Force_Field>  (1) 
S-OPLS

>  <s_lp_Variant>  (1) 
DiffSBDD_15_num_sample_100-1

>  <s_m_source_file>  (1) 
generated__ligand_DiffSBDD_2026-05-06_prepared.sdf

>  <GenAI_Model>  (1) 
DiffSBDD

>  <Protein>  (1) 
GPCR_5HT2C

$$$$
DiffSBDD_18_num_sample_100
     RDKit          3D

  0  0  0  0  0  0  0  0  0  0999 V3000
M  V30 BEGIN CTAB
M  V30 COUNTS 70 72 0 0 1
M  V30 BEGIN ATOM
M  V30 1 O 38.762631 30.252107 60.887262 0
M  V30 2 C 37.467398 26.421426 56.417396 0
M  V30 3 C 39.086084 30.508876 56.095502 0
M  V30 4 C 37.300343 25.154275 56.588685 0
M  V30 5 O 37.497465 29.655119 58.250746 0
M  V30 6 C 37.701928 28.161968 54.594932 0 CFG=2
M  V30 7 C 42.712351 31.894876 65.827553 0
M  V30 8 N 37.549941 26.794241 55.106849 0
M  V30 9 N 37.075337 28.272125 53.272351 0
M  V30 10 C 39.568662 30.905515 63.050214 0
M  V30 11 C 41.985770 33.538286 64.136417 0
M  V30 12 O 43.898828 31.569791 65.855836 0
M  V30 13 O 37.067410 23.373580 55.053500 0
M  V30 14 C 41.189649 35.516290 66.336490 0
M  V30 15 C 39.068084 31.023484 53.662743 0
M  V30 16 C 37.259615 24.561233 55.296122 0
M  V30 17 C 41.400697 33.661886 67.997393 0
M  V30 18 C 41.179403 32.752215 63.393267 0
M  V30 19 C 38.677905 29.314760 58.205502 0
M  V30 20 N 41.653264 31.065661 66.028150 0
M  V30 21 C 39.553274 30.010744 54.710142 0 CFG=2
M  V30 22 C 39.172749 31.367333 61.658460 0 CFG=2
M  V30 23 C 39.177476 28.532249 54.386545 0 CFG=2
M  V30 24 C 39.386250 28.148465 52.911317 0
M  V30 25 O 42.564833 33.584810 68.449100 0 CHG=-1
M  V30 26 C 37.480051 25.639579 54.160419 0
M  V30 27 C 40.698011 30.852223 65.206219 0
M  V30 28 C 39.280452 28.483682 59.335056 0
M  V30 29 C 39.815105 29.403362 60.443160 0
M  V30 30 C 37.975888 32.321731 61.714259 0
M  V30 31 C 40.476753 31.511898 63.848522 0
M  V30 32 C 42.319241 33.330863 65.574165 0 CFG=1
M  V30 33 C 41.243724 33.982664 66.501870 0 CFG=2
M  V30 34 N 39.499036 29.645870 57.198133 0
M  V30 35 N 38.079012 28.212042 52.263855 0
M  V30 36 O 40.348723 33.510964 68.653476 0
M  V30 37 H 37.533465 27.188181 57.168062 0
M  V30 38 H 38.009518 30.687653 56.085010 0
M  V30 39 H 39.525113 31.489252 56.287556 0
M  V30 40 H 37.196507 24.615300 57.517514 0
M  V30 41 H 37.185828 28.839417 55.269428 0
M  V30 42 H 36.397900 27.525550 53.132214 0
M  V30 43 H 39.066888 30.021446 63.405866 0
M  V30 44 H 42.422458 34.412487 63.677762 0
M  V30 45 H 36.667406 25.683439 53.442052 0
M  V30 46 H 40.546728 35.978399 67.087046 0
M  V30 47 H 42.179631 35.963892 66.430336 0
M  V30 48 H 40.794295 35.798865 65.361146 0
M  V30 49 H 37.980027 31.036314 53.610020 0
M  V30 50 H 39.391457 32.021513 53.939105 0
M  V30 51 H 39.465144 30.835536 52.665954 0
M  V30 52 H 41.023751 33.064761 62.375866 0
M  V30 53 H 40.643208 30.062079 54.702961 0
M  V30 54 H 39.985088 31.855161 61.123905 0
M  V30 55 H 39.804063 27.901757 55.019658 0
M  V30 56 H 40.100382 28.773901 52.376425 0
M  V30 57 H 39.754149 27.125102 52.840485 0
M  V30 58 H 38.444473 25.621454 53.667555 0
M  V30 59 H 39.950248 30.088452 65.438131 0
M  V30 60 H 40.074665 27.842355 58.952061 0
M  V30 61 H 38.510782 27.825994 59.737952 0
M  V30 62 H 40.651807 29.989578 60.057865 0
M  V30 63 H 40.190077 28.811339 61.279523 0
M  V30 64 H 38.228061 33.234405 62.253622 0
M  V30 65 H 37.662254 32.609897 60.710473 0
M  V30 66 H 37.120767 31.860519 62.207754 0
M  V30 67 H 43.240056 33.892025 65.732932 0
M  V30 68 H 40.267478 33.593505 66.216268 0
M  V30 69 H 40.455207 29.326851 57.216275 0
M  V30 70 H 37.922199 27.401032 51.666252 0
M  V30 END ATOM
M  V30 BEGIN BOND
M  V30 1 2 4 2
M  V30 2 1 8 2
M  V30 3 1 8 6
M  V30 4 1 9 6
M  V30 5 2 12 7
M  V30 6 1 16 4
M  V30 7 2 16 13
M  V30 8 2 18 11
M  V30 9 2 19 5
M  V30 10 1 20 7
M  V30 11 1 21 3
M  V30 12 1 21 15
M  V30 13 1 22 1
M  V30 14 1 22 10
M  V30 15 1 23 6
M  V30 16 1 23 21
M  V30 17 1 24 23
M  V30 18 1 25 17
M  V30 19 1 26 8
M  V30 20 1 26 16
M  V30 21 2 27 20
M  V30 22 1 28 19
M  V30 23 1 29 1
M  V30 24 1 29 28
M  V30 25 1 30 22
M  V30 26 2 31 10
M  V30 27 1 31 18
M  V30 28 1 31 27
M  V30 29 1 32 7
M  V30 30 1 32 11
M  V30 31 1 33 14
M  V30 32 1 33 17
M  V30 33 1 33 32
M  V30 34 1 34 3
M  V30 35 1 34 19
M  V30 36 1 35 9
M  V30 37 1 35 24
M  V30 38 2 36 17
M  V30 39 1 37 2
M  V30 40 1 38 3
M  V30 41 1 39 3
M  V30 42 1 40 4
M  V30 43 1 6 41 CFG=1
M  V30 44 1 42 9
M  V30 45 1 43 10
M  V30 46 1 44 11
M  V30 47 1 45 26
M  V30 48 1 46 14
M  V30 49 1 47 14
M  V30 50 1 48 14
M  V30 51 1 49 15
M  V30 52 1 50 15
M  V30 53 1 51 15
M  V30 54 1 52 18
M  V30 55 1 21 53 CFG=1
M  V30 56 1 22 54 CFG=3
M  V30 57 1 23 55 CFG=1
M  V30 58 1 56 24
M  V30 59 1 57 24
M  V30 60 1 58 26
M  V30 61 1 59 27
M  V30 62 1 60 28
M  V30 63 1 61 28
M  V30 64 1 62 29
M  V30 65 1 63 29
M  V30 66 1 64 30
M  V30 67 1 65 30
M  V30 68 1 66 30
M  V30 69 1 32 67 CFG=1
M  V30 70 1 33 68 CFG=3
M  V30 71 1 69 34
M  V30 72 1 70 35
M  V30 END BOND
M  V30 END CTAB
M  END
>  <i_epik_Tot_Q>  (1) 
-1

>  <i_epik_Tot_abs_Q>  (1) 
1

>  <i_i_glide_confnum>  (1) 
628

>  <i_i_glide_lignum>  (1) 
43

>  <i_i_glide_posenum>  (1) 
326

>  <i_i_glide_rotatable_bonds>  (1) 
12

>  <i_lp_mmshare_version>  (1) 
72125

>  <i_m_source_file_index>  (1) 
19

>  <i_f3d_flags>  (1) 
0

>  <num_sample>  (1) 
100

>  <b_lp_Chiralities_Consistent>  (1) 
1

>  <r_epik_Charging_Adjusted_Penalty>  (1) 
0.37971815023500188

>  <r_epik_Ionization_Penalty>  (1) 
0.19445293645399606

>  <r_epik_Ionization_Penalty_Charging>  (1) 
0.18991606969001057

>  <r_epik_Ionization_Penalty_Neutral>  (1) 
0.004536866763985496

>  <r_epik_State_Penalty>  (1) 
0.18980208054499129

>  <r_glide_ring_energy>  (1) 
1.845819541117304

>  <r_i_docking_score>  (1) 
-6.7040958118637111

>  <r_i_glide_ecoul>  (1) 
-1.442643741365113

>  <r_i_glide_eff_state_penalty>  (1) 
0.18980208054499129

>  <r_i_glide_einternal>  (1) 
6.9324952079633455

>  <r_i_glide_emodel>  (1) 
-68.402439846042114

>  <r_i_glide_emodel_strain>  (1) 
1.1353703183147559

>  <r_i_glide_energy>  (1) 
-49.957755820136391

>  <r_i_glide_erotb>  (1) 
0.89642714384868305

>  <r_i_glide_esite>  (1) 
0

>  <r_i_glide_evdw>  (1) 
-48.515112078771281

>  <r_i_glide_gscore>  (1) 
-6.8938978924087024

>  <r_i_glide_gscore_strain>  (1) 
0

>  <r_i_glide_hbond>  (1) 
0

>  <r_i_glide_ligand_efficiency>  (1) 
-0.18622488366288087

>  <r_i_glide_ligand_efficiency_ln>  (1) 
-1.4626525824112524

>  <r_i_glide_ligand_efficiency_sa>  (1) 
-0.61490101778869821

>  <r_i_glide_lipo>  (1) 
-3.3511654108537883

>  <r_i_glide_metal>  (1) 
-0

>  <r_i_glide_rewards>  (1) 
-1.7970074602602655

>  <r_lp_Energy>  (1) 
26.239971999999998

>  <r_lp_tautomer_probability>  (1) 
0.98846045845713826

>  <s_epik_Chemistry_Notes>  (1) 
This compound has an imine and may undergo hydrolysis. This compound contains an acetal/aminal-like group ( X-CH(R)-Y where X, Y are N, S, or O) that may be acid/base labile, releasing an aldehyde.

>  <s_epik_cmdline>  (1) 
J2VwaWtfcHl0aG9uJywgJy1waHQnLCAnMS4wJywgJy1waCcsICc3LjQnLCAnLXRuJywgJzgnLCAnLW1hJywgJzUwMCcsICctaW1hZScsICc8aW5maWxlLm1hZT4nLCAnLW9tYWUnLCAnPG91dGZpbGUubWFlPic=

>  <s_epik_input>  (1) 
W09IXUMoPU8pW0NASF0oW0NIM10pW0NAQEhdMVtDSF09W0NIXS9DKFtDSF09TkMxPU8pPVtDSF1cW0NASF0oW0NIM10pT1tDSDJdW0NIMl1DKD1PKVtOSF1bQ0gyXVtDQEhdKFtDSDNdKVtDQEBIXTJbQ0gyXVtOSF1bTkhdW0NASF0ybjNbY0hdW2NIXWMoW09IXSlbY0hdMw==

>  <s_glide_docking_method>  (1) 
confgen

>  <s_i_glide_gridfile>  (1) 
gpcr_5ht2c_6bqh_protein_autoprepared_prepared

>  <s_lp_Force_Field>  (1) 
S-OPLS

>  <s_lp_Variant>  (1) 
DiffSBDD_18_num_sample_100-3

>  <s_m_source_file>  (1) 
generated__ligand_DiffSBDD_2026-05-06_prepared.sdf

>  <GenAI_Model>  (1) 
DiffSBDD

>  <Protein>  (1) 
GPCR_5HT2C

$$$$
DiffSBDD_53_num_sample_100
     RDKit          3D

  0  0  0  0  0  0  0  0  0  0999 V3000
M  V30 BEGIN CTAB
M  V30 COUNTS 69 72 0 0 1
M  V30 BEGIN ATOM
M  V30 1 C 41.028917 32.935837 62.319377 0
M  V30 2 C 40.942834 30.141877 66.311621 0
M  V30 3 C 41.520312 32.576073 64.810883 0
M  V30 4 O 41.067227 28.021980 63.140131 0
M  V30 5 N 41.735689 27.734406 66.233241 0 CFG=2 CHG=1
M  V30 6 C 39.796723 27.732193 57.219466 0
M  V30 7 C 40.225773 26.083497 55.358144 0
M  V30 8 N 38.810024 28.679898 57.744318 0
M  V30 9 C 38.686971 28.965169 59.051073 0
M  V30 10 C 41.823021 34.798611 63.833115 0
M  V30 11 C 37.939079 30.786354 60.720082 0 CFG=1
M  V30 12 C 41.499696 26.435314 65.612293 0
M  V30 13 C 40.568777 28.655510 66.252349 0
M  V30 14 C 42.511256 27.400745 65.034266 0 CFG=1
M  V30 15 O 39.193894 31.450677 60.554634 0
M  V30 16 C 39.066178 32.860331 60.682422 0 CFG=1
M  V30 17 C 36.940102 31.907995 61.074166 0 CFG=1
M  V30 18 C 37.582728 33.131251 60.456326 0
M  V30 19 C 42.312826 28.229404 63.762466 0 CFG=2
M  V30 20 C 41.469162 33.443058 63.683488 0
M  V30 21 O 39.379521 28.438684 59.925223 0
M  V30 22 C 42.222921 35.289194 65.084300 0
M  V30 23 C 38.339773 25.657917 57.024079 0
M  V30 24 O 38.950652 24.653730 57.452692 0
M  V30 25 S 42.779010 29.968613 63.959630 0
M  V30 26 C 42.267401 34.434946 66.195620 0
M  V30 27 C 39.164016 26.705187 56.253604 0 CFG=1
M  V30 28 C 40.167843 26.075617 54.017867 0
M  V30 29 O 37.118755 25.888159 57.168014 0 CHG=-1
M  V30 30 C 37.624551 30.008074 59.422333 0
M  V30 31 S 41.086500 30.857106 64.650361 0 CHG=1
M  V30 32 C 41.919863 33.082034 66.064373 0
M  V30 33 C 35.475790 31.707747 60.665149 0
M  V30 34 C 39.550387 33.263369 62.082586 0
M  V30 35 H 41.630420 33.439743 61.562157 0
M  V30 36 H 41.224647 31.876507 62.169157 0
M  V30 37 H 41.864964 30.275440 66.877262 0
M  V30 38 H 40.157777 30.690471 66.832698 0
M  V30 39 H 41.202826 27.622156 62.290665 0
M  V30 40 H 40.541355 28.321790 56.683364 0
M  V30 41 H 40.344402 27.209996 58.007114 0
M  V30 42 H 41.067140 25.626479 55.853702 0
M  V30 43 H 38.204439 29.143225 57.082137 0
M  V30 44 H 41.787080 35.464088 62.982267 0
M  V30 45 H 38.024305 30.094143 61.557558 0
M  V30 46 H 41.823033 25.642493 66.283815 0
M  V30 47 H 40.508351 26.345088 65.170249 0
M  V30 48 H 40.013818 28.421434 67.155562 0
M  V30 49 H 39.867506 28.470810 65.452970 0
M  V30 50 H 43.549589 27.272186 65.334449 0
M  V30 51 H 39.668453 33.361575 59.924076 0
M  V30 52 H 36.955228 32.034827 62.156617 0
M  V30 53 H 37.240310 34.066633 60.900699 0
M  V30 54 H 37.371668 33.169927 59.386425 0
M  V30 55 H 43.039009 27.831333 63.053490 0
M  V30 56 H 42.496434 36.328744 65.193719 0
M  V30 57 H 42.572151 34.819577 67.148303 0
M  V30 58 H 38.470326 27.233743 55.597430 0
M  V30 59 H 40.950840 25.620938 53.431764 0
M  V30 60 H 39.337553 26.523883 53.492519 0
M  V30 61 H 36.671780 29.487955 59.516944 0
M  V30 62 H 37.512185 30.709538 58.593962 0
M  V30 63 H 41.962286 32.437838 66.925995 0
M  V30 64 H 35.358018 31.604706 59.584924 0
M  V30 65 H 35.067385 30.821501 61.142894 0
M  V30 66 H 34.871708 32.560487 60.977010 0
M  V30 67 H 38.956858 32.773192 62.852144 0
M  V30 68 H 39.390717 34.334860 62.213738 0
M  V30 69 H 42.250657 27.644593 67.098463 0
M  V30 END ATOM
M  V30 BEGIN BOND
M  V30 1 1 8 6
M  V30 2 1 9 8
M  V30 3 1 12 5
M  V30 4 1 13 2
M  V30 5 1 13 5
M  V30 6 1 14 5
M  V30 7 1 14 12
M  V30 8 1 15 11
M  V30 9 1 16 15
M  V30 10 1 17 11
M  V30 11 1 18 16
M  V30 12 1 18 17
M  V30 13 1 19 4
M  V30 14 1 19 14
M  V30 15 1 20 1
M  V30 16 1 20 3
M  V30 17 2 20 10
M  V30 18 2 21 9
M  V30 19 1 22 10
M  V30 20 2 24 23
M  V30 21 1 25 19
M  V30 22 2 26 22
M  V30 23 1 27 6
M  V30 24 1 27 7
M  V30 25 1 27 23
M  V30 26 2 28 7
M  V30 27 1 29 23
M  V30 28 1 30 9
M  V30 29 1 30 11
M  V30 30 1 31 2
M  V30 31 1 31 3 CFG=1
M  V30 32 1 31 25
M  V30 33 2 32 3
M  V30 34 1 32 26
M  V30 35 1 33 17
M  V30 36 1 34 1
M  V30 37 1 34 16
M  V30 38 1 35 1
M  V30 39 1 36 1
M  V30 40 1 37 2
M  V30 41 1 38 2
M  V30 42 1 39 4
M  V30 43 1 40 6
M  V30 44 1 41 6
M  V30 45 1 42 7
M  V30 46 1 43 8
M  V30 47 1 44 10
M  V30 48 1 11 45 CFG=1
M  V30 49 1 46 12
M  V30 50 1 47 12
M  V30 51 1 48 13
M  V30 52 1 49 13
M  V30 53 1 14 50 CFG=1
M  V30 54 1 16 51 CFG=3
M  V30 55 1 17 52 CFG=1
M  V30 56 1 53 18
M  V30 57 1 54 18
M  V30 58 1 19 55 CFG=3
M  V30 59 1 56 22
M  V30 60 1 57 26
M  V30 61 1 27 58 CFG=3
M  V30 62 1 59 28
M  V30 63 1 60 28
M  V30 64 1 61 30
M  V30 65 1 62 30
M  V30 66 1 63 32
M  V30 67 1 64 33
M  V30 68 1 65 33
M  V30 69 1 66 33
M  V30 70 1 67 34
M  V30 71 1 68 34
M  V30 72 1 5 69 CFG=1
M  V30 END BOND
M  V30 END CTAB
M  END
>  <i_epik_Tot_Q>  (1) 
1

>  <i_epik_Tot_abs_Q>  (1) 
3

>  <i_i_glide_confnum>  (1) 
1066

>  <i_i_glide_lignum>  (1) 
140

>  <i_i_glide_posenum>  (1) 
173

>  <i_i_glide_rotatable_bonds>  (1) 
12

>  <i_lp_mmshare_version>  (1) 
72125

>  <i_m_source_file_index>  (1) 
54

>  <i_f3d_flags>  (1) 
0

>  <num_sample>  (1) 
100

>  <b_lp_Chiralities_Consistent>  (1) 
1

>  <r_epik_Charging_Adjusted_Penalty>  (1) 
0.046453037766825911

>  <r_epik_Ionization_Penalty>  (1) 
0.023481310305084564

>  <r_epik_Ionization_Penalty_Charging>  (1) 
0.023340632071334463

>  <r_epik_Ionization_Penalty_Neutral>  (1) 
0.0001406782337501018

>  <r_epik_State_Penalty>  (1) 
0.023112405695491445

>  <r_glide_ring_energy>  (1) 
0.17236391819081889

>  <r_i_docking_score>  (1) 
-6.6992112925532599

>  <r_i_glide_ecoul>  (1) 
-6.3637999005466455

>  <r_i_glide_eff_state_penalty>  (1) 
0.023112405695491445

>  <r_i_glide_einternal>  (1) 
4.373734991495775

>  <r_i_glide_emodel>  (1) 
-71.37555331972078

>  <r_i_glide_emodel_strain>  (1) 
0.59093979590462453

>  <r_i_glide_energy>  (1) 
-49.417562368582104

>  <r_i_glide_erotb>  (1) 
0.79410111881252765

>  <r_i_glide_esite>  (1) 
0

>  <r_i_glide_evdw>  (1) 
-43.053762468035458

>  <r_i_glide_gscore>  (1) 
-6.7223236982487515

>  <r_i_glide_gscore_strain>  (1) 
0

>  <r_i_glide_hbond>  (1) 
0

>  <r_i_glide_ligand_efficiency>  (1) 
-0.19703562625156645

>  <r_i_glide_ligand_efficiency_ln>  (1) 
-1.4800436810369535

>  <r_i_glide_ligand_efficiency_sa>  (1) 
-0.63831894007667433

>  <r_i_glide_lipo>  (1) 
-3.4356751173642754

>  <r_i_glide_metal>  (1) 
-0

>  <r_i_glide_rewards>  (1) 
-0.97349159121323314

>  <r_lp_Energy>  (1) 
3.4646329999999996

>  <s_epik_Chemistry_Notes>  (1) 
This compound contains an acetal/aminal-like group ( X-CH(R)-Y where X, Y are N, S, or O) that may be acid/base labile, releasing an aldehyde.

>  <s_epik_cmdline>  (1) 
J2VwaWtfcHl0aG9uJywgJy1waHQnLCAnMS4wJywgJy1waCcsICc3LjQnLCAnLXRuJywgJzgnLCAnLW1hJywgJzUwMCcsICctaW1hZScsICc8aW5maWxlLm1hZT4nLCAnLW9tYWUnLCAnPG91dGZpbGUubWFlPic=

>  <s_epik_input>  (1) 
TjEyW0NAQEhdKFtDSDJdMSlbQ0BASF0oW09IXSlTW1MrXShbQ0gyXVtDSDJdMiljM2MoW2NIXVtjSF1bY0hdW2NIXTMpW0NIMl1bQ0gyXVtDQEhdKFtDSDJdW0NASF00W0NIM10pT1tDQEBIXTRbQ0gyXUMoPU8pW05IXVtDSDJdW0NAQEhdKFtDSF09W0NIMl0pQyg9TylbT0hd

>  <s_glide_docking_method>  (1) 
confgen

>  <s_i_glide_gridfile>  (1) 
gpcr_5ht2c_6bqh_protein_autoprepared_prepared

>  <s_lp_Force_Field>  (1) 
S-OPLS

>  <s_lp_Variant>  (1) 
DiffSBDD_53_num_sample_100-1

>  <s_m_source_file>  (1) 
generated__ligand_DiffSBDD_2026-05-06_prepared.sdf

>  <GenAI_Model>  (1) 
DiffSBDD

>  <Protein>  (1) 
GPCR_5HT2C

$$$$
DiffSBDD_0_num_sample_100
     RDKit          3D

  0  0  0  0  0  0  0  0  0  0999 V3000
M  V30 BEGIN CTAB
M  V30 COUNTS 60 62 0 0 1
M  V30 BEGIN ATOM
M  V30 1 C 38.995864 29.646101 60.122315 0
M  V30 2 C 38.890358 28.896968 56.097652 0 CFG=1
M  V30 3 C 37.562604 35.676257 60.935525 0
M  V30 4 C 37.343734 33.919672 58.417597 0
M  V30 5 C 40.279299 29.190019 60.575570 0
M  V30 6 C 40.281457 27.536651 58.582895 0
M  V30 7 C 39.660370 34.449302 61.186074 0
M  V30 8 C 38.073557 36.711844 61.742210 0
M  V30 9 C 38.355582 34.542045 60.654841 0
M  V30 10 C 38.618292 28.599827 53.590320 0 CFG=2
M  V30 11 N 38.509441 31.359531 56.400606 0
M  V30 12 C 39.006161 32.550189 57.064460 0
M  V30 13 C 37.869452 33.538086 57.233195 0
M  V30 14 C 39.376023 36.617269 62.271319 0
M  V30 15 F 41.421446 35.396740 62.501985 0
M  V30 16 C 40.169371 35.486631 61.993297 0
M  V30 17 C 37.806342 33.421025 59.783164 0 CFG=1
M  V30 18 C 40.901773 28.197196 59.873279 0
M  V30 19 N 35.895086 32.125238 61.050293 0
M  V30 20 C 39.501314 30.292755 56.391411 0
M  V30 21 C 38.401518 29.002929 59.140918 0
M  V30 22 C 38.130279 28.205708 57.261718 0 CFG=1
M  V30 23 N 38.011232 28.932598 54.904448 0 CHG=1
M  V30 24 O 39.867402 37.621414 63.053503 0
M  V30 25 C 39.385247 29.808724 53.004130 0
M  V30 26 C 37.511583 28.069455 52.662130 0
M  V30 27 C 39.902807 29.618491 51.569542 0
M  V30 28 N 38.856229 27.898055 58.516734 0
M  V30 29 S 36.972925 29.290431 58.253502 0
M  V30 30 C 36.731161 32.697860 60.487714 0
M  V30 31 Cl 41.028214 29.896286 61.959761 0
M  V30 32 H 38.544673 30.526015 60.553472 0
M  V30 33 H 39.725098 28.242566 55.847745 0
M  V30 34 H 36.563429 35.751169 60.532504 0
M  V30 35 H 36.531677 34.630642 58.422954 0
M  V30 36 H 40.841020 27.859307 57.706488 0
M  V30 37 H 40.364209 26.452088 58.653210 0
M  V30 38 H 40.269956 33.583312 60.975063 0
M  V30 39 H 37.465666 37.578969 61.955964 0
M  V30 40 H 39.320104 27.775147 53.723974 0
M  V30 41 H 38.190036 31.621494 55.478719 0
M  V30 42 H 39.783312 33.008296 56.452316 0
M  V30 43 H 39.467401 32.290931 58.007807 0
M  V30 44 H 37.467209 33.953078 56.322113 0
M  V30 45 H 38.590421 32.679333 59.687913 0
M  V30 46 H 41.867403 27.840350 60.187155 0
M  V30 47 H 40.267396 30.551164 55.664952 0
M  V30 48 H 40.005450 30.248631 57.355765 0
M  V30 49 H 37.602766 27.304894 56.945828 0
M  V30 50 H 37.303656 28.231726 55.067241 0
M  V30 51 H 40.699558 37.428279 63.469901 0
M  V30 52 H 38.765476 30.702754 53.053502 0
M  V30 53 H 40.254114 30.021424 53.623376 0
M  V30 54 H 37.909588 27.725287 51.706903 0
M  V30 55 H 37.003619 27.214149 53.109240 0
M  V30 56 H 36.754158 28.821423 52.453299 0
M  V30 57 H 40.524768 30.463237 51.270728 0
M  V30 58 H 40.508710 28.716393 51.478748 0
M  V30 59 H 39.087273 29.552697 50.848758 0
M  V30 60 H 37.543790 29.828187 54.879289 0
M  V30 END ATOM
M  V30 BEGIN BOND
M  V30 1 1 5 1
M  V30 2 2 8 3
M  V30 3 1 9 3
M  V30 4 2 9 7
M  V30 5 1 12 11
M  V30 6 2 13 4
M  V30 7 1 13 12
M  V30 8 1 14 8
M  V30 9 1 16 7
M  V30 10 2 16 14
M  V30 11 1 16 15
M  V30 12 1 17 4
M  V30 13 1 17 9
M  V30 14 2 18 5
M  V30 15 1 18 6
M  V30 16 1 20 2
M  V30 17 1 20 11
M  V30 18 2 21 1
M  V30 19 1 22 2
M  V30 20 1 23 2
M  V30 21 1 23 10
M  V30 22 1 24 14
M  V30 23 1 25 10
M  V30 24 1 26 10
M  V30 25 1 27 25
M  V30 26 1 28 6
M  V30 27 1 28 21
M  V30 28 1 28 22
M  V30 29 1 29 21
M  V30 30 1 29 22
M  V30 31 1 30 17
M  V30 32 3 30 19
M  V30 33 1 31 5
M  V30 34 1 32 1
M  V30 35 1 2 33 CFG=3
M  V30 36 1 34 3
M  V30 37 1 35 4
M  V30 38 1 36 6
M  V30 39 1 37 6
M  V30 40 1 38 7
M  V30 41 1 39 8
M  V30 42 1 10 40 CFG=1
M  V30 43 1 41 11
M  V30 44 1 42 12
M  V30 45 1 43 12
M  V30 46 1 44 13
M  V30 47 1 17 45 CFG=3
M  V30 48 1 46 18
M  V30 49 1 47 20
M  V30 50 1 48 20
M  V30 51 1 22 49 CFG=3
M  V30 52 1 50 23
M  V30 53 1 51 24
M  V30 54 1 52 25
M  V30 55 1 53 25
M  V30 56 1 54 26
M  V30 57 1 55 26
M  V30 58 1 56 26
M  V30 59 1 57 27
M  V30 60 1 58 27
M  V30 61 1 59 27
M  V30 62 1 60 23
M  V30 END BOND
M  V30 END CTAB
M  END
>  <i_epik_Tot_Q>  (1) 
1

>  <i_epik_Tot_abs_Q>  (1) 
1

>  <i_i_glide_confnum>  (1) 
63

>  <i_i_glide_lignum>  (1) 
4

>  <i_i_glide_posenum>  (1) 
328

>  <i_i_glide_rotatable_bonds>  (1) 
11

>  <i_lp_mmshare_version>  (1) 
72125

>  <i_m_source_file_index>  (1) 
1

>  <i_f3d_flags>  (1) 
0

>  <num_sample>  (1) 
100

>  <b_lp_Chiralities_Consistent>  (1) 
1

>  <r_epik_Charging_Adjusted_Penalty>  (1) 
1.026714880071514

>  <r_epik_Ionization_Penalty>  (1) 
0.57488375576365369

>  <r_epik_Ionization_Penalty_Charging>  (1) 
0.45778339447339428

>  <r_epik_Ionization_Penalty_Neutral>  (1) 
0.11710036129025943

>  <r_epik_State_Penalty>  (1) 
0.56893148559811979

>  <r_glide_ring_energy>  (1) 
0

>  <r_i_docking_score>  (1) 
-6.6986707948821964

>  <r_i_glide_ecoul>  (1) 
-4.8079016646787327

>  <r_i_glide_eff_state_penalty>  (1) 
0.56893148559811979

>  <r_i_glide_einternal>  (1) 
4.8851742642025506

>  <r_i_glide_emodel>  (1) 
-70.004870139211988

>  <r_i_glide_emodel_strain>  (1) 
0.0075447272108419838

>  <r_i_glide_energy>  (1) 
-49.018764645414031

>  <r_i_glide_erotb>  (1) 
0.74887478347211667

>  <r_i_glide_esite>  (1) 
-0.014491346442433918

>  <r_i_glide_evdw>  (1) 
-44.2108629807353

>  <r_i_glide_gscore>  (1) 
-7.2676022804803164

>  <r_i_glide_gscore_strain>  (1) 
0

>  <r_i_glide_hbond>  (1) 
-0.21531451384700448

>  <r_i_glide_ligand_efficiency>  (1) 
-0.21608615467361925

>  <r_i_glide_ligand_efficiency_ln>  (1) 
-1.5107555538514492

>  <r_i_glide_ligand_efficiency_sa>  (1) 
-0.67880886554136155

>  <r_i_glide_lipo>  (1) 
-3.5664580658927694

>  <r_i_glide_metal>  (1) 
-0

>  <r_i_glide_rewards>  (1) 
-1.2884847390316492

>  <r_lp_Energy>  (1) 
38.461821999999998

>  <r_lp_tautomer_probability>  (1) 
0.99999999999736477

>  <s_epik_Chemistry_Notes>  (1) 
This compound contains an acetal/aminal-like group ( X-CH(R)-Y where X, Y are N, S, or O) that may be acid/base labile, releasing an aldehyde.

>  <s_epik_cmdline>  (1) 
J2VwaWtfcHl0aG9uJywgJy1waHQnLCAnMS4wJywgJy1waCcsICc3LjQnLCAnLXRuJywgJzgnLCAnLW1hJywgJzUwMCcsICctaW1hZScsICc8aW5maWxlLm1hZT4nLCAnLW9tYWUnLCAnPG91dGZpbGUubWFlPic=

>  <s_epik_input>  (1) 
W0NIXT0xQyhDbCk9W0NIXVtDSDJdTihDMTIpW0NAQEhdKFMyKVtDQEBIXShbTkhdW0NAQEhdKFtDSDNdKVtDSDJdW0NIM10pW0NIMl1bTkhdW0NIMl0vW0NIXT1bQ0hdXFtDQEhdKEMjTiljM1tjSF1bY0hdYyhbT0hdKWMoRilbY0hdMw==

>  <s_glide_docking_method>  (1) 
confgen

>  <s_i_glide_gridfile>  (1) 
gpcr_5ht2c_6bqh_protein_autoprepared_prepared

>  <s_lp_Force_Field>  (1) 
S-OPLS

>  <s_lp_Variant>  (1) 
DiffSBDD_0_num_sample_100-4

>  <s_m_source_file>  (1) 
generated__ligand_DiffSBDD_2026-05-06_prepared.sdf

>  <GenAI_Model>  (1) 
DiffSBDD

>  <Protein>  (1) 
GPCR_5HT2C

$$$$
DiffSBDD_44_num_sample_100
     RDKit          3D

  0  0  0  0  0  0  0  0  0  0999 V3000
M  V30 BEGIN CTAB
M  V30 COUNTS 58 59 0 0 1
M  V30 BEGIN ATOM
M  V30 1 C 36.123089 34.378773 58.883036 0
M  V30 2 O 37.740406 30.152084 59.588570 0 CHG=-1
M  V30 3 C 38.753448 28.338241 52.708853 0
M  V30 4 C 36.586446 32.560400 60.426899 0 CFG=1
M  V30 5 N 37.049473 32.183987 59.053465 0 CFG=1 CHG=1
M  V30 6 C 39.827958 30.369914 53.593633 0
M  V30 7 N 39.312243 28.735652 56.188126 0
M  V30 8 C 38.971706 29.112010 53.737459 0
M  V30 9 O 37.488736 27.683771 55.053437 0
M  V30 10 C 36.105808 34.034281 60.363089 0 CFG=1
M  V30 11 C 36.965304 35.004350 61.187104 0
M  V30 12 C 38.480326 30.739942 57.463280 0 CFG=1
M  V30 13 C 39.353205 29.453891 57.252254 0
M  V30 14 C 37.195620 33.463537 58.324479 0
M  V30 15 C 38.093668 26.403645 55.226527 0
M  V30 16 C 39.538390 28.942802 50.481747 0
M  V30 17 C 38.186567 31.204377 58.948686 0 CFG=2
M  V30 18 C 38.335684 28.839183 55.102453 0 CFG=1
M  V30 19 F 41.269679 30.421445 50.099388 0
M  V30 20 C 40.698493 29.748485 51.097825 0 CFG=1
M  V30 21 C 38.846278 28.024021 51.452257 0
M  V30 22 C 39.118148 31.869177 56.614454 0
M  V30 23 C 40.295082 29.100331 58.395340 0
M  V30 24 C 35.440081 31.659050 60.905549 0
M  V30 25 C 40.256640 30.804190 52.151075 0
M  V30 26 H 36.319593 35.431237 58.678701 0
M  V30 27 H 35.159378 34.130196 58.435232 0
M  V30 28 H 37.422245 32.477120 61.123792 0
M  V30 29 H 39.256975 31.199639 54.002718 0
M  V30 30 H 40.706002 30.253741 54.225396 0
M  V30 31 H 35.078957 34.124442 60.720594 0
M  V30 32 H 38.029913 34.872447 60.990359 0
M  V30 33 H 36.712957 36.040952 60.963089 0
M  V30 34 H 36.787673 34.865048 62.250651 0
M  V30 35 H 37.488201 30.531432 57.066409 0
M  V30 36 H 38.172593 33.900275 58.530205 0
M  V30 37 H 37.067564 33.355443 57.250102 0
M  V30 38 H 37.362314 25.627546 55.002328 0
M  V30 39 H 38.949739 26.254429 54.569142 0
M  V30 40 H 38.418613 26.256866 56.257009 0
M  V30 41 H 39.832738 28.422232 49.571740 0
M  V30 42 H 38.778581 29.677766 50.253442 0
M  V30 43 H 39.066154 31.740167 59.310001 0
M  V30 44 H 37.651526 29.674004 55.223503 0
M  V30 45 H 41.467378 29.075916 51.469772 0
M  V30 46 H 38.349808 27.154234 51.046877 0
M  V30 47 H 39.996030 31.546013 56.059320 0
M  V30 48 H 38.407455 32.259596 55.886233 0
M  V30 49 H 39.473214 32.700338 57.217650 0
M  V30 50 H 40.428611 29.903439 59.113379 0
M  V30 51 H 39.894928 28.243795 58.938207 0
M  V30 52 H 41.275008 28.821400 58.006501 0
M  V30 53 H 35.034355 32.008396 61.853247 0
M  V30 54 H 34.638774 31.651293 60.169156 0
M  V30 55 H 35.761234 30.631973 61.053523 0
M  V30 56 H 39.467392 31.406926 51.711207 0
M  V30 57 H 41.067380 31.514117 52.256267 0
M  V30 58 H 36.271085 31.732294 58.580053 0
M  V30 END ATOM
M  V30 BEGIN BOND
M  V30 1 1 5 4
M  V30 2 2 8 3
M  V30 3 1 8 6
M  V30 4 1 10 1
M  V30 5 1 10 4
M  V30 6 1 11 10
M  V30 7 2 13 7
M  V30 8 1 13 12
M  V30 9 1 14 1
M  V30 10 1 14 5
M  V30 11 1 15 9
M  V30 12 1 17 2
M  V30 13 1 17 5
M  V30 14 1 17 12
M  V30 15 1 18 7
M  V30 16 1 18 8
M  V30 17 1 18 9
M  V30 18 1 20 16
M  V30 19 1 20 19
M  V30 20 2 21 3
M  V30 21 1 21 16
M  V30 22 1 22 12
M  V30 23 1 23 13
M  V30 24 1 24 4
M  V30 25 1 25 6
M  V30 26 1 25 20
M  V30 27 1 26 1
M  V30 28 1 27 1
M  V30 29 1 4 28 CFG=1
M  V30 30 1 29 6
M  V30 31 1 30 6
M  V30 32 1 10 31 CFG=1
M  V30 33 1 32 11
M  V30 34 1 33 11
M  V30 35 1 34 11
M  V30 36 1 12 35 CFG=3
M  V30 37 1 36 14
M  V30 38 1 37 14
M  V30 39 1 38 15
M  V30 40 1 39 15
M  V30 41 1 40 15
M  V30 42 1 41 16
M  V30 43 1 42 16
M  V30 44 1 17 43 CFG=1
M  V30 45 1 18 44 CFG=1
M  V30 46 1 20 45 CFG=1
M  V30 47 1 46 21
M  V30 48 1 47 22
M  V30 49 1 48 22
M  V30 50 1 49 22
M  V30 51 1 50 23
M  V30 52 1 51 23
M  V30 53 1 52 23
M  V30 54 1 53 24
M  V30 55 1 54 24
M  V30 56 1 55 24
M  V30 57 1 56 25
M  V30 58 1 57 25
M  V30 59 1 5 58 CFG=3
M  V30 END BOND
M  V30 END CTAB
M  END
>  <i_epik_Tot_Q>  (1) 
0

>  <i_epik_Tot_abs_Q>  (1) 
2

>  <i_i_glide_confnum>  (1) 
26

>  <i_i_glide_lignum>  (1) 
114

>  <i_i_glide_posenum>  (1) 
212

>  <i_i_glide_rotatable_bonds>  (1) 
6

>  <i_lp_mmshare_version>  (1) 
72125

>  <i_m_source_file_index>  (1) 
45

>  <i_f3d_flags>  (1) 
0

>  <num_sample>  (1) 
100

>  <b_lp_Chiralities_Consistent>  (1) 
1

>  <r_epik_Charging_Adjusted_Penalty>  (1) 
0.41733257654759531

>  <r_epik_Ionization_Penalty>  (1) 
0.0069177268181324029

>  <r_epik_Ionization_Penalty_Charging>  (1) 
0.0066527375949913311

>  <r_epik_Ionization_Penalty_Neutral>  (1) 
0.00026498922314107146

>  <r_epik_State_Penalty>  (1) 
0.41067983895260396

>  <r_glide_ring_energy>  (1) 
0

>  <r_i_docking_score>  (1) 
-6.695275406233816

>  <r_i_glide_ecoul>  (1) 
-3.3509537505982658

>  <r_i_glide_eff_state_penalty>  (1) 
0.41067983895260396

>  <r_i_glide_einternal>  (1) 
35.775176421178799

>  <r_i_glide_emodel>  (1) 
-33.618704264848574

>  <r_i_glide_emodel_strain>  (1) 
2.8924135215809486

>  <r_i_glide_energy>  (1) 
-35.557912370582038

>  <r_i_glide_erotb>  (1) 
0.61440649929112812

>  <r_i_glide_esite>  (1) 
-0.14556760305013788

>  <r_i_glide_evdw>  (1) 
-32.206958619983773

>  <r_i_glide_gscore>  (1) 
-7.1059552451864203

>  <r_i_glide_gscore_strain>  (1) 
0

>  <r_i_glide_hbond>  (1) 
-0.15796602736777529

>  <r_i_glide_ligand_efficiency>  (1) 
-0.26781101624935266

>  <r_i_glide_ligand_efficiency_ln>  (1) 
-1.5869809124905871

>  <r_i_glide_ligand_efficiency_sa>  (1) 
-0.78308416200192132

>  <r_i_glide_lipo>  (1) 
-2.7820397400532801

>  <r_i_glide_metal>  (1) 
-0

>  <r_i_glide_rewards>  (1) 
-2.5217973804174258

>  <r_lp_Energy>  (1) 
9.5307370000000002

>  <r_lp_tautomer_probability>  (1) 
0.49999399997599986

>  <s_epik_Chemistry_Notes>  (1) 
This compound has an imine and may undergo hydrolysis. This compound contains an acetal/aminal-like group ( X-CH(R)-Y where X, Y are N, S, or O) that may be acid/base labile, releasing an aldehyde.

>  <s_epik_cmdline>  (1) 
J2VwaWtfcHl0aG9uJywgJy1waHQnLCAnMS4wJywgJy1waCcsICc3LjQnLCAnLXRuJywgJzgnLCAnLW1hJywgJzUwMCcsICctaW1hZScsICc8aW5maWxlLm1hZT4nLCAnLW9tYWUnLCAnPG91dGZpbGUubWFlPic=

>  <s_epik_input>  (1) 
W0NIM11bQ0BIXTFbQ0gyXVtDSDJdTihbQ0BASF0xW0NIM10pW0NAQEhdKFtPSF0pW0NAQEhdKFtDSDNdKS9DKFtDSDNdKT1OXFtDQEBIXShPW0NIM10pQzI9Qz1bQ0hdW0NIMl1bQ0BASF0oRilbQ0gyXVtDSDJdMg==

>  <s_glide_docking_method>  (1) 
confgen

>  <s_i_glide_gridfile>  (1) 
gpcr_5ht2c_6bqh_protein_autoprepared_prepared

>  <s_lp_Force_Field>  (1) 
S-OPLS

>  <s_lp_Variant>  (1) 
DiffSBDD_44_num_sample_100-7

>  <s_m_source_file>  (1) 
generated__ligand_DiffSBDD_2026-05-06_prepared.sdf

>  <GenAI_Model>  (1) 
DiffSBDD

>  <Protein>  (1) 
GPCR_5HT2C

$$$$
DiffSBDD_90_num_sample_100
     RDKit          3D

  0  0  0  0  0  0  0  0  0  0999 V3000
M  V30 BEGIN CTAB
M  V30 COUNTS 84 87 0 0 1
M  V30 BEGIN ATOM
M  V30 1 C 38.813553 29.671110 59.316669 0
M  V30 2 O 41.182869 36.821204 63.053482 0
M  V30 3 F 37.867352 23.747185 58.653460 0
M  V30 4 C 38.504625 28.273148 53.551047 0 CFG=1
M  V30 5 C 40.284319 34.621660 61.523739 0 CFG=2
M  V30 6 C 38.018278 34.461513 60.687378 0 CFG=1
M  V30 7 C 40.405409 30.693185 51.432506 0
M  V30 8 C 36.668708 33.449330 58.792639 0
M  V30 9 C 39.236969 28.662276 52.241169 0
M  V30 10 N 39.932503 37.006539 62.382517 0
M  V30 11 C 39.054751 25.804178 58.556739 0
M  V30 12 C 40.267353 27.640770 51.813381 0
M  V30 13 C 39.483183 34.207314 60.294049 0
M  V30 14 C 38.075454 35.769600 61.456253 0
M  V30 15 O 41.809299 32.963430 62.356526 0
M  V30 16 N 38.342266 30.071390 57.986985 0
M  V30 17 C 37.076353 34.514344 59.510492 0
M  V30 18 F 39.476153 23.897191 57.252178 0
M  V30 19 C 38.076111 26.010406 55.823655 0 CFG=2
M  V30 20 N 39.190158 29.637248 56.932849 0
M  V30 21 C 39.608670 26.797646 57.561675 0
M  V30 22 C 38.066005 31.515140 57.936651 0
M  V30 23 O 39.773657 29.968272 52.477513 0
M  V30 24 C 38.267315 28.698643 51.106564 0
M  V30 25 C 37.820231 30.021308 60.413578 0
M  V30 26 C 37.479512 24.924613 56.725625 0
M  V30 27 C 37.077880 31.981439 59.028315 0 CFG=1
M  V30 28 C 39.372018 35.666829 62.264715 0 CFG=1
M  V30 29 C 37.832217 26.879444 53.439601 0
M  V30 30 O 39.696157 32.870308 63.050915 0 CHG=-1
M  V30 31 C 38.619827 28.605798 56.047343 0 CFG=1
M  V30 32 C 37.497072 31.497365 60.436194 0
M  V30 33 O 41.467403 35.221444 61.053542 0
M  V30 34 C 39.432213 28.439256 54.773966 0
M  V30 35 C 38.410358 27.240985 56.719346 0 CFG=1
M  V30 36 C 37.145290 26.272332 54.666163 0
M  V30 37 C 38.480589 24.569298 57.817262 0
M  V30 38 C 40.627046 33.378852 62.390131 0
M  V30 39 H 38.941672 28.597001 59.363455 0
M  V30 40 H 39.781623 30.133559 59.516231 0
M  V30 41 H 41.185748 37.478004 63.751292 0
M  V30 42 H 37.700806 29.002895 53.669081 0
M  V30 43 H 37.654137 33.759001 61.430177 0
M  V30 44 H 40.744627 31.621495 51.873379 0
M  V30 45 H 41.283450 30.197609 51.024759 0
M  V30 46 H 39.734314 30.963441 50.620435 0
M  V30 47 H 35.994567 33.621507 57.970457 0
M  V30 48 H 40.235425 37.335877 61.474206 0
M  V30 49 H 38.267494 26.274582 59.143486 0
M  V30 50 H 39.867388 25.621419 59.247112 0
M  V30 51 H 39.860191 26.856317 51.174036 0
M  V30 52 H 41.067477 28.096407 51.243518 0
M  V30 53 H 40.667357 27.103430 52.653718 0
M  V30 54 H 39.718982 33.202009 59.957382 0
M  V30 55 H 39.776842 34.821417 59.453545 0
M  V30 56 H 37.204240 35.916073 62.094693 0
M  V30 57 H 38.115913 36.606161 60.756006 0
M  V30 58 H 36.711975 35.494478 59.237601 0
M  V30 59 H 38.989564 25.601781 55.387085 0
M  V30 60 H 40.076138 29.324857 57.323669 0
M  V30 61 H 40.125378 27.597326 58.081222 0
M  V30 62 H 40.385219 26.340955 56.946633 0
M  V30 63 H 37.662448 31.754257 56.951154 0
M  V30 64 H 39.006020 32.057707 58.030723 0
M  V30 65 H 37.925489 27.706672 50.822072 0
M  V30 66 H 37.393061 29.221416 51.453520 0
M  V30 67 H 38.687504 29.154868 50.224969 0
M  V30 68 H 36.896042 29.468574 60.253361 0
M  V30 69 H 38.267403 29.727856 61.366128 0
M  V30 70 H 36.549448 25.280316 57.169937 0
M  V30 71 H 37.229674 24.031120 56.152377 0
M  V30 72 H 36.159506 31.423002 58.857733 0
M  V30 73 H 39.132050 35.309907 63.266310 0
M  V30 74 H 37.068598 26.934871 52.669326 0
M  V30 75 H 38.555821 26.148972 53.090119 0
M  V30 76 H 37.635409 28.985687 55.771618 0
M  V30 77 H 38.409401 31.927787 60.810674 0
M  V30 78 H 36.714567 31.701732 61.167427 0
M  V30 79 H 41.783915 35.736271 61.788852 0
M  V30 80 H 40.051244 29.329000 54.672427 0
M  V30 81 H 40.132462 27.609350 54.866376 0
M  V30 82 H 37.555443 27.418475 57.375388 0
M  V30 83 H 36.307748 26.821434 55.053497 0
M  V30 84 H 36.728307 25.319059 54.332884 0
M  V30 END ATOM
M  V30 BEGIN BOND
M  V30 1 1 9 4
M  V30 2 1 10 2
M  V30 3 1 12 9
M  V30 4 1 13 5
M  V30 5 1 13 6
M  V30 6 1 14 6
M  V30 7 1 16 1
M  V30 8 1 17 6
M  V30 9 2 17 8
M  V30 10 1 20 16
M  V30 11 1 21 11
M  V30 12 1 22 16
M  V30 13 1 23 7
M  V30 14 1 23 9
M  V30 15 1 24 9
M  V30 16 1 25 1
M  V30 17 1 26 19
M  V30 18 1 27 8
M  V30 19 1 27 22
M  V30 20 1 28 5
M  V30 21 1 28 10
M  V30 22 1 28 14
M  V30 23 1 29 4
M  V30 24 1 31 20
M  V30 25 1 32 25
M  V30 26 1 32 27
M  V30 27 1 5 33 CFG=3
M  V30 28 1 34 4
M  V30 29 1 34 31
M  V30 30 1 35 19
M  V30 31 1 35 21
M  V30 32 1 35 31
M  V30 33 1 36 19
M  V30 34 1 36 29
M  V30 35 1 37 3
M  V30 36 1 37 11
M  V30 37 1 37 18
M  V30 38 1 37 26
M  V30 39 1 38 5
M  V30 40 2 38 15
M  V30 41 1 38 30
M  V30 42 1 39 1
M  V30 43 1 40 1
M  V30 44 1 41 2
M  V30 45 1 4 42 CFG=1
M  V30 46 1 6 43 CFG=1
M  V30 47 1 44 7
M  V30 48 1 45 7
M  V30 49 1 46 7
M  V30 50 1 47 8
M  V30 51 1 48 10
M  V30 52 1 49 11
M  V30 53 1 50 11
M  V30 54 1 51 12
M  V30 55 1 52 12
M  V30 56 1 53 12
M  V30 57 1 54 13
M  V30 58 1 55 13
M  V30 59 1 56 14
M  V30 60 1 57 14
M  V30 61 1 58 17
M  V30 62 1 19 59 CFG=3
M  V30 63 1 60 20
M  V30 64 1 61 21
M  V30 65 1 62 21
M  V30 66 1 63 22
M  V30 67 1 64 22
M  V30 68 1 65 24
M  V30 69 1 66 24
M  V30 70 1 67 24
M  V30 71 1 68 25
M  V30 72 1 69 25
M  V30 73 1 70 26
M  V30 74 1 71 26
M  V30 75 1 27 72 CFG=3
M  V30 76 1 28 73 CFG=1
M  V30 77 1 74 29
M  V30 78 1 75 29
M  V30 79 1 31 76 CFG=3
M  V30 80 1 77 32
M  V30 81 1 78 32
M  V30 82 1 79 33
M  V30 83 1 80 34
M  V30 84 1 81 34
M  V30 85 1 35 82 CFG=1
M  V30 86 1 83 36
M  V30 87 1 84 36
M  V30 END BOND
M  V30 END CTAB
M  END
>  <i_epik_Tot_Q>  (1) 
-1

>  <i_epik_Tot_abs_Q>  (1) 
1

>  <i_i_glide_confnum>  (1) 
768

>  <i_i_glide_lignum>  (1) 
229

>  <i_i_glide_posenum>  (1) 
22

>  <i_i_glide_rotatable_bonds>  (1) 
10

>  <i_lp_mmshare_version>  (1) 
72125

>  <i_m_source_file_index>  (1) 
91

>  <i_f3d_flags>  (1) 
0

>  <num_sample>  (1) 
100

>  <b_lp_Chiralities_Consistent>  (1) 
1

>  <r_epik_Charging_Adjusted_Penalty>  (1) 
0.43821527866000726

>  <r_epik_Ionization_Penalty>  (1) 
0.52002734918543769

>  <r_epik_Ionization_Penalty_Charging>  (1) 
0.00012691742049533285

>  <r_epik_Ionization_Penalty_Neutral>  (1) 
0.51990043176494238

>  <r_epik_State_Penalty>  (1) 
0.43808836123951195

>  <r_glide_ring_energy>  (1) 
0.52270073413307983

>  <r_i_docking_score>  (1) 
-6.6874466853726506

>  <r_i_glide_ecoul>  (1) 
-7.5555417367001194

>  <r_i_glide_eff_state_penalty>  (1) 
0.43808836123951195

>  <r_i_glide_einternal>  (1) 
13.776363544086585

>  <r_i_glide_emodel>  (1) 
-23.134432605329184

>  <r_i_glide_emodel_strain>  (1) 
4.1114273162841641

>  <r_i_glide_energy>  (1) 
-20.10229147114164

>  <r_i_glide_erotb>  (1) 
0.42146348941000378

>  <r_i_glide_esite>  (1) 
-0.051828604077420792

>  <r_i_glide_evdw>  (1) 
-12.546749734441519

>  <r_i_glide_gscore>  (1) 
-7.1255350466121623

>  <r_i_glide_gscore_strain>  (1) 
0.027856829071041034

>  <r_i_glide_hbond>  (1) 
-0.32000000000000001

>  <r_i_glide_ligand_efficiency>  (1) 
-0.17598543908875397

>  <r_i_glide_ligand_efficiency_ln>  (1) 
-1.44201023011661

>  <r_i_glide_ligand_efficiency_sa>  (1) 
-0.59165871817110793

>  <r_i_glide_lipo>  (1) 
-4.3676434902454098

>  <r_i_glide_metal>  (1) 
-0

>  <r_i_glide_rewards>  (1) 
-1.074714523543284

>  <r_lp_Energy>  (1) 
50.148589000000001

>  <s_epik_Chemistry_Notes>  (1) 
This compound has a N-S or N-O group and may undergo hydrolysis at high or low pH.

>  <s_epik_cmdline>  (1) 
J2VwaWtfcHl0aG9uJywgJy1waHQnLCAnMS4wJywgJy1waCcsICc3LjQnLCAnLXRuJywgJzgnLCAnLW1hJywgJzUwMCcsICctaW1hZScsICc8aW5maWxlLm1hZT4nLCAnLW9tYWUnLCAnPG91dGZpbGUubWFlPic=

>  <s_epik_input>  (1) 
RkMoRikoW0NIMl0xKVtDSDJdW0NIMl1bQ0BIXShbQ0BASF0xMilbQ0BIXShbQ0gyXVtDQEhdKFtDSDJdW0NIMl0yKUMoW0NIM10pKFtDSDNdKU9bQ0gzXSlbTkhdTjNbQ0gyXVtDSDJdW0NIMl1bQ0BIXShbQ0gyXTMpL1tDSF09W0NIXVxbQ0BASF0oW0NIMl1bQ0BdNChbT0hdKUMoPU8pW09IXSlbQ0gyXVtDQEBIXTRbTkhdW09IXQ==

>  <s_glide_docking_method>  (1) 
confgen

>  <s_i_glide_gridfile>  (1) 
gpcr_5ht2c_6bqh_protein_autoprepared_prepared

>  <s_lp_Force_Field>  (1) 
S-OPLS

>  <s_lp_Variant>  (1) 
DiffSBDD_90_num_sample_100-1

>  <s_m_source_file>  (1) 
generated__ligand_DiffSBDD_2026-05-06_prepared.sdf

>  <GenAI_Model>  (1) 
DiffSBDD

>  <Protein>  (1) 
GPCR_5HT2C

$$$$
DiffSBDD_29_num_sample_100
     RDKit          3D

  0  0  0  0  0  0  0  0  0  0999 V3000
M  V30 BEGIN CTAB
M  V30 COUNTS 85 89 0 0 1
M  V30 BEGIN ATOM
M  V30 1 F 41.257716 32.375124 61.499439 0
M  V30 2 C 36.819657 32.538738 59.053605 0
M  V30 3 C 39.716292 34.718355 60.664209 0
M  V30 4 C 39.563972 28.065174 57.289879 0 CFG=2
M  V30 5 C 38.967778 30.595315 53.623138 0
M  V30 6 C 41.026299 28.317693 56.902072 0
M  V30 7 C 41.576131 33.460265 63.500810 0
M  V30 8 N 37.681178 32.336372 60.221112 0
M  V30 9 C 37.694924 26.332522 56.568019 0 CFG=1
M  V30 10 C 39.775862 28.423420 51.609723 0
M  V30 11 C 38.546278 30.421453 61.638270 0
M  V30 12 C 39.396406 28.077292 53.053264 0 CFG=2
M  V30 13 C 41.085070 33.438519 62.301798 0
M  V30 14 C 38.293531 29.837106 60.261521 0 CFG=2
M  V30 15 C 35.280229 33.880854 60.504427 0
M  V30 16 C 39.412689 24.421315 56.827181 0
M  V30 17 C 38.788214 27.363243 56.086019 0 CFG=1
M  V30 18 C 39.325107 29.984673 59.167501 0 CFG=1
M  V30 19 C 40.346197 35.623546 62.950991 0
M  V30 20 N 36.153615 33.583704 61.625999 0
M  V30 21 N 40.408072 34.543338 61.935557 0
M  V30 22 F 42.267503 32.448777 64.046038 0
M  V30 23 S 37.666494 27.769460 53.404181 0
M  V30 24 C 37.550174 33.398724 61.232849 0 CFG=2
M  V30 25 C 35.359502 32.747200 59.494356 0
M  V30 26 C 37.073795 24.075692 57.644552 0
M  V30 27 O 40.527363 29.468311 59.711452 0
M  V30 28 C 38.276378 28.415517 55.016772 0 CFG=2
M  V30 29 C 38.868450 29.360532 57.809830 0
M  V30 30 C 39.622354 29.901761 51.208904 0
M  V30 31 C 39.768820 30.933467 52.350784 0
M  V30 32 C 38.180812 34.744154 60.790349 0
M  V30 33 O 37.067465 25.743688 55.452249 0
M  V30 34 C 39.297580 29.195102 54.119966 0 CFG=2
M  V30 35 C 37.454718 31.000728 60.778387 0 CFG=2
M  V30 36 C 38.170166 25.100658 57.398338 0
M  V30 37 O 39.726681 27.245080 58.417090 0
M  V30 38 S 41.313281 34.894350 64.434888 0
M  V30 39 H 37.160197 33.406732 58.489235 0
M  V30 40 H 36.919051 31.681118 58.387654 0
M  V30 41 H 39.999463 33.925770 59.971760 0
M  V30 42 H 40.064447 35.654273 60.230849 0
M  V30 43 H 39.194113 31.328261 54.397564 0
M  V30 44 H 37.896782 30.688899 53.453569 0
M  V30 45 H 41.067338 29.221379 56.323634 0
M  V30 46 H 41.695790 28.466248 57.748438 0
M  V30 47 H 41.448995 27.501031 56.319086 0
M  V30 48 H 36.935935 26.851949 57.147526 0
M  V30 49 H 40.828926 28.185874 51.471263 0
M  V30 50 H 39.243158 27.784276 50.903080 0
M  V30 51 H 38.267370 29.830443 62.505478 0
M  V30 52 H 39.434613 31.018951 61.785044 0
M  V30 53 H 39.923513 27.190756 53.403371 0
M  V30 54 H 37.853234 28.846426 60.253479 0
M  V30 55 H 35.536148 34.834671 60.042816 0
M  V30 56 H 34.265977 33.962577 60.872876 0
M  V30 57 H 39.209570 24.030592 55.832637 0
M  V30 58 H 40.266809 25.092595 56.779515 0
M  V30 59 H 39.704965 23.583049 57.453500 0
M  V30 60 H 39.517504 26.745730 55.566250 0
M  V30 61 H 39.467244 31.044403 58.997156 0
M  V30 62 H 40.824450 36.533847 62.589535 0
M  V30 63 H 39.321077 35.846141 63.244576 0
M  V30 64 H 36.074386 34.314836 62.319968 0
M  V30 65 H 38.078134 33.079470 62.132501 0
M  V30 66 H 34.723095 33.009243 58.653616 0
M  V30 67 H 34.938800 31.832334 59.912911 0
M  V30 68 H 36.676827 23.635047 56.728783 0
M  V30 69 H 37.467075 23.259761 58.253466 0
M  V30 70 H 36.270607 24.579890 58.185065 0
M  V30 71 H 40.664920 29.884126 60.549878 0
M  V30 72 H 37.522041 29.089486 55.425412 0
M  V30 73 H 38.971858 30.131753 57.045813 0
M  V30 74 H 37.792981 29.183706 57.861361 0
M  V30 75 H 40.350070 30.136328 50.430638 0
M  V30 76 H 38.667546 30.016686 50.709332 0
M  V30 77 H 40.812595 31.051875 52.614860 0
M  V30 78 H 39.467246 31.910588 51.977747 0
M  V30 79 H 37.770997 35.058263 59.831326 0
M  V30 80 H 37.894236 35.529541 61.490750 0
M  V30 81 H 37.728419 25.498943 54.821735 0
M  V30 82 H 40.267369 29.251301 54.569465 0
M  V30 83 H 36.450204 30.735556 61.098697 0
M  V30 84 H 38.388785 25.397522 58.418282 0
M  V30 85 H 40.129694 27.793475 59.085832 0
M  V30 END ATOM
M  V30 BEGIN BOND
M  V30 1 1 6 4
M  V30 2 1 8 2
M  V30 3 1 12 10
M  V30 4 1 13 1
M  V30 5 2 13 7
M  V30 6 1 14 11
M  V30 7 1 17 4
M  V30 8 1 17 9
M  V30 9 1 18 14
M  V30 10 1 20 15
M  V30 11 1 21 3
M  V30 12 1 21 13
M  V30 13 1 21 19
M  V30 14 1 22 7
M  V30 15 1 23 12
M  V30 16 1 24 8
M  V30 17 1 24 20
M  V30 18 1 25 2
M  V30 19 1 25 15
M  V30 20 1 27 18
M  V30 21 1 28 17
M  V30 22 1 28 23
M  V30 23 1 29 4
M  V30 24 1 29 18
M  V30 25 1 30 10
M  V30 26 1 31 5
M  V30 27 1 31 30
M  V30 28 1 32 3
M  V30 29 1 32 24
M  V30 30 1 33 9
M  V30 31 1 34 5
M  V30 32 1 34 12
M  V30 33 1 34 28
M  V30 34 1 35 8
M  V30 35 1 35 11
M  V30 36 1 35 14
M  V30 37 1 36 9
M  V30 38 1 36 16
M  V30 39 1 36 26
M  V30 40 1 4 37 CFG=1
M  V30 41 1 38 7
M  V30 42 1 38 19
M  V30 43 1 39 2
M  V30 44 1 40 2
M  V30 45 1 41 3
M  V30 46 1 42 3
M  V30 47 1 43 5
M  V30 48 1 44 5
M  V30 49 1 45 6
M  V30 50 1 46 6
M  V30 51 1 47 6
M  V30 52 1 9 48 CFG=1
M  V30 53 1 49 10
M  V30 54 1 50 10
M  V30 55 1 51 11
M  V30 56 1 52 11
M  V30 57 1 12 53 CFG=1
M  V30 58 1 14 54 CFG=1
M  V30 59 1 55 15
M  V30 60 1 56 15
M  V30 61 1 57 16
M  V30 62 1 58 16
M  V30 63 1 59 16
M  V30 64 1 17 60 CFG=3
M  V30 65 1 18 61 CFG=3
M  V30 66 1 62 19
M  V30 67 1 63 19
M  V30 68 1 64 20
M  V30 69 1 24 65 CFG=1
M  V30 70 1 66 25
M  V30 71 1 67 25
M  V30 72 1 68 26
M  V30 73 1 69 26
M  V30 74 1 70 26
M  V30 75 1 71 27
M  V30 76 1 28 72 CFG=1
M  V30 77 1 73 29
M  V30 78 1 74 29
M  V30 79 1 75 30
M  V30 80 1 76 30
M  V30 81 1 77 31
M  V30 82 1 78 31
M  V30 83 1 79 32
M  V30 84 1 80 32
M  V30 85 1 81 33
M  V30 86 1 34 82 CFG=1
M  V30 87 1 35 83 CFG=1
M  V30 88 1 84 36
M  V30 89 1 85 37
M  V30 END BOND
M  V30 END CTAB
M  END
>  <i_epik_Tot_Q>  (1) 
0

>  <i_epik_Tot_abs_Q>  (1) 
0

>  <i_i_glide_confnum>  (1) 
1688

>  <i_i_glide_lignum>  (1) 
73

>  <i_i_glide_posenum>  (1) 
47

>  <i_i_glide_rotatable_bonds>  (1) 
14

>  <i_lp_mmshare_version>  (1) 
72125

>  <i_m_source_file_index>  (1) 
30

>  <i_f3d_flags>  (1) 
0

>  <num_sample>  (1) 
100

>  <b_lp_Chiralities_Consistent>  (1) 
1

>  <r_epik_Charging_Adjusted_Penalty>  (1) 
0.89739717629826321

>  <r_epik_Ionization_Penalty>  (1) 
1.0966562263345743

>  <r_epik_Ionization_Penalty_Charging>  (1) 
8.0809776118824917e-09

>  <r_epik_Ionization_Penalty_Neutral>  (1) 
1.0966562182535966

>  <r_epik_State_Penalty>  (1) 
0.89739716821728555

>  <r_glide_ring_energy>  (1) 
1.6720993256359071

>  <r_i_docking_score>  (1) 
-6.6865007070614322

>  <r_i_glide_ecoul>  (1) 
-1.7012270420888824

>  <r_i_glide_eff_state_penalty>  (1) 
0.89739716821728555

>  <r_i_glide_einternal>  (1) 
24.701450764816169

>  <r_i_glide_emodel>  (1) 
-35.938430128338958

>  <r_i_glide_emodel_strain>  (1) 
6.4820920058788403

>  <r_i_glide_energy>  (1) 
-41.962170585769876

>  <r_i_glide_erotb>  (1) 
0.47112220270256994

>  <r_i_glide_esite>  (1) 
0

>  <r_i_glide_evdw>  (1) 
-40.260943543680995

>  <r_i_glide_gscore>  (1) 
-7.5838978752787174

>  <r_i_glide_gscore_strain>  (1) 
0.62052300146971007

>  <r_i_glide_hbond>  (1) 
0

>  <r_i_glide_ligand_efficiency>  (1) 
-0.17596054492266927

>  <r_i_glide_ligand_efficiency_ln>  (1) 
-1.4418062493648487

>  <r_i_glide_ligand_efficiency_sa>  (1) 
-0.59157502459695843

>  <r_i_glide_lipo>  (1) 
-5.1253832688186449

>  <r_i_glide_metal>  (1) 
-0

>  <r_i_glide_rewards>  (1) 
-1.2819285771349702

>  <r_lp_Energy>  (1) 
28.047854999999998

>  <s_epik_Chemistry_Notes>  (1) 
This compound has an imine and may undergo hydrolysis. This compound contains an acetal/aminal-like group ( X-CH(R)-Y where X, Y are N, S, or O) that may be acid/base labile, releasing an aldehyde.

>  <s_epik_cmdline>  (1) 
J2VwaWtfcHl0aG9uJywgJy1waHQnLCAnMS4wJywgJy1waCcsICc3LjQnLCAnLXRuJywgJzgnLCAnLW1hJywgJzUwMCcsICctaW1hZScsICc8aW5maWxlLm1hZT4nLCAnLW9tYWUnLCAnPG91dGZpbGUubWFlPic=

>  <s_epik_input>  (1) 
RkMxPUMoRilOKFtDSDJdUzEpW0NIMl1bQ0gyXVtDQEhdMltOSF1bQ0gyXVtDSDJdW0NIMl1OMltDQEBIXTNbQ0gyXVtDQEBIXTNbQ0BASF0oW09IXSlbQ0gyXVtDQEBdKFtDSDNdKShbT0hdKVtDQEBIXShbQ0BASF0oW09IXSlbQ0hdKFtDSDNdKVtDSDNdKVtDQEhdKFM0KVtDQEBIXShbQ0BASF00NSlbQ0gyXVtDSDJdW0NIMl1bQ0gyXTU=

>  <s_glide_docking_method>  (1) 
confgen

>  <s_i_glide_gridfile>  (1) 
gpcr_5ht2c_6bqh_protein_autoprepared_prepared

>  <s_lp_Force_Field>  (1) 
S-OPLS

>  <s_lp_Variant>  (1) 
DiffSBDD_29_num_sample_100-3

>  <s_m_source_file>  (1) 
generated__ligand_DiffSBDD_2026-05-06_prepared.sdf

>  <GenAI_Model>  (1) 
DiffSBDD

>  <Protein>  (1) 
GPCR_5HT2C

$$$$
DiffSBDD_29_num_sample_100
     RDKit          3D

  0  0  0  0  0  0  0  0  0  0999 V3000
M  V30 BEGIN CTAB
M  V30 COUNTS 86 90 0 0 1
M  V30 BEGIN ATOM
M  V30 1 F 38.511645 36.098152 61.539465 0
M  V30 2 C 35.733435 34.039138 58.896357 0
M  V30 3 C 39.233293 33.216854 61.327677 0
M  V30 4 C 39.869420 28.945205 56.346567 0 CFG=2
M  V30 5 C 39.564936 26.546566 51.891744 0
M  V30 6 C 40.266593 30.133967 55.390315 0
M  V30 7 C 40.116590 36.219436 63.172392 0
M  V30 8 N 36.721433 32.935668 58.998397 0 CFG=2 CHG=1
M  V30 9 C 38.189426 26.813473 56.400320 0 CFG=1
M  V30 10 C 38.609592 29.212319 51.588401 0
M  V30 11 C 37.993584 33.304578 56.849277 0
M  V30 12 C 37.783379 28.226231 52.340522 0 CFG=2
M  V30 13 C 39.479807 35.531748 62.281714 0
M  V30 14 C 38.673143 32.139780 57.551908 0 CFG=2
M  V30 15 C 34.761029 33.319920 61.035396 0
M  V30 16 C 39.622580 26.301653 58.565410 0
M  V30 17 C 39.295689 27.623500 55.613205 0 CFG=1
M  V30 18 C 38.113404 30.717828 57.455082 0 CFG=1
M  V30 19 C 40.990053 33.827092 63.043327 0
M  V30 20 N 35.593615 32.115142 61.019666 0
M  V30 21 N 39.863118 34.232186 62.171058 0
M  V30 22 F 39.867299 37.511449 63.438330 0
M  V30 23 S 37.466910 28.821202 53.946005 0
M  V30 24 C 36.895347 32.380559 60.382010 0 CFG=2
M  V30 25 C 34.427006 33.627072 59.573308 0
M  V30 26 C 39.307014 24.516764 56.832465 0
M  V30 27 O 37.467419 30.601541 56.242920 0
M  V30 28 C 39.003122 27.933226 54.129390 0 CFG=2
M  V30 29 C 39.124173 29.553436 57.604332 0
M  V30 30 C 39.381379 28.648355 50.456598 0
M  V30 31 C 40.267371 27.621735 51.033857 0
M  V30 32 C 37.691281 33.314175 61.318165 0
M  V30 33 O 37.340368 26.053443 55.563138 0
M  V30 34 C 38.553633 27.044082 52.919758 0 CFG=2
M  V30 35 C 38.014102 33.262078 58.344900 0 CFG=2
M  V30 36 C 38.680611 25.777012 57.463545 0
M  V30 37 O 41.067682 28.421452 56.892919 0
M  V30 38 S 41.352997 35.397898 64.066955 0
M  V30 39 H 36.123979 34.957062 59.341202 0
M  V30 40 H 35.525127 34.265243 57.856161 0
M  V30 41 H 39.496696 32.232844 61.720628 0
M  V30 42 H 39.690628 33.264954 60.346026 0
M  V30 43 H 39.067326 26.021238 51.097181 0
M  V30 44 H 40.267421 25.859645 52.359940 0
M  V30 45 H 39.444249 30.466881 54.765883 0
M  V30 46 H 40.567005 31.058346 55.853844 0
M  V30 47 H 41.067282 29.918536 54.706455 0
M  V30 48 H 37.494277 27.509643 56.864404 0
M  V30 49 H 37.867048 29.621421 51.053447 0
M  V30 50 H 39.140799 29.962947 52.176302 0
M  V30 51 H 38.645565 34.021378 56.357916 0
M  V30 52 H 37.067482 33.125123 56.328411 0
M  V30 53 H 36.835467 28.014681 51.857929 0
M  V30 54 H 39.742308 32.198440 57.454194 0
M  V30 55 H 35.281506 34.160181 61.498205 0
M  V30 56 H 33.867292 33.221066 61.643292 0
M  V30 57 H 40.651960 26.380718 58.227182 0
M  V30 58 H 39.312375 27.218664 59.044912 0
M  V30 59 H 39.657142 25.621382 59.395808 0
M  V30 60 H 40.118873 26.911264 55.521429 0
M  V30 61 H 37.351261 30.576606 58.220336 0
M  V30 62 H 40.719914 32.996155 63.693097 0
M  V30 63 H 41.861675 33.552498 62.447045 0
M  V30 64 H 35.100083 31.385409 60.518089 0
M  V30 65 H 37.417172 31.428818 60.309981 0
M  V30 66 H 33.691369 34.421239 59.463081 0
M  V30 67 H 33.985899 32.756782 59.081532 0
M  V30 68 H 40.262984 24.753899 56.365487 0
M  V30 69 H 39.478525 23.749542 57.584542 0
M  V30 70 H 38.670897 24.051830 56.078946 0
M  V30 71 H 36.617299 31.052399 56.313384 0
M  V30 72 H 39.818852 28.496493 53.701964 0
M  V30 73 H 38.551187 28.796140 58.111046 0
M  V30 74 H 39.856539 29.868450 58.349565 0
M  V30 75 H 38.699691 28.180626 49.753233 0
M  V30 76 H 39.931142 29.419109 49.915548 0
M  V30 77 H 40.667318 27.147263 50.147320 0
M  V30 78 H 41.067575 28.113290 51.585270 0
M  V30 79 H 37.349611 34.315848 61.099651 0
M  V30 80 H 37.377985 33.114145 62.337355 0
M  V30 81 H 37.870344 25.449126 55.066331 0
M  V30 82 H 37.859085 26.259073 53.205584 0
M  V30 83 H 38.596954 34.023878 58.832032 0
M  V30 84 H 37.779407 25.445899 57.983989 0
M  V30 85 H 40.851166 27.676060 57.432258 0
M  V30 86 H 36.299852 32.215737 58.412993 0
M  V30 END ATOM
M  V30 BEGIN BOND
M  V30 1 1 6 4
M  V30 2 1 8 2
M  V30 3 1 12 10
M  V30 4 1 13 1
M  V30 5 2 13 7
M  V30 6 1 14 11
M  V30 7 1 17 4
M  V30 8 1 17 9
M  V30 9 1 18 14
M  V30 10 1 20 15
M  V30 11 1 21 3
M  V30 12 1 21 13
M  V30 13 1 21 19
M  V30 14 1 22 7
M  V30 15 1 23 12
M  V30 16 1 24 8
M  V30 17 1 24 20
M  V30 18 1 25 2
M  V30 19 1 25 15
M  V30 20 1 27 18
M  V30 21 1 28 17
M  V30 22 1 28 23
M  V30 23 1 29 4
M  V30 24 1 29 18
M  V30 25 1 30 10
M  V30 26 1 31 5
M  V30 27 1 31 30
M  V30 28 1 32 3
M  V30 29 1 32 24
M  V30 30 1 33 9
M  V30 31 1 34 5
M  V30 32 1 34 12
M  V30 33 1 34 28
M  V30 34 1 35 8
M  V30 35 1 35 11
M  V30 36 1 35 14
M  V30 37 1 36 9
M  V30 38 1 36 16
M  V30 39 1 36 26
M  V30 40 1 4 37 CFG=1
M  V30 41 1 38 7
M  V30 42 1 38 19
M  V30 43 1 39 2
M  V30 44 1 40 2
M  V30 45 1 41 3
M  V30 46 1 42 3
M  V30 47 1 43 5
M  V30 48 1 44 5
M  V30 49 1 45 6
M  V30 50 1 46 6
M  V30 51 1 47 6
M  V30 52 1 9 48 CFG=1
M  V30 53 1 49 10
M  V30 54 1 50 10
M  V30 55 1 51 11
M  V30 56 1 52 11
M  V30 57 1 12 53 CFG=3
M  V30 58 1 14 54 CFG=1
M  V30 59 1 55 15
M  V30 60 1 56 15
M  V30 61 1 57 16
M  V30 62 1 58 16
M  V30 63 1 59 16
M  V30 64 1 17 60 CFG=3
M  V30 65 1 18 61 CFG=1
M  V30 66 1 62 19
M  V30 67 1 63 19
M  V30 68 1 64 20
M  V30 69 1 24 65 CFG=3
M  V30 70 1 66 25
M  V30 71 1 67 25
M  V30 72 1 68 26
M  V30 73 1 69 26
M  V30 74 1 70 26
M  V30 75 1 71 27
M  V30 76 1 28 72 CFG=3
M  V30 77 1 73 29
M  V30 78 1 74 29
M  V30 79 1 75 30
M  V30 80 1 76 30
M  V30 81 1 77 31
M  V30 82 1 78 31
M  V30 83 1 79 32
M  V30 84 1 80 32
M  V30 85 1 81 33
M  V30 86 1 34 82 CFG=1
M  V30 87 1 35 83 CFG=1
M  V30 88 1 84 36
M  V30 89 1 85 37
M  V30 90 1 8 86 CFG=3
M  V30 END BOND
M  V30 END CTAB
M  END
>  <i_epik_Tot_Q>  (1) 
1

>  <i_epik_Tot_abs_Q>  (1) 
1

>  <i_i_glide_confnum>  (1) 
1040

>  <i_i_glide_lignum>  (1) 
76

>  <i_i_glide_posenum>  (1) 
26

>  <i_i_glide_rotatable_bonds>  (1) 
14

>  <i_lp_mmshare_version>  (1) 
72125

>  <i_m_source_file_index>  (1) 
30

>  <i_f3d_flags>  (1) 
0

>  <num_sample>  (1) 
100

>  <b_lp_Chiralities_Consistent>  (1) 
1

>  <r_epik_Charging_Adjusted_Penalty>  (1) 
1.7477768688038313

>  <r_epik_Ionization_Penalty>  (1) 
0.56833185219894722

>  <r_epik_Ionization_Penalty_Charging>  (1) 
0.56833130032608237

>  <r_epik_Ionization_Penalty_Neutral>  (1) 
5.5187286482775955e-07

>  <r_epik_State_Penalty>  (1) 
1.179445568477749

>  <r_glide_ring_energy>  (1) 
2.3029442833190661

>  <r_i_docking_score>  (1) 
-6.6826682244465028

>  <r_i_glide_ecoul>  (1) 
-9.1385342789013055

>  <r_i_glide_eff_state_penalty>  (1) 
1.179445568477749

>  <r_i_glide_einternal>  (1) 
20.593487103987623

>  <r_i_glide_emodel>  (1) 
-36.233091648756954

>  <r_i_glide_emodel_strain>  (1) 
8.0754917450155688

>  <r_i_glide_energy>  (1) 
-31.0802591492983

>  <r_i_glide_erotb>  (1) 
0.46833353265868582

>  <r_i_glide_esite>  (1) 
-0.15602250242031365

>  <r_i_glide_evdw>  (1) 
-21.941724870396996

>  <r_i_glide_gscore>  (1) 
-7.8621137929242515

>  <r_i_glide_gscore_strain>  (1) 
1.0188729362538922

>  <r_i_glide_hbond>  (1) 
-0.34491818301848609

>  <r_i_glide_ligand_efficiency>  (1) 
-0.17585969011701322

>  <r_i_glide_ligand_efficiency_ln>  (1) 
-1.4409798533728537

>  <r_i_glide_ligand_efficiency_sa>  (1) 
-0.59123595322068534

>  <r_i_glide_lipo>  (1) 
-4.472800719041544

>  <r_i_glide_metal>  (1) 
-0

>  <r_i_glide_rewards>  (1) 
-1.9077124720014393

>  <r_lp_Energy>  (1) 
42.485220999999996

>  <s_epik_Chemistry_Notes>  (1) 
This compound has an imine and may undergo hydrolysis. This compound contains an acetal/aminal-like group ( X-CH(R)-Y where X, Y are N, S, or O) that may be acid/base labile, releasing an aldehyde.

>  <s_epik_cmdline>  (1) 
J2VwaWtfcHl0aG9uJywgJy1waHQnLCAnMS4wJywgJy1waCcsICc3LjQnLCAnLXRuJywgJzgnLCAnLW1hJywgJzUwMCcsICctaW1hZScsICc8aW5maWxlLm1hZT4nLCAnLW9tYWUnLCAnPG91dGZpbGUubWFlPic=

>  <s_epik_input>  (1) 
RkMxPUMoRilOKFtDSDJdUzEpW0NIMl1bQ0gyXVtDQEhdMltOSF1bQ0gyXVtDSDJdW0NIMl1OMltDQEBIXTNbQ0gyXVtDQEBIXTNbQ0BASF0oW09IXSlbQ0gyXVtDQEBdKFtDSDNdKShbT0hdKVtDQEBIXShbQ0BASF0oW09IXSlbQ0hdKFtDSDNdKVtDSDNdKVtDQEhdKFM0KVtDQEBIXShbQ0BASF00NSlbQ0gyXVtDSDJdW0NIMl1bQ0gyXTU=

>  <s_glide_docking_method>  (1) 
confgen

>  <s_i_glide_gridfile>  (1) 
gpcr_5ht2c_6bqh_protein_autoprepared_prepared

>  <s_lp_Force_Field>  (1) 
S-OPLS

>  <s_lp_Variant>  (1) 
DiffSBDD_29_num_sample_100-6

>  <s_m_source_file>  (1) 
generated__ligand_DiffSBDD_2026-05-06_prepared.sdf

>  <GenAI_Model>  (1) 
DiffSBDD

>  <Protein>  (1) 
GPCR_5HT2C

$$$$
DiffSBDD_56_num_sample_100
     RDKit          3D

  0  0  0  0  0  0  0  0  0  0999 V3000
M  V30 BEGIN CTAB
M  V30 COUNTS 59 62 0 0 1
M  V30 BEGIN ATOM
M  V30 1 N 39.405274 29.796268 58.916646 0
M  V30 2 O 38.667401 27.621427 59.853456 0
M  V30 3 O 40.261229 36.911676 62.350363 0
M  V30 4 C 38.591984 27.293719 54.546179 0
M  V30 5 C 39.176744 25.023861 57.633280 0
M  V30 6 S 40.696725 28.421421 56.298383 0
M  V30 7 O 41.479955 35.355868 63.579667 0
M  V30 8 C 40.500315 29.764948 59.920310 0
M  V30 9 C 38.283932 26.197163 55.576806 0
M  V30 10 C 38.469205 28.769691 54.864295 0
M  V30 11 S 38.636046 28.306880 58.565719 0
M  V30 12 N 36.987759 24.187216 56.099835 0
M  V30 13 O 37.371111 31.914710 61.853448 0
M  V30 14 C 39.430252 29.380907 55.651783 0
M  V30 15 C 40.434770 32.218741 62.779360 0
M  V30 16 O 40.266895 34.821263 60.653523 0
M  V30 17 N 39.060060 26.210052 56.794235 0
M  V30 18 C 40.263200 35.627791 62.928232 0
M  V30 19 C 38.292184 31.516297 55.443117 0
M  V30 20 C 38.481371 30.906148 59.233563 0
M  V30 21 O 37.360740 28.598742 57.896165 0
M  V30 22 C 38.405467 32.642146 61.215764 0 CFG=1
M  V30 23 C 39.726914 27.405868 57.382004 0 CFG=1
M  V30 24 C 39.359915 30.755929 55.941074 0
M  V30 25 C 39.376853 33.244347 62.264491 0 CFG=2
M  V30 26 C 37.310392 30.898017 54.653478 0
M  V30 27 C 37.407252 29.524290 54.352525 0
M  V30 28 O 41.036855 31.434241 61.741236 0
M  V30 29 C 37.361699 25.239615 55.289312 0
M  V30 30 C 39.999402 34.586178 61.831668 0
M  V30 31 C 39.206267 31.750504 60.268870 0 CFG=1
M  V30 32 C 40.037559 30.728302 61.020345 0 CFG=1
M  V30 33 H 40.803567 36.869801 61.575374 0
M  V30 34 H 37.950192 27.112000 53.682381 0
M  V30 35 H 39.587972 27.097915 54.148917 0
M  V30 36 H 39.301483 24.123696 57.031025 0
M  V30 37 H 38.308709 24.923473 58.285924 0
M  V30 38 H 40.069289 25.069689 58.253513 0
M  V30 39 H 41.601701 36.007939 64.256340 0
M  V30 40 H 40.675998 28.771292 60.330547 0
M  V30 41 H 41.446287 30.021432 59.453479 0
M  V30 42 H 36.230820 23.568499 55.845996 0
M  V30 43 H 36.747518 31.661111 61.187334 0
M  V30 44 H 39.959707 31.547294 63.496647 0
M  V30 45 H 41.233977 32.715426 63.328131 0
M  V30 46 H 39.464065 35.588838 63.666714 0
M  V30 47 H 38.221418 32.570338 55.669381 0
M  V30 48 H 38.211483 31.470068 58.341861 0
M  V30 49 H 37.562253 30.496951 59.653962 0
M  V30 50 H 37.918956 33.435282 60.644055 0
M  V30 51 H 40.519954 27.035420 58.028682 0
M  V30 52 H 40.111547 31.220226 56.556014 0
M  V30 53 H 38.759859 33.512650 63.106638 0
M  V30 54 H 36.485889 31.478334 54.267603 0
M  V30 55 H 36.667415 29.053979 53.732786 0
M  V30 56 H 36.826107 25.252382 54.351571 0
M  V30 57 H 39.867403 32.428599 59.742631 0
M  V30 58 H 39.411663 30.157142 61.710460 0
M  V30 59 H 37.331384 24.101564 57.043770 0
M  V30 END ATOM
M  V30 BEGIN BOND
M  V30 1 1 8 1
M  V30 2 1 9 4
M  V30 3 1 10 4
M  V30 4 1 11 1
M  V30 5 2 11 2
M  V30 6 1 14 6
M  V30 7 1 14 10
M  V30 8 1 17 5
M  V30 9 1 17 9
M  V30 10 1 18 3
M  V30 11 1 18 7
M  V30 12 1 20 1
M  V30 13 2 21 11
M  V30 14 1 22 13
M  V30 15 1 23 6
M  V30 16 1 23 11
M  V30 17 1 23 17
M  V30 18 2 24 14
M  V30 19 1 24 19
M  V30 20 1 25 15
M  V30 21 1 25 22
M  V30 22 2 26 19
M  V30 23 2 27 10
M  V30 24 1 27 26
M  V30 25 1 28 15
M  V30 26 2 29 9
M  V30 27 1 29 12
M  V30 28 2 30 16
M  V30 29 1 30 18
M  V30 30 1 30 25
M  V30 31 1 31 20
M  V30 32 1 31 22
M  V30 33 1 32 8
M  V30 34 1 32 28
M  V30 35 1 32 31
M  V30 36 1 33 3
M  V30 37 1 34 4
M  V30 38 1 35 4
M  V30 39 1 36 5
M  V30 40 1 37 5
M  V30 41 1 38 5
M  V30 42 1 39 7
M  V30 43 1 40 8
M  V30 44 1 41 8
M  V30 45 1 42 12
M  V30 46 1 43 13
M  V30 47 1 44 15
M  V30 48 1 45 15
M  V30 49 1 46 18
M  V30 50 1 47 19
M  V30 51 1 48 20
M  V30 52 1 49 20
M  V30 53 1 22 50 CFG=3
M  V30 54 1 23 51 CFG=1
M  V30 55 1 52 24
M  V30 56 1 25 53 CFG=1
M  V30 57 1 54 26
M  V30 58 1 55 27
M  V30 59 1 56 29
M  V30 60 1 31 57 CFG=3
M  V30 61 1 32 58 CFG=1
M  V30 62 1 59 12
M  V30 END BOND
M  V30 END CTAB
M  END
>  <i_epik_Tot_Q>  (1) 
0

>  <i_epik_Tot_abs_Q>  (1) 
0

>  <i_i_glide_confnum>  (1) 
13

>  <i_i_glide_lignum>  (1) 
145

>  <i_i_glide_posenum>  (1) 
245

>  <i_i_glide_rotatable_bonds>  (1) 
7

>  <i_lp_mmshare_version>  (1) 
72125

>  <i_m_source_file_index>  (1) 
57

>  <i_f3d_flags>  (1) 
0

>  <num_sample>  (1) 
100

>  <b_lp_Chiralities_Consistent>  (1) 
1

>  <r_epik_Charging_Adjusted_Penalty>  (1) 
0.0073760756096081168

>  <r_epik_Ionization_Penalty>  (1) 
0.10489428414322399

>  <r_epik_Ionization_Penalty_Charging>  (1) 
0.0073760756096081168

>  <r_epik_Ionization_Penalty_Neutral>  (1) 
0.097518208533615869

>  <r_epik_State_Penalty>  (1) 
-0

>  <r_glide_ring_energy>  (1) 
0

>  <r_i_docking_score>  (1) 
-6.677636508770874

>  <r_i_glide_ecoul>  (1) 
-4.0485676341203254

>  <r_i_glide_eff_state_penalty>  (1) 
-0

>  <r_i_glide_einternal>  (1) 
4.8842633310746715

>  <r_i_glide_emodel>  (1) 
-43.719235445762841

>  <r_i_glide_emodel_strain>  (1) 
0.11565587923473686

>  <r_i_glide_energy>  (1) 
-38.832190819184738

>  <r_i_glide_erotb>  (1) 
0.34464789498163795

>  <r_i_glide_esite>  (1) 
-0.010470954260922127

>  <r_i_glide_evdw>  (1) 
-34.783623185064414

>  <r_i_glide_gscore>  (1) 
-6.677636508770874

>  <r_i_glide_gscore_strain>  (1) 
0

>  <r_i_glide_hbond>  (1) 
-0.36921960975246976

>  <r_i_glide_ligand_efficiency>  (1) 
-0.20867614089908981

>  <r_i_glide_ligand_efficiency_ln>  (1) 
-1.4953048398102604

>  <r_i_glide_ligand_efficiency_sa>  (1) 
-0.66250545116775883

>  <r_i_glide_lipo>  (1) 
-2.5828254797642449

>  <r_i_glide_metal>  (1) 
-0

>  <r_i_glide_rewards>  (1) 
-1.7133020556036065

>  <r_lp_Energy>  (1) 
30.746641

>  <r_lp_tautomer_probability>  (1) 
1

>  <s_epik_Chemistry_Notes>  (1) 
This compound has an imine and may undergo hydrolysis. This compound contains an acetal/aminal-like group ( X-CH(R)-Y where X, Y are N, S, or O) that may be acid/base labile, releasing an aldehyde.

>  <s_epik_cmdline>  (1) 
J2VwaWtfcHl0aG9uJywgJy1waHQnLCAnMS4wJywgJy1waCcsICc3LjQnLCAnLXRuJywgJzgnLCAnLW1hJywgJzUwMCcsICctaW1hZScsICc8aW5maWxlLm1hZT4nLCAnLW9tYWUnLCAnPG91dGZpbGUubWFlPic=

>  <s_epik_input>  (1) 
W2NIXTFbY0hdW2NIXVtjSF1jKGMxMilTW0NASF0oTihbQ0gzXSlbQ0BIXShbQ0gyXTIpXFtDSF09TlxbSF0pUyg9TykoPU8pTihbQ0gyXTMpW0NIMl1bQ0BIXShbQ0BASF0zNClPW0NIMl1bQ0BIXShbQ0BASF00W09IXSlDKD1PKVtDSF0oW09IXSlbT0hd

>  <s_glide_docking_method>  (1) 
confgen

>  <s_i_glide_gridfile>  (1) 
gpcr_5ht2c_6bqh_protein_autoprepared_prepared

>  <s_lp_Force_Field>  (1) 
S-OPLS

>  <s_lp_Variant>  (1) 
DiffSBDD_56_num_sample_100-1

>  <s_m_source_file>  (1) 
generated__ligand_DiffSBDD_2026-05-06_prepared.sdf

>  <GenAI_Model>  (1) 
DiffSBDD

>  <Protein>  (1) 
GPCR_5HT2C

$$$$
DiffSBDD_30_num_sample_100
     RDKit          3D

  0  0  0  0  0  0  0  0  0  0999 V3000
M  V30 BEGIN CTAB
M  V30 COUNTS 70 73 0 0 1
M  V30 BEGIN ATOM
M  V30 1 C 41.291048 28.121802 58.610635 0
M  V30 2 C 38.586241 26.237838 55.557893 0 CFG=2
M  V30 3 O 40.547870 26.022079 57.853544 0
M  V30 4 C 40.462542 31.482115 63.786882 0
M  V30 5 C 41.516820 32.209927 64.364117 0
M  V30 6 N 38.987992 29.326417 57.286689 0
M  V30 7 C 40.938654 34.140789 62.993472 0
M  V30 8 C 39.450532 28.012759 56.846259 0 CFG=1
M  V30 9 O 37.867593 27.621243 52.320984 0
M  V30 10 O 37.069064 24.484462 54.830743 0
M  V30 11 C 38.584845 36.168152 62.727252 0
M  V30 12 C 37.518162 25.144089 55.767363 0
M  V30 13 C 37.043094 24.908044 57.196184 0
M  V30 14 C 39.150591 37.554991 62.569042 0
M  V30 15 C 37.519544 34.344760 61.375747 0 CFG=2
M  V30 16 C 38.366420 32.724835 56.717139 0
M  V30 17 N 37.867390 31.358156 56.917757 0 CHG=1
M  V30 18 C 37.659995 37.351222 62.771671 0
M  V30 19 C 37.743829 33.396714 59.142276 0 CFG=1
M  V30 20 C 41.755541 33.536873 63.967404 0
M  V30 21 C 36.853201 34.279512 60.022773 0
M  V30 22 N 38.506932 35.423282 61.455030 0 CFG=2 CHG=1
M  V30 23 C 39.638120 32.081201 62.813270 0
M  V30 24 C 38.585638 30.265385 56.245923 0
M  V30 25 C 39.865200 33.421560 62.412367 0
M  V30 26 C 37.592689 33.682285 57.643414 0
M  V30 27 C 37.650006 27.341998 53.680595 0
M  V30 28 C 40.073883 27.323857 58.100548 0 CFG=2
M  V30 29 C 38.997500 34.059463 61.357191 0 CFG=1
M  V30 30 O 38.618844 31.361913 62.253839 0
M  V30 31 S 39.441169 33.621210 59.695165 0
M  V30 32 O 38.323584 27.284824 56.453797 0
M  V30 33 O 38.720785 26.628236 54.216731 0
M  V30 34 H 41.010235 29.113886 58.962915 0
M  V30 35 H 41.776824 27.623147 59.449786 0
M  V30 36 H 42.040087 28.247100 57.827765 0
M  V30 37 H 39.540418 25.772293 55.785934 0
M  V30 38 H 41.318785 26.055894 57.300369 0
M  V30 39 H 40.284768 30.460006 64.091337 0
M  V30 40 H 42.145936 31.747709 65.110491 0
M  V30 41 H 38.206504 29.152239 57.910316 0
M  V30 42 H 41.135286 35.158971 62.689663 0
M  V30 43 H 40.165805 28.112910 56.026363 0
M  V30 44 H 37.448729 26.930514 51.817281 0
M  V30 45 H 38.803823 35.621881 63.635798 0
M  V30 46 H 37.870252 25.033552 57.894511 0
M  V30 47 H 36.255508 25.613779 57.457532 0
M  V30 48 H 36.667756 23.892834 57.303451 0
M  V30 49 H 39.733114 37.942071 63.404696 0
M  V30 50 H 39.482929 37.880062 61.586217 0
M  V30 51 H 36.886135 34.325502 62.253074 0
M  V30 52 H 38.215724 33.010532 55.675112 0
M  V30 53 H 39.438918 32.768670 56.917795 0
M  V30 54 H 37.896841 31.184917 57.908673 0
M  V30 55 H 37.006256 37.537339 61.921115 0
M  V30 56 H 37.247448 37.616781 63.742821 0
M  V30 57 H 37.486593 32.359684 59.362384 0
M  V30 58 H 42.568811 34.093254 64.411088 0
M  V30 59 H 36.735161 35.284875 59.612187 0
M  V30 60 H 35.857793 33.844289 60.115043 0
M  V30 61 H 37.896898 29.804461 55.544816 0
M  V30 62 H 39.448334 30.627867 55.685250 0
M  V30 63 H 36.529980 33.621648 57.452165 0
M  V30 64 H 37.867331 34.708697 57.411954 0
M  V30 65 H 36.708345 26.800277 53.741053 0
M  V30 66 H 37.531023 28.295550 54.187366 0
M  V30 67 H 39.314959 27.255108 58.880879 0
M  V30 68 H 38.602306 30.469934 62.572761 0
M  V30 69 H 36.873456 31.376323 56.655738 0
M  V30 70 H 38.580044 35.957320 60.602032 0
M  V30 END ATOM
M  V30 BEGIN BOND
M  V30 1 1 5 4
M  V30 2 1 8 6
M  V30 3 1 12 2
M  V30 4 2 12 10
M  V30 5 1 13 12
M  V30 6 1 14 11
M  V30 7 1 17 16
M  V30 8 1 18 11
M  V30 9 1 18 14
M  V30 10 2 20 5
M  V30 11 1 20 7
M  V30 12 1 21 15
M  V30 13 1 21 19
M  V30 14 1 22 11
M  V30 15 1 22 15
M  V30 16 2 23 4
M  V30 17 1 24 6
M  V30 18 1 24 17
M  V30 19 2 25 7
M  V30 20 1 25 23
M  V30 21 1 26 16
M  V30 22 1 26 19
M  V30 23 1 27 9
M  V30 24 1 28 1
M  V30 25 1 28 3
M  V30 26 1 28 8
M  V30 27 1 29 15
M  V30 28 1 29 22
M  V30 29 1 29 25 CFG=1
M  V30 30 1 30 23
M  V30 31 1 31 19
M  V30 32 1 31 29
M  V30 33 1 32 2
M  V30 34 1 32 8
M  V30 35 1 33 2
M  V30 36 1 33 27
M  V30 37 1 34 1
M  V30 38 1 35 1
M  V30 39 1 36 1
M  V30 40 1 2 37 CFG=1
M  V30 41 1 38 3
M  V30 42 1 39 4
M  V30 43 1 40 5
M  V30 44 1 41 6
M  V30 45 1 42 7
M  V30 46 1 8 43 CFG=3
M  V30 47 1 44 9
M  V30 48 1 45 11
M  V30 49 1 46 13
M  V30 50 1 47 13
M  V30 51 1 48 13
M  V30 52 1 49 14
M  V30 53 1 50 14
M  V30 54 1 15 51 CFG=1
M  V30 55 1 52 16
M  V30 56 1 53 16
M  V30 57 1 54 17
M  V30 58 1 55 18
M  V30 59 1 56 18
M  V30 60 1 19 57 CFG=3
M  V30 61 1 58 20
M  V30 62 1 59 21
M  V30 63 1 60 21
M  V30 64 1 61 24
M  V30 65 1 62 24
M  V30 66 1 63 26
M  V30 67 1 64 26
M  V30 68 1 65 27
M  V30 69 1 66 27
M  V30 70 1 28 67 CFG=1
M  V30 71 1 68 30
M  V30 72 1 69 17
M  V30 73 1 22 70 CFG=3
M  V30 END BOND
M  V30 END CTAB
M  END
>  <i_epik_Tot_Q>  (1) 
2

>  <i_epik_Tot_abs_Q>  (1) 
2

>  <i_i_glide_confnum>  (1) 
629

>  <i_i_glide_lignum>  (1) 
84

>  <i_i_glide_posenum>  (1) 
241

>  <i_i_glide_rotatable_bonds>  (1) 
17

>  <i_lp_mmshare_version>  (1) 
72125

>  <i_m_source_file_index>  (1) 
31

>  <i_f3d_flags>  (1) 
0

>  <num_sample>  (1) 
100

>  <b_lp_Chiralities_Consistent>  (1) 
1

>  <r_epik_Charging_Adjusted_Penalty>  (1) 
1.979093595035226

>  <r_epik_Ionization_Penalty>  (1) 
0.79989620662071081

>  <r_epik_Ionization_Penalty_Charging>  (1) 
0.66086891892205935

>  <r_epik_Ionization_Penalty_Neutral>  (1) 
0.13902728769865147

>  <r_epik_State_Penalty>  (1) 
1.3182246761131666

>  <r_glide_ring_energy>  (1) 
0

>  <r_i_docking_score>  (1) 
-6.6756941964299745

>  <r_i_glide_ecoul>  (1) 
-13.028398173245376

>  <r_i_glide_eff_state_penalty>  (1) 
1.3182246761131666

>  <r_i_glide_einternal>  (1) 
24.232144933201486

>  <r_i_glide_emodel>  (1) 
-62.36549575121164

>  <r_i_glide_emodel_strain>  (1) 
2.1431027819757702

>  <r_i_glide_energy>  (1) 
-48.035235517009589

>  <r_i_glide_erotb>  (1) 
1.1283805066766976

>  <r_i_glide_esite>  (1) 
-0.12562742172341376

>  <r_i_glide_evdw>  (1) 
-35.006837343764211

>  <r_i_glide_gscore>  (1) 
-7.9939188725431407

>  <r_i_glide_gscore_strain>  (1) 
0

>  <r_i_glide_hbond>  (1) 
-0.68646471306126877

>  <r_i_glide_ligand_efficiency>  (1) 
-0.20229376352818104

>  <r_i_glide_ligand_efficiency_ln>  (1) 
-1.4846398243913506

>  <r_i_glide_ligand_efficiency_sa>  (1) 
-0.64886419126069839

>  <r_i_glide_lipo>  (1) 
-2.6876810386376992

>  <r_i_glide_metal>  (1) 
-0

>  <r_i_glide_rewards>  (1) 
-1.9179246126224403

>  <r_lp_Energy>  (1) 
25.051933999999999

>  <r_lp_tautomer_probability>  (1) 
0.99999996999736518

>  <s_epik_Chemistry_Notes>  (1) 
This compound contains an acetal/aminal-like group ( X-CH(R)-Y where X, Y are N, S, or O) that may be acid/base labile, releasing an aldehyde.

>  <s_epik_cmdline>  (1) 
J2VwaWtfcHl0aG9uJywgJy1waHQnLCAnMS4wJywgJy1waCcsICc3LjQnLCAnLXRuJywgJzgnLCAnLW1hJywgJzUwMCcsICctaW1hZScsICc8aW5maWxlLm1hZT4nLCAnLW9tYWUnLCAnPG91dGZpbGUubWFlPic=

>  <s_epik_input>  (1) 
W09IXVtDSDJdT1tDQEBIXShDKD1PKVtDSDNdKU9bQ0BIXShbQ0BIXShbQ0gzXSlbT0hdKVtOSF1bQ0gyXVtOSF1bQ0gyXVtDSDJdW0NAQEhdKFMxKVtDSDJdW0NASF0oTjJbQ0hdM1tDSDJdW0NIMl0zKVtDQEBdMTJjNFtjSF1bY0hdW2NIXVtjSF1jNFtPSF0=

>  <s_glide_docking_method>  (1) 
confgen

>  <s_i_glide_gridfile>  (1) 
gpcr_5ht2c_6bqh_protein_autoprepared_prepared

>  <s_lp_Force_Field>  (1) 
S-OPLS

>  <s_lp_Variant>  (1) 
DiffSBDD_30_num_sample_100-6

>  <s_m_source_file>  (1) 
generated__ligand_DiffSBDD_2026-05-06_prepared.sdf

>  <GenAI_Model>  (1) 
DiffSBDD

>  <Protein>  (1) 
GPCR_5HT2C

$$$$
DiffSBDD_65_num_sample_100
     RDKit          3D

  0  0  0  0  0  0  0  0  0  0999 V3000
M  V30 BEGIN CTAB
M  V30 COUNTS 35 36 0 0 1
M  V30 BEGIN ATOM
M  V30 1 C 39.048426 28.908102 53.649260 0 CFG=2
M  V30 2 C 37.882407 28.016545 53.271151 0
M  V30 3 C 37.631932 26.832288 53.853511 0
M  V30 4 N 39.067368 26.707472 58.469707 0
M  V30 5 C 38.752142 29.885081 54.797588 0 CFG=2
M  V30 6 C 38.199170 26.816173 56.363112 0 CFG=1
M  V30 7 F 39.467404 29.599437 52.587829 0
M  V30 8 O 38.861090 25.955932 57.267124 0
M  V30 9 F 39.915487 30.410696 55.184783 0
M  V30 10 C 40.255252 29.115178 60.010912 0
M  V30 11 C 38.976040 28.097968 58.061543 0 CFG=2
M  V30 12 C 38.046061 29.252862 56.015961 0 CFG=1
M  V30 13 N 38.804000 28.122433 56.611746 0
M  V30 14 C 41.561169 28.226154 58.015701 0
M  V30 15 C 38.470113 26.229635 54.965147 0
M  V30 16 C 40.244746 28.874066 58.493303 0
M  V30 17 O 37.827341 30.271369 56.982883 0
M  V30 18 F 37.067411 28.421430 52.288657 0
M  V30 19 H 39.867403 28.268534 53.950355 0
M  V30 20 H 36.785394 26.250258 53.521773 0
M  V30 21 H 38.278302 26.479645 59.056020 0
M  V30 22 H 38.148732 30.713166 54.422845 0
M  V30 23 H 37.135288 26.819309 56.606732 0
M  V30 24 H 40.378420 28.182070 60.562087 0
M  V30 25 H 39.325379 29.578549 60.342419 0
M  V30 26 H 41.067399 29.781207 60.295285 0
M  V30 27 H 38.088500 28.490177 58.560553 0
M  V30 28 H 37.067403 28.917002 55.697363 0
M  V30 29 H 41.726658 27.253307 58.479339 0
M  V30 30 H 42.420770 28.849954 58.258151 0
M  V30 31 H 41.560344 28.080168 56.935095 0
M  V30 32 H 38.237371 25.164303 54.979541 0
M  V30 33 H 39.532914 26.277746 54.728369 0
M  V30 34 H 40.193127 29.856933 58.026278 0
M  V30 35 H 36.983151 30.693602 56.830266 0
M  V30 END ATOM
M  V30 BEGIN BOND
M  V30 1 1 2 1
M  V30 2 2 3 2
M  V30 3 1 5 1
M  V30 4 1 7 1
M  V30 5 1 8 4
M  V30 6 1 8 6
M  V30 7 1 9 5
M  V30 8 1 11 4
M  V30 9 1 12 5
M  V30 10 1 13 6
M  V30 11 1 13 11
M  V30 12 1 13 12
M  V30 13 1 15 3
M  V30 14 1 15 6
M  V30 15 1 16 10
M  V30 16 1 16 11
M  V30 17 1 16 14
M  V30 18 1 17 12
M  V30 19 1 18 2
M  V30 20 1 1 19 CFG=1
M  V30 21 1 20 3
M  V30 22 1 21 4
M  V30 23 1 5 22 CFG=3
M  V30 24 1 6 23 CFG=1
M  V30 25 1 24 10
M  V30 26 1 25 10
M  V30 27 1 26 10
M  V30 28 1 11 27 CFG=1
M  V30 29 1 12 28 CFG=3
M  V30 30 1 29 14
M  V30 31 1 30 14
M  V30 32 1 31 14
M  V30 33 1 32 15
M  V30 34 1 33 15
M  V30 35 1 34 16
M  V30 36 1 35 17
M  V30 END BOND
M  V30 END CTAB
M  END
>  <i_epik_Tot_Q>  (1) 
0

>  <i_epik_Tot_abs_Q>  (1) 
0

>  <i_i_glide_confnum>  (1) 
1

>  <i_i_glide_lignum>  (1) 
163

>  <i_i_glide_posenum>  (1) 
247

>  <i_i_glide_rotatable_bonds>  (1) 
2

>  <i_lp_mmshare_version>  (1) 
72125

>  <i_m_source_file_index>  (1) 
66

>  <i_f3d_flags>  (1) 
0

>  <num_sample>  (1) 
100

>  <b_lp_Chiralities_Consistent>  (1) 
1

>  <r_epik_Charging_Adjusted_Penalty>  (1) 
0

>  <r_epik_Ionization_Penalty>  (1) 
3.2857673984672069e-05

>  <r_epik_Ionization_Penalty_Charging>  (1) 
0

>  <r_epik_Ionization_Penalty_Neutral>  (1) 
3.2857673984672069e-05

>  <r_epik_State_Penalty>  (1) 
-0

>  <r_glide_ring_energy>  (1) 
0

>  <r_i_docking_score>  (1) 
-6.674879588157669

>  <r_i_glide_ecoul>  (1) 
-1.8171247841587594

>  <r_i_glide_eff_state_penalty>  (1) 
-0

>  <r_i_glide_einternal>  (1) 
0.066060331667674888

>  <r_i_glide_emodel>  (1) 
-33.482389447537415

>  <r_i_glide_emodel_strain>  (1) 
0.0054267647843033728

>  <r_i_glide_energy>  (1) 
-23.380541171696727

>  <r_i_glide_erotb>  (1) 
0

>  <r_i_glide_esite>  (1) 
-0.019980370185778792

>  <r_i_glide_evdw>  (1) 
-21.563416387537966

>  <r_i_glide_gscore>  (1) 
-6.674879588157669

>  <r_i_glide_gscore_strain>  (1) 
0

>  <r_i_glide_hbond>  (1) 
-0.16

>  <r_i_glide_ligand_efficiency>  (1) 
-0.37082664378653718

>  <r_i_glide_ligand_efficiency_ln>  (1) 
-1.7157433796936956

>  <r_i_glide_ligand_efficiency_sa>  (1) 
-0.97184073544693539

>  <r_i_glide_lipo>  (1) 
-1.8984495323484196

>  <r_i_glide_metal>  (1) 
-0

>  <r_i_glide_rewards>  (1) 
-3.2457101486227589

>  <r_lp_Energy>  (1) 
7.9581929999999996

>  <r_lp_tautomer_probability>  (1) 
1

>  <s_epik_Chemistry_Notes>  (1) 
This compound contains an acetal/aminal-like group ( X-CH(R)-Y where X, Y are N, S, or O) that may be acid/base labile, releasing an aldehyde. This compound has a N-S or N-O group and may undergo hydrolysis at high or low pH.

>  <s_epik_cmdline>  (1) 
J2VwaWtfcHl0aG9uJywgJy1waHQnLCAnMS4wJywgJy1waCcsICc3LjQnLCAnLXRuJywgJzgnLCAnLW1hJywgJzUwMCcsICctaW1hZScsICc8aW5maWxlLm1hZT4nLCAnLW9tYWUnLCAnPG91dGZpbGUubWFlPic=

>  <s_epik_input>  (1) 
W0NIMl0xL1tDSF09QyhGKVxbQ0BASF0oRilbQ0BIXShGKVtDQEhdKFtPSF0pTihbQ0BASF0xMilbQ0BASF0oW05IXU8yKVtDSF0oW0NIM10pW0NIM10=

>  <s_glide_docking_method>  (1) 
confgen

>  <s_i_glide_gridfile>  (1) 
gpcr_5ht2c_6bqh_protein_autoprepared_prepared

>  <s_lp_Force_Field>  (1) 
S-OPLS

>  <s_lp_Variant>  (1) 
DiffSBDD_65_num_sample_100-1

>  <s_m_source_file>  (1) 
generated__ligand_DiffSBDD_2026-05-06_prepared.sdf

>  <GenAI_Model>  (1) 
DiffSBDD

>  <Protein>  (1) 
GPCR_5HT2C

$$$$
DiffSBDD_44_num_sample_100
     RDKit          3D

  0  0  0  0  0  0  0  0  0  0999 V3000
M  V30 BEGIN CTAB
M  V30 COUNTS 58 59 0 0 1
M  V30 BEGIN ATOM
M  V30 1 C 39.406441 28.341215 50.649396 0
M  V30 2 O 37.467304 28.712716 54.570787 0 CHG=-1
M  V30 3 C 38.788094 30.001815 57.986163 0
M  V30 4 C 39.687953 29.825273 52.567957 0 CFG=1
M  V30 5 N 38.787005 28.715696 52.949755 0 CFG=1 CHG=1
M  V30 6 C 39.257442 28.622709 59.978164 0
M  V30 7 N 38.672393 26.835737 57.303930 0
M  V30 8 C 39.236573 28.871234 58.468624 0
M  V30 9 O 40.855261 27.059964 58.137215 0
M  V30 10 C 39.787443 29.774403 51.035130 0 CFG=1
M  V30 11 C 41.157242 30.183844 50.497158 0
M  V30 12 C 38.871668 26.850170 54.791366 0 CFG=1
M  V30 13 C 38.258744 26.419730 56.162019 0
M  V30 14 C 38.844074 27.671097 51.903550 0
M  V30 15 C 42.085853 27.770251 58.110936 0
M  V30 16 C 37.860878 31.779410 59.423197 0
M  V30 17 C 38.706221 28.366963 54.388603 0 CFG=2
M  V30 18 C 39.760783 27.762222 57.561835 0 CFG=1
M  V30 19 F 37.465952 31.405001 61.692063 0
M  V30 20 C 37.764644 30.734718 60.577969 0 CFG=2
M  V30 21 C 38.249247 31.187233 58.078734 0
M  V30 22 C 40.302657 26.289157 54.691857 0
M  V30 23 C 37.111082 25.430217 56.060098 0
M  V30 24 C 39.279350 31.176536 53.177174 0
M  V30 25 C 39.045500 29.895099 60.857089 0
M  V30 26 H 40.259679 27.773890 50.276761 0
M  V30 27 H 38.667453 28.361756 49.853565 0
M  V30 28 H 40.667387 29.621429 52.953159 0
M  V30 29 H 38.496134 27.877568 60.210252 0
M  V30 30 H 40.210016 28.176325 60.263120 0
M  V30 31 H 39.067400 30.451264 50.588641 0
M  V30 32 H 41.949849 29.621464 50.981362 0
M  V30 33 H 41.227002 30.032015 49.419837 0
M  V30 34 H 41.353476 31.228941 50.695574 0
M  V30 35 H 38.312391 26.288535 54.045471 0
M  V30 36 H 39.489630 26.838356 52.153997 0
M  V30 37 H 37.853611 27.259277 51.731617 0
M  V30 38 H 42.857436 27.184043 58.610045 0
M  V30 39 H 42.413418 27.947180 57.085697 0
M  V30 40 H 42.011030 28.729294 58.624222 0
M  V30 41 H 38.581832 32.558445 59.672448 0
M  V30 42 H 36.896241 32.276003 59.302659 0
M  V30 43 H 39.511844 28.921798 54.856165 0
M  V30 44 H 40.131574 28.234201 56.664371 0
M  V30 45 H 36.923340 30.062278 60.396639 0
M  V30 46 H 38.043973 31.784123 57.201333 0
M  V30 47 H 40.267408 25.220776 54.879869 0
M  V30 48 H 40.768624 26.421400 53.721592 0
M  V30 49 H 40.985345 26.711365 55.423265 0
M  V30 50 H 36.667549 25.417848 55.066076 0
M  V30 51 H 37.465682 24.425494 56.289177 0
M  V30 52 H 36.327771 25.683893 56.773193 0
M  V30 53 H 39.467537 31.991857 52.481634 0
M  V30 54 H 38.226237 31.206349 53.453518 0
M  V30 55 H 39.840586 31.377481 54.090932 0
M  V30 56 H 39.026671 29.565529 61.897131 0
M  V30 57 H 39.917374 30.544776 60.776092 0
M  V30 58 H 37.856233 29.099432 52.864464 0
M  V30 END ATOM
M  V30 BEGIN BOND
M  V30 1 1 5 4
M  V30 2 2 8 3
M  V30 3 1 8 6
M  V30 4 1 10 1
M  V30 5 1 10 4
M  V30 6 1 11 10
M  V30 7 2 13 7
M  V30 8 1 13 12
M  V30 9 1 14 1
M  V30 10 1 14 5
M  V30 11 1 15 9
M  V30 12 1 17 2
M  V30 13 1 17 5
M  V30 14 1 17 12
M  V30 15 1 18 7
M  V30 16 1 18 8
M  V30 17 1 18 9
M  V30 18 1 20 16
M  V30 19 1 20 19
M  V30 20 2 21 3
M  V30 21 1 21 16
M  V30 22 1 22 12
M  V30 23 1 23 13
M  V30 24 1 24 4
M  V30 25 1 25 6
M  V30 26 1 25 20
M  V30 27 1 26 1
M  V30 28 1 27 1
M  V30 29 1 4 28 CFG=1
M  V30 30 1 29 6
M  V30 31 1 30 6
M  V30 32 1 10 31 CFG=3
M  V30 33 1 32 11
M  V30 34 1 33 11
M  V30 35 1 34 11
M  V30 36 1 12 35 CFG=3
M  V30 37 1 36 14
M  V30 38 1 37 14
M  V30 39 1 38 15
M  V30 40 1 39 15
M  V30 41 1 40 15
M  V30 42 1 41 16
M  V30 43 1 42 16
M  V30 44 1 17 43 CFG=1
M  V30 45 1 18 44 CFG=3
M  V30 46 1 20 45 CFG=3
M  V30 47 1 46 21
M  V30 48 1 47 22
M  V30 49 1 48 22
M  V30 50 1 49 22
M  V30 51 1 50 23
M  V30 52 1 51 23
M  V30 53 1 52 23
M  V30 54 1 53 24
M  V30 55 1 54 24
M  V30 56 1 55 24
M  V30 57 1 56 25
M  V30 58 1 57 25
M  V30 59 1 5 58 CFG=3
M  V30 END BOND
M  V30 END CTAB
M  END
>  <i_epik_Tot_Q>  (1) 
0

>  <i_epik_Tot_abs_Q>  (1) 
2

>  <i_i_glide_confnum>  (1) 
19

>  <i_i_glide_lignum>  (1) 
122

>  <i_i_glide_posenum>  (1) 
126

>  <i_i_glide_rotatable_bonds>  (1) 
6

>  <i_lp_mmshare_version>  (1) 
72125

>  <i_m_source_file_index>  (1) 
45

>  <i_f3d_flags>  (1) 
0

>  <num_sample>  (1) 
100

>  <b_lp_Chiralities_Consistent>  (1) 
1

>  <r_epik_Charging_Adjusted_Penalty>  (1) 
0.41733257654759531

>  <r_epik_Ionization_Penalty>  (1) 
0.0069177268181324029

>  <r_epik_Ionization_Penalty_Charging>  (1) 
0.0066527375949913311

>  <r_epik_Ionization_Penalty_Neutral>  (1) 
0.00026498922314107146

>  <r_epik_State_Penalty>  (1) 
0.41067983895260396

>  <r_glide_ring_energy>  (1) 
0

>  <r_i_docking_score>  (1) 
-6.6579368882933023

>  <r_i_glide_ecoul>  (1) 
-1.8780820431823915

>  <r_i_glide_eff_state_penalty>  (1) 
0.41067983895260396

>  <r_i_glide_einternal>  (1) 
20.645356716062924

>  <r_i_glide_emodel>  (1) 
-39.289612468163838

>  <r_i_glide_emodel_strain>  (1) 
5.3327916787688139

>  <r_i_glide_energy>  (1) 
-36.741535271002654

>  <r_i_glide_erotb>  (1) 
0.61440649929112812

>  <r_i_glide_esite>  (1) 
-0.0036886095663900887

>  <r_i_glide_evdw>  (1) 
-34.863453227820266

>  <r_i_glide_gscore>  (1) 
-7.0686167272459066

>  <r_i_glide_gscore_strain>  (1) 
0.33319791969220347

>  <r_i_glide_hbond>  (1) 
0

>  <r_i_glide_ligand_efficiency>  (1) 
-0.26631747553173207

>  <r_i_glide_ligand_efficiency_ln>  (1) 
-1.5781305647935959

>  <r_i_glide_ligand_efficiency_sa>  (1) 
-0.77871702245085561

>  <r_i_glide_lipo>  (1) 
-3.4337834693543421

>  <r_i_glide_metal>  (1) 
-0

>  <r_i_glide_rewards>  (1) 
-2.5538640994401325

>  <r_lp_Energy>  (1) 
11.862836999999999

>  <r_lp_tautomer_probability>  (1) 
0.49999399997599986

>  <s_epik_Chemistry_Notes>  (1) 
This compound has an imine and may undergo hydrolysis. This compound contains an acetal/aminal-like group ( X-CH(R)-Y where X, Y are N, S, or O) that may be acid/base labile, releasing an aldehyde.

>  <s_epik_cmdline>  (1) 
J2VwaWtfcHl0aG9uJywgJy1waHQnLCAnMS4wJywgJy1waCcsICc3LjQnLCAnLXRuJywgJzgnLCAnLW1hJywgJzUwMCcsICctaW1hZScsICc8aW5maWxlLm1hZT4nLCAnLW9tYWUnLCAnPG91dGZpbGUubWFlPic=

>  <s_epik_input>  (1) 
W0NIM11bQ0BIXTFbQ0gyXVtDSDJdTihbQ0BASF0xW0NIM10pW0NAQEhdKFtPSF0pW0NAQEhdKFtDSDNdKS9DKFtDSDNdKT1OXFtDQEBIXShPW0NIM10pQzI9Qz1bQ0hdW0NIMl1bQ0BASF0oRilbQ0gyXVtDSDJdMg==

>  <s_glide_docking_method>  (1) 
confgen

>  <s_i_glide_gridfile>  (1) 
gpcr_5ht2c_6bqh_protein_autoprepared_prepared

>  <s_lp_Force_Field>  (1) 
S-OPLS

>  <s_lp_Variant>  (1) 
DiffSBDD_44_num_sample_100-15

>  <s_m_source_file>  (1) 
generated__ligand_DiffSBDD_2026-05-06_prepared.sdf

>  <GenAI_Model>  (1) 
DiffSBDD

>  <Protein>  (1) 
GPCR_5HT2C

$$$$
DiffSBDD_1_num_sample_100
     RDKit          3D

  0  0  0  0  0  0  0  0  0  0999 V3000
M  V30 BEGIN CTAB
M  V30 COUNTS 62 65 0 0 1
M  V30 BEGIN ATOM
M  V30 1 C 38.702429 29.171477 54.016566 0
M  V30 2 C 39.681838 34.184518 62.091413 0
M  V30 3 O 38.622146 28.398184 51.914911 0
M  V30 4 C 37.865806 32.441396 61.447528 0 CFG=1
M  V30 5 C 39.250966 29.981097 55.121509 0
M  V30 6 C 38.747413 30.598756 59.964395 0
M  V30 7 C 37.883579 36.661378 63.255468 0
M  V30 8 C 41.418102 35.712254 61.951137 0
M  V30 9 N 40.185396 36.353901 61.453514 0 CHG=1
M  V30 10 C 37.737819 33.378062 57.742711 0
M  V30 11 C 38.507328 29.958841 56.476522 0
M  V30 12 C 37.761967 35.990043 61.870525 0 CFG=2
M  V30 13 C 39.085292 35.362251 61.339247 0 CFG=2
M  V30 14 C 38.130604 31.313045 58.736907 0 CFG=2
M  V30 15 C 38.395788 32.539808 56.647525 0
M  V30 16 C 39.226460 29.167526 52.832914 0
M  V30 17 N 38.021074 30.984920 61.208856 0
M  V30 18 C 39.161219 32.929325 62.124153 0
M  V30 19 O 40.266944 30.666788 54.998360 0
M  V30 20 C 37.206747 36.985338 60.831151 0
M  V30 21 C 37.495058 27.847838 52.709212 0
M  V30 22 C 37.312227 33.099711 60.152086 0
M  V30 23 C 40.961619 34.525266 62.788776 0
M  V30 24 N 38.103914 32.746957 58.986334 0
M  V30 25 O 36.802351 30.816893 58.653497 0
M  V30 26 C 37.521088 28.345364 54.233658 0
M  V30 27 C 38.795776 31.208254 57.336485 0 CFG=2
M  V30 28 O 36.599624 36.954804 63.771887 0
M  V30 29 H 37.102892 32.570502 62.215571 0
M  V30 30 H 39.800234 30.862746 60.057366 0
M  V30 31 H 38.711176 29.517480 59.827362 0
M  V30 32 H 38.449409 37.590796 63.194266 0
M  V30 33 H 38.416521 36.021655 63.956146 0
M  V30 34 H 42.028456 36.412858 62.521409 0
M  V30 35 H 41.975466 35.374764 61.076084 0
M  V30 36 H 40.357327 36.810582 60.569178 0
M  V30 37 H 36.667394 33.363831 57.622731 0
M  V30 38 H 38.033923 34.421421 57.706822 0
M  V30 39 H 38.796899 29.059149 57.019100 0
M  V30 40 H 37.433299 29.896294 56.307056 0
M  V30 41 H 37.022646 35.199545 61.983860 0
M  V30 42 H 39.033715 35.108298 60.281418 0
M  V30 43 H 37.689740 32.389233 55.829342 0
M  V30 44 H 39.273119 33.042356 56.238893 0
M  V30 45 H 40.090232 29.710520 52.475429 0
M  V30 46 H 38.420435 30.519619 62.017689 0
M  V30 47 H 39.692444 32.177506 62.690331 0
M  V30 48 H 37.895153 37.811537 60.653556 0
M  V30 49 H 37.018352 36.500787 59.872476 0
M  V30 50 H 36.267338 37.425173 61.161274 0
M  V30 51 H 36.559553 28.166995 52.253486 0
M  V30 52 H 37.521418 26.759669 52.662689 0
M  V30 53 H 36.286997 32.753289 60.015148 0
M  V30 54 H 37.185750 34.169380 60.202415 0
M  V30 55 H 40.748171 34.829719 63.814346 0
M  V30 56 H 41.680170 33.704538 62.800582 0
M  V30 57 H 36.324044 31.259735 57.944147 0
M  V30 58 H 37.691856 27.542990 54.952406 0
M  V30 59 H 36.667406 28.959215 54.500708 0
M  V30 60 H 39.867403 31.233432 57.453500 0
M  V30 61 H 36.134860 36.151429 63.969143 0
M  V30 62 H 39.911256 37.046642 62.134295 0
M  V30 END ATOM
M  V30 BEGIN BOND
M  V30 1 1 5 1
M  V30 2 1 9 8
M  V30 3 1 11 5
M  V30 4 1 12 7
M  V30 5 1 13 2
M  V30 6 1 13 9
M  V30 7 1 13 12
M  V30 8 1 14 6
M  V30 9 1 15 10
M  V30 10 2 16 1
M  V30 11 1 16 3
M  V30 12 1 17 4
M  V30 13 1 17 6
M  V30 14 2 18 2
M  V30 15 1 18 4
M  V30 16 2 19 5
M  V30 17 1 20 12
M  V30 18 1 21 3
M  V30 19 1 22 4
M  V30 20 1 23 2
M  V30 21 1 23 8
M  V30 22 1 24 10
M  V30 23 1 24 14
M  V30 24 1 24 22
M  V30 25 1 14 25 CFG=3
M  V30 26 1 26 1
M  V30 27 1 26 21
M  V30 28 1 27 11
M  V30 29 1 27 14
M  V30 30 1 27 15
M  V30 31 1 28 7
M  V30 32 1 4 29 CFG=1
M  V30 33 1 30 6
M  V30 34 1 31 6
M  V30 35 1 32 7
M  V30 36 1 33 7
M  V30 37 1 34 8
M  V30 38 1 35 8
M  V30 39 1 36 9
M  V30 40 1 37 10
M  V30 41 1 38 10
M  V30 42 1 39 11
M  V30 43 1 40 11
M  V30 44 1 12 41 CFG=1
M  V30 45 1 13 42 CFG=3
M  V30 46 1 43 15
M  V30 47 1 44 15
M  V30 48 1 45 16
M  V30 49 1 46 17
M  V30 50 1 47 18
M  V30 51 1 48 20
M  V30 52 1 49 20
M  V30 53 1 50 20
M  V30 54 1 51 21
M  V30 55 1 52 21
M  V30 56 1 53 22
M  V30 57 1 54 22
M  V30 58 1 55 23
M  V30 59 1 56 23
M  V30 60 1 57 25
M  V30 61 1 58 26
M  V30 62 1 59 26
M  V30 63 1 27 60 CFG=1
M  V30 64 1 61 28
M  V30 65 1 62 9
M  V30 END BOND
M  V30 END CTAB
M  END
>  <i_epik_Tot_Q>  (1) 
1

>  <i_epik_Tot_abs_Q>  (1) 
1

>  <i_i_glide_confnum>  (1) 
151

>  <i_i_glide_lignum>  (1) 
10

>  <i_i_glide_posenum>  (1) 
161

>  <i_i_glide_rotatable_bonds>  (1) 
8

>  <i_lp_mmshare_version>  (1) 
72125

>  <i_m_source_file_index>  (1) 
2

>  <i_f3d_flags>  (1) 
0

>  <num_sample>  (1) 
100

>  <b_lp_Chiralities_Consistent>  (1) 
1

>  <r_epik_Charging_Adjusted_Penalty>  (1) 
0.089223518210420474

>  <r_epik_Ionization_Penalty>  (1) 
0.15303808439063821

>  <r_epik_Ionization_Penalty_Charging>  (1) 
0.0017986555257548985

>  <r_epik_Ionization_Penalty_Neutral>  (1) 
0.15123942886488331

>  <r_epik_State_Penalty>  (1) 
0.08742486268466558

>  <r_glide_ring_energy>  (1) 
0

>  <r_i_docking_score>  (1) 
-6.6572342437264709

>  <r_i_glide_ecoul>  (1) 
-8.652193202776548

>  <r_i_glide_eff_state_penalty>  (1) 
0.08742486268466558

>  <r_i_glide_einternal>  (1) 
12.116426689305857

>  <r_i_glide_emodel>  (1) 
-45.974003946934872

>  <r_i_glide_emodel_strain>  (1) 
0.46359331147274929

>  <r_i_glide_energy>  (1) 
-38.837709117151718

>  <r_i_glide_erotb>  (1) 
0.76037187950223806

>  <r_i_glide_esite>  (1) 
-0.056158437126054422

>  <r_i_glide_evdw>  (1) 
-30.18551591437517

>  <r_i_glide_gscore>  (1) 
-6.7446591064111363

>  <r_i_glide_gscore_strain>  (1) 
0

>  <r_i_glide_hbond>  (1) 
-0.26219204103264349

>  <r_i_glide_ligand_efficiency>  (1) 
-0.23775836584737395

>  <r_i_glide_ligand_efficiency_ln>  (1) 
-1.5366851283429455

>  <r_i_glide_ligand_efficiency_sa>  (1) 
-0.72197443170331499

>  <r_i_glide_lipo>  (1) 
-2.937743835239544

>  <r_i_glide_metal>  (1) 
-0

>  <r_i_glide_rewards>  (1) 
-1.4418318963798922

>  <r_lp_Energy>  (1) 
14.952356

>  <s_epik_cmdline>  (1) 
J2VwaWtfcHl0aG9uJywgJy1waHQnLCAnMS4wJywgJy1waCcsICc3LjQnLCAnLXRuJywgJzgnLCAnLW1hJywgJzUwMCcsICctaW1hZScsICc8aW5maWxlLm1hZT4nLCAnLW9tYWUnLCAnPG91dGZpbGUubWFlPic=

>  <s_epik_input>  (1) 
W0NIMl0xW0NIMl1PW0NIXT1DMUMoPU8pW0NIMl1bQ0BIXTJbQ0gyXVtDSDJdTihbQ0BAXTIzW09IXSlbQ0gyXVtDQEBIXShbTkhdW0NIMl0zKS9bQ0hdPUM0XFtDQEBIXShbTkhdW0NIMl1bQ0gyXTQpW0NASF0oW0NIM10pW0NIMl1bT0hd

>  <s_glide_docking_method>  (1) 
confgen

>  <s_i_glide_gridfile>  (1) 
gpcr_5ht2c_6bqh_protein_autoprepared_prepared

>  <s_lp_Force_Field>  (1) 
S-OPLS

>  <s_lp_Variant>  (1) 
DiffSBDD_1_num_sample_100-4

>  <s_m_source_file>  (1) 
generated__ligand_DiffSBDD_2026-05-06_prepared.sdf

>  <GenAI_Model>  (1) 
DiffSBDD

>  <Protein>  (1) 
GPCR_5HT2C

$$$$
DiffSBDD_90_num_sample_100
     RDKit          3D

  0  0  0  0  0  0  0  0  0  0999 V3000
M  V30 BEGIN CTAB
M  V30 COUNTS 84 87 0 0 1
M  V30 BEGIN ATOM
M  V30 1 C 40.682480 28.004611 58.412010 0
M  V30 2 O 34.669529 33.446773 59.418130 0
M  V30 3 F 38.266403 23.621475 55.749073 0
M  V30 4 C 38.440177 29.450238 53.686118 0 CFG=1
M  V30 5 C 37.544628 35.545545 60.571013 0 CFG=2
M  V30 6 C 38.243355 33.376484 61.457948 0 CFG=1
M  V30 7 C 37.867130 32.454870 54.542091 0
M  V30 8 C 38.325463 31.211727 60.153202 0
M  V30 9 C 39.381498 30.707396 53.599462 0
M  V30 10 N 35.873069 34.238964 59.266931 0
M  V30 11 C 37.857401 25.256534 57.189308 0
M  V30 12 C 40.384655 30.809805 54.772775 0
M  V30 13 C 38.671315 34.490322 60.474701 0
M  V30 14 C 36.694853 33.419088 61.465134 0
M  V30 15 O 38.878157 36.695270 62.208119 0
M  V30 16 N 39.370863 28.371575 57.864531 0
M  V30 17 C 38.819934 32.012508 61.115113 0
M  V30 18 F 39.903566 24.209923 57.052017 0
M  V30 19 C 38.171138 26.068341 54.319996 0 CFG=1
M  V30 20 N 39.240152 28.102920 56.480318 0
M  V30 21 C 36.731510 25.766167 56.309652 0
M  V30 22 C 38.995786 29.728072 58.274531 0
M  V30 23 O 38.667367 31.939611 53.486325 0
M  V30 24 C 40.141193 30.729183 52.244528 0
M  V30 25 C 40.665796 28.052811 59.946003 0
M  V30 26 C 39.382450 25.435156 55.049669 0
M  V30 27 C 38.875123 29.842293 59.796759 0 CFG=1
M  V30 28 C 36.297989 34.626430 60.612668 0 CFG=1
M  V30 29 C 39.198415 28.157007 53.304870 0
M  V30 30 O 36.667443 36.776902 62.439386 0 CHG=-1
M  V30 31 C 37.867540 28.126925 55.943898 0 CFG=1
M  V30 32 C 40.202533 29.426718 60.468822 0
M  V30 33 O 37.467230 36.425539 59.458627 0
M  V30 34 C 37.661239 29.352914 55.034794 0
M  V30 35 C 37.281040 26.820678 55.301175 0 CFG=1
M  V30 36 C 38.434827 26.881762 53.052894 0
M  V30 37 C 38.905666 24.637923 56.283559 0
M  V30 38 C 37.710411 36.414648 61.853625 0
M  V30 39 H 40.949869 27.003038 58.072767 0
M  V30 40 H 41.442571 28.685888 58.024659 0
M  V30 41 H 34.845332 32.725256 58.821335 0
M  V30 42 H 37.694756 29.571989 52.905264 0
M  V30 43 H 38.608430 33.630097 62.454635 0
M  V30 44 H 37.544447 33.460549 54.279424 0
M  V30 45 H 36.957624 31.871980 54.657700 0
M  V30 46 H 38.389954 32.531463 55.495299 0
M  V30 47 H 37.473628 31.543835 59.576059 0
M  V30 48 H 35.531570 35.043771 58.754030 0
M  V30 49 H 37.475182 24.498919 57.875431 0
M  V30 50 H 38.271187 26.037378 57.818431 0
M  V30 51 H 40.964124 29.903166 54.903711 0
M  V30 52 H 41.093529 31.621210 54.640001 0
M  V30 53 H 39.903715 30.989184 55.728980 0
M  V30 54 H 39.663779 34.885390 60.689756 0
M  V30 55 H 38.710084 34.087060 59.461107 0
M  V30 56 H 36.275692 33.621481 62.452388 0
M  V30 57 H 36.223359 32.488454 61.154224 0
M  V30 58 H 39.672634 31.693828 61.695626 0
M  V30 59 H 37.574335 25.233732 53.949731 0
M  V30 60 H 39.672107 27.203225 56.281809 0
M  V30 61 H 36.301537 24.935750 55.749380 0
M  V30 62 H 35.911072 26.021423 56.956606 0
M  V30 63 H 38.041421 30.007574 57.835676 0
M  V30 64 H 39.737585 30.421820 57.886619 0
M  V30 65 H 40.851536 29.921927 52.105340 0
M  V30 66 H 39.467527 30.703515 51.389451 0
M  V30 67 H 40.733970 31.621411 52.132765 0
M  V30 68 H 39.977513 27.284166 60.289975 0
M  V30 69 H 41.646770 27.799321 60.347261 0
M  V30 70 H 39.867416 24.758710 54.353400 0
M  V30 71 H 40.161964 26.139643 55.325134 0
M  V30 72 H 38.105788 29.137016 60.111757 0
M  V30 73 H 35.467615 35.102387 61.092956 0
M  V30 74 H 39.780409 28.264661 52.396592 0
M  V30 75 H 39.867386 27.942456 54.107820 0
M  V30 76 H 37.239010 28.312857 56.815402 0
M  V30 77 H 40.974761 30.165363 60.260699 0
M  V30 78 H 40.083445 29.375299 61.551786 0
M  V30 79 H 37.340189 35.894880 58.687396 0
M  V30 80 H 36.604943 29.470953 54.818335 0
M  V30 81 H 37.879608 30.204636 55.666985 0
M  V30 82 H 36.471749 27.173303 54.653467 0
M  V30 83 H 37.513457 27.095302 52.510115 0
M  V30 84 H 39.055069 26.294690 52.379977 0
M  V30 END ATOM
M  V30 BEGIN BOND
M  V30 1 1 9 4
M  V30 2 1 10 2
M  V30 3 1 12 9
M  V30 4 1 13 5
M  V30 5 1 13 6
M  V30 6 1 14 6
M  V30 7 1 16 1
M  V30 8 1 17 6
M  V30 9 2 17 8
M  V30 10 1 20 16
M  V30 11 1 21 11
M  V30 12 1 22 16
M  V30 13 1 23 7
M  V30 14 1 23 9
M  V30 15 1 24 9
M  V30 16 1 25 1
M  V30 17 1 26 19
M  V30 18 1 27 8
M  V30 19 1 27 22
M  V30 20 1 28 5
M  V30 21 1 28 10
M  V30 22 1 28 14
M  V30 23 1 29 4
M  V30 24 1 31 20
M  V30 25 1 32 25
M  V30 26 1 32 27
M  V30 27 1 5 33 CFG=3
M  V30 28 1 34 4
M  V30 29 1 34 31
M  V30 30 1 35 19
M  V30 31 1 35 21
M  V30 32 1 35 31
M  V30 33 1 36 19
M  V30 34 1 36 29
M  V30 35 1 37 3
M  V30 36 1 37 11
M  V30 37 1 37 18
M  V30 38 1 37 26
M  V30 39 1 38 5
M  V30 40 2 38 15
M  V30 41 1 38 30
M  V30 42 1 39 1
M  V30 43 1 40 1
M  V30 44 1 41 2
M  V30 45 1 4 42 CFG=3
M  V30 46 1 6 43 CFG=1
M  V30 47 1 44 7
M  V30 48 1 45 7
M  V30 49 1 46 7
M  V30 50 1 47 8
M  V30 51 1 48 10
M  V30 52 1 49 11
M  V30 53 1 50 11
M  V30 54 1 51 12
M  V30 55 1 52 12
M  V30 56 1 53 12
M  V30 57 1 54 13
M  V30 58 1 55 13
M  V30 59 1 56 14
M  V30 60 1 57 14
M  V30 61 1 58 17
M  V30 62 1 19 59 CFG=3
M  V30 63 1 60 20
M  V30 64 1 61 21
M  V30 65 1 62 21
M  V30 66 1 63 22
M  V30 67 1 64 22
M  V30 68 1 65 24
M  V30 69 1 66 24
M  V30 70 1 67 24
M  V30 71 1 68 25
M  V30 72 1 69 25
M  V30 73 1 70 26
M  V30 74 1 71 26
M  V30 75 1 27 72 CFG=1
M  V30 76 1 28 73 CFG=1
M  V30 77 1 74 29
M  V30 78 1 75 29
M  V30 79 1 31 76 CFG=1
M  V30 80 1 77 32
M  V30 81 1 78 32
M  V30 82 1 79 33
M  V30 83 1 80 34
M  V30 84 1 81 34
M  V30 85 1 35 82 CFG=3
M  V30 86 1 83 36
M  V30 87 1 84 36
M  V30 END BOND
M  V30 END CTAB
M  END
>  <i_epik_Tot_Q>  (1) 
-1

>  <i_epik_Tot_abs_Q>  (1) 
1

>  <i_i_glide_confnum>  (1) 
986

>  <i_i_glide_lignum>  (1) 
232

>  <i_i_glide_posenum>  (1) 
90

>  <i_i_glide_rotatable_bonds>  (1) 
10

>  <i_lp_mmshare_version>  (1) 
72125

>  <i_m_source_file_index>  (1) 
91

>  <i_f3d_flags>  (1) 
0

>  <num_sample>  (1) 
100

>  <b_lp_Chiralities_Consistent>  (1) 
1

>  <r_epik_Charging_Adjusted_Penalty>  (1) 
0.43821527866000726

>  <r_epik_Ionization_Penalty>  (1) 
0.52002734918543769

>  <r_epik_Ionization_Penalty_Charging>  (1) 
0.00012691742049533285

>  <r_epik_Ionization_Penalty_Neutral>  (1) 
0.51990043176494238

>  <r_epik_State_Penalty>  (1) 
0.43808836123951195

>  <r_glide_ring_energy>  (1) 
0.69230642483635751

>  <r_i_docking_score>  (1) 
-6.6562057722301997

>  <r_i_glide_ecoul>  (1) 
-2.5662818536678982

>  <r_i_glide_eff_state_penalty>  (1) 
0.43808836123951195

>  <r_i_glide_einternal>  (1) 
17.374231310977684

>  <r_i_glide_emodel>  (1) 
-22.130528339427965

>  <r_i_glide_emodel_strain>  (1) 
1.2142997698388029

>  <r_i_glide_energy>  (1) 
-26.864297343779594

>  <r_i_glide_erotb>  (1) 
0.42146348941000378

>  <r_i_glide_esite>  (1) 
-0.05617252801992674

>  <r_i_glide_evdw>  (1) 
-24.298015490111695

>  <r_i_glide_gscore>  (1) 
-7.0942941334697114

>  <r_i_glide_gscore_strain>  (1) 
0

>  <r_i_glide_hbond>  (1) 
-0.13119552642004531

>  <r_i_glide_ligand_efficiency>  (1) 
-0.17516330979553157

>  <r_i_glide_ligand_efficiency_ln>  (1) 
-1.435273770228543

>  <r_i_glide_ligand_efficiency_sa>  (1) 
-0.58889473970608519

>  <r_i_glide_lipo>  (1) 
-4.5933179537764355

>  <r_i_glide_metal>  (1) 
-0

>  <r_i_glide_rewards>  (1) 
-1.1352285621075389

>  <r_lp_Energy>  (1) 
49.927557999999998

>  <s_epik_Chemistry_Notes>  (1) 
This compound has a N-S or N-O group and may undergo hydrolysis at high or low pH.

>  <s_epik_cmdline>  (1) 
J2VwaWtfcHl0aG9uJywgJy1waHQnLCAnMS4wJywgJy1waCcsICc3LjQnLCAnLXRuJywgJzgnLCAnLW1hJywgJzUwMCcsICctaW1hZScsICc8aW5maWxlLm1hZT4nLCAnLW9tYWUnLCAnPG91dGZpbGUubWFlPic=

>  <s_epik_input>  (1) 
RkMoRikoW0NIMl0xKVtDSDJdW0NIMl1bQ0BIXShbQ0BASF0xMilbQ0BIXShbQ0gyXVtDQEhdKFtDSDJdW0NIMl0yKUMoW0NIM10pKFtDSDNdKU9bQ0gzXSlbTkhdTjNbQ0gyXVtDSDJdW0NIMl1bQ0BIXShbQ0gyXTMpL1tDSF09W0NIXS9bQ0BASF0oW0NIMl1bQ0BdNChbT0hdKUMoPU8pW09IXSlbQ0gyXVtDQEBIXTRbTkhdW09IXQ==

>  <s_glide_docking_method>  (1) 
confgen

>  <s_i_glide_gridfile>  (1) 
gpcr_5ht2c_6bqh_protein_autoprepared_prepared

>  <s_lp_Force_Field>  (1) 
S-OPLS

>  <s_lp_Variant>  (1) 
DiffSBDD_90_num_sample_100-4

>  <s_m_source_file>  (1) 
generated__ligand_DiffSBDD_2026-05-06_prepared.sdf

>  <GenAI_Model>  (1) 
DiffSBDD

>  <Protein>  (1) 
GPCR_5HT2C

$$$$
DiffSBDD_44_num_sample_100
     RDKit          3D

  0  0  0  0  0  0  0  0  0  0999 V3000
M  V30 BEGIN CTAB
M  V30 COUNTS 58 59 0 0 1
M  V30 BEGIN ATOM
M  V30 1 C 40.058108 30.720033 52.949258 0
M  V30 2 O 36.877729 27.852059 53.494815 0 CHG=-1
M  V30 3 C 39.067436 29.663757 60.675647 0
M  V30 4 C 38.977183 28.749615 52.149131 0 CFG=1
M  V30 5 N 38.989892 28.648202 53.648480 0 CFG=1 CHG=1
M  V30 6 C 37.313044 29.966710 58.970349 0
M  V30 7 N 38.531732 27.955154 57.444349 0
M  V30 8 C 38.517605 29.233210 59.568126 0
M  V30 9 O 40.482886 27.886335 58.893913 0
M  V30 10 C 40.123872 29.710099 51.801889 0 CFG=1
M  V30 11 C 40.033703 30.351957 50.405549 0
M  V30 12 C 38.032006 26.908922 55.276057 0 CFG=1
M  V30 13 C 38.893161 27.131953 56.538237 0
M  V30 14 C 39.565857 29.921817 54.161540 0
M  V30 15 C 41.227248 29.003302 58.446842 0
M  V30 16 C 38.301206 31.698572 61.836878 0
M  V30 17 C 37.768365 28.179947 54.393509 0 CFG=2
M  V30 18 C 39.062821 28.009285 58.807276 0 CFG=2
M  V30 19 F 36.696827 33.095071 60.923501 0
M  V30 20 C 37.496039 32.091988 60.560479 0 CFG=2
M  V30 21 C 39.209161 30.492641 61.674135 0
M  V30 22 C 38.322517 25.620835 54.486038 0
M  V30 23 C 40.178892 26.295469 56.637197 0
M  V30 24 C 39.098397 27.384546 51.443222 0
M  V30 25 C 36.609677 30.983108 59.922989 0
M  V30 26 H 39.336530 31.503502 52.715527 0
M  V30 27 H 41.003666 31.221424 53.146472 0
M  V30 28 H 38.051247 29.221453 51.823344 0
M  V30 29 H 37.633557 30.480374 58.062527 0
M  V30 30 H 36.568069 29.231088 58.661984 0
M  V30 31 H 41.067963 29.168454 51.853207 0
M  V30 32 H 39.094091 30.884433 50.253950 0
M  V30 33 H 40.843488 31.066879 50.254249 0
M  V30 34 H 40.110389 29.601102 49.618852 0
M  V30 35 H 37.066371 26.679320 55.717183 0
M  V30 36 H 38.854128 30.535174 54.716269 0
M  V30 37 H 40.382258 29.689672 54.844741 0
M  V30 38 H 42.166792 28.679575 57.999242 0
M  V30 39 H 40.667349 29.600083 57.723432 0
M  V30 40 H 41.469187 29.627528 59.302359 0
M  V30 41 H 37.613013 31.496108 62.653495 0
M  V30 42 H 38.913126 32.546774 62.147090 0
M  V30 43 H 37.493221 28.954916 55.111345 0
M  V30 44 H 38.665626 27.143650 59.338066 0
M  V30 45 H 38.162745 32.506681 59.803290 0
M  V30 46 H 39.977146 30.351019 62.420276 0
M  V30 47 H 38.421569 24.752529 55.138561 0
M  V30 48 H 37.494864 25.387522 53.817915 0
M  V30 49 H 39.228510 25.717708 53.890720 0
M  V30 50 H 40.377147 25.643513 55.793561 0
M  V30 51 H 41.051267 26.943667 56.693605 0
M  V30 52 H 40.156385 25.669123 57.528678 0
M  V30 53 H 39.314801 27.492992 50.380445 0
M  V30 54 H 39.867362 26.764351 51.889975 0
M  V30 55 H 38.168753 26.822832 51.513206 0
M  V30 56 H 35.828675 31.468170 59.336156 0
M  V30 57 H 36.084832 30.445537 60.711281 0
M  V30 58 H 39.678477 27.937392 53.837013 0
M  V30 END ATOM
M  V30 BEGIN BOND
M  V30 1 1 5 4
M  V30 2 2 8 3
M  V30 3 1 8 6
M  V30 4 1 10 1
M  V30 5 1 10 4
M  V30 6 1 11 10
M  V30 7 2 13 7
M  V30 8 1 13 12
M  V30 9 1 14 1
M  V30 10 1 14 5
M  V30 11 1 15 9
M  V30 12 1 17 2
M  V30 13 1 17 5
M  V30 14 1 17 12
M  V30 15 1 18 7
M  V30 16 1 18 8
M  V30 17 1 18 9
M  V30 18 1 20 16
M  V30 19 1 20 19
M  V30 20 2 21 3
M  V30 21 1 21 16
M  V30 22 1 22 12
M  V30 23 1 23 13
M  V30 24 1 24 4
M  V30 25 1 25 6
M  V30 26 1 25 20
M  V30 27 1 26 1
M  V30 28 1 27 1
M  V30 29 1 4 28 CFG=1
M  V30 30 1 29 6
M  V30 31 1 30 6
M  V30 32 1 10 31 CFG=3
M  V30 33 1 32 11
M  V30 34 1 33 11
M  V30 35 1 34 11
M  V30 36 1 12 35 CFG=1
M  V30 37 1 36 14
M  V30 38 1 37 14
M  V30 39 1 38 15
M  V30 40 1 39 15
M  V30 41 1 40 15
M  V30 42 1 41 16
M  V30 43 1 42 16
M  V30 44 1 17 43 CFG=1
M  V30 45 1 18 44 CFG=1
M  V30 46 1 20 45 CFG=3
M  V30 47 1 46 21
M  V30 48 1 47 22
M  V30 49 1 48 22
M  V30 50 1 49 22
M  V30 51 1 50 23
M  V30 52 1 51 23
M  V30 53 1 52 23
M  V30 54 1 53 24
M  V30 55 1 54 24
M  V30 56 1 55 24
M  V30 57 1 56 25
M  V30 58 1 57 25
M  V30 59 1 5 58 CFG=3
M  V30 END BOND
M  V30 END CTAB
M  END
>  <i_epik_Tot_Q>  (1) 
0

>  <i_epik_Tot_abs_Q>  (1) 
2

>  <i_i_glide_confnum>  (1) 
31

>  <i_i_glide_lignum>  (1) 
116

>  <i_i_glide_posenum>  (1) 
162

>  <i_i_glide_rotatable_bonds>  (1) 
6

>  <i_lp_mmshare_version>  (1) 
72125

>  <i_m_source_file_index>  (1) 
45

>  <i_f3d_flags>  (1) 
0

>  <num_sample>  (1) 
100

>  <b_lp_Chiralities_Consistent>  (1) 
1

>  <r_epik_Charging_Adjusted_Penalty>  (1) 
0.41733257654759531

>  <r_epik_Ionization_Penalty>  (1) 
0.0069177268181324029

>  <r_epik_Ionization_Penalty_Charging>  (1) 
0.0066527375949913311

>  <r_epik_Ionization_Penalty_Neutral>  (1) 
0.00026498922314107146

>  <r_epik_State_Penalty>  (1) 
0.41067983895260396

>  <r_glide_ring_energy>  (1) 
0

>  <r_i_docking_score>  (1) 
-6.6548353496230552

>  <r_i_glide_ecoul>  (1) 
0.33452914236841735

>  <r_i_glide_eff_state_penalty>  (1) 
0.41067983895260396

>  <r_i_glide_einternal>  (1) 
9.9629854990685054

>  <r_i_glide_emodel>  (1) 
-46.483100305804903

>  <r_i_glide_emodel_strain>  (1) 
1.9088595758339366

>  <r_i_glide_energy>  (1) 
-35.464736824964412

>  <r_i_glide_erotb>  (1) 
0.61440649929112812

>  <r_i_glide_esite>  (1) 
0

>  <r_i_glide_evdw>  (1) 
-35.799265967332829

>  <r_i_glide_gscore>  (1) 
-7.0655151885756595

>  <r_i_glide_gscore_strain>  (1) 
0

>  <r_i_glide_hbond>  (1) 
0

>  <r_i_glide_ligand_efficiency>  (1) 
-0.26619341398492219

>  <r_i_glide_ligand_efficiency_ln>  (1) 
-1.5773954071831338

>  <r_i_glide_ligand_efficiency_sa>  (1) 
-0.77835426428735344

>  <r_i_glide_lipo>  (1) 
-3.2976561282195158

>  <r_i_glide_metal>  (1) 
-0

>  <r_i_glide_rewards>  (1) 
-2.6424816326358931

>  <r_lp_Energy>  (1) 
7.1252040000000001

>  <r_lp_tautomer_probability>  (1) 
0.49999399997599986

>  <s_epik_Chemistry_Notes>  (1) 
This compound has an imine and may undergo hydrolysis. This compound contains an acetal/aminal-like group ( X-CH(R)-Y where X, Y are N, S, or O) that may be acid/base labile, releasing an aldehyde.

>  <s_epik_cmdline>  (1) 
J2VwaWtfcHl0aG9uJywgJy1waHQnLCAnMS4wJywgJy1waCcsICc3LjQnLCAnLXRuJywgJzgnLCAnLW1hJywgJzUwMCcsICctaW1hZScsICc8aW5maWxlLm1hZT4nLCAnLW9tYWUnLCAnPG91dGZpbGUubWFlPic=

>  <s_epik_input>  (1) 
W0NIM11bQ0BIXTFbQ0gyXVtDSDJdTihbQ0BASF0xW0NIM10pW0NAQEhdKFtPSF0pW0NAQEhdKFtDSDNdKVxDKFtDSDNdKT1OXFtDQEBIXShPW0NIM10pQzI9Qz1bQ0hdW0NIMl1bQ0BASF0oRilbQ0gyXVtDSDJdMg==

>  <s_glide_docking_method>  (1) 
confgen

>  <s_i_glide_gridfile>  (1) 
gpcr_5ht2c_6bqh_protein_autoprepared_prepared

>  <s_lp_Force_Field>  (1) 
S-OPLS

>  <s_lp_Variant>  (1) 
DiffSBDD_44_num_sample_100-9

>  <s_m_source_file>  (1) 
generated__ligand_DiffSBDD_2026-05-06_prepared.sdf

>  <GenAI_Model>  (1) 
DiffSBDD

>  <Protein>  (1) 
GPCR_5HT2C

$$$$
DiffSBDD_62_num_sample_100
     RDKit          3D

  0  0  0  0  0  0  0  0  0  0999 V3000
M  V30 BEGIN CTAB
M  V30 COUNTS 81 82 0 0 1
M  V30 BEGIN ATOM
M  V30 1 O 36.667164 39.751051 61.453467 0
M  V30 2 O 39.193079 30.180271 53.065661 0
M  V30 3 C 41.697284 35.423961 60.928741 0
M  V30 4 C 38.299918 26.983885 54.932272 0
M  V30 5 C 37.229979 35.612212 61.405571 0
M  V30 6 C 36.436014 37.621648 62.531010 0
M  V30 7 C 39.095887 29.747075 55.394516 0
M  V30 8 C 36.861509 38.402055 61.445750 0
M  V30 9 C 38.291969 31.250463 58.603141 0
M  V30 10 C 41.391470 34.101337 61.625416 0
M  V30 11 F 35.812136 38.201057 63.575302 0
M  V30 12 C 36.629955 36.234769 62.517663 0
M  V30 13 C 39.972018 33.277591 63.453658 0 CFG=2
M  V30 14 C 39.071913 27.349437 56.221973 0 CFG=1
M  V30 15 C 38.812502 33.479522 61.160870 0 CFG=1
M  V30 16 C 37.390475 34.091676 61.368666 0
M  V30 17 C 40.475550 31.816340 63.378789 0
M  V30 18 O 38.666921 27.221413 51.431689 0
M  V30 19 N 37.542063 30.677899 57.660300 0
M  V30 20 C 37.467501 37.788648 60.337061 0
M  V30 21 O 39.122265 25.043462 56.976891 0
M  V30 22 C 39.212777 33.430237 59.683692 0
M  V30 23 C 38.894229 28.853679 56.605694 0 CFG=2
M  V30 24 C 38.983225 29.316589 54.115303 0
M  V30 25 C 37.590763 29.261841 57.355946 0
M  V30 26 C 39.940025 34.036076 62.123472 0 CFG=2
M  V30 27 C 40.669614 34.015504 64.653827 0
M  V30 28 C 40.794340 35.572264 64.684142 0
M  V30 29 C 38.625516 27.508932 52.571076 0
M  V30 30 C 39.527865 36.416353 64.930353 0
M  V30 31 C 39.466234 31.534763 53.318207 0
M  V30 32 C 38.645149 27.949884 53.807841 0
M  V30 33 C 38.849246 26.366397 57.394549 0 CFG=1
M  V30 34 C 39.787514 26.652403 58.574278 0
M  V30 35 O 39.023070 30.609940 59.362040 0
M  V30 36 C 37.643366 36.394998 60.313497 0
M  V30 37 C 38.230235 32.779423 58.678762 0
M  V30 38 H 36.385209 40.032087 60.586621 0
M  V30 39 H 42.610442 35.319924 60.340529 0
M  V30 40 H 40.896544 35.722528 60.256419 0
M  V30 41 H 41.838727 36.234285 61.641862 0
M  V30 42 H 37.224177 27.011148 55.101663 0
M  V30 43 H 38.543292 25.966048 54.619919 0
M  V30 44 H 39.349798 30.772519 55.605370 0
M  V30 45 H 42.084118 34.024527 62.460984 0
M  V30 46 H 41.650632 33.216005 61.053559 0
M  V30 47 H 36.267436 35.645008 63.344990 0
M  V30 48 H 38.925582 33.177111 63.605682 0
M  V30 49 H 40.126192 27.244158 55.952567 0
M  V30 50 H 38.673016 32.427285 61.393590 0
M  V30 51 H 36.956701 33.649338 62.253431 0
M  V30 52 H 36.686361 33.737918 60.625430 0
M  V30 53 H 41.550080 31.762915 63.204817 0
M  V30 54 H 40.274773 31.298062 64.317705 0
M  V30 55 H 39.991726 31.237426 62.595000 0
M  V30 56 H 36.917418 31.260029 57.097880 0
M  V30 57 H 37.788418 38.387364 59.496846 0
M  V30 58 H 38.553929 24.836000 56.251101 0
M  V30 59 H 39.498019 34.414938 59.354830 0
M  V30 60 H 40.126575 32.864226 59.641956 0
M  V30 61 H 39.732267 29.088580 57.263332 0
M  V30 62 H 37.385049 28.662616 58.244421 0
M  V30 63 H 36.740903 29.221424 56.685756 0
M  V30 64 H 39.649440 35.061016 62.343923 0
M  V30 65 H 40.267475 33.652482 65.600937 0
M  V30 66 H 41.700389 33.661869 64.677971 0
M  V30 67 H 41.495343 35.822580 65.481411 0
M  V30 68 H 41.281428 35.931770 63.780815 0
M  V30 69 H 39.770203 37.478441 64.934004 0
M  V30 70 H 38.783895 36.256078 64.153905 0
M  V30 71 H 39.075961 36.175189 65.893255 0
M  V30 72 H 39.553228 32.021379 52.349559 0
M  V30 73 H 38.663638 32.024102 53.873370 0
M  V30 74 H 40.411226 31.621189 53.850929 0
M  V30 75 H 37.813263 26.399771 57.729083 0
M  V30 76 H 39.541902 27.589375 59.074341 0
M  V30 77 H 39.719185 25.862607 59.313385 0
M  V30 78 H 40.828512 26.705544 58.252596 0
M  V30 79 H 38.080511 35.929297 59.456178 0
M  V30 80 H 37.198058 33.107424 58.766283 0
M  V30 81 H 38.524735 33.131941 57.690093 0
M  V30 END ATOM
M  V30 BEGIN BOND
M  V30 1 1 8 1
M  V30 2 2 8 6
M  V30 3 1 10 3
M  V30 4 1 11 6
M  V30 5 2 12 5
M  V30 6 1 12 6
M  V30 7 1 14 4
M  V30 8 1 16 5
M  V30 9 1 16 15
M  V30 10 1 17 13
M  V30 11 1 19 9
M  V30 12 1 20 8
M  V30 13 1 22 15
M  V30 14 1 23 7
M  V30 15 1 23 14
M  V30 16 1 24 2
M  V30 17 2 24 7
M  V30 18 1 25 19
M  V30 19 1 25 23
M  V30 20 1 26 10
M  V30 21 1 26 13
M  V30 22 1 26 15
M  V30 23 1 27 13
M  V30 24 1 28 27
M  V30 25 2 29 18
M  V30 26 1 30 28
M  V30 27 1 31 2
M  V30 28 1 32 4
M  V30 29 1 32 24
M  V30 30 2 32 29
M  V30 31 1 33 14
M  V30 32 1 33 21
M  V30 33 1 34 33
M  V30 34 2 35 9
M  V30 35 1 36 5
M  V30 36 2 36 20
M  V30 37 1 37 9
M  V30 38 1 37 22
M  V30 39 1 38 1
M  V30 40 1 39 3
M  V30 41 1 40 3
M  V30 42 1 41 3
M  V30 43 1 42 4
M  V30 44 1 43 4
M  V30 45 1 44 7
M  V30 46 1 45 10
M  V30 47 1 46 10
M  V30 48 1 47 12
M  V30 49 1 13 48 CFG=1
M  V30 50 1 14 49 CFG=3
M  V30 51 1 15 50 CFG=1
M  V30 52 1 51 16
M  V30 53 1 52 16
M  V30 54 1 53 17
M  V30 55 1 54 17
M  V30 56 1 55 17
M  V30 57 1 56 19
M  V30 58 1 57 20
M  V30 59 1 58 21
M  V30 60 1 59 22
M  V30 61 1 60 22
M  V30 62 1 23 61 CFG=1
M  V30 63 1 62 25
M  V30 64 1 63 25
M  V30 65 1 26 64 CFG=1
M  V30 66 1 65 27
M  V30 67 1 66 27
M  V30 68 1 67 28
M  V30 69 1 68 28
M  V30 70 1 69 30
M  V30 71 1 70 30
M  V30 72 1 71 30
M  V30 73 1 72 31
M  V30 74 1 73 31
M  V30 75 1 74 31
M  V30 76 1 33 75 CFG=1
M  V30 77 1 76 34
M  V30 78 1 77 34
M  V30 79 1 78 34
M  V30 80 1 79 36
M  V30 81 1 80 37
M  V30 82 1 81 37
M  V30 END BOND
M  V30 END CTAB
M  END
>  <i_epik_Tot_Q>  (1) 
0

>  <i_epik_Tot_abs_Q>  (1) 
0

>  <i_i_glide_confnum>  (1) 
1723

>  <i_i_glide_lignum>  (1) 
157

>  <i_i_glide_posenum>  (1) 
298

>  <i_i_glide_rotatable_bonds>  (1) 
17

>  <i_lp_mmshare_version>  (1) 
72125

>  <i_m_source_file_index>  (1) 
63

>  <i_f3d_flags>  (1) 
0

>  <num_sample>  (1) 
100

>  <b_lp_Chiralities_Consistent>  (1) 
1

>  <r_epik_Charging_Adjusted_Penalty>  (1) 
0.018006221857045448

>  <r_epik_Ionization_Penalty>  (1) 
0.018006279539151737

>  <r_epik_Ionization_Penalty_Charging>  (1) 
0

>  <r_epik_Ionization_Penalty_Neutral>  (1) 
0.018006279539151737

>  <r_epik_State_Penalty>  (1) 
0.018006221857045448

>  <r_glide_ring_energy>  (1) 
0

>  <r_i_docking_score>  (1) 
-6.6540268226999926

>  <r_i_glide_ecoul>  (1) 
-8.8636292877628016

>  <r_i_glide_eff_state_penalty>  (1) 
0.018006221857045448

>  <r_i_glide_einternal>  (1) 
5.6178039814723029

>  <r_i_glide_emodel>  (1) 
-39.707673834893043

>  <r_i_glide_emodel_strain>  (1) 
4.7329434244956516

>  <r_i_glide_energy>  (1) 
-28.296255208421702

>  <r_i_glide_erotb>  (1) 
0.91941413916602621

>  <r_i_glide_esite>  (1) 
-0.15212368293164596

>  <r_i_glide_evdw>  (1) 
-19.4326259206589

>  <r_i_glide_gscore>  (1) 
-6.6720330445570379

>  <r_i_glide_gscore_strain>  (1) 
0.18323585612391291

>  <r_i_glide_hbond>  (1) 
-0.44590075238008281

>  <r_i_glide_ligand_efficiency>  (1) 
-0.17983856277567548

>  <r_i_glide_ligand_efficiency_ln>  (1) 
-1.4431024253225333

>  <r_i_glide_ligand_efficiency_sa>  (1) 
-0.59926198864970837

>  <r_i_glide_lipo>  (1) 
-3.9849942742437325

>  <r_i_glide_metal>  (1) 
-0

>  <r_i_glide_rewards>  (1) 
-0.89048864109414949

>  <r_lp_Energy>  (1) 
35.726849999999999

>  <r_lp_tautomer_probability>  (1) 
0.99999999999736477

>  <s_epik_cmdline>  (1) 
J2VwaWtfcHl0aG9uJywgJy1waHQnLCAnMS4wJywgJy1waCcsICc3LjQnLCAnLXRuJywgJzgnLCAnLW1hJywgJzUwMCcsICctaW1hZScsICc8aW5maWxlLm1hZT4nLCAnLW9tYWUnLCAnPG91dGZpbGUubWFlPic=

>  <s_epik_input>  (1) 
W2NIXTFbY0hdYyhbT0hdKWMoRilbY0hdYzFbQ0gyXVtDQEhdKFtDQEhdKFtDSDJdW0NIM10pW0NAQEhdKFtDSDNdKVtDSDJdW0NIMl1bQ0gzXSlbQ0gyXVtDSDJdQyg9TylbTkhdW0NIMl1bQ0BASF0yW0NIXT1DKE9bQ0gzXSlDKD1DPU8pW0NIMl1bQ0BASF0yW0NAQEhdKFtPSF0pW0NIM10=

>  <s_glide_docking_method>  (1) 
confgen

>  <s_i_glide_gridfile>  (1) 
gpcr_5ht2c_6bqh_protein_autoprepared_prepared

>  <s_lp_Force_Field>  (1) 
S-OPLS

>  <s_lp_Variant>  (1) 
DiffSBDD_62_num_sample_100-1

>  <s_m_source_file>  (1) 
generated__ligand_DiffSBDD_2026-05-06_prepared.sdf

>  <GenAI_Model>  (1) 
DiffSBDD

>  <Protein>  (1) 
GPCR_5HT2C

$$$$
DiffSBDD_77_num_sample_100
     RDKit          3D

  0  0  0  0  0  0  0  0  0  0999 V3000
M  V30 BEGIN CTAB
M  V30 COUNTS 77 79 0 0 1
M  V30 BEGIN ATOM
M  V30 1 C 40.975205 29.838154 65.756158 0
M  V30 2 F 43.932364 28.935599 63.770640 0
M  V30 3 C 40.603595 27.777095 57.013078 0
M  V30 4 C 40.592495 31.036241 65.120911 0
M  V30 5 C 39.568583 30.751001 53.215751 0
M  V30 6 C 39.178460 31.401048 61.988579 0
M  V30 7 C 37.501721 30.039360 58.157881 0
M  V30 8 C 38.537393 31.862900 59.554538 0 CFG=2
M  V30 9 O 38.747370 31.197786 55.708274 0
M  V30 10 C 40.016283 30.940375 51.744891 0
M  V30 11 N 39.713730 36.488356 61.942653 0
M  V30 12 C 40.918758 32.812190 63.327687 0
M  V30 13 C 42.846268 29.615337 64.207917 0
M  V30 14 O 40.246799 28.156627 60.050132 0
M  V30 15 C 39.217782 27.760880 59.170387 0
M  V30 16 C 41.333461 31.522433 64.023077 0
M  V30 17 F 42.469474 27.974585 65.909134 0
M  V30 18 C 39.839149 33.886726 60.461158 0
M  V30 19 O 39.467286 38.689700 61.453503 0
M  V30 20 O 36.937825 32.170699 61.390053 0
M  V30 21 C 42.101511 29.126915 65.298747 0
M  V30 22 C 39.637994 28.485888 51.382947 0
M  V30 23 N 39.171854 29.050952 55.052524 0
M  V30 24 C 39.146867 35.260245 62.497732 0
M  V30 25 C 42.462091 30.811386 63.570781 0
M  V30 26 C 39.434696 28.391172 57.797608 0
M  V30 27 C 39.002540 37.621434 61.853480 0
M  V30 28 C 39.432047 28.240274 52.796225 0
M  V30 29 C 38.826426 33.374839 59.433346 0
M  V30 30 F 39.562243 27.452595 50.534172 0
M  V30 31 C 39.250762 26.819527 53.297224 0
M  V30 32 C 39.514127 32.761024 62.658841 0 CFG=1
M  V30 33 C 38.874567 30.006579 55.978835 0
M  V30 34 N 37.664558 31.459417 58.464356 0
M  V30 35 C 38.644947 29.430488 57.330599 0
M  V30 36 C 39.390319 29.284677 53.656481 0
M  V30 37 C 39.892794 29.703314 50.890170 0
M  V30 38 C 38.038082 31.399040 60.946036 0 CFG=2
M  V30 39 N 39.214016 33.942027 61.796886 0 CFG=2 CHG=1
M  V30 40 H 40.403444 29.464440 66.593570 0
M  V30 41 H 41.342695 27.385329 57.712805 0
M  V30 42 H 40.269145 26.925137 56.422925 0
M  V30 43 H 41.160503 28.475558 56.390270 0
M  V30 44 H 39.731252 31.578644 65.474342 0
M  V30 45 H 38.634968 31.293261 53.346036 0
M  V30 46 H 40.321641 31.228856 53.842671 0
M  V30 47 H 40.074664 30.978743 61.532480 0
M  V30 48 H 38.911142 30.696704 62.777932 0
M  V30 49 H 36.633156 29.952420 57.504301 0
M  V30 50 H 37.198136 29.481389 59.033656 0
M  V30 51 H 39.467396 31.332367 59.395692 0
M  V30 52 H 41.067302 31.221721 51.713952 0
M  V30 53 H 39.467461 31.754499 51.275203 0
M  V30 54 H 40.686284 36.489965 61.669055 0
M  V30 55 H 41.677271 33.058032 62.584477 0
M  V30 56 H 40.969496 33.608184 64.070391 0
M  V30 57 H 40.277834 29.098836 60.070020 0
M  V30 58 H 39.256159 26.677379 59.053955 0
M  V30 59 H 38.267405 27.961736 59.645178 0
M  V30 60 H 40.667396 33.189593 60.507898 0
M  V30 61 H 40.239793 34.845879 60.137254 0
M  V30 62 H 36.254703 32.105376 60.735117 0
M  V30 63 H 39.172992 28.087361 55.349983 0
M  V30 64 H 38.083793 35.425944 62.653512 0
M  V30 65 H 39.567887 35.186105 63.496461 0
M  V30 66 H 43.035229 31.182837 62.735127 0
M  V30 67 H 37.963272 37.472447 62.184351 0
M  V30 68 H 39.231343 33.564269 58.437046 0
M  V30 69 H 37.905098 33.956086 59.491583 0
M  V30 70 H 39.712496 26.125057 52.596242 0
M  V30 71 H 39.741722 26.647558 54.252000 0
M  V30 72 H 38.192294 26.575398 53.386720 0
M  V30 73 H 38.789784 32.821744 63.453453 0
M  V30 74 H 36.768016 31.946803 58.421485 0
M  V30 75 H 40.036190 29.831743 49.826805 0
M  V30 76 H 37.695454 30.369773 60.879433 0
M  V30 77 H 38.241403 33.763606 61.571444 0
M  V30 END ATOM
M  V30 BEGIN BOND
M  V30 1 2 4 1
M  V30 2 1 10 5
M  V30 3 1 13 2
M  V30 4 1 15 14
M  V30 5 1 16 4
M  V30 6 1 16 12
M  V30 7 1 21 1
M  V30 8 2 21 13
M  V30 9 1 21 17
M  V30 10 1 24 11
M  V30 11 1 25 13
M  V30 12 2 25 16
M  V30 13 1 26 3
M  V30 14 1 26 15
M  V30 15 1 27 11
M  V30 16 2 27 19
M  V30 17 1 28 22
M  V30 18 1 29 8
M  V30 19 1 29 18
M  V30 20 1 30 22
M  V30 21 1 31 28
M  V30 22 1 32 6
M  V30 23 1 32 12
M  V30 24 2 33 9
M  V30 25 1 33 23
M  V30 26 1 34 7
M  V30 27 1 34 8
M  V30 28 1 35 7
M  V30 29 2 35 26
M  V30 30 1 35 33
M  V30 31 1 36 5
M  V30 32 1 36 23
M  V30 33 2 36 28
M  V30 34 1 37 10
M  V30 35 2 37 22
M  V30 36 1 38 6
M  V30 37 1 38 8
M  V30 38 1 38 20
M  V30 39 1 39 18
M  V30 40 1 39 24
M  V30 41 1 39 32
M  V30 42 1 40 1
M  V30 43 1 41 3
M  V30 44 1 42 3
M  V30 45 1 43 3
M  V30 46 1 44 4
M  V30 47 1 45 5
M  V30 48 1 46 5
M  V30 49 1 47 6
M  V30 50 1 48 6
M  V30 51 1 49 7
M  V30 52 1 50 7
M  V30 53 1 8 51 CFG=3
M  V30 54 1 52 10
M  V30 55 1 53 10
M  V30 56 1 54 11
M  V30 57 1 55 12
M  V30 58 1 56 12
M  V30 59 1 57 14
M  V30 60 1 58 15
M  V30 61 1 59 15
M  V30 62 1 60 18
M  V30 63 1 61 18
M  V30 64 1 62 20
M  V30 65 1 63 23
M  V30 66 1 64 24
M  V30 67 1 65 24
M  V30 68 1 66 25
M  V30 69 1 67 27
M  V30 70 1 68 29
M  V30 71 1 69 29
M  V30 72 1 70 31
M  V30 73 1 71 31
M  V30 74 1 72 31
M  V30 75 1 32 73 CFG=1
M  V30 76 1 74 34
M  V30 77 1 75 37
M  V30 78 1 38 76 CFG=3
M  V30 79 1 39 77 CFG=3
M  V30 END BOND
M  V30 END CTAB
M  END
>  <i_epik_Tot_Q>  (1) 
1

>  <i_epik_Tot_abs_Q>  (1) 
1

>  <i_i_glide_confnum>  (1) 
9666

>  <i_i_glide_lignum>  (1) 
197

>  <i_i_glide_posenum>  (1) 
110

>  <i_i_glide_rotatable_bonds>  (1) 
14

>  <i_lp_mmshare_version>  (1) 
72125

>  <i_m_source_file_index>  (1) 
78

>  <i_f3d_flags>  (1) 
0

>  <num_sample>  (1) 
100

>  <b_lp_Chiralities_Consistent>  (1) 
1

>  <r_epik_Charging_Adjusted_Penalty>  (1) 
1.2599673287133732

>  <r_epik_Ionization_Penalty>  (1) 
0.56885031527891383

>  <r_epik_Ionization_Penalty_Charging>  (1) 
0.52000942162343

>  <r_epik_Ionization_Penalty_Neutral>  (1) 
0.048840893655483872

>  <r_epik_State_Penalty>  (1) 
0.73995790708994325

>  <r_glide_ring_energy>  (1) 
0

>  <r_i_docking_score>  (1) 
-6.6520500533778666

>  <r_i_glide_ecoul>  (1) 
-1.8254707463023956

>  <r_i_glide_eff_state_penalty>  (1) 
0.73995790708994325

>  <r_i_glide_einternal>  (1) 
34.44855412801131

>  <r_i_glide_emodel>  (1) 
-47.854181413761829

>  <r_i_glide_emodel_strain>  (1) 
3.0642931713830421

>  <r_i_glide_energy>  (1) 
-42.41861905813635

>  <r_i_glide_erotb>  (1) 
0.67934156738045093

>  <r_i_glide_esite>  (1) 
0

>  <r_i_glide_evdw>  (1) 
-40.593148311833957

>  <r_i_glide_gscore>  (1) 
-7.3920079604678097

>  <r_i_glide_gscore_strain>  (1) 
0

>  <r_i_glide_hbond>  (1) 
-0.14471637788308214

>  <r_i_glide_ligand_efficiency>  (1) 
-0.17056538598404786

>  <r_i_glide_ligand_efficiency_ln>  (1) 
-1.4263883611141914

>  <r_i_glide_ligand_efficiency_sa>  (1) 
-0.57842328873123139

>  <r_i_glide_lipo>  (1) 
-3.8501746771064838

>  <r_i_glide_metal>  (1) 
-0

>  <r_i_glide_rewards>  (1) 
-1.772980445321638

>  <r_lp_Energy>  (1) 
45.825868999999997

>  <s_epik_Chemistry_Notes>  (1) 
This compound contains an acetal/aminal-like group ( X-CH(R)-Y where X, Y are N, S, or O) that may be acid/base labile, releasing an aldehyde.

>  <s_epik_cmdline>  (1) 
J2VwaWtfcHl0aG9uJywgJy1waHQnLCAnMS4wJywgJy1waCcsICc3LjQnLCAnLXRuJywgJzgnLCAnLW1hJywgJzUwMCcsICctaW1hZScsICc8aW5maWxlLm1hZT4nLCAnLW9tYWUnLCAnPG91dGZpbGUubWFlPic=

>  <s_epik_input>  (1) 
RmMxYyhGKVtjSF1bY0hdYyhbY0hdMSlbQ0gyXVtDQEhdKFtDSDJdW0NASF0yW09IXSlOKFtDSDJdW05IXVtDSF09TylbQ0gyXVtDSDJdW0NAQEhdMltOSF1bQ0gyXVxDKD1DKFxbQ0gzXSlbQ0gyXVtPSF0pQyg9TylbTkhdQyg9QzNbQ0gzXSlbQ0gyXVtDSDJdW0NIXT1DM0Y=

>  <s_glide_docking_method>  (1) 
confgen

>  <s_i_glide_gridfile>  (1) 
gpcr_5ht2c_6bqh_protein_autoprepared_prepared

>  <s_lp_Force_Field>  (1) 
S-OPLS

>  <s_lp_Variant>  (1) 
DiffSBDD_77_num_sample_100-8

>  <s_m_source_file>  (1) 
generated__ligand_DiffSBDD_2026-05-06_prepared.sdf

>  <GenAI_Model>  (1) 
DiffSBDD

>  <Protein>  (1) 
GPCR_5HT2C

$$$$
DiffSBDD_32_num_sample_100
     RDKit          3D

  0  0  0  0  0  0  0  0  0  0999 V3000
M  V30 BEGIN CTAB
M  V30 COUNTS 84 87 0 0 1
M  V30 BEGIN ATOM
M  V30 1 C 39.067400 31.030030 58.385505 0 CFG=2
M  V30 2 O 40.425604 29.906663 62.065389 0 CHG=-1
M  V30 3 O 41.103994 30.421392 50.261120 0
M  V30 4 C 38.405935 28.026728 51.448143 0
M  V30 5 C 41.843494 27.097590 58.041978 0
M  V30 6 C 35.445074 32.477798 59.879574 0
M  V30 7 O 39.081942 28.587380 58.083800 0
M  V30 8 C 35.654637 34.920430 59.453517 0
M  V30 9 C 38.754737 28.958396 55.060692 0 CFG=1
M  V30 10 C 36.508462 29.751070 59.572212 0
M  V30 11 C 39.693473 28.862103 51.427930 0 CFG=2
M  V30 12 C 37.180298 33.192242 61.481900 0
M  V30 13 C 37.865915 31.214633 56.150686 0
M  V30 14 C 36.753750 35.287668 60.113694 0
M  V30 15 O 37.376494 36.412645 59.740090 0
M  V30 16 C 37.297829 34.535277 61.244054 0
M  V30 17 C 38.930698 26.261724 57.933770 0
M  V30 18 C 39.273742 30.402807 62.068015 0
M  V30 19 O 38.667624 30.821424 63.053515 0
M  V30 20 C 38.560299 30.505420 60.729385 0 CFG=2
M  V30 21 O 33.619617 33.716287 59.053492 0
M  V30 22 C 37.615658 30.014356 55.199035 0
M  V30 23 C 36.502476 32.176263 60.645533 0
M  V30 24 C 34.784227 33.784860 59.836280 0 CFG=1
M  V30 25 C 38.541106 27.690788 55.937114 0
M  V30 26 C 39.868712 29.769674 58.040396 0
M  V30 27 N 36.745491 30.021395 58.130654 0 CHG=1
M  V30 28 C 39.634188 29.581246 52.770825 0
M  V30 29 C 38.058149 27.781766 52.914997 0
M  V30 30 C 39.839318 29.801285 50.221866 0
M  V30 31 C 43.321457 27.417182 57.798309 0
M  V30 32 N 39.067660 28.551519 53.669079 0 CFG=2 CHG=1
M  V30 33 C 39.416977 27.525187 57.196377 0 CFG=1
M  V30 34 C 39.259127 31.482918 59.849664 0
M  V30 35 C 40.929726 27.391501 56.840484 0
M  V30 36 C 37.026788 30.729725 60.666804 0 CFG=1
M  V30 37 C 37.700593 31.083333 57.713276 0 CFG=1
M  V30 38 H 39.467446 31.890916 57.867120 0
M  V30 39 H 41.125991 31.132804 49.635394 0
M  V30 40 H 38.485552 27.107399 50.866845 0
M  V30 41 H 37.590292 28.604733 51.053532 0
M  V30 42 H 41.512431 27.622634 58.935703 0
M  V30 43 H 41.747266 26.036255 58.253537 0
M  V30 44 H 34.984065 31.706557 59.286902 0
M  V30 45 H 35.308230 35.529367 58.636544 0
M  V30 46 H 39.690996 29.442917 55.290417 0
M  V30 47 H 37.023776 28.821447 59.727478 0
M  V30 48 H 35.467463 29.515489 59.710830 0
M  V30 49 H 40.539459 28.172810 51.434751 0
M  V30 50 H 37.706917 32.824862 62.342397 0
M  V30 51 H 37.163324 31.982995 55.829413 0
M  V30 52 H 38.821834 31.665668 55.884354 0
M  V30 53 H 38.119817 36.534126 60.312054 0
M  V30 54 H 37.907128 35.090445 61.943713 0
M  V30 55 H 39.121892 25.362092 57.349219 0
M  V30 56 H 39.421660 26.139473 58.897942 0
M  V30 57 H 37.858886 26.302578 58.131145 0
M  V30 58 H 38.802324 29.503313 60.387260 0
M  V30 59 H 33.051816 34.430488 59.304887 0
M  V30 60 H 36.663909 29.554814 55.429196 0
M  V30 61 H 37.432204 30.465078 54.226115 0
M  V30 62 H 34.450408 33.976603 60.854726 0
M  V30 63 H 37.493999 27.629044 56.229091 0
M  V30 64 H 38.700782 26.789534 55.345516 0
M  V30 65 H 40.723084 29.624606 58.700306 0
M  V30 66 H 40.267364 29.982530 57.070892 0
M  V30 67 H 37.040085 29.155697 57.706130 0
M  V30 68 H 38.983157 30.444135 52.704987 0
M  V30 69 H 40.601602 29.970116 53.088813 0
M  V30 70 H 38.114704 26.719225 53.158250 0
M  V30 71 H 37.044930 28.122775 53.136259 0
M  V30 72 H 39.745888 29.242328 49.289537 0
M  V30 73 H 39.067469 30.571314 50.231213 0
M  V30 74 H 43.921946 27.160749 58.662582 0
M  V30 75 H 43.728373 26.821824 56.988763 0
M  V30 76 H 43.480790 28.473615 57.573610 0
M  V30 77 H 40.278054 31.571159 60.253501 0
M  V30 78 H 38.922777 32.509110 59.921660 0
M  V30 79 H 41.052050 26.576100 56.127821 0
M  V30 80 H 41.301051 28.265570 56.311071 0
M  V30 81 H 36.619241 30.421432 61.612644 0
M  V30 82 H 37.274279 32.032607 58.034802 0
M  V30 83 H 39.829681 27.896405 53.770900 0
M  V30 84 H 35.868935 30.332884 57.711777 0
M  V30 END ATOM
M  V30 BEGIN BOND
M  V30 1 1 11 4
M  V30 2 2 14 8
M  V30 3 1 15 14
M  V30 4 2 16 12
M  V30 5 1 16 14
M  V30 6 1 18 2
M  V30 7 2 19 18
M  V30 8 1 20 18
M  V30 9 1 22 9
M  V30 10 1 22 13
M  V30 11 2 23 6
M  V30 12 1 23 12
M  V30 13 1 24 6
M  V30 14 1 24 8
M  V30 15 1 24 21
M  V30 16 1 25 9
M  V30 17 1 26 1
M  V30 18 1 26 7
M  V30 19 1 27 10
M  V30 20 1 28 11
M  V30 21 1 29 4
M  V30 22 1 30 3
M  V30 23 1 30 11
M  V30 24 1 31 5
M  V30 25 1 32 9
M  V30 26 1 32 28
M  V30 27 1 32 29
M  V30 28 1 33 7
M  V30 29 1 33 17 CFG=1
M  V30 30 1 33 25
M  V30 31 1 34 1
M  V30 32 1 34 20
M  V30 33 1 35 5
M  V30 34 1 35 33
M  V30 35 1 36 10
M  V30 36 1 36 20
M  V30 37 1 36 23
M  V30 38 1 37 1
M  V30 39 1 37 13
M  V30 40 1 37 27
M  V30 41 1 1 38 CFG=3
M  V30 42 1 39 3
M  V30 43 1 40 4
M  V30 44 1 41 4
M  V30 45 1 42 5
M  V30 46 1 43 5
M  V30 47 1 44 6
M  V30 48 1 45 8
M  V30 49 1 9 46 CFG=1
M  V30 50 1 47 10
M  V30 51 1 48 10
M  V30 52 1 11 49 CFG=1
M  V30 53 1 50 12
M  V30 54 1 51 13
M  V30 55 1 52 13
M  V30 56 1 53 15
M  V30 57 1 54 16
M  V30 58 1 55 17
M  V30 59 1 56 17
M  V30 60 1 57 17
M  V30 61 1 20 58 CFG=3
M  V30 62 1 59 21
M  V30 63 1 60 22
M  V30 64 1 61 22
M  V30 65 1 24 62 CFG=1
M  V30 66 1 63 25
M  V30 67 1 64 25
M  V30 68 1 65 26
M  V30 69 1 66 26
M  V30 70 1 67 27
M  V30 71 1 68 28
M  V30 72 1 69 28
M  V30 73 1 70 29
M  V30 74 1 71 29
M  V30 75 1 72 30
M  V30 76 1 73 30
M  V30 77 1 74 31
M  V30 78 1 75 31
M  V30 79 1 76 31
M  V30 80 1 77 34
M  V30 81 1 78 34
M  V30 82 1 79 35
M  V30 83 1 80 35
M  V30 84 1 36 81 CFG=1
M  V30 85 1 37 82 CFG=1
M  V30 86 1 32 83 CFG=1
M  V30 87 1 84 27
M  V30 END BOND
M  V30 END CTAB
M  END
>  <i_epik_Tot_Q>  (1) 
1

>  <i_epik_Tot_abs_Q>  (1) 
3

>  <i_i_glide_confnum>  (1) 
123

>  <i_i_glide_lignum>  (1) 
87

>  <i_i_glide_posenum>  (1) 
249

>  <i_i_glide_rotatable_bonds>  (1) 
9

>  <i_lp_mmshare_version>  (1) 
72125

>  <i_m_source_file_index>  (1) 
33

>  <i_f3d_flags>  (1) 
0

>  <num_sample>  (1) 
100

>  <b_lp_Chiralities_Consistent>  (1) 
1

>  <r_epik_Charging_Adjusted_Penalty>  (1) 
0.016900800142501185

>  <r_epik_Ionization_Penalty>  (1) 
0.019380071947909534

>  <r_epik_Ionization_Penalty_Charging>  (1) 
0.016900800142501185

>  <r_epik_Ionization_Penalty_Neutral>  (1) 
0.0024792718054083493

>  <r_epik_State_Penalty>  (1) 
-0

>  <r_glide_ring_energy>  (1) 
0

>  <r_i_docking_score>  (1) 
-6.6485900669693825

>  <r_i_glide_ecoul>  (1) 
-5.5769741649595108

>  <r_i_glide_eff_state_penalty>  (1) 
-0

>  <r_i_glide_einternal>  (1) 
10.963097374672644

>  <r_i_glide_emodel>  (1) 
-99.810061351005103

>  <r_i_glide_emodel_strain>  (1) 
3.6424251727318051

>  <r_i_glide_energy>  (1) 
-38.829518803980335

>  <r_i_glide_erotb>  (1) 
0.30428459818937692

>  <r_i_glide_esite>  (1) 
-0.10000000000000001

>  <r_i_glide_evdw>  (1) 
-33.252544639020826

>  <r_i_glide_gscore>  (1) 
-6.6485900669693825

>  <r_i_glide_gscore_strain>  (1) 
0

>  <r_i_glide_hbond>  (1) 
-0.14356655693893527

>  <r_i_glide_ligand_efficiency>  (1) 
-0.17969162343160494

>  <r_i_glide_ligand_efficiency_ln>  (1) 
-1.441923320460202

>  <r_i_glide_ligand_efficiency_sa>  (1) 
-0.59877235415653007

>  <r_i_glide_lipo>  (1) 
-3.244781384063363

>  <r_i_glide_metal>  (1) 
-0

>  <r_i_glide_rewards>  (1) 
-0.96535336746149303

>  <r_lp_Energy>  (1) 
56.582617999999997

>  <r_lp_tautomer_probability>  (1) 
1

>  <s_epik_cmdline>  (1) 
J2VwaWtfcHl0aG9uJywgJy1waHQnLCAnMS4wJywgJy1waCcsICc3LjQnLCAnLXRuJywgJzgnLCAnLW1hJywgJzUwMCcsICctaW1hZScsICc8aW5maWxlLm1hZT4nLCAnLW9tYWUnLCAnPG91dGZpbGUubWFlPic=

>  <s_epik_input>  (1) 
W09IXUMxPVtDSF1bQ0BASF0oW09IXSlbQ0hdPUMoW0NIXT1bQ0hdMSlbQ0BIXShbQ0BASF0oW0NIMl0yKUMoPU8pW09IXSlbQ0gyXVtOSF1bQ0BASF0oW0NAQEhdMjMpW0NIMl1bQ0gyXVtDQEBIXShbQ0gyXVtDQF0oW0NIM10pKE9bQ0gyXTMpW0NIMl1bQ0gyXVtDSDNdKU4oW0NIMl00KVtDSDJdW0NIMl1bQ0BIXTRbQ0gyXVtPSF0=

>  <s_glide_docking_method>  (1) 
confgen

>  <s_i_glide_gridfile>  (1) 
gpcr_5ht2c_6bqh_protein_autoprepared_prepared

>  <s_lp_Force_Field>  (1) 
S-OPLS

>  <s_lp_Variant>  (1) 
DiffSBDD_32_num_sample_100-2

>  <s_m_source_file>  (1) 
generated__ligand_DiffSBDD_2026-05-06_prepared.sdf

>  <GenAI_Model>  (1) 
DiffSBDD

>  <Protein>  (1) 
GPCR_5HT2C

$$$$
DiffSBDD_30_num_sample_100
     RDKit          3D

  0  0  0  0  0  0  0  0  0  0999 V3000
M  V30 BEGIN CTAB
M  V30 COUNTS 70 73 0 0 1
M  V30 BEGIN ATOM
M  V30 1 C 40.941229 31.459192 65.528889 0
M  V30 2 C 40.231327 33.386833 62.740159 0 CFG=2
M  V30 3 O 42.655865 30.348437 64.239640 0
M  V30 4 C 39.402291 28.531974 51.196969 0
M  V30 5 C 39.867381 29.839379 50.994395 0
M  V30 6 N 40.985891 30.235536 61.878630 0
M  V30 7 C 39.654145 30.288329 53.381855 0
M  V30 8 C 40.661529 31.080469 63.028110 0 CFG=1
M  V30 9 O 37.550044 32.819469 61.853718 0
M  V30 10 O 41.856860 34.646786 64.024569 0
M  V30 11 C 38.101164 26.368671 56.165480 0
M  V30 12 C 40.965625 34.670493 63.176219 0
M  V30 13 C 40.542810 35.979662 62.515868 0
M  V30 14 C 36.906444 25.470147 56.368105 0
M  V30 15 C 37.605144 28.864513 55.670905 0 CFG=2
M  V30 16 C 40.897159 28.629310 59.414846 0
M  V30 17 N 41.067145 28.100345 60.789016 0 CHG=1
M  V30 18 C 38.064352 25.002910 55.519197 0
M  V30 19 C 39.169515 29.264547 57.574857 0 CFG=1
M  V30 20 C 39.987304 30.716858 52.082701 0
M  V30 21 C 37.688717 29.121418 57.163343 0
M  V30 22 N 37.867384 27.489181 55.206639 0 CFG=1 CHG=1
M  V30 23 C 39.067500 28.093172 52.492863 0
M  V30 24 C 40.455896 28.873518 61.893378 0
M  V30 25 C 39.200041 28.969842 53.604480 0
M  V30 26 C 39.425684 28.635839 58.960973 0
M  V30 27 C 38.700474 32.754695 61.043109 0
M  V30 28 C 41.260534 30.534586 64.347128 0 CFG=2
M  V30 29 C 38.885816 28.506953 55.007843 0 CFG=1
M  V30 30 O 38.624098 26.821448 52.673125 0
M  V30 31 S 40.212073 28.560038 56.253377 0
M  V30 32 O 41.179166 32.357692 62.815507 0
M  V30 33 O 39.722244 33.613460 61.449959 0
M  V30 34 H 39.867668 31.626077 65.616031 0
M  V30 35 H 41.280234 31.018551 66.467513 0
M  V30 36 H 41.429340 32.428267 65.431414 0
M  V30 37 H 39.425641 33.218130 63.453586 0
M  V30 38 H 43.037187 31.179029 63.995233 0
M  V30 39 H 39.304158 27.860593 50.355745 0
M  V30 40 H 40.125169 30.172882 49.999663 0
M  V30 41 H 40.667201 30.718439 61.044870 0
M  V30 42 H 39.758728 30.969722 54.213879 0
M  V30 43 H 39.575109 31.124221 63.131623 0
M  V30 44 H 37.114316 33.641289 61.675360 0
M  V30 45 H 38.755145 26.521521 57.015611 0
M  V30 46 H 39.463174 36.008577 62.370654 0
M  V30 47 H 40.830140 36.823903 63.142347 0
M  V30 48 H 41.032492 36.088087 61.548384 0
M  V30 49 H 36.786063 25.010478 57.347526 0
M  V30 50 H 35.982356 25.703761 55.853653 0
M  V30 51 H 36.792020 29.302780 55.093139 0
M  V30 52 H 41.486081 27.989002 58.757651 0
M  V30 53 H 41.337178 29.621154 59.331512 0
M  V30 54 H 40.690122 27.163477 60.821225 0
M  V30 55 H 37.886446 24.927218 54.448941 0
M  V30 56 H 38.709752 24.233704 55.938686 0
M  V30 57 H 39.413294 30.327951 57.609006 0
M  V30 58 H 40.339499 31.720316 51.922507 0
M  V30 59 H 37.173732 28.329515 57.708652 0
M  V30 60 H 37.150827 30.042182 57.393847 0
M  V30 61 H 39.367986 28.874246 61.820834 0
M  V30 62 H 40.710752 28.356862 62.817878 0
M  V30 63 H 38.820389 29.191197 59.677288 0
M  V30 64 H 39.050374 27.613036 58.986915 0
M  V30 65 H 38.399047 33.051065 60.036952 0
M  V30 66 H 39.021670 31.719795 60.991772 0
M  V30 67 H 40.805324 29.568904 64.564633 0
M  V30 68 H 38.472085 26.381031 51.847319 0
M  V30 69 H 42.064403 28.021631 60.973074 0
M  V30 70 H 37.485998 27.236480 54.303131 0
M  V30 END ATOM
M  V30 BEGIN BOND
M  V30 1 1 5 4
M  V30 2 1 8 6
M  V30 3 1 12 2
M  V30 4 2 12 10
M  V30 5 1 13 12
M  V30 6 1 14 11
M  V30 7 1 17 16
M  V30 8 1 18 11
M  V30 9 1 18 14
M  V30 10 2 20 5
M  V30 11 1 20 7
M  V30 12 1 21 15
M  V30 13 1 21 19
M  V30 14 1 22 11
M  V30 15 1 22 15
M  V30 16 2 23 4
M  V30 17 1 24 6
M  V30 18 1 24 17
M  V30 19 2 25 7
M  V30 20 1 25 23
M  V30 21 1 26 16
M  V30 22 1 26 19
M  V30 23 1 27 9
M  V30 24 1 28 1
M  V30 25 1 28 3
M  V30 26 1 28 8
M  V30 27 1 29 15
M  V30 28 1 29 22
M  V30 29 1 29 25 CFG=3
M  V30 30 1 30 23
M  V30 31 1 31 19
M  V30 32 1 31 29
M  V30 33 1 32 2
M  V30 34 1 32 8
M  V30 35 1 33 2
M  V30 36 1 33 27
M  V30 37 1 34 1
M  V30 38 1 35 1
M  V30 39 1 36 1
M  V30 40 1 2 37 CFG=1
M  V30 41 1 38 3
M  V30 42 1 39 4
M  V30 43 1 40 5
M  V30 44 1 41 6
M  V30 45 1 42 7
M  V30 46 1 8 43 CFG=1
M  V30 47 1 44 9
M  V30 48 1 45 11
M  V30 49 1 46 13
M  V30 50 1 47 13
M  V30 51 1 48 13
M  V30 52 1 49 14
M  V30 53 1 50 14
M  V30 54 1 15 51 CFG=3
M  V30 55 1 52 16
M  V30 56 1 53 16
M  V30 57 1 54 17
M  V30 58 1 55 18
M  V30 59 1 56 18
M  V30 60 1 19 57 CFG=1
M  V30 61 1 58 20
M  V30 62 1 59 21
M  V30 63 1 60 21
M  V30 64 1 61 24
M  V30 65 1 62 24
M  V30 66 1 63 26
M  V30 67 1 64 26
M  V30 68 1 65 27
M  V30 69 1 66 27
M  V30 70 1 28 67 CFG=1
M  V30 71 1 68 30
M  V30 72 1 69 17
M  V30 73 1 22 70 CFG=3
M  V30 END BOND
M  V30 END CTAB
M  END
>  <i_epik_Tot_Q>  (1) 
2

>  <i_epik_Tot_abs_Q>  (1) 
2

>  <i_i_glide_confnum>  (1) 
4665

>  <i_i_glide_lignum>  (1) 
83

>  <i_i_glide_posenum>  (1) 
366

>  <i_i_glide_rotatable_bonds>  (1) 
17

>  <i_lp_mmshare_version>  (1) 
72125

>  <i_m_source_file_index>  (1) 
31

>  <i_f3d_flags>  (1) 
0

>  <num_sample>  (1) 
100

>  <b_lp_Chiralities_Consistent>  (1) 
1

>  <r_epik_Charging_Adjusted_Penalty>  (1) 
1.979093595035226

>  <r_epik_Ionization_Penalty>  (1) 
0.79989620662071081

>  <r_epik_Ionization_Penalty_Charging>  (1) 
0.66086891892205935

>  <r_epik_Ionization_Penalty_Neutral>  (1) 
0.13902728769865147

>  <r_epik_State_Penalty>  (1) 
1.3182246761131666

>  <r_glide_ring_energy>  (1) 
0

>  <r_i_docking_score>  (1) 
-6.6477271866490444

>  <r_i_glide_ecoul>  (1) 
-7.8369258242900983

>  <r_i_glide_eff_state_penalty>  (1) 
1.3182246761131666

>  <r_i_glide_einternal>  (1) 
17.831718566483381

>  <r_i_glide_emodel>  (1) 
-64.16521458174995

>  <r_i_glide_emodel_strain>  (1) 
3.9074962405155915

>  <r_i_glide_energy>  (1) 
-46.623319189071829

>  <r_i_glide_erotb>  (1) 
1.1283805066766976

>  <r_i_glide_esite>  (1) 
0

>  <r_i_glide_evdw>  (1) 
-38.78639336478173

>  <r_i_glide_gscore>  (1) 
-7.9659518627622115

>  <r_i_glide_gscore_strain>  (1) 
0

>  <r_i_glide_hbond>  (1) 
-0.32000000000000001

>  <r_i_glide_ligand_efficiency>  (1) 
-0.20144627838330437

>  <r_i_glide_ligand_efficiency_ln>  (1) 
-1.4784201062214986

>  <r_i_glide_ligand_efficiency_sa>  (1) 
-0.64614585356434495

>  <r_i_glide_lipo>  (1) 
-3.9828739313921346

>  <r_i_glide_metal>  (1) 
-0

>  <r_i_glide_rewards>  (1) 
-1.6765998961641737

>  <r_lp_Energy>  (1) 
37.245042999999995

>  <r_lp_tautomer_probability>  (1) 
0.99999996999736518

>  <s_epik_Chemistry_Notes>  (1) 
This compound contains an acetal/aminal-like group ( X-CH(R)-Y where X, Y are N, S, or O) that may be acid/base labile, releasing an aldehyde.

>  <s_epik_cmdline>  (1) 
J2VwaWtfcHl0aG9uJywgJy1waHQnLCAnMS4wJywgJy1waCcsICc3LjQnLCAnLXRuJywgJzgnLCAnLW1hJywgJzUwMCcsICctaW1hZScsICc8aW5maWxlLm1hZT4nLCAnLW9tYWUnLCAnPG91dGZpbGUubWFlPic=

>  <s_epik_input>  (1) 
W09IXVtDSDJdT1tDQEBIXShDKD1PKVtDSDNdKU9bQ0BIXShbQ0BIXShbQ0gzXSlbT0hdKVtOSF1bQ0gyXVtOSF1bQ0gyXVtDSDJdW0NAQEhdKFMxKVtDSDJdW0NASF0oTjJbQ0hdM1tDSDJdW0NIMl0zKVtDQEBdMTJjNFtjSF1bY0hdW2NIXVtjSF1jNFtPSF0=

>  <s_glide_docking_method>  (1) 
confgen

>  <s_i_glide_gridfile>  (1) 
gpcr_5ht2c_6bqh_protein_autoprepared_prepared

>  <s_lp_Force_Field>  (1) 
S-OPLS

>  <s_lp_Variant>  (1) 
DiffSBDD_30_num_sample_100-5

>  <s_m_source_file>  (1) 
generated__ligand_DiffSBDD_2026-05-06_prepared.sdf

>  <GenAI_Model>  (1) 
DiffSBDD

>  <Protein>  (1) 
GPCR_5HT2C

$$$$
DiffSBDD_90_num_sample_100
     RDKit          3D

  0  0  0  0  0  0  0  0  0  0999 V3000
M  V30 BEGIN CTAB
M  V30 COUNTS 85 88 0 0 1
M  V30 BEGIN ATOM
M  V30 1 C 39.797444 28.644641 59.120033 0
M  V30 2 O 41.056025 36.022816 62.946780 0
M  V30 3 F 36.667573 23.306267 56.534102 0
M  V30 4 C 38.743730 29.037313 53.030870 0 CFG=1
M  V30 5 C 37.504306 36.342002 61.738887 0 CFG=2
M  V30 6 C 38.113202 34.640799 60.077762 0 CFG=1
M  V30 7 C 39.527853 31.149830 49.931803 0
M  V30 8 C 37.677435 32.137722 60.248985 0
M  V30 9 C 39.711818 29.660073 51.928702 0
M  V30 10 N 39.608977 35.923767 63.056502 0
M  V30 11 C 38.372135 24.844078 57.090317 0
M  V30 12 C 40.343110 30.933305 52.541924 0
M  V30 13 C 37.025263 35.015339 61.092230 0
M  V30 14 C 39.422458 35.153132 60.710006 0
M  V30 15 O 36.349680 38.427405 61.458520 0
M  V30 16 N 38.818874 29.087795 58.121877 0
M  V30 17 C 38.274554 33.187504 59.649438 0
M  V30 18 F 38.266230 23.621439 55.115615 0
M  V30 19 C 37.574411 26.354472 54.677238 0 CFG=2
M  V30 20 N 39.456986 29.023779 56.790023 0 CHG=1
M  V30 21 C 39.155728 26.050290 56.542129 0
M  V30 22 C 38.459519 30.481444 58.404719 0
M  V30 23 O 39.067406 30.021294 50.699769 0
M  V30 24 C 40.670942 28.677625 51.240629 0
M  V30 25 C 39.141246 28.605941 60.499302 0
M  V30 26 C 36.667816 25.222717 55.204751 0
M  V30 27 C 37.870848 30.683417 59.832708 0 CFG=1
M  V30 28 C 39.059137 36.245874 61.740465 0 CFG=1
M  V30 29 C 37.885440 27.863715 52.538758 0
M  V30 30 O 37.467348 37.621357 59.708531 0 CHG=-1
M  V30 31 C 38.652430 28.502133 55.651700 0 CFG=1
M  V30 32 C 38.758109 30.025103 60.906278 0
M  V30 33 O 36.961066 36.445335 63.049897 0
M  V30 34 C 39.462649 28.594007 54.342835 0
M  V30 35 C 38.155025 27.062234 55.920277 0 CFG=1
M  V30 36 C 36.935804 27.267477 53.608920 0
M  V30 37 C 37.485487 24.214636 56.002578 0
M  V30 38 C 37.067539 37.570602 60.894258 0
M  V30 39 H 40.175359 27.649962 58.909082 0
M  V30 40 H 40.665755 29.306059 59.133357 0
M  V30 41 H 41.210998 36.957308 62.977989 0
M  V30 42 H 38.051717 29.832342 53.309301 0
M  V30 43 H 37.867392 35.190718 59.171818 0
M  V30 44 H 39.067391 31.221316 48.951545 0
M  V30 45 H 39.265247 32.076588 50.432706 0
M  V30 46 H 40.602231 31.135996 49.752025 0
M  V30 47 H 37.021732 32.303325 61.086702 0
M  V30 48 H 39.386874 36.647365 63.728648 0
M  V30 49 H 37.748853 25.166071 57.925921 0
M  V30 50 H 39.061079 24.097079 57.487540 0
M  V30 51 H 40.877877 30.808211 53.475703 0
M  V30 52 H 41.067374 31.390805 51.878177 0
M  V30 53 H 39.561554 31.660912 52.749673 0
M  V30 54 H 36.049335 35.102288 60.611578 0
M  V30 55 H 36.933840 34.250197 61.853488 0
M  V30 56 H 40.124105 35.522934 59.964708 0
M  V30 57 H 39.924968 34.323818 61.211461 0
M  V30 58 H 38.926127 33.019141 58.807803 0
M  V30 59 H 38.384645 25.861224 54.140727 0
M  V30 60 H 39.740101 29.969695 56.578868 0
M  V30 61 H 39.740303 26.468855 57.347711 0
M  V30 62 H 39.887065 25.715834 55.803834 0
M  V30 63 H 37.733605 30.825596 57.664207 0
M  V30 64 H 39.360880 31.073768 58.271852 0
M  V30 65 H 41.248256 28.022658 51.853521 0
M  V30 66 H 40.140153 28.011029 50.557048 0
M  V30 67 H 41.395619 29.235574 50.653564 0
M  V30 68 H 38.270014 27.950299 60.474193 0
M  V30 69 H 39.830787 28.189527 61.235346 0
M  V30 70 H 35.879008 25.610631 55.853425 0
M  V30 71 H 36.216625 24.689337 54.370196 0
M  V30 72 H 36.886144 30.214276 59.854828 0
M  V30 73 H 39.491247 37.204856 61.451902 0
M  V30 74 H 37.282681 28.214609 51.703569 0
M  V30 75 H 38.515099 27.071440 52.132906 0
M  V30 76 H 37.788825 29.164621 55.570578 0
M  V30 77 H 39.667501 30.613130 61.040891 0
M  V30 78 H 38.267129 30.022113 61.880464 0
M  V30 79 H 37.290947 35.719312 63.554447 0
M  V30 80 H 40.267405 29.264830 54.582670 0
M  V30 81 H 39.867397 27.606355 54.155911 0
M  V30 82 H 37.364967 27.190027 56.659061 0
M  V30 83 H 36.309945 28.021411 54.071236 0
M  V30 84 H 36.267399 26.636697 53.053500 0
M  V30 85 H 40.277814 28.445705 56.904935 0
M  V30 END ATOM
M  V30 BEGIN BOND
M  V30 1 1 9 4
M  V30 2 1 10 2
M  V30 3 1 12 9
M  V30 4 1 13 5
M  V30 5 1 13 6
M  V30 6 1 14 6
M  V30 7 1 16 1
M  V30 8 1 17 6
M  V30 9 2 17 8
M  V30 10 1 20 16
M  V30 11 1 21 11
M  V30 12 1 22 16
M  V30 13 1 23 7
M  V30 14 1 23 9
M  V30 15 1 24 9
M  V30 16 1 25 1
M  V30 17 1 26 19
M  V30 18 1 27 8
M  V30 19 1 27 22
M  V30 20 1 28 5
M  V30 21 1 28 10
M  V30 22 1 28 14
M  V30 23 1 29 4
M  V30 24 1 31 20
M  V30 25 1 32 25
M  V30 26 1 32 27
M  V30 27 1 5 33 CFG=1
M  V30 28 1 34 4
M  V30 29 1 34 31
M  V30 30 1 35 19
M  V30 31 1 35 21
M  V30 32 1 35 31
M  V30 33 1 36 19
M  V30 34 1 36 29
M  V30 35 1 37 3
M  V30 36 1 37 11
M  V30 37 1 37 18
M  V30 38 1 37 26
M  V30 39 1 38 5
M  V30 40 2 38 15
M  V30 41 1 38 30
M  V30 42 1 39 1
M  V30 43 1 40 1
M  V30 44 1 41 2
M  V30 45 1 4 42 CFG=1
M  V30 46 1 6 43 CFG=3
M  V30 47 1 44 7
M  V30 48 1 45 7
M  V30 49 1 46 7
M  V30 50 1 47 8
M  V30 51 1 48 10
M  V30 52 1 49 11
M  V30 53 1 50 11
M  V30 54 1 51 12
M  V30 55 1 52 12
M  V30 56 1 53 12
M  V30 57 1 54 13
M  V30 58 1 55 13
M  V30 59 1 56 14
M  V30 60 1 57 14
M  V30 61 1 58 17
M  V30 62 1 19 59 CFG=3
M  V30 63 1 60 20
M  V30 64 1 61 21
M  V30 65 1 62 21
M  V30 66 1 63 22
M  V30 67 1 64 22
M  V30 68 1 65 24
M  V30 69 1 66 24
M  V30 70 1 67 24
M  V30 71 1 68 25
M  V30 72 1 69 25
M  V30 73 1 70 26
M  V30 74 1 71 26
M  V30 75 1 27 72 CFG=3
M  V30 76 1 28 73 CFG=3
M  V30 77 1 74 29
M  V30 78 1 75 29
M  V30 79 1 31 76 CFG=3
M  V30 80 1 77 32
M  V30 81 1 78 32
M  V30 82 1 79 33
M  V30 83 1 80 34
M  V30 84 1 81 34
M  V30 85 1 35 82 CFG=1
M  V30 86 1 83 36
M  V30 87 1 84 36
M  V30 88 1 85 20
M  V30 END BOND
M  V30 END CTAB
M  END
>  <i_epik_Tot_Q>  (1) 
0

>  <i_epik_Tot_abs_Q>  (1) 
2

>  <i_i_glide_confnum>  (1) 
627

>  <i_i_glide_lignum>  (1) 
234

>  <i_i_glide_posenum>  (1) 
235

>  <i_i_glide_rotatable_bonds>  (1) 
10

>  <i_lp_mmshare_version>  (1) 
72125

>  <i_m_source_file_index>  (1) 
91

>  <i_f3d_flags>  (1) 
0

>  <num_sample>  (1) 
100

>  <b_lp_Chiralities_Consistent>  (1) 
1

>  <r_epik_Charging_Adjusted_Penalty>  (1) 
1.3235823108087639

>  <r_epik_Ionization_Penalty>  (1) 
0.58520961668590687

>  <r_epik_Ionization_Penalty_Charging>  (1) 
0.5818654171532841

>  <r_epik_Ionization_Penalty_Neutral>  (1) 
0.0033441995326227757

>  <r_epik_State_Penalty>  (1) 
0.74171689365547977

>  <r_glide_ring_energy>  (1) 
0.35261698705854638

>  <r_i_docking_score>  (1) 
-6.6422448839295454

>  <r_i_glide_ecoul>  (1) 
-1.5152717946141896

>  <r_i_glide_eff_state_penalty>  (1) 
0.74171689365547977

>  <r_i_glide_einternal>  (1) 
6.9257491765097026

>  <r_i_glide_emodel>  (1) 
-33.624729349884298

>  <r_i_glide_emodel_strain>  (1) 
3.5843607715098358

>  <r_i_glide_energy>  (1) 
-26.439989367266485

>  <r_i_glide_erotb>  (1) 
0.42002339013477186

>  <r_i_glide_esite>  (1) 
0

>  <r_i_glide_evdw>  (1) 
-24.924717572652295

>  <r_i_glide_gscore>  (1) 
-7.383961777585025

>  <r_i_glide_gscore_strain>  (1) 
0

>  <r_i_glide_hbond>  (1) 
-0.010462192691281284

>  <r_i_glide_ligand_efficiency>  (1) 
-0.17479591799814592

>  <r_i_glide_ligand_efficiency_ln>  (1) 
-1.4322633920231971

>  <r_i_glide_ligand_efficiency_sa>  (1) 
-0.58765957751861497

>  <r_i_glide_lipo>  (1) 
-5.103739536905807

>  <r_i_glide_metal>  (1) 
-0

>  <r_i_glide_rewards>  (1) 
-1.2162567902979653

>  <r_lp_Energy>  (1) 
50.269594999999995

>  <s_epik_Chemistry_Notes>  (1) 
This compound has a N-S or N-O group and may undergo hydrolysis at high or low pH.

>  <s_epik_cmdline>  (1) 
J2VwaWtfcHl0aG9uJywgJy1waHQnLCAnMS4wJywgJy1waCcsICc3LjQnLCAnLXRuJywgJzgnLCAnLW1hJywgJzUwMCcsICctaW1hZScsICc8aW5maWxlLm1hZT4nLCAnLW9tYWUnLCAnPG91dGZpbGUubWFlPic=

>  <s_epik_input>  (1) 
RkMoRikoW0NIMl0xKVtDSDJdW0NIMl1bQ0BIXShbQ0BASF0xMilbQ0BIXShbQ0gyXVtDQEhdKFtDSDJdW0NIMl0yKUMoW0NIM10pKFtDSDNdKU9bQ0gzXSlbTkhdTjNbQ0gyXVtDSDJdW0NIMl1bQ0BIXShbQ0gyXTMpL1tDSF09W0NIXS9bQ0BASF0oW0NIMl1bQ0BdNChbT0hdKUMoPU8pW09IXSlbQ0gyXVtDQEBIXTRbTkhdW09IXQ==

>  <s_glide_docking_method>  (1) 
confgen

>  <s_i_glide_gridfile>  (1) 
gpcr_5ht2c_6bqh_protein_autoprepared_prepared

>  <s_lp_Force_Field>  (1) 
S-OPLS

>  <s_lp_Variant>  (1) 
DiffSBDD_90_num_sample_100-6

>  <s_m_source_file>  (1) 
generated__ligand_DiffSBDD_2026-05-06_prepared.sdf

>  <GenAI_Model>  (1) 
DiffSBDD

>  <Protein>  (1) 
GPCR_5HT2C

$$$$
DiffSBDD_59_num_sample_100
     RDKit          3D

  0  0  0  0  0  0  0  0  0  0999 V3000
M  V30 BEGIN CTAB
M  V30 COUNTS 54 55 0 0 1
M  V30 BEGIN ATOM
M  V30 1 O 38.055759 33.470693 56.094414 0
M  V30 2 N 39.074917 26.955068 54.448885 0 CFG=2 CHG=1
M  V30 3 C 39.193896 28.161802 51.054406 0
M  V30 4 C 38.360900 26.149966 55.482945 0
M  V30 5 C 38.303605 31.571475 57.527505 0
M  V30 6 C 40.136256 30.593091 52.117461 0
M  V30 7 C 39.467399 29.679634 52.952679 0
M  V30 8 C 38.986727 28.452517 52.417808 0
M  V30 9 C 38.426907 28.591832 58.304129 0
M  V30 10 C 40.017792 26.761057 57.447676 0
M  V30 11 Cl 39.248242 30.060273 54.622785 0
M  V30 12 C 39.261764 25.668787 56.649944 0
M  V30 13 O 37.512107 28.593671 57.484982 0
M  V30 14 N 38.829182 29.628768 59.005873 0
M  V30 15 N 39.856154 29.417246 59.835632 0
M  V30 16 C 38.048087 33.080199 57.450125 0
M  V30 17 C 39.222003 27.367917 58.623081 0 CFG=1
M  V30 18 C 38.245364 27.442145 53.302165 0 CFG=2
M  V30 19 C 40.321708 26.294836 53.993123 0
M  V30 20 C 38.237857 30.978502 58.951980 0 CFG=2
M  V30 21 C 39.867412 29.082083 50.231080 0
M  V30 22 C 40.094035 28.155464 59.620371 0
M  V30 23 C 36.811327 30.963674 59.535694 0
M  V30 24 C 36.870662 27.997663 53.686352 0
M  V30 25 C 40.335107 30.295401 50.759984 0
M  V30 26 H 37.212179 33.222060 55.726760 0
M  V30 27 H 38.833760 27.231671 50.638610 0
M  V30 28 H 37.917228 25.279429 54.997585 0
M  V30 29 H 37.529275 26.712584 55.897766 0
M  V30 30 H 37.587238 31.061742 56.882692 0
M  V30 31 H 39.292596 31.378418 57.111186 0
M  V30 32 H 40.499362 31.525219 52.521605 0
M  V30 33 H 40.392178 27.546012 56.789250 0
M  V30 34 H 40.912980 26.293635 57.861581 0
M  V30 35 H 39.990674 24.952918 56.268809 0
M  V30 36 H 38.653852 25.081870 57.339666 0
M  V30 37 H 38.823843 33.621290 57.990941 0
M  V30 38 H 37.085116 33.349283 57.884879 0
M  V30 39 H 38.612455 26.628293 59.139491 0
M  V30 40 H 38.044243 26.562966 52.689200 0
M  V30 41 H 40.263264 25.222031 53.853505 0
M  V30 42 H 40.689277 26.699429 53.054262 0
M  V30 43 H 41.067343 26.444189 54.761944 0
M  V30 44 H 38.839707 31.623367 59.595710 0
M  V30 45 H 40.023130 28.857550 49.187744 0
M  V30 46 H 40.903874 27.642457 60.140167 0
M  V30 47 H 36.418965 31.972705 59.655288 0
M  V30 48 H 36.118832 30.420802 58.890944 0
M  V30 49 H 36.795311 30.488778 60.516715 0
M  V30 50 H 36.334300 28.330115 52.795952 0
M  V30 51 H 36.267406 27.227383 54.148043 0
M  V30 52 H 36.919573 28.837049 54.377914 0
M  V30 53 H 40.850222 31.000247 50.122352 0
M  V30 54 H 39.362039 27.801785 54.922392 0
M  V30 END ATOM
M  V30 BEGIN BOND
M  V30 1 1 4 2
M  V30 2 2 7 6
M  V30 3 2 8 3
M  V30 4 1 8 7
M  V30 5 1 11 7
M  V30 6 1 12 4
M  V30 7 1 12 10
M  V30 8 2 13 9
M  V30 9 1 14 9
M  V30 10 1 15 14
M  V30 11 1 16 1
M  V30 12 1 16 5
M  V30 13 1 17 9
M  V30 14 1 17 10
M  V30 15 1 18 2
M  V30 16 1 18 8
M  V30 17 1 19 2
M  V30 18 1 20 5
M  V30 19 1 20 14
M  V30 20 1 21 3
M  V30 21 2 22 15
M  V30 22 1 22 17
M  V30 23 1 23 20
M  V30 24 1 24 18
M  V30 25 1 25 6
M  V30 26 2 25 21
M  V30 27 1 26 1
M  V30 28 1 27 3
M  V30 29 1 28 4
M  V30 30 1 29 4
M  V30 31 1 30 5
M  V30 32 1 31 5
M  V30 33 1 32 6
M  V30 34 1 33 10
M  V30 35 1 34 10
M  V30 36 1 35 12
M  V30 37 1 36 12
M  V30 38 1 37 16
M  V30 39 1 38 16
M  V30 40 1 17 39 CFG=1
M  V30 41 1 18 40 CFG=3
M  V30 42 1 41 19
M  V30 43 1 42 19
M  V30 44 1 43 19
M  V30 45 1 20 44 CFG=1
M  V30 46 1 45 21
M  V30 47 1 46 22
M  V30 48 1 47 23
M  V30 49 1 48 23
M  V30 50 1 49 23
M  V30 51 1 50 24
M  V30 52 1 51 24
M  V30 53 1 52 24
M  V30 54 1 53 25
M  V30 55 1 2 54 CFG=1
M  V30 END BOND
M  V30 END CTAB
M  END
>  <i_epik_Tot_Q>  (1) 
1

>  <i_epik_Tot_abs_Q>  (1) 
1

>  <i_i_glide_confnum>  (1) 
101

>  <i_i_glide_lignum>  (1) 
151

>  <i_i_glide_posenum>  (1) 
393

>  <i_i_glide_rotatable_bonds>  (1) 
10

>  <i_lp_mmshare_version>  (1) 
72125

>  <i_m_source_file_index>  (1) 
60

>  <i_f3d_flags>  (1) 
0

>  <num_sample>  (1) 
100

>  <b_lp_Chiralities_Consistent>  (1) 
1

>  <r_epik_Charging_Adjusted_Penalty>  (1) 
0.90698054963472508

>  <r_epik_Ionization_Penalty>  (1) 
0.11890783771570668

>  <r_epik_Ionization_Penalty_Charging>  (1) 
0.11890771087092902

>  <r_epik_Ionization_Penalty_Neutral>  (1) 
1.2684477765112781e-07

>  <r_epik_State_Penalty>  (1) 
0.78807283876379608

>  <r_glide_ring_energy>  (1) 
0

>  <r_i_docking_score>  (1) 
-6.6370929555771072

>  <r_i_glide_ecoul>  (1) 
-2.9071652877991969

>  <r_i_glide_eff_state_penalty>  (1) 
0.78807283876379608

>  <r_i_glide_einternal>  (1) 
5.4388568956044621

>  <r_i_glide_emodel>  (1) 
-60.360515776140787

>  <r_i_glide_emodel_strain>  (1) 
0.28585230073773005

>  <r_i_glide_energy>  (1) 
-40.871958561792113

>  <r_i_glide_erotb>  (1) 
1.1440711446639862

>  <r_i_glide_esite>  (1) 
0

>  <r_i_glide_evdw>  (1) 
-37.964793273992917

>  <r_i_glide_gscore>  (1) 
-7.4251657943409031

>  <r_i_glide_gscore_strain>  (1) 
0

>  <r_i_glide_hbond>  (1) 
-0.16

>  <r_i_glide_ligand_efficiency>  (1) 
-0.26548371822308431

>  <r_i_glide_ligand_efficiency_ln>  (1) 
-1.5731899280975998

>  <r_i_glide_ligand_efficiency_sa>  (1) 
-0.77627910129100486

>  <r_i_glide_lipo>  (1) 
-3.9671783169496431

>  <r_i_glide_metal>  (1) 
-0

>  <r_i_glide_rewards>  (1) 
-2.1077441651857205

>  <r_lp_Energy>  (1) 
20.477868999999998

>  <r_lp_tautomer_probability>  (1) 
0.26444745842670125

>  <s_epik_Chemistry_Notes>  (1) 
This compound has an imine and may undergo hydrolysis.

>  <s_epik_cmdline>  (1) 
J2VwaWtfcHl0aG9uJywgJy1waHQnLCAnMS4wJywgJy1waCcsICc3LjQnLCAnLXRuJywgJzgnLCAnLW1hJywgJzUwMCcsICctaW1hZScsICc8aW5maWxlLm1hZT4nLCAnLW9tYWUnLCAnPG91dGZpbGUubWFlPic=

>  <s_epik_input>  (1) 
W09IXVtDSDJdW0NIMl1bQ0BASF0oW0NIM10pTihDMT1PKU49W0NIXVtDQEBIXTFbQ0gyXVtDSDJdW0NIMl1OKFtDSDNdKVtDQEBIXShbQ0gzXSljMltjSF1bY0hdW2NIXVtjSF1jMkNs

>  <s_glide_docking_method>  (1) 
confgen

>  <s_i_glide_gridfile>  (1) 
gpcr_5ht2c_6bqh_protein_autoprepared_prepared

>  <s_lp_Force_Field>  (1) 
S-OPLS

>  <s_lp_Variant>  (1) 
DiffSBDD_59_num_sample_100-4

>  <s_m_source_file>  (1) 
generated__ligand_DiffSBDD_2026-05-06_prepared.sdf

>  <GenAI_Model>  (1) 
DiffSBDD

>  <Protein>  (1) 
GPCR_5HT2C

$$$$
DiffSBDD_88_num_sample_100
     RDKit          3D

  0  0  0  0  0  0  0  0  0  0999 V3000
M  V30 BEGIN CTAB
M  V30 COUNTS 72 75 0 0 1
M  V30 BEGIN ATOM
M  V30 1 C 36.328865 32.403087 61.213197 0
M  V30 2 C 38.375652 37.925525 61.016102 0
M  V30 3 C 38.830136 27.949044 56.442582 0 CFG=1
M  V30 4 C 36.812097 31.121846 58.948043 0
M  V30 5 C 35.999742 33.779048 60.560033 0
M  V30 6 C 38.883473 28.058691 57.990206 0
M  V30 7 O 39.510453 24.956289 57.453502 0
M  V30 8 C 39.452294 31.505884 55.392444 0 CFG=1
M  V30 9 C 38.285458 34.160532 59.796550 0
M  V30 10 C 37.190174 31.358921 60.436631 0
M  V30 11 O 37.770223 23.637482 57.853504 0 CHG=-1
M  V30 12 N 37.770125 30.259742 58.173976 0 CFG=2 CHG=1
M  V30 13 C 37.686960 30.398125 56.677720 0 CFG=1
M  V30 14 C 37.960352 26.769174 55.880121 0 CFG=1
M  V30 15 C 36.267413 37.621438 62.309811 0
M  V30 16 C 37.709384 28.842935 58.576118 0
M  V30 17 C 39.040516 31.056223 53.984681 0
M  V30 18 C 38.659658 26.024662 54.705897 0
M  V30 19 C 37.339883 25.750572 56.874998 0
M  V30 20 N 39.194031 33.621429 59.330610 0
M  V30 21 C 38.289410 24.690931 57.441860 0
M  V30 22 C 37.844774 28.928685 53.462151 0
M  V30 23 O 36.620848 35.825326 59.518670 0
M  V30 24 C 37.638294 35.531581 61.717343 0 CFG=1
M  V30 25 C 37.061618 38.391224 61.567058 0
M  V30 26 C 38.207740 31.804854 56.239682 0
M  V30 27 C 38.808789 36.533107 61.532811 0
M  V30 28 C 38.613220 29.411903 55.868795 0 CFG=1
M  V30 29 C 36.588381 36.183045 62.661506 0
M  V30 30 C 39.912678 30.193138 56.015872 0
M  V30 31 C 37.133882 34.838649 60.401408 0 CFG=1
M  V30 32 C 38.448368 29.728818 54.362928 0
M  V30 33 H 36.784687 32.578683 62.188242 0
M  V30 34 H 35.371030 31.925264 61.426276 0
M  V30 35 H 38.267402 37.909502 59.933621 0
M  V30 36 H 39.138756 38.667674 61.248920 0
M  V30 37 H 39.846079 27.659546 56.168993 0
M  V30 38 H 35.803294 30.713087 58.877411 0
M  V30 39 H 36.787388 32.104302 58.485443 0
M  V30 40 H 35.180428 34.224576 61.119975 0
M  V30 41 H 35.558313 33.584861 59.581713 0
M  V30 42 H 39.814333 28.538392 58.293246 0
M  V30 43 H 38.935467 27.094780 58.482474 0
M  V30 44 H 40.191542 32.302290 55.433510 0
M  V30 45 H 38.244269 31.610207 60.521796 0
M  V30 46 H 37.101633 30.421594 60.979118 0
M  V30 47 H 36.667347 30.221341 56.350152 0
M  V30 48 H 37.067427 27.221210 55.483717 0
M  V30 49 H 35.337865 38.020279 62.688804 0
M  V30 50 H 37.767114 28.777304 59.660764 0
M  V30 51 H 36.757117 28.421919 58.253631 0
M  V30 52 H 39.901714 30.917473 53.329695 0
M  V30 53 H 38.321690 31.725795 53.511973 0
M  V30 54 H 39.487538 25.397197 55.032281 0
M  V30 55 H 37.948712 25.378061 54.191383 0
M  V30 56 H 39.098876 26.692409 53.968930 0
M  V30 57 H 36.833504 26.245975 57.700625 0
M  V30 58 H 36.551396 25.206305 56.352810 0
M  V30 59 H 37.775830 29.221608 52.426935 0
M  V30 60 H 37.413498 27.993889 53.729203 0
M  V30 61 H 36.642961 35.504345 58.625908 0
M  V30 62 H 38.081243 34.697038 62.253465 0
M  V30 63 H 36.771029 39.407917 61.345647 0
M  V30 64 H 38.493063 32.426177 57.086281 0
M  V30 65 H 37.467462 32.366595 55.670789 0
M  V30 66 H 39.279420 36.672462 62.508608 0
M  V30 67 H 39.592180 36.119661 60.897854 0
M  V30 68 H 35.689165 35.580264 62.754908 0
M  V30 69 H 36.994115 36.255978 63.669285 0
M  V30 70 H 40.240817 30.318001 57.045929 0
M  V30 71 H 40.727751 29.732138 55.453439 0
M  V30 72 H 38.692345 30.589493 58.416685 0
M  V30 END ATOM
M  V30 BEGIN BOND
M  V30 1 1 5 1
M  V30 2 1 6 3
M  V30 3 1 10 1
M  V30 4 1 10 4
M  V30 5 1 12 4
M  V30 6 1 13 12
M  V30 7 1 14 3
M  V30 8 1 16 6
M  V30 9 1 16 12
M  V30 10 1 17 8
M  V30 11 1 18 14
M  V30 12 1 19 14
M  V30 13 3 20 9
M  V30 14 2 21 7
M  V30 15 1 21 11
M  V30 16 1 21 19
M  V30 17 1 25 2
M  V30 18 2 25 15
M  V30 19 1 26 8
M  V30 20 1 26 13
M  V30 21 1 27 2
M  V30 22 1 27 24
M  V30 23 1 28 3
M  V30 24 1 28 13
M  V30 25 1 29 15
M  V30 26 1 29 24
M  V30 27 1 30 8
M  V30 28 1 30 28
M  V30 29 1 31 5
M  V30 30 1 31 9 CFG=3
M  V30 31 1 31 23
M  V30 32 1 31 24
M  V30 33 1 32 17
M  V30 34 2 32 22
M  V30 35 1 28 32 CFG=3
M  V30 36 1 33 1
M  V30 37 1 34 1
M  V30 38 1 35 2
M  V30 39 1 36 2
M  V30 40 1 3 37 CFG=3
M  V30 41 1 38 4
M  V30 42 1 39 4
M  V30 43 1 40 5
M  V30 44 1 41 5
M  V30 45 1 42 6
M  V30 46 1 43 6
M  V30 47 1 8 44 CFG=3
M  V30 48 1 45 10
M  V30 49 1 46 10
M  V30 50 1 13 47 CFG=3
M  V30 51 1 14 48 CFG=3
M  V30 52 1 49 15
M  V30 53 1 50 16
M  V30 54 1 51 16
M  V30 55 1 52 17
M  V30 56 1 53 17
M  V30 57 1 54 18
M  V30 58 1 55 18
M  V30 59 1 56 18
M  V30 60 1 57 19
M  V30 61 1 58 19
M  V30 62 1 59 22
M  V30 63 1 60 22
M  V30 64 1 61 23
M  V30 65 1 24 62 CFG=1
M  V30 66 1 63 25
M  V30 67 1 64 26
M  V30 68 1 65 26
M  V30 69 1 66 27
M  V30 70 1 67 27
M  V30 71 1 68 29
M  V30 72 1 69 29
M  V30 73 1 70 30
M  V30 74 1 71 30
M  V30 75 1 12 72 CFG=1
M  V30 END BOND
M  V30 END CTAB
M  END
>  <i_epik_Tot_Q>  (1) 
0

>  <i_epik_Tot_abs_Q>  (1) 
2

>  <i_i_glide_confnum>  (1) 
282

>  <i_i_glide_lignum>  (1) 
227

>  <i_i_glide_posenum>  (1) 
170

>  <i_i_glide_rotatable_bonds>  (1) 
10

>  <i_lp_mmshare_version>  (1) 
72125

>  <i_m_source_file_index>  (1) 
89

>  <i_f3d_flags>  (1) 
0

>  <num_sample>  (1) 
100

>  <b_lp_Chiralities_Consistent>  (1) 
1

>  <r_epik_Charging_Adjusted_Penalty>  (1) 
0.0020242395650179774

>  <r_epik_Ionization_Penalty>  (1) 
0.0021859291232044671

>  <r_epik_Ionization_Penalty_Charging>  (1) 
0.0020242395650179774

>  <r_epik_Ionization_Penalty_Neutral>  (1) 
0.00016168955818648959

>  <r_epik_State_Penalty>  (1) 
-0

>  <r_glide_ring_energy>  (1) 
1.8266832637363264

>  <r_i_docking_score>  (1) 
-6.6358605923071892

>  <r_i_glide_ecoul>  (1) 
-3.2869012326873062

>  <r_i_glide_eff_state_penalty>  (1) 
-0

>  <r_i_glide_einternal>  (1) 
10.908061144259889

>  <r_i_glide_emodel>  (1) 
-44.859030332253141

>  <r_i_glide_emodel_strain>  (1) 
0.60360006952581102

>  <r_i_glide_energy>  (1) 
-32.1735591137925

>  <r_i_glide_erotb>  (1) 
0.71992511853168706

>  <r_i_glide_esite>  (1) 
-0.06414772848040691

>  <r_i_glide_evdw>  (1) 
-28.886657881105194

>  <r_i_glide_gscore>  (1) 
-6.6358605923071892

>  <r_i_glide_gscore_strain>  (1) 
0

>  <r_i_glide_hbond>  (1) 
-0.12134417114247692

>  <r_i_glide_ligand_efficiency>  (1) 
-0.20737064350959966

>  <r_i_glide_ligand_efficiency_ln>  (1) 
-1.4859500733455677

>  <r_i_glide_ligand_efficiency_sa>  (1) 
-0.65836075530892202

>  <r_i_glide_lipo>  (1) 
-3.3562726688337086

>  <r_i_glide_metal>  (1) 
-0

>  <r_i_glide_rewards>  (1) 
-1.8766530634239271

>  <r_lp_Energy>  (1) 
58.990349999999999

>  <r_lp_tautomer_probability>  (1) 
1

>  <s_epik_cmdline>  (1) 
J2VwaWtfcHl0aG9uJywgJy1waHQnLCAnMS4wJywgJy1waCcsICc3LjQnLCAnLXRuJywgJzgnLCAnLW1hJywgJzUwMCcsICctaW1hZScsICc8aW5maWxlLm1hZT4nLCAnLW9tYWUnLCAnPG91dGZpbGUubWFlPic=

>  <s_epik_input>  (1) 
W0NIMl0xW0NIXT1bQ0hdW0NIMl1bQ0gyXVtDQEBIXTFbQ0BdKEMjTikoW09IXSlbQ0gyXVtDSDJdW0NIMl1bQ0gyXU4oW0NASF0oW0NAXTIzNClbQ0gyXVtDQEBIXShbQ0gyXTMpW0NIMl1DND1bQ0gyXSlbQ0gyXVtDSDJdW0NASF0yW0NAQEhdKFtDSDNdKVtDSDJdQyg9TylbT0hd

>  <s_glide_docking_method>  (1) 
confgen

>  <s_i_glide_gridfile>  (1) 
gpcr_5ht2c_6bqh_protein_autoprepared_prepared

>  <s_lp_Force_Field>  (1) 
S-OPLS

>  <s_lp_Variant>  (1) 
DiffSBDD_88_num_sample_100-2

>  <s_m_source_file>  (1) 
generated__ligand_DiffSBDD_2026-05-06_prepared.sdf

>  <GenAI_Model>  (1) 
DiffSBDD

>  <Protein>  (1) 
GPCR_5HT2C

$$$$
DiffSBDD_42_num_sample_100
     RDKit          3D

  0  0  0  0  0  0  0  0  0  0999 V3000
M  V30 BEGIN CTAB
M  V30 COUNTS 70 74 0 0 1
M  V30 BEGIN ATOM
M  V30 1 O 40.267373 30.875988 51.927666 0
M  V30 2 C 38.712696 27.677387 52.918744 0
M  V30 3 C 36.698017 34.938980 59.968915 0
M  V30 4 C 39.655902 27.221454 59.146051 0
M  V30 5 O 38.502107 32.658580 60.785219 0
M  V30 6 C 39.319216 28.892567 52.286595 0
M  V30 7 C 37.671221 30.421277 60.102118 0
M  V30 8 C 40.724413 30.102601 62.441904 0
M  V30 9 C 39.957335 30.435383 54.325018 0
M  V30 10 C 39.722455 28.600631 58.552202 0 CFG=2
M  V30 11 C 40.034400 30.188674 50.773172 0
M  V30 12 C 39.811359 30.020389 52.890783 0
M  V30 13 O 39.865284 29.752630 59.367015 0
M  V30 14 C 36.267410 35.512259 62.253508 0
M  V30 15 C 39.032328 29.866532 60.515670 0 CFG=1
M  V30 16 C 36.236438 36.421682 63.237062 0
M  V30 17 C 38.772148 30.686425 56.477113 0
M  V30 18 Cl 37.547235 37.677426 59.053497 0
M  V30 19 C 36.734707 33.933127 59.136069 0
M  V30 20 O 36.877545 29.738244 59.453167 0
M  V30 21 N 38.675569 30.765461 54.998192 0 CFG=1 CHG=1
M  V30 22 C 37.063385 37.224985 60.640542 0
M  V30 23 C 39.707372 30.769392 61.527624 0
M  V30 24 C 41.284171 31.046237 63.528987 0
M  V30 25 C 36.681496 35.847626 60.909756 0
M  V30 26 P 38.776384 28.927367 57.040823 0 CFG=2
M  V30 27 C 36.631602 37.863086 63.051649 0
M  V30 28 C 40.111021 33.055874 62.544856 0
M  V30 29 C 37.040199 38.153167 61.615032 0
M  V30 30 O 38.178906 27.869234 56.180603 0
M  V30 31 C 37.333027 31.860119 60.531111 0 CFG=2
M  V30 32 C 41.456193 32.490699 63.031220 0
M  V30 33 C 39.439631 32.083928 61.598025 0
M  V30 34 C 36.351831 32.535211 59.552646 0
M  V30 35 C 38.117335 32.061007 54.556099 0
M  V30 36 N 39.467546 28.990616 50.914562 0
M  V30 37 O 40.370437 28.697740 57.282295 0
M  V30 38 H 39.384363 27.229764 53.650701 0
M  V30 39 H 38.480810 26.913293 52.175303 0
M  V30 40 H 37.782908 27.925038 53.430813 0
M  V30 41 H 40.267417 27.221310 60.046223 0
M  V30 42 H 40.033742 26.474367 58.447471 0
M  V30 43 H 38.630702 26.973928 59.419337 0
M  V30 44 H 41.523835 29.701234 61.827153 0
M  V30 45 H 40.257007 29.242227 62.924712 0
M  V30 46 H 40.447172 29.621504 54.856001 0
M  V30 47 H 40.645135 31.277083 54.405080 0
M  V30 48 H 40.295382 30.617203 49.816031 0
M  V30 49 H 35.952371 34.499680 62.467505 0
M  V30 50 H 38.883530 28.894346 60.984426 0
M  V30 51 H 35.911879 36.135628 64.222407 0
M  V30 52 H 37.904490 31.162681 56.936842 0
M  V30 53 H 39.657226 31.204573 56.846215 0
M  V30 54 H 37.044147 34.067355 58.109103 0
M  V30 55 H 40.596397 31.052646 64.375940 0
M  V30 56 H 42.231135 30.659134 63.907454 0
M  V30 57 H 35.811877 38.518791 63.347430 0
M  V30 58 H 37.467343 38.021371 63.723481 0
M  V30 59 H 40.251953 34.017867 62.048160 0
M  V30 60 H 39.449351 33.222920 63.393134 0
M  V30 61 H 37.323697 39.171132 61.389292 0
M  V30 62 H 36.818995 31.773763 61.489464 0
M  V30 63 H 42.181434 32.514196 62.215847 0
M  V30 64 H 41.859279 33.122923 63.824922 0
M  V30 65 H 35.351052 32.556854 59.987371 0
M  V30 66 H 36.267378 31.949841 58.653518 0
M  V30 67 H 38.648126 32.895192 55.016523 0
M  V30 68 H 37.067300 32.126651 54.836206 0
M  V30 69 H 38.190642 32.178789 53.475519 0
M  V30 70 H 38.010152 30.051767 54.732678 0
M  V30 END ATOM
M  V30 BEGIN BOND
M  V30 1 1 6 2
M  V30 2 1 10 4
M  V30 3 1 11 1
M  V30 4 1 12 1
M  V30 5 2 12 6
M  V30 6 1 12 9
M  V30 7 1 10 13 CFG=1
M  V30 8 1 15 7
M  V30 9 1 15 13
M  V30 10 2 16 14
M  V30 11 2 19 3
M  V30 12 2 20 7
M  V30 13 1 21 9
M  V30 14 1 21 17
M  V30 15 1 22 18
M  V30 16 1 23 8
M  V30 17 1 23 15
M  V30 18 1 24 8
M  V30 19 2 25 3
M  V30 20 1 25 14
M  V30 21 1 25 22
M  V30 22 1 26 10
M  V30 23 1 26 17 CFG=3
M  V30 24 1 27 16
M  V30 25 2 29 22
M  V30 26 1 29 27
M  V30 27 2 30 26
M  V30 28 1 31 5
M  V30 29 1 31 7
M  V30 30 1 32 24
M  V30 31 1 32 28
M  V30 32 1 33 5
M  V30 33 2 33 23
M  V30 34 1 33 28
M  V30 35 1 34 19
M  V30 36 1 34 31
M  V30 37 1 35 21
M  V30 38 1 36 6
M  V30 39 2 36 11
M  V30 40 1 37 10
M  V30 41 1 37 26
M  V30 42 1 38 2
M  V30 43 1 39 2
M  V30 44 1 40 2
M  V30 45 1 41 4
M  V30 46 1 42 4
M  V30 47 1 43 4
M  V30 48 1 44 8
M  V30 49 1 45 8
M  V30 50 1 46 9
M  V30 51 1 47 9
M  V30 52 1 48 11
M  V30 53 1 49 14
M  V30 54 1 15 50 CFG=1
M  V30 55 1 51 16
M  V30 56 1 52 17
M  V30 57 1 53 17
M  V30 58 1 54 19
M  V30 59 1 55 24
M  V30 60 1 56 24
M  V30 61 1 57 27
M  V30 62 1 58 27
M  V30 63 1 59 28
M  V30 64 1 60 28
M  V30 65 1 61 29
M  V30 66 1 31 62 CFG=1
M  V30 67 1 63 32
M  V30 68 1 64 32
M  V30 69 1 65 34
M  V30 70 1 66 34
M  V30 71 1 67 35
M  V30 72 1 68 35
M  V30 73 1 69 35
M  V30 74 1 21 70 CFG=3
M  V30 END BOND
M  V30 END CTAB
M  END
>  <i_epik_Tot_Q>  (1) 
1

>  <i_epik_Tot_abs_Q>  (1) 
1

>  <i_i_glide_confnum>  (1) 
350

>  <i_i_glide_lignum>  (1) 
105

>  <i_i_glide_posenum>  (1) 
1

>  <i_i_glide_rotatable_bonds>  (1) 
8

>  <i_lp_mmshare_version>  (1) 
72125

>  <i_m_source_file_index>  (1) 
43

>  <i_f3d_flags>  (1) 
0

>  <num_sample>  (1) 
100

>  <b_lp_Chiralities_Consistent>  (1) 
1

>  <r_epik_Charging_Adjusted_Penalty>  (1) 
0.2152556309207356

>  <r_epik_Ionization_Penalty>  (1) 
0.1076280395274669

>  <r_epik_Ionization_Penalty_Charging>  (1) 
0.10762781546036781

>  <r_epik_Ionization_Penalty_Neutral>  (1) 
2.2406709908736756e-07

>  <r_epik_State_Penalty>  (1) 
0.10762781546036779

>  <r_glide_ring_energy>  (1) 
0

>  <r_i_docking_score>  (1) 
-6.635321325863961

>  <r_i_glide_ecoul>  (1) 
-2.5631107429948328

>  <r_i_glide_eff_state_penalty>  (1) 
0.10762781546036779

>  <r_i_glide_einternal>  (1) 
8.0182346876990422

>  <r_i_glide_emodel>  (1) 
-60.564310933128645

>  <r_i_glide_emodel_strain>  (1) 
1.6295749186069841

>  <r_i_glide_energy>  (1) 
-43.273467611309655

>  <r_i_glide_erotb>  (1) 
0.55194975081301367

>  <r_i_glide_esite>  (1) 
0

>  <r_i_glide_evdw>  (1) 
-40.710356868314825

>  <r_i_glide_gscore>  (1) 
-6.7429491413243285

>  <r_i_glide_gscore_strain>  (1) 
0

>  <r_i_glide_hbond>  (1) 
0

>  <r_i_glide_ligand_efficiency>  (1) 
-0.17933300880713407

>  <r_i_glide_ligand_efficiency_ln>  (1) 
-1.4390456415778614

>  <r_i_glide_ligand_efficiency_sa>  (1) 
-0.59757737066854844

>  <r_i_glide_lipo>  (1) 
-3.6927741218330379

>  <r_i_glide_metal>  (1) 
-0

>  <r_i_glide_rewards>  (1) 
-1.1821403154393377

>  <r_lp_Energy>  (1) 
6.0054069999999999

>  <r_lp_tautomer_probability>  (1) 
0.99995000000000001

>  <s_epik_cmdline>  (1) 
J2VwaWtfcHl0aG9uJywgJy1waHQnLCAnMS4wJywgJy1waCcsICc3LjQnLCAnLXRuJywgJzgnLCAnLW1hJywgJzUwMCcsICctaW1hZScsICc8aW5maWxlLm1hZT4nLCAnLW9tYWUnLCAnPG91dGZpbGUubWFlPic=

>  <s_epik_input>  (1) 
bjFbY0hdb2MoYzFbQ0gzXSlbQ0gyXU4oW0NIM10pW0NIMl1bUEBAXSg9TykoTzIpW0NAXTIoW0NIM10pT1tDQEBIXTNDKD1PKVtDQEBIXShPQyg9QzM0KVtDSDJdW0NIMl1bQ0gyXVtDSDJdNClbQ0gyXVtDSF09Qz1DNVtDSF09W0NIXVtDSDJdW0NIXT1DNUNs

>  <s_glide_docking_method>  (1) 
confgen

>  <s_i_glide_gridfile>  (1) 
gpcr_5ht2c_6bqh_protein_autoprepared_prepared

>  <s_lp_Force_Field>  (1) 
S-OPLS

>  <s_lp_Variant>  (1) 
DiffSBDD_42_num_sample_100-2

>  <s_m_source_file>  (1) 
generated__ligand_DiffSBDD_2026-05-06_prepared.sdf

>  <GenAI_Model>  (1) 
DiffSBDD

>  <Protein>  (1) 
GPCR_5HT2C

$$$$
DiffSBDD_18_num_sample_100
     RDKit          3D

  0  0  0  0  0  0  0  0  0  0999 V3000
M  V30 BEGIN CTAB
M  V30 COUNTS 71 73 0 0 1
M  V30 BEGIN ATOM
M  V30 1 O 38.544467 35.120906 61.985466 0
M  V30 2 C 38.668295 27.857321 55.039027 0
M  V30 3 C 36.959463 30.579983 59.337774 0
M  V30 4 C 38.086584 26.844743 54.405774 0
M  V30 5 O 37.449589 31.956251 61.749313 0
M  V30 6 C 39.561051 28.468726 57.246573 0 CFG=2
M  V30 7 C 42.045616 31.527742 63.907001 0
M  V30 8 N 38.949986 27.547625 56.257894 0 CHG=1
M  V30 9 N 40.710917 27.834167 57.892925 0
M  V30 10 C 40.757769 35.640452 63.030133 0
M  V30 11 C 42.553864 33.440805 65.430066 0
M  V30 12 O 42.921954 30.762841 63.510773 0
M  V30 13 O 37.468775 24.649772 55.053569 0
M  V30 14 C 40.265105 30.321068 66.110175 0
M  V30 15 C 38.120755 31.135854 57.136542 0
M  V30 16 C 37.996561 25.862953 55.261455 0
M  V30 17 C 41.067405 32.148754 67.656685 0
M  V30 18 C 42.146995 34.480316 64.672905 0
M  V30 19 C 36.947146 32.562612 60.802351 0
M  V30 20 N 40.977037 31.957075 63.178463 0
M  V30 21 C 38.243895 30.400866 58.490113 0 CFG=2
M  V30 22 C 39.766599 35.846605 61.870878 0 CFG=2
M  V30 23 C 38.556958 28.885777 58.345428 0 CFG=2
M  V30 24 C 39.203576 28.306297 59.606810 0
M  V30 25 O 40.667424 33.269609 68.042689 0 CHG=-1
M  V30 26 C 38.549496 26.089659 56.696107 0
M  V30 27 C 40.593018 33.157177 62.955180 0
M  V30 28 C 36.599910 34.047927 60.931300 0
M  V30 29 C 37.823707 34.967387 60.761813 0
M  V30 30 C 39.385841 37.339340 61.853418 0
M  V30 31 C 41.164093 34.450284 63.554846 0
M  V30 32 C 42.066737 32.034349 65.324988 0 CFG=1
M  V30 33 C 40.792816 31.772546 66.184151 0 CFG=1
M  V30 34 N 36.671618 31.981972 59.621155 0
M  V30 35 N 40.600121 28.039297 59.288460 0
M  V30 36 O 41.676952 31.309406 68.355784 0
M  V30 37 H 38.894602 28.838584 54.635387 0
M  V30 38 H 36.103671 30.181982 58.789618 0
M  V30 39 H 37.015020 29.996194 60.255389 0
M  V30 40 H 37.762253 26.881702 53.374760 0
M  V30 41 H 39.944697 29.325530 56.696858 0
M  V30 42 H 40.740057 26.834972 57.701140 0
M  V30 43 H 41.166386 36.548353 63.452193 0
M  V30 44 H 43.276616 33.623534 66.211852 0
M  V30 45 H 37.793578 26.123969 57.481194 0
M  V30 46 H 39.467484 30.149412 66.833889 0
M  V30 47 H 39.854050 30.094045 65.126443 0
M  V30 48 H 41.054392 29.597758 66.315877 0
M  V30 49 H 37.421984 30.629760 56.470874 0
M  V30 50 H 37.767353 32.159116 57.260441 0
M  V30 51 H 39.077105 31.222883 56.623647 0
M  V30 52 H 42.580518 35.442531 64.909100 0
M  V30 53 H 39.067171 30.869829 59.030174 0
M  V30 54 H 40.288036 35.586213 60.947874 0
M  V30 55 H 37.606565 28.377729 58.175866 0
M  V30 56 H 38.722271 27.360077 59.853438 0
M  V30 57 H 39.129861 28.952558 60.482505 0
M  V30 58 H 39.440863 25.510340 56.939992 0
M  V30 59 H 39.791599 33.324145 62.245895 0
M  V30 60 H 35.860539 34.294878 60.167663 0
M  V30 61 H 36.113944 34.231478 61.889361 0
M  V30 62 H 38.479643 34.571028 59.984600 0
M  V30 63 H 37.472662 35.934461 60.405917 0
M  V30 64 H 40.267253 37.966834 61.727872 0
M  V30 65 H 38.691996 37.595704 61.053928 0
M  V30 66 H 38.911675 37.621352 62.793615 0
M  V30 67 H 42.862797 31.453076 65.795294 0
M  V30 68 H 40.004210 32.432512 65.824091 0
M  V30 69 H 36.250121 32.531342 58.881762 0
M  V30 70 H 40.959255 27.237155 59.803680 0
M  V30 71 H 37.162263 24.615776 54.159303 0
M  V30 END ATOM
M  V30 BEGIN BOND
M  V30 1 1 4 2
M  V30 2 2 8 2
M  V30 3 1 8 6
M  V30 4 1 9 6
M  V30 5 2 12 7
M  V30 6 2 16 4
M  V30 7 1 16 13
M  V30 8 2 18 11
M  V30 9 2 19 5
M  V30 10 1 20 7
M  V30 11 1 21 3
M  V30 12 1 21 15
M  V30 13 1 22 1
M  V30 14 1 22 10
M  V30 15 1 23 6
M  V30 16 1 23 21
M  V30 17 1 24 23
M  V30 18 1 25 17
M  V30 19 1 26 8
M  V30 20 1 26 16
M  V30 21 2 27 20
M  V30 22 1 28 19
M  V30 23 1 29 1
M  V30 24 1 29 28
M  V30 25 1 30 22
M  V30 26 2 31 10
M  V30 27 1 31 18
M  V30 28 1 31 27
M  V30 29 1 32 7
M  V30 30 1 32 11
M  V30 31 1 33 14
M  V30 32 1 33 17
M  V30 33 1 33 32
M  V30 34 1 34 3
M  V30 35 1 34 19
M  V30 36 1 35 9
M  V30 37 1 35 24
M  V30 38 2 36 17
M  V30 39 1 37 2
M  V30 40 1 38 3
M  V30 41 1 39 3
M  V30 42 1 40 4
M  V30 43 1 6 41 CFG=3
M  V30 44 1 42 9
M  V30 45 1 43 10
M  V30 46 1 44 11
M  V30 47 1 45 26
M  V30 48 1 46 14
M  V30 49 1 47 14
M  V30 50 1 48 14
M  V30 51 1 49 15
M  V30 52 1 50 15
M  V30 53 1 51 15
M  V30 54 1 52 18
M  V30 55 1 21 53 CFG=1
M  V30 56 1 22 54 CFG=3
M  V30 57 1 23 55 CFG=3
M  V30 58 1 56 24
M  V30 59 1 57 24
M  V30 60 1 58 26
M  V30 61 1 59 27
M  V30 62 1 60 28
M  V30 63 1 61 28
M  V30 64 1 62 29
M  V30 65 1 63 29
M  V30 66 1 64 30
M  V30 67 1 65 30
M  V30 68 1 66 30
M  V30 69 1 32 67 CFG=1
M  V30 70 1 33 68 CFG=3
M  V30 71 1 69 34
M  V30 72 1 70 35
M  V30 73 1 71 13
M  V30 END BOND
M  V30 END CTAB
M  END
>  <i_epik_Tot_Q>  (1) 
0

>  <i_epik_Tot_abs_Q>  (1) 
2

>  <i_i_glide_confnum>  (1) 
1604

>  <i_i_glide_lignum>  (1) 
46

>  <i_i_glide_posenum>  (1) 
383

>  <i_i_glide_rotatable_bonds>  (1) 
13

>  <i_lp_mmshare_version>  (1) 
72125

>  <i_m_source_file_index>  (1) 
19

>  <i_f3d_flags>  (1) 
0

>  <num_sample>  (1) 
100

>  <b_lp_Chiralities_Consistent>  (1) 
1

>  <r_epik_Charging_Adjusted_Penalty>  (1) 
0.76693695219889413

>  <r_epik_Ionization_Penalty>  (1) 
0.76778133156762796

>  <r_epik_Ionization_Penalty_Charging>  (1) 
0.00011398914501928687

>  <r_epik_Ionization_Penalty_Neutral>  (1) 
0.7676673424226087

>  <r_epik_State_Penalty>  (1) 
0.76682296305387487

>  <r_glide_ring_energy>  (1) 
1.7561163794185886

>  <r_i_docking_score>  (1) 
-6.6206715313187523

>  <r_i_glide_ecoul>  (1) 
-4.6051005147172281

>  <r_i_glide_eff_state_penalty>  (1) 
0.76682296305387487

>  <r_i_glide_einternal>  (1) 
8.507912181588356

>  <r_i_glide_emodel>  (1) 
-72.747469501564893

>  <r_i_glide_emodel_strain>  (1) 
2.7690400804345927

>  <r_i_glide_energy>  (1) 
-54.949764195089465

>  <r_i_glide_erotb>  (1) 
0.89312676016186854

>  <r_i_glide_esite>  (1) 
-0.093138112899877529

>  <r_i_glide_evdw>  (1) 
-50.344663680372236

>  <r_i_glide_gscore>  (1) 
-7.3874944943726275

>  <r_i_glide_gscore_strain>  (1) 
0

>  <r_i_glide_hbond>  (1) 
-0.1995277467933157

>  <r_i_glide_ligand_efficiency>  (1) 
-0.183907542536632

>  <r_i_glide_ligand_efficiency_ln>  (1) 
-1.4444516582599367

>  <r_i_glide_ligand_efficiency_sa>  (1) 
-0.60724932597895298

>  <r_i_glide_lipo>  (1) 
-3.2875289216847303

>  <r_i_glide_metal>  (1) 
-0

>  <r_i_glide_rewards>  (1) 
-1.4924282119303767

>  <r_lp_Energy>  (1) 
32.160671999999998

>  <r_lp_tautomer_probability>  (1) 
0.99929914239148299

>  <s_epik_Chemistry_Notes>  (1) 
This compound has an imine and may undergo hydrolysis. This compound contains an acetal/aminal-like group ( X-CH(R)-Y where X, Y are N, S, or O) that may be acid/base labile, releasing an aldehyde.

>  <s_epik_cmdline>  (1) 
J2VwaWtfcHl0aG9uJywgJy1waHQnLCAnMS4wJywgJy1waCcsICc3LjQnLCAnLXRuJywgJzgnLCAnLW1hJywgJzUwMCcsICctaW1hZScsICc8aW5maWxlLm1hZT4nLCAnLW9tYWUnLCAnPG91dGZpbGUubWFlPic=

>  <s_epik_input>  (1) 
W09IXUMoPU8pW0NASF0oW0NIM10pW0NAQEhdMVtDSF09W0NIXVxDKFtDSF09TkMxPU8pPVtDSF1cW0NASF0oW0NIM10pT1tDSDJdW0NIMl1DKD1PKVtOSF1bQ0gyXVtDQEhdKFtDSDNdKVtDQEBIXTJbQ0gyXVtOSF1bTkhdW0NASF0ybjNbY0hdW2NIXWMoW09IXSlbY0hdMw==

>  <s_glide_docking_method>  (1) 
confgen

>  <s_i_glide_gridfile>  (1) 
gpcr_5ht2c_6bqh_protein_autoprepared_prepared

>  <s_lp_Force_Field>  (1) 
S-OPLS

>  <s_lp_Variant>  (1) 
DiffSBDD_18_num_sample_100-6

>  <s_m_source_file>  (1) 
generated__ligand_DiffSBDD_2026-05-06_prepared.sdf

>  <GenAI_Model>  (1) 
DiffSBDD

>  <Protein>  (1) 
GPCR_5HT2C

$$$$
DiffSBDD_30_num_sample_100
     RDKit          3D

  0  0  0  0  0  0  0  0  0  0999 V3000
M  V30 BEGIN CTAB
M  V30 COUNTS 70 73 0 0 1
M  V30 BEGIN ATOM
M  V30 1 C 36.807705 36.574204 60.380195 0
M  V30 2 C 38.418441 31.994314 60.949339 0 CFG=2
M  V30 3 O 38.130819 35.958582 62.208498 0
M  V30 4 C 37.472138 24.790186 55.912599 0
M  V30 5 C 37.747870 24.735169 57.289948 0
M  V30 6 N 36.938329 33.871424 59.374038 0
M  V30 7 C 38.503525 27.051339 57.231420 0
M  V30 8 C 37.696409 34.183817 60.595857 0 CFG=1
M  V30 9 O 37.067419 30.827063 58.683574 0
M  V30 10 O 40.387919 30.763577 61.636562 0
M  V30 11 C 38.905103 28.811560 52.590801 0
M  V30 12 C 39.699857 31.775243 61.774053 0
M  V30 13 C 40.100333 32.870493 62.757569 0
M  V30 14 C 40.024119 28.860647 51.573340 0
M  V30 15 C 39.867168 28.974481 54.974646 0 CFG=2
M  V30 16 C 38.312557 33.446899 55.902275 0
M  V30 17 N 37.467410 33.221425 57.093234 0 CHG=1
M  V30 18 C 38.930873 27.831115 51.444395 0
M  V30 19 C 38.530407 30.961995 55.390981 0 CFG=1
M  V30 20 C 38.265613 25.864302 57.947283 0
M  V30 21 C 39.864076 30.478304 54.825333 0
M  V30 22 N 39.283763 28.178809 53.880703 0 CFG=1 CHG=1
M  V30 23 C 37.717662 25.975016 55.192180 0
M  V30 24 C 37.705674 34.168062 58.177245 0
M  V30 25 C 38.232859 27.115267 55.848340 0
M  V30 26 C 38.106803 32.337205 54.871191 0
M  V30 27 C 36.643245 30.750665 60.029980 0
M  V30 28 C 37.145363 35.422561 61.347540 0 CFG=2
M  V30 29 C 38.506900 28.369169 55.083412 0 CFG=1
M  V30 30 O 37.467402 26.021433 53.853687 0
M  V30 31 S 37.285406 29.697176 55.055768 0
M  V30 32 O 37.685186 33.082165 61.453852 0
M  V30 33 O 37.690400 30.802771 60.953317 0
M  V30 34 H 36.001950 36.312227 59.694334 0
M  V30 35 H 36.480187 37.460867 60.923737 0
M  V30 36 H 37.676394 36.860724 59.786183 0
M  V30 37 H 38.747192 32.175218 59.925701 0
M  V30 38 H 37.724313 36.608291 62.761463 0
M  V30 39 H 37.077908 23.920597 55.407315 0
M  V30 40 H 37.563930 23.824584 57.843675 0
M  V30 41 H 36.711163 32.882297 59.388036 0
M  V30 42 H 38.900015 27.916217 57.743340 0
M  V30 43 H 38.742630 34.388622 60.360884 0
M  V30 44 H 36.289525 30.907471 58.127162 0
M  V30 45 H 38.185113 29.621181 52.596131 0
M  V30 46 H 39.466873 32.837667 63.640881 0
M  V30 47 H 41.132715 32.725063 63.076221 0
M  V30 48 H 40.021553 33.857173 62.302124 0
M  V30 49 H 40.013809 29.679442 50.856004 0
M  V30 50 H 41.012025 28.503926 51.853504 0
M  V30 51 H 40.704822 28.478139 55.455945 0
M  V30 52 H 39.362851 33.468441 56.191376 0
M  V30 53 H 38.081290 34.416111 55.461244 0
M  V30 54 H 36.487681 33.186271 56.809680 0
M  V30 55 H 39.193827 26.794197 51.644838 0
M  V30 56 H 38.207775 27.981311 50.653449 0
M  V30 57 H 38.629718 30.965511 56.476687 0
M  V30 58 H 38.478670 25.821343 59.005337 0
M  V30 59 H 40.034133 30.771915 53.789281 0
M  V30 60 H 40.667399 30.916439 55.406738 0
M  V30 61 H 38.769461 34.021428 58.372148 0
M  V30 62 H 37.467425 35.181369 57.853522 0
M  V30 63 H 38.646847 32.557659 53.954044 0
M  V30 64 H 37.067309 32.319491 54.574208 0
M  V30 65 H 36.150694 29.786497 60.142134 0
M  V30 66 H 35.901861 31.528163 60.220837 0
M  V30 67 H 36.266724 35.129193 61.920731 0
M  V30 68 H 37.044600 25.244578 53.515607 0
M  V30 69 H 37.670567 32.295612 57.445022 0
M  V30 70 H 39.606892 27.223312 53.825034 0
M  V30 END ATOM
M  V30 BEGIN BOND
M  V30 1 1 5 4
M  V30 2 1 8 6
M  V30 3 1 12 2
M  V30 4 2 12 10
M  V30 5 1 13 12
M  V30 6 1 14 11
M  V30 7 1 17 16
M  V30 8 1 18 11
M  V30 9 1 18 14
M  V30 10 2 20 5
M  V30 11 1 20 7
M  V30 12 1 21 15
M  V30 13 1 21 19
M  V30 14 1 22 11
M  V30 15 1 22 15
M  V30 16 2 23 4
M  V30 17 1 24 6
M  V30 18 1 24 17
M  V30 19 2 25 7
M  V30 20 1 25 23
M  V30 21 1 26 16
M  V30 22 1 26 19
M  V30 23 1 27 9
M  V30 24 1 28 1
M  V30 25 1 28 3
M  V30 26 1 28 8
M  V30 27 1 29 15
M  V30 28 1 29 22
M  V30 29 1 29 25 CFG=1
M  V30 30 1 30 23
M  V30 31 1 31 19
M  V30 32 1 31 29
M  V30 33 1 32 2
M  V30 34 1 32 8
M  V30 35 1 33 2
M  V30 36 1 33 27
M  V30 37 1 34 1
M  V30 38 1 35 1
M  V30 39 1 36 1
M  V30 40 1 2 37 CFG=3
M  V30 41 1 38 3
M  V30 42 1 39 4
M  V30 43 1 40 5
M  V30 44 1 41 6
M  V30 45 1 42 7
M  V30 46 1 8 43 CFG=3
M  V30 47 1 44 9
M  V30 48 1 45 11
M  V30 49 1 46 13
M  V30 50 1 47 13
M  V30 51 1 48 13
M  V30 52 1 49 14
M  V30 53 1 50 14
M  V30 54 1 15 51 CFG=1
M  V30 55 1 52 16
M  V30 56 1 53 16
M  V30 57 1 54 17
M  V30 58 1 55 18
M  V30 59 1 56 18
M  V30 60 1 19 57 CFG=1
M  V30 61 1 58 20
M  V30 62 1 59 21
M  V30 63 1 60 21
M  V30 64 1 61 24
M  V30 65 1 62 24
M  V30 66 1 63 26
M  V30 67 1 64 26
M  V30 68 1 65 27
M  V30 69 1 66 27
M  V30 70 1 28 67 CFG=1
M  V30 71 1 68 30
M  V30 72 1 69 17
M  V30 73 1 22 70 CFG=3
M  V30 END BOND
M  V30 END CTAB
M  END
>  <i_epik_Tot_Q>  (1) 
2

>  <i_epik_Tot_abs_Q>  (1) 
2

>  <i_i_glide_confnum>  (1) 
1713

>  <i_i_glide_lignum>  (1) 
83

>  <i_i_glide_posenum>  (1) 
51

>  <i_i_glide_rotatable_bonds>  (1) 
17

>  <i_lp_mmshare_version>  (1) 
72125

>  <i_m_source_file_index>  (1) 
31

>  <i_f3d_flags>  (1) 
0

>  <num_sample>  (1) 
100

>  <b_lp_Chiralities_Consistent>  (1) 
1

>  <r_epik_Charging_Adjusted_Penalty>  (1) 
1.979093595035226

>  <r_epik_Ionization_Penalty>  (1) 
0.79989620662071081

>  <r_epik_Ionization_Penalty_Charging>  (1) 
0.66086891892205935

>  <r_epik_Ionization_Penalty_Neutral>  (1) 
0.13902728769865147

>  <r_epik_State_Penalty>  (1) 
1.3182246761131666

>  <r_glide_ring_energy>  (1) 
0

>  <r_i_docking_score>  (1) 
-6.6185020649061261

>  <r_i_glide_ecoul>  (1) 
-9.170327440235944

>  <r_i_glide_eff_state_penalty>  (1) 
1.3182246761131666

>  <r_i_glide_einternal>  (1) 
19.626889995082582

>  <r_i_glide_emodel>  (1) 
-68.236937786157029

>  <r_i_glide_emodel_strain>  (1) 
1.235696800446334

>  <r_i_glide_energy>  (1) 
-49.032231318651135

>  <r_i_glide_erotb>  (1) 
1.1283805066766976

>  <r_i_glide_esite>  (1) 
-0.16623162822110005

>  <r_i_glide_evdw>  (1) 
-39.861903878415191

>  <r_i_glide_gscore>  (1) 
-7.9367267410192932

>  <r_i_glide_gscore_strain>  (1) 
0

>  <r_i_glide_hbond>  (1) 
-0.46635630283558405

>  <r_i_glide_ligand_efficiency>  (1) 
-0.20056066863351898

>  <r_i_glide_ligand_efficiency_ln>  (1) 
-1.4719205904654555

>  <r_i_glide_ligand_efficiency_sa>  (1) 
-0.64330522988892935

>  <r_i_glide_lipo>  (1) 
-3.7899498658105357

>  <r_i_glide_metal>  (1) 
-0

>  <r_i_glide_rewards>  (1) 
-1.2739251408726198

>  <r_lp_Energy>  (1) 
37.245042999999995

>  <r_lp_tautomer_probability>  (1) 
0.99999996999736518

>  <s_epik_Chemistry_Notes>  (1) 
This compound contains an acetal/aminal-like group ( X-CH(R)-Y where X, Y are N, S, or O) that may be acid/base labile, releasing an aldehyde.

>  <s_epik_cmdline>  (1) 
J2VwaWtfcHl0aG9uJywgJy1waHQnLCAnMS4wJywgJy1waCcsICc3LjQnLCAnLXRuJywgJzgnLCAnLW1hJywgJzUwMCcsICctaW1hZScsICc8aW5maWxlLm1hZT4nLCAnLW9tYWUnLCAnPG91dGZpbGUubWFlPic=

>  <s_epik_input>  (1) 
W09IXVtDSDJdT1tDQEBIXShDKD1PKVtDSDNdKU9bQ0BIXShbQ0BIXShbQ0gzXSlbT0hdKVtOSF1bQ0gyXVtOSF1bQ0gyXVtDSDJdW0NAQEhdKFMxKVtDSDJdW0NASF0oTjJbQ0hdM1tDSDJdW0NIMl0zKVtDQEBdMTJjNFtjSF1bY0hdW2NIXVtjSF1jNFtPSF0=

>  <s_glide_docking_method>  (1) 
confgen

>  <s_i_glide_gridfile>  (1) 
gpcr_5ht2c_6bqh_protein_autoprepared_prepared

>  <s_lp_Force_Field>  (1) 
S-OPLS

>  <s_lp_Variant>  (1) 
DiffSBDD_30_num_sample_100-5

>  <s_m_source_file>  (1) 
generated__ligand_DiffSBDD_2026-05-06_prepared.sdf

>  <GenAI_Model>  (1) 
DiffSBDD

>  <Protein>  (1) 
GPCR_5HT2C

$$$$
DiffSBDD_44_num_sample_100
     RDKit          3D

  0  0  0  0  0  0  0  0  0  0999 V3000
M  V30 BEGIN CTAB
M  V30 COUNTS 58 59 0 0 1
M  V30 BEGIN ATOM
M  V30 1 C 39.386461 28.252487 50.714509 0
M  V30 2 O 37.996689 29.365862 54.940975 0 CHG=-1
M  V30 3 C 38.891759 29.756918 58.433878 0
M  V30 4 C 39.626396 29.835631 52.535177 0 CFG=1
M  V30 5 N 38.688457 28.763793 52.993416 0 CFG=1 CHG=1
M  V30 6 C 39.846188 28.971873 60.564276 0
M  V30 7 N 39.643135 27.393796 56.991555 0
M  V30 8 C 39.530322 28.811470 59.079228 0
M  V30 9 O 41.331724 27.221424 58.653501 0
M  V30 10 C 39.703583 29.717550 51.005086 0 CFG=1
M  V30 11 C 41.042520 30.168197 50.414904 0
M  V30 12 C 38.169725 27.111671 55.041495 0 CFG=1
M  V30 13 C 38.516436 27.005296 56.533762 0
M  V30 14 C 38.845675 27.660575 52.019734 0
M  V30 15 C 42.312364 27.750884 57.787673 0
M  V30 16 C 38.107623 31.822946 59.529948 0
M  V30 17 C 38.785507 28.445337 54.449892 0 CFG=2
M  V30 18 C 39.957024 27.492042 58.412199 0 CFG=2
M  V30 19 F 38.169895 32.058086 61.851235 0
M  V30 20 C 38.314117 31.125345 60.909024 0 CFG=2
M  V30 21 C 38.267439 30.899597 58.333691 0
M  V30 22 C 38.577626 25.773123 54.414750 0
M  V30 23 C 37.428834 26.412819 57.408876 0
M  V30 24 C 39.317259 31.246588 53.069060 0
M  V30 25 C 39.684636 30.418564 61.132952 0
M  V30 26 H 40.267422 27.697833 50.392663 0
M  V30 27 H 38.667402 28.179205 49.903263 0
M  V30 28 H 40.626775 29.621442 52.888195 0
M  V30 29 H 39.205185 28.284809 61.118212 0
M  V30 30 H 40.869375 28.640805 60.743674 0
M  V30 31 H 38.935036 30.325906 50.542540 0
M  V30 32 H 41.867362 29.621447 50.863686 0
M  V30 33 H 41.073053 30.021076 49.335351 0
M  V30 34 H 41.215618 31.221414 50.605701 0
M  V30 35 H 37.083490 27.157891 54.941461 0
M  V30 36 H 39.593374 26.954145 52.373758 0
M  V30 37 H 37.900058 27.142259 51.862665 0
M  V30 38 H 43.303853 27.499602 58.163507 0
M  V30 39 H 42.221503 27.351238 56.780095 0
M  V30 40 H 42.229445 28.821439 57.753797 0
M  V30 41 H 38.803773 32.654079 59.415232 0
M  V30 42 H 37.104276 32.248682 59.493122 0
M  V30 43 H 39.854305 28.409462 54.654419 0
M  V30 44 H 39.451685 26.710770 58.979154 0
M  V30 45 H 37.502040 30.421425 61.084501 0
M  V30 46 H 37.837506 31.228159 57.396369 0
M  V30 47 H 38.294619 24.924452 55.040416 0
M  V30 48 H 38.040028 25.623233 53.483696 0
M  V30 49 H 39.653646 25.705715 54.253411 0
M  V30 50 H 36.603655 26.021520 56.814315 0
M  V30 51 H 37.813349 25.588859 58.009758 0
M  V30 52 H 37.051596 27.194524 58.058940 0
M  V30 53 H 39.467615 32.002250 52.300673 0
M  V30 54 H 38.302784 31.364706 53.453492 0
M  V30 55 H 39.971572 31.485641 53.907169 0
M  V30 56 H 39.860892 30.358127 62.207910 0
M  V30 57 H 40.480115 31.056143 60.745284 0
M  V30 58 H 37.753637 29.127456 52.894533 0
M  V30 END ATOM
M  V30 BEGIN BOND
M  V30 1 1 5 4
M  V30 2 2 8 3
M  V30 3 1 8 6
M  V30 4 1 10 1
M  V30 5 1 10 4
M  V30 6 1 11 10
M  V30 7 2 13 7
M  V30 8 1 13 12
M  V30 9 1 14 1
M  V30 10 1 14 5
M  V30 11 1 15 9
M  V30 12 1 17 2
M  V30 13 1 17 5
M  V30 14 1 17 12
M  V30 15 1 18 7
M  V30 16 1 18 8
M  V30 17 1 18 9
M  V30 18 1 20 16
M  V30 19 1 20 19
M  V30 20 2 21 3
M  V30 21 1 21 16
M  V30 22 1 22 12
M  V30 23 1 23 13
M  V30 24 1 24 4
M  V30 25 1 25 6
M  V30 26 1 25 20
M  V30 27 1 26 1
M  V30 28 1 27 1
M  V30 29 1 4 28 CFG=1
M  V30 30 1 29 6
M  V30 31 1 30 6
M  V30 32 1 10 31 CFG=3
M  V30 33 1 32 11
M  V30 34 1 33 11
M  V30 35 1 34 11
M  V30 36 1 12 35 CFG=1
M  V30 37 1 36 14
M  V30 38 1 37 14
M  V30 39 1 38 15
M  V30 40 1 39 15
M  V30 41 1 40 15
M  V30 42 1 41 16
M  V30 43 1 42 16
M  V30 44 1 17 43 CFG=1
M  V30 45 1 18 44 CFG=1
M  V30 46 1 20 45 CFG=1
M  V30 47 1 46 21
M  V30 48 1 47 22
M  V30 49 1 48 22
M  V30 50 1 49 22
M  V30 51 1 50 23
M  V30 52 1 51 23
M  V30 53 1 52 23
M  V30 54 1 53 24
M  V30 55 1 54 24
M  V30 56 1 55 24
M  V30 57 1 56 25
M  V30 58 1 57 25
M  V30 59 1 5 58 CFG=1
M  V30 END BOND
M  V30 END CTAB
M  END
>  <i_epik_Tot_Q>  (1) 
0

>  <i_epik_Tot_abs_Q>  (1) 
2

>  <i_i_glide_confnum>  (1) 
3

>  <i_i_glide_lignum>  (1) 
116

>  <i_i_glide_posenum>  (1) 
304

>  <i_i_glide_rotatable_bonds>  (1) 
6

>  <i_lp_mmshare_version>  (1) 
72125

>  <i_m_source_file_index>  (1) 
45

>  <i_f3d_flags>  (1) 
0

>  <num_sample>  (1) 
100

>  <b_lp_Chiralities_Consistent>  (1) 
1

>  <r_epik_Charging_Adjusted_Penalty>  (1) 
0.41733257654759531

>  <r_epik_Ionization_Penalty>  (1) 
0.0069177268181324029

>  <r_epik_Ionization_Penalty_Charging>  (1) 
0.0066527375949913311

>  <r_epik_Ionization_Penalty_Neutral>  (1) 
0.00026498922314107146

>  <r_epik_State_Penalty>  (1) 
0.41067983895260396

>  <r_glide_ring_energy>  (1) 
0

>  <r_i_docking_score>  (1) 
-6.6130280559932899

>  <r_i_glide_ecoul>  (1) 
0.30715832525501807

>  <r_i_glide_eff_state_penalty>  (1) 
0.41067983895260396

>  <r_i_glide_einternal>  (1) 
9.4156843550915568

>  <r_i_glide_emodel>  (1) 
-40.769998238870542

>  <r_i_glide_emodel_strain>  (1) 
2.3145462893573949

>  <r_i_glide_energy>  (1) 
-29.989638393832514

>  <r_i_glide_erotb>  (1) 
0.61440649929112812

>  <r_i_glide_esite>  (1) 
0

>  <r_i_glide_evdw>  (1) 
-30.296796719087531

>  <r_i_glide_gscore>  (1) 
-7.0237078949458942

>  <r_i_glide_gscore_strain>  (1) 
0

>  <r_i_glide_hbond>  (1) 
0

>  <r_i_glide_ligand_efficiency>  (1) 
-0.26452112223973162

>  <r_i_glide_ligand_efficiency_ln>  (1) 
-1.5674858257293891

>  <r_i_glide_ligand_efficiency_sa>  (1) 
-0.77346445356094906

>  <r_i_glide_lipo>  (1) 
-3.3921907391163559

>  <r_i_glide_metal>  (1) 
-0

>  <r_i_glide_rewards>  (1) 
-2.7771575679545419

>  <r_lp_Energy>  (1) 
7.1252040000000001

>  <r_lp_tautomer_probability>  (1) 
0.49999399997599986

>  <s_epik_Chemistry_Notes>  (1) 
This compound has an imine and may undergo hydrolysis. This compound contains an acetal/aminal-like group ( X-CH(R)-Y where X, Y are N, S, or O) that may be acid/base labile, releasing an aldehyde.

>  <s_epik_cmdline>  (1) 
J2VwaWtfcHl0aG9uJywgJy1waHQnLCAnMS4wJywgJy1waCcsICc3LjQnLCAnLXRuJywgJzgnLCAnLW1hJywgJzUwMCcsICctaW1hZScsICc8aW5maWxlLm1hZT4nLCAnLW9tYWUnLCAnPG91dGZpbGUubWFlPic=

>  <s_epik_input>  (1) 
W0NIM11bQ0BIXTFbQ0gyXVtDSDJdTihbQ0BASF0xW0NIM10pW0NAQEhdKFtPSF0pW0NAQEhdKFtDSDNdKVxDKFtDSDNdKT1OXFtDQEBIXShPW0NIM10pQzI9Qz1bQ0hdW0NIMl1bQ0BASF0oRilbQ0gyXVtDSDJdMg==

>  <s_glide_docking_method>  (1) 
confgen

>  <s_i_glide_gridfile>  (1) 
gpcr_5ht2c_6bqh_protein_autoprepared_prepared

>  <s_lp_Force_Field>  (1) 
S-OPLS

>  <s_lp_Variant>  (1) 
DiffSBDD_44_num_sample_100-9

>  <s_m_source_file>  (1) 
generated__ligand_DiffSBDD_2026-05-06_prepared.sdf

>  <GenAI_Model>  (1) 
DiffSBDD

>  <Protein>  (1) 
GPCR_5HT2C

$$$$
DiffSBDD_15_num_sample_100
     RDKit          3D

  0  0  0  0  0  0  0  0  0  0999 V3000
M  V30 BEGIN CTAB
M  V30 COUNTS 74 79 0 0 1
M  V30 BEGIN ATOM
M  V30 1 C 38.745254 31.199534 59.880050 0
M  V30 2 S 38.267404 31.802296 55.817200 0
M  V30 3 N 42.564801 31.458486 66.227225 0
M  V30 4 C 40.175034 28.522198 50.628120 0
M  V30 5 C 43.216847 30.958560 69.165550 0
M  V30 6 C 42.004074 32.778894 62.655231 0
M  V30 7 S 41.022480 29.138327 63.427518 0
M  V30 8 S 41.953697 29.867780 68.446197 0
M  V30 9 O 40.667430 27.823639 63.979219 0
M  V30 10 C 38.843104 29.047850 53.206715 0
M  V30 11 C 39.482288 30.103027 52.663250 0
M  V30 12 C 38.736178 30.955292 57.367484 0 CFG=1
M  V30 13 C 41.725352 32.672371 64.146485 0 CFG=1
M  V30 14 N 38.335790 29.386747 54.441166 0
M  V30 15 C 44.629967 30.638355 68.648407 0
M  V30 16 C 45.533512 31.873822 68.630509 0
M  V30 17 C 42.155395 31.343905 64.789728 0 CFG=2
M  V30 18 C 40.024752 28.367090 58.838844 0
M  V30 19 S 40.267437 30.271043 51.124064 0
M  V30 20 C 38.653540 27.697954 52.605524 0
M  V30 21 N 41.089152 29.801336 65.957225 0
M  V30 22 C 38.427834 29.694346 60.059426 0 CFG=2
M  V30 23 N 42.267451 33.848319 64.813841 0
M  V30 24 O 38.667603 33.124223 58.478259 0
M  V30 25 C 38.879466 27.790657 51.075926 0
M  V30 26 C 39.636156 29.802904 62.390530 0
M  V30 27 C 38.229159 31.785763 58.563022 0 CFG=2
M  V30 28 N 41.062915 30.286567 64.716161 0
M  V30 29 C 39.365984 29.008149 61.087574 0 CFG=2
M  V30 30 C 40.834922 33.656200 64.849968 0
M  V30 31 C 41.915550 30.487268 66.740077 0
M  V30 32 C 40.592483 28.686301 60.225661 0
M  V30 33 O 42.267384 29.271200 62.675890 0
M  V30 34 C 38.701220 30.672572 54.548694 0
M  V30 35 N 38.643390 28.904344 58.822527 0 CFG=1 CHG=1
M  V30 36 O 39.438491 31.167372 53.507660 0
M  V30 37 C 38.192722 29.521168 57.547488 0
M  V30 38 H 39.817517 31.364654 59.949300 0
M  V30 39 H 38.313499 31.760214 60.710684 0
M  V30 40 H 40.267373 28.487544 49.545574 0
M  V30 41 H 41.038640 28.021434 51.053784 0
M  V30 42 H 42.942519 31.988862 68.935219 0
M  V30 43 H 43.191258 30.868499 70.251845 0
M  V30 44 H 41.706433 31.879730 62.127090 0
M  V30 45 H 41.474575 33.627498 62.219657 0
M  V30 46 H 43.067403 32.901990 62.470897 0
M  V30 47 H 39.823099 30.909713 57.365363 0
M  V30 48 H 45.068533 29.850181 69.259153 0
M  V30 49 H 44.594741 30.238971 67.635156 0
M  V30 50 H 46.526404 31.622050 68.255711 0
M  V30 51 H 45.129508 32.645686 67.973128 0
M  V30 52 H 45.638155 32.302234 69.627929 0
M  V30 53 H 43.030839 30.990150 64.244833 0
M  V30 54 H 40.651622 28.795657 58.056014 0
M  V30 55 H 39.985730 27.289269 58.675725 0
M  V30 56 H 39.357100 26.991030 53.044536 0
M  V30 57 H 37.653884 27.314634 52.811852 0
M  V30 58 H 40.543532 28.995484 66.234978 0
M  V30 59 H 37.371732 29.621421 60.308278 0
M  V30 60 H 42.604162 34.607803 64.239237 0
M  V30 61 H 38.311089 33.493997 57.681179 0
M  V30 62 H 38.038181 28.333203 50.653516 0
M  V30 63 H 38.850341 26.791443 50.644050 0
M  V30 64 H 39.890102 30.833991 62.179862 0
M  V30 65 H 38.745230 29.864498 63.010784 0
M  V30 66 H 37.137249 31.797577 58.568261 0
M  V30 67 H 38.936883 28.045805 61.371562 0
M  V30 68 H 40.267399 34.359601 64.250050 0
M  V30 69 H 40.389565 33.363039 65.798481 0
M  V30 70 H 41.234815 29.561465 60.147960 0
M  V30 71 H 41.196296 27.872262 60.626609 0
M  V30 72 H 38.525723 28.842766 56.770388 0
M  V30 73 H 37.101485 29.529984 57.517631 0
M  V30 74 H 38.067129 28.082761 58.937393 0
M  V30 END ATOM
M  V30 BEGIN BOND
M  V30 1 1 8 5
M  V30 2 2 9 7
M  V30 3 2 11 10
M  V30 4 1 12 2
M  V30 5 1 13 6 CFG=3
M  V30 6 1 14 10
M  V30 7 1 15 5
M  V30 8 1 16 15
M  V30 9 1 17 3
M  V30 10 1 17 13
M  V30 11 1 19 4
M  V30 12 1 19 11
M  V30 13 1 20 10
M  V30 14 1 22 1
M  V30 15 1 23 13
M  V30 16 1 25 4
M  V30 17 1 25 20
M  V30 18 1 26 7
M  V30 19 1 27 1
M  V30 20 1 27 12
M  V30 21 1 27 24
M  V30 22 1 28 7
M  V30 23 1 28 17
M  V30 24 1 28 21
M  V30 25 1 29 22
M  V30 26 1 29 26
M  V30 27 1 30 13
M  V30 28 1 30 23
M  V30 29 2 31 3
M  V30 30 1 31 8
M  V30 31 1 31 21
M  V30 32 1 32 18
M  V30 33 1 32 29
M  V30 34 2 33 7
M  V30 35 1 34 2
M  V30 36 2 34 14
M  V30 37 1 35 18
M  V30 38 1 35 22
M  V30 39 1 36 11
M  V30 40 1 36 34
M  V30 41 1 37 12
M  V30 42 1 37 35
M  V30 43 1 38 1
M  V30 44 1 39 1
M  V30 45 1 40 4
M  V30 46 1 41 4
M  V30 47 1 42 5
M  V30 48 1 43 5
M  V30 49 1 44 6
M  V30 50 1 45 6
M  V30 51 1 46 6
M  V30 52 1 12 47 CFG=1
M  V30 53 1 48 15
M  V30 54 1 49 15
M  V30 55 1 50 16
M  V30 56 1 51 16
M  V30 57 1 52 16
M  V30 58 1 17 53 CFG=3
M  V30 59 1 54 18
M  V30 60 1 55 18
M  V30 61 1 56 20
M  V30 62 1 57 20
M  V30 63 1 58 21
M  V30 64 1 22 59 CFG=1
M  V30 65 1 60 23
M  V30 66 1 61 24
M  V30 67 1 62 25
M  V30 68 1 63 25
M  V30 69 1 64 26
M  V30 70 1 65 26
M  V30 71 1 27 66 CFG=1
M  V30 72 1 29 67 CFG=1
M  V30 73 1 68 30
M  V30 74 1 69 30
M  V30 75 1 70 32
M  V30 76 1 71 32
M  V30 77 1 72 37
M  V30 78 1 73 37
M  V30 79 1 35 74 CFG=1
M  V30 END BOND
M  V30 END CTAB
M  END
>  <i_epik_Tot_Q>  (1) 
1

>  <i_epik_Tot_abs_Q>  (1) 
1

>  <i_i_glide_confnum>  (1) 
223

>  <i_i_glide_lignum>  (1) 
34

>  <i_i_glide_posenum>  (1) 
34

>  <i_i_glide_rotatable_bonds>  (1) 
10

>  <i_lp_mmshare_version>  (1) 
72125

>  <i_m_source_file_index>  (1) 
16

>  <i_f3d_flags>  (1) 
0

>  <num_sample>  (1) 
100

>  <b_lp_Chiralities_Consistent>  (1) 
1

>  <r_epik_Charging_Adjusted_Penalty>  (1) 
0.0082019649409003706

>  <r_epik_Ionization_Penalty>  (1) 
0.015626865898487191

>  <r_epik_Ionization_Penalty_Charging>  (1) 
0.0082019649409003706

>  <r_epik_Ionization_Penalty_Neutral>  (1) 
0.0074249009575868222

>  <r_epik_State_Penalty>  (1) 
-0

>  <r_glide_ring_energy>  (1) 
0

>  <r_i_docking_score>  (1) 
-6.6091200017238645

>  <r_i_glide_ecoul>  (1) 
-1.4967688197657965

>  <r_i_glide_eff_state_penalty>  (1) 
-0

>  <r_i_glide_einternal>  (1) 
13.6405267006819

>  <r_i_glide_emodel>  (1) 
-51.057565261036402

>  <r_i_glide_emodel_strain>  (1) 
4.188411887948007

>  <r_i_glide_energy>  (1) 
-46.132472048814925

>  <r_i_glide_erotb>  (1) 
0.37349522713264072

>  <r_i_glide_esite>  (1) 
-0.097442885954122704

>  <r_i_glide_evdw>  (1) 
-44.635703229049128

>  <r_i_glide_gscore>  (1) 
-6.6091200017238645

>  <r_i_glide_gscore_strain>  (1) 
0.047102971987001752

>  <r_i_glide_hbond>  (1) 
0

>  <r_i_glide_ligand_efficiency>  (1) 
-0.17862486491145579

>  <r_i_glide_ligand_efficiency_ln>  (1) 
-1.4333631886180622

>  <r_i_glide_ligand_efficiency_sa>  (1) 
-0.59521767810525961

>  <r_i_glide_lipo>  (1) 
-3.5382657739663896

>  <r_i_glide_metal>  (1) 
-0

>  <r_i_glide_rewards>  (1) 
-0.93770905650566794

>  <r_lp_Energy>  (1) 
9.9370189999999994

>  <r_lp_tautomer_probability>  (1) 
1

>  <s_epik_Chemistry_Notes>  (1) 
This compound has an imine and may undergo hydrolysis. This compound contains an acetal/aminal-like group ( X-CH(R)-Y where X, Y are N, S, or O) that may be acid/base labile, releasing an aldehyde.

>  <s_epik_cmdline>  (1) 
J2VwaWtfcHl0aG9uJywgJy1waHQnLCAnMS4wJywgJy1waCcsICc3LjQnLCAnLXRuJywgJzgnLCAnLW1hJywgJzUwMCcsICctaW1hZScsICc8aW5maWxlLm1hZT4nLCAnLW9tYWUnLCAnPG91dGZpbGUubWFlPic=

>  <s_epik_input>  (1) 
W0NIMl0xW0NIMl1bQ0gyXVNjKGMxMilvYyhuMilTW0NAQEhdKFtDQEBIXShbQ0gyXTMpW09IXSlbQ0gyXU4oW0NASF0zNClbQ0gyXVtDSDJdW0NASF00W0NIMl1TKD1PKSg9TylONVtOSF1DKFNbQ0gyXVtDSDJdW0NIM10pPU5bQ0BASF01W0NAXTYoW0NIM10pW05IXVtDSDJdNg==

>  <s_glide_docking_method>  (1) 
confgen

>  <s_i_glide_gridfile>  (1) 
gpcr_5ht2c_6bqh_protein_autoprepared_prepared

>  <s_lp_Force_Field>  (1) 
S-OPLS

>  <s_lp_Variant>  (1) 
DiffSBDD_15_num_sample_100-1

>  <s_m_source_file>  (1) 
generated__ligand_DiffSBDD_2026-05-06_prepared.sdf

>  <GenAI_Model>  (1) 
DiffSBDD

>  <Protein>  (1) 
GPCR_5HT2C

$$$$
DiffSBDD_39_num_sample_100
     RDKit          3D

  0  0  0  0  0  0  0  0  0  0999 V3000
M  V30 BEGIN CTAB
M  V30 COUNTS 61 64 0 0 1
M  V30 BEGIN ATOM
M  V30 1 C 39.171826 35.198860 62.202215 0
M  V30 2 C 39.152903 29.719466 58.382596 0
M  V30 3 C 35.977823 32.787700 61.109281 0
M  V30 4 C 38.598608 30.901623 59.183882 0
M  V30 5 C 38.745432 33.776460 60.183897 0
M  V30 6 C 37.774059 27.829619 57.305553 0
M  V30 7 N 38.734218 26.745961 53.788897 0
M  V30 8 O 36.267250 31.621219 61.453519 0 CHG=-1
M  V30 9 C 38.239487 27.932711 55.878842 0
M  V30 10 C 37.340987 35.879653 60.718329 0
M  V30 11 O 35.422113 33.621738 61.853457 0
M  V30 12 C 37.067396 36.958249 61.587986 0
M  V30 13 C 37.831211 37.146245 62.756705 0
M  V30 14 N 37.775562 33.249112 59.383589 0
M  V30 15 C 39.767786 36.470317 64.301068 0
M  V30 16 C 35.661504 34.509121 59.242241 0
M  V30 17 C 39.550926 27.968450 51.847330 0
M  V30 18 C 38.235051 32.208921 58.432681 0
M  V30 19 C 39.881358 37.134507 66.799568 0
M  V30 20 C 38.567109 29.167426 55.241660 0
M  V30 21 C 36.323316 33.200874 59.666442 0 CFG=2
M  V30 22 C 39.555493 29.497062 51.503971 0
M  V30 23 O 39.971486 35.944181 67.175034 0 CHG=-1
M  V30 24 C 38.395215 34.969828 61.046752 0
M  V30 25 S 39.467502 30.527970 53.053499 0
M  V30 26 C 39.001651 29.120080 53.920092 0
M  V30 27 O 38.407038 30.366947 55.858854 0
M  V30 28 C 38.898760 36.272360 63.053944 0
M  V30 29 Cl 37.910156 25.219529 55.796854 0
M  V30 30 C 39.248106 37.390924 65.424589 0
M  V30 31 C 38.325259 26.741842 55.085633 0
M  V30 32 C 38.133059 28.606721 58.362289 0
M  V30 33 C 36.539820 35.744968 59.426079 0
M  V30 34 O 39.867413 33.303372 60.253763 0
M  V30 35 C 39.067438 27.934625 53.259099 0
M  V30 36 O 40.258168 38.139616 67.448089 0
M  V30 37 H 39.981762 34.526573 62.442920 0
M  V30 38 H 39.896719 29.272591 59.043387 0
M  V30 39 H 39.808570 29.931256 57.545499 0
M  V30 40 H 37.716791 30.583513 59.737343 0
M  V30 41 H 39.329933 31.070574 59.969087 0
M  V30 42 H 37.068398 27.035700 57.499666 0
M  V30 43 H 36.269988 37.648872 61.353850 0
M  V30 44 H 37.599756 37.964792 63.413683 0
M  V30 45 H 40.002633 35.490028 64.701510 0
M  V30 46 H 40.729251 36.821427 63.940829 0
M  V30 47 H 34.704488 34.636297 59.744872 0
M  V30 48 H 35.392957 34.421585 58.191712 0
M  V30 49 H 40.573926 27.621508 51.853383 0
M  V30 50 H 38.944920 27.367421 51.166534 0
M  V30 51 H 39.092979 32.575034 57.865676 0
M  V30 52 H 37.467417 32.019315 57.683824 0
M  V30 53 H 35.859407 32.417546 59.066738 0
M  V30 54 H 40.414461 29.776007 50.892793 0
M  V30 55 H 38.667735 29.692092 50.906874 0
M  V30 56 H 37.959921 30.295334 56.690551 0
M  V30 57 H 39.467380 38.421430 65.151922 0
M  V30 58 H 38.176450 37.247547 65.556259 0
M  V30 59 H 37.671074 28.421417 59.313988 0
M  V30 60 H 35.915805 36.629657 59.292357 0
M  V30 61 H 37.255266 35.793520 58.608575 0
M  V30 END ATOM
M  V30 BEGIN BOND
M  V30 1 1 4 2
M  V30 2 1 8 3
M  V30 3 1 9 6
M  V30 4 2 11 3
M  V30 5 1 12 10
M  V30 6 2 13 12
M  V30 7 1 14 5
M  V30 8 1 18 4
M  V30 9 1 18 14
M  V30 10 2 20 9
M  V30 11 1 21 3
M  V30 12 1 21 14
M  V30 13 1 21 16
M  V30 14 1 22 17
M  V30 15 1 23 19
M  V30 16 1 24 1
M  V30 17 1 24 5
M  V30 18 2 24 10
M  V30 19 1 25 22
M  V30 20 1 26 20
M  V30 21 1 26 25
M  V30 22 1 27 20
M  V30 23 2 28 1
M  V30 24 1 28 13
M  V30 25 1 28 15
M  V30 26 1 30 15
M  V30 27 1 30 19
M  V30 28 2 31 7
M  V30 29 1 31 9
M  V30 30 1 31 29
M  V30 31 1 32 2
M  V30 32 2 32 6
M  V30 33 1 33 10
M  V30 34 1 33 16
M  V30 35 2 34 5
M  V30 36 1 35 7
M  V30 37 1 35 17
M  V30 38 2 35 26
M  V30 39 2 36 19
M  V30 40 1 37 1
M  V30 41 1 38 2
M  V30 42 1 39 2
M  V30 43 1 40 4
M  V30 44 1 41 4
M  V30 45 1 42 6
M  V30 46 1 43 12
M  V30 47 1 44 13
M  V30 48 1 45 15
M  V30 49 1 46 15
M  V30 50 1 47 16
M  V30 51 1 48 16
M  V30 52 1 49 17
M  V30 53 1 50 17
M  V30 54 1 51 18
M  V30 55 1 52 18
M  V30 56 1 21 53 CFG=3
M  V30 57 1 54 22
M  V30 58 1 55 22
M  V30 59 1 56 27
M  V30 60 1 57 30
M  V30 61 1 58 30
M  V30 62 1 59 32
M  V30 63 1 60 33
M  V30 64 1 61 33
M  V30 END BOND
M  V30 END CTAB
M  END
>  <i_epik_Tot_Q>  (1) 
-2

>  <i_epik_Tot_abs_Q>  (1) 
2

>  <i_i_glide_confnum>  (1) 
10

>  <i_i_glide_lignum>  (1) 
97

>  <i_i_glide_posenum>  (1) 
32

>  <i_i_glide_rotatable_bonds>  (1) 
10

>  <i_lp_mmshare_version>  (1) 
72125

>  <i_m_source_file_index>  (1) 
40

>  <i_f3d_flags>  (1) 
0

>  <num_sample>  (1) 
100

>  <b_lp_Chiralities_Consistent>  (1) 
1

>  <r_epik_Charging_Adjusted_Penalty>  (1) 
1.1553041349672681

>  <r_epik_Ionization_Penalty>  (1) 
1.0836065631352982

>  <r_epik_Ionization_Penalty_Charging>  (1) 
0.00098582723969229671

>  <r_epik_Ionization_Penalty_Neutral>  (1) 
1.0826207358956059

>  <r_epik_State_Penalty>  (1) 
1.1543183077275758

>  <r_glide_ring_energy>  (1) 
0

>  <r_i_docking_score>  (1) 
-6.6058702048707678

>  <r_i_glide_ecoul>  (1) 
-5.4364653614667837

>  <r_i_glide_eff_state_penalty>  (1) 
1.1543183077275758

>  <r_i_glide_einternal>  (1) 
14.526165206014447

>  <r_i_glide_emodel>  (1) 
-54.469107699792033

>  <r_i_glide_emodel_strain>  (1) 
2.4249491516790869

>  <r_i_glide_energy>  (1) 
-47.361185068350181

>  <r_i_glide_erotb>  (1) 
0.51538728504810294

>  <r_i_glide_esite>  (1) 
-0.030245504712428064

>  <r_i_glide_evdw>  (1) 
-41.924719706883401

>  <r_i_glide_gscore>  (1) 
-7.7601885125983436

>  <r_i_glide_gscore_strain>  (1) 
0

>  <r_i_glide_hbond>  (1) 
-0.18994335169749704

>  <r_i_glide_ligand_efficiency>  (1) 
-0.18349639457974354

>  <r_i_glide_ligand_efficiency_ln>  (1) 
-1.4412224087146146

>  <r_i_glide_ligand_efficiency_sa>  (1) 
-0.60589174533677559

>  <r_i_glide_lipo>  (1) 
-3.7202942957639595

>  <r_i_glide_metal>  (1) 
-0

>  <r_i_glide_rewards>  (1) 
-1.4233868559083751

>  <r_lp_Energy>  (1) 
49.855823000000001

>  <s_epik_cmdline>  (1) 
J2VwaWtfcHl0aG9uJywgJy1waHQnLCAnMS4wJywgJy1waCcsICc3LjQnLCAnLXRuJywgJzgnLCAnLW1hJywgJzUwMCcsICctaW1hZScsICc8aW5maWxlLm1hZT4nLCAnLW9tYWUnLCAnPG91dGZpbGUubWFlPic=

>  <s_epik_input>  (1) 
W09IXUMoPU8pW0NIMl1bQ0gyXWMoW2NIXVtjSF0xKVtjSF1jKGMxMilDKD1PKU4oW0NAQEhdKEMoPU8pW09IXSlbQ0gyXVtDSDJdMilbQ0gyXVtDSDJdW0NIMl0vW0NIXT1bQ0hdXGMoYzNbT0hdKWMoQ2wpbmMoYzM0KVtDSDJdW0NIMl1TNA==

>  <s_glide_docking_method>  (1) 
confgen

>  <s_i_glide_gridfile>  (1) 
gpcr_5ht2c_6bqh_protein_autoprepared_prepared

>  <s_lp_Force_Field>  (1) 
S-OPLS

>  <s_lp_Variant>  (1) 
DiffSBDD_39_num_sample_100-4

>  <s_m_source_file>  (1) 
generated__ligand_DiffSBDD_2026-05-06_prepared.sdf

>  <GenAI_Model>  (1) 
DiffSBDD

>  <Protein>  (1) 
GPCR_5HT2C

$$$$
DiffSBDD_0_num_sample_100
     RDKit          3D

  0  0  0  0  0  0  0  0  0  0999 V3000
M  V30 BEGIN CTAB
M  V30 COUNTS 59 61 0 0 1
M  V30 BEGIN ATOM
M  V30 1 C 37.899836 25.747694 56.134719 0
M  V30 2 C 39.328795 29.458713 54.530792 0 CFG=1
M  V30 3 C 37.511531 35.463686 60.686462 0
M  V30 4 C 37.958026 33.450920 58.178697 0
M  V30 5 C 37.363898 24.972353 55.041921 0
M  V30 6 C 37.291757 27.154472 53.641039 0
M  V30 7 C 39.411690 34.019303 61.209130 0
M  V30 8 C 38.046126 36.466402 61.518648 0
M  V30 9 C 38.193182 34.236436 60.530645 0
M  V30 10 C 40.092949 29.583133 52.160162 0 CFG=2
M  V30 11 N 38.857145 31.834779 55.054587 0
M  V30 12 C 39.055999 32.955625 55.961895 0
M  V30 13 C 38.694866 32.642582 57.400395 0
M  V30 14 C 39.262589 36.247928 62.194904 0
M  V30 15 F 41.115176 34.816379 62.689593 0
M  V30 16 C 39.945232 35.025026 62.039988 0
M  V30 17 C 37.621674 33.154634 59.625320 0 CFG=1
M  V30 18 C 37.067441 25.612540 53.869840 0
M  V30 19 N 35.044327 32.831443 60.043254 0
M  V30 20 C 39.868118 30.769168 55.139112 0
M  V30 21 C 37.926939 27.054630 56.012232 0
M  V30 22 C 38.095603 29.029661 55.308445 0 CFG=1
M  V30 23 N 38.999710 29.693181 53.118142 0
M  V30 24 O 39.779819 37.221838 62.999113 0
M  V30 25 C 39.951901 30.617249 51.035209 0
M  V30 26 C 40.165148 28.149083 51.630805 0
M  V30 27 C 41.135039 30.645807 50.070409 0
M  V30 28 N 37.467484 27.744404 54.964835 0
M  V30 29 S 38.492879 28.332510 57.005779 0
M  V30 30 C 36.176673 32.972495 59.850959 0
M  V30 31 Cl 37.067381 23.285329 55.212131 0
M  V30 32 H 38.275520 25.266087 57.025497 0
M  V30 33 H 40.069782 28.675064 54.653455 0
M  V30 34 H 36.579945 35.635799 60.166005 0
M  V30 35 H 37.576255 34.377430 57.775340 0
M  V30 36 H 38.149604 27.290678 52.996780 0
M  V30 37 H 36.422922 27.598316 53.155269 0
M  V30 38 H 39.937838 33.083285 61.090645 0
M  V30 39 H 37.523469 37.404150 61.637147 0
M  V30 40 H 41.030191 29.798468 52.651900 0
M  V30 41 H 38.830408 32.194630 54.106294 0
M  V30 42 H 38.474857 33.816656 55.628667 0
M  V30 43 H 40.104353 33.241042 55.949067 0
M  V30 44 H 39.069451 31.715085 57.803456 0
M  V30 45 H 38.079273 32.201999 59.894296 0
M  V30 46 H 36.648339 25.058100 53.053495 0
M  V30 47 H 40.793403 31.079854 54.652938 0
M  V30 48 H 40.118970 30.579386 56.181057 0
M  V30 49 H 37.320364 29.793640 55.389134 0
M  V30 50 H 38.575034 30.610825 53.053883 0
M  V30 51 H 40.588353 36.974317 63.427974 0
M  V30 52 H 39.065793 30.421553 50.443365 0
M  V30 53 H 39.841822 31.611413 51.470980 0
M  V30 54 H 41.067007 28.021847 51.050427 0
M  V30 55 H 40.219060 27.415500 52.433308 0
M  V30 56 H 39.312477 27.900060 50.997383 0
M  V30 57 H 41.066516 31.530954 49.444185 0
M  V30 58 H 42.090812 30.682296 50.593344 0
M  V30 59 H 41.121485 29.778004 49.411985 0
M  V30 END ATOM
M  V30 BEGIN BOND
M  V30 1 1 5 1
M  V30 2 2 8 3
M  V30 3 1 9 3
M  V30 4 2 9 7
M  V30 5 1 12 11
M  V30 6 2 13 4
M  V30 7 1 13 12
M  V30 8 1 14 8
M  V30 9 1 16 7
M  V30 10 2 16 14
M  V30 11 1 16 15
M  V30 12 1 17 4
M  V30 13 1 17 9
M  V30 14 2 18 5
M  V30 15 1 18 6
M  V30 16 1 20 2
M  V30 17 1 20 11
M  V30 18 2 21 1
M  V30 19 1 22 2
M  V30 20 1 23 2
M  V30 21 1 23 10
M  V30 22 1 24 14
M  V30 23 1 25 10
M  V30 24 1 26 10
M  V30 25 1 27 25
M  V30 26 1 28 6
M  V30 27 1 28 21
M  V30 28 1 28 22
M  V30 29 1 29 21
M  V30 30 1 29 22
M  V30 31 1 30 17
M  V30 32 3 30 19
M  V30 33 1 31 5
M  V30 34 1 32 1
M  V30 35 1 2 33 CFG=3
M  V30 36 1 34 3
M  V30 37 1 35 4
M  V30 38 1 36 6
M  V30 39 1 37 6
M  V30 40 1 38 7
M  V30 41 1 39 8
M  V30 42 1 10 40 CFG=1
M  V30 43 1 41 11
M  V30 44 1 42 12
M  V30 45 1 43 12
M  V30 46 1 44 13
M  V30 47 1 17 45 CFG=1
M  V30 48 1 46 18
M  V30 49 1 47 20
M  V30 50 1 48 20
M  V30 51 1 22 49 CFG=1
M  V30 52 1 50 23
M  V30 53 1 51 24
M  V30 54 1 52 25
M  V30 55 1 53 25
M  V30 56 1 54 26
M  V30 57 1 55 26
M  V30 58 1 56 26
M  V30 59 1 57 27
M  V30 60 1 58 27
M  V30 61 1 59 27
M  V30 END BOND
M  V30 END CTAB
M  END
>  <i_epik_Tot_Q>  (1) 
0

>  <i_epik_Tot_abs_Q>  (1) 
0

>  <i_i_glide_confnum>  (1) 
634

>  <i_i_glide_lignum>  (1) 
1

>  <i_i_glide_posenum>  (1) 
243

>  <i_i_glide_rotatable_bonds>  (1) 
11

>  <i_lp_mmshare_version>  (1) 
72125

>  <i_m_source_file_index>  (1) 
1

>  <i_f3d_flags>  (1) 
0

>  <num_sample>  (1) 
100

>  <b_lp_Chiralities_Consistent>  (1) 
1

>  <r_epik_Charging_Adjusted_Penalty>  (1) 
0.47819495767320574

>  <r_epik_Ionization_Penalty>  (1) 
0.67182721305937398

>  <r_epik_Ionization_Penalty_Charging>  (1) 
0

>  <r_epik_Ionization_Penalty_Neutral>  (1) 
0.67182721305937398

>  <r_epik_State_Penalty>  (1) 
0.47819495767320574

>  <r_glide_ring_energy>  (1) 
0

>  <r_i_docking_score>  (1) 
-6.6041155625996497

>  <r_i_glide_ecoul>  (1) 
-1.9235066917510093

>  <r_i_glide_eff_state_penalty>  (1) 
0.47819495767320574

>  <r_i_glide_einternal>  (1) 
14.036561301568547

>  <r_i_glide_emodel>  (1) 
-50.412165004067177

>  <r_i_glide_emodel_strain>  (1) 
2.2452388598789952

>  <r_i_glide_energy>  (1) 
-39.267283825790237

>  <r_i_glide_erotb>  (1) 
0.75184865993743433

>  <r_i_glide_esite>  (1) 
-0.05787533835677048

>  <r_i_glide_evdw>  (1) 
-37.343777134039229

>  <r_i_glide_gscore>  (1) 
-7.0823105202728556

>  <r_i_glide_gscore_strain>  (1) 
0

>  <r_i_glide_hbond>  (1) 
-0.016529606769480669

>  <r_i_glide_ligand_efficiency>  (1) 
-0.21303598589031128

>  <r_i_glide_ligand_efficiency_ln>  (1) 
-1.4894304512018746

>  <r_i_glide_ligand_efficiency_sa>  (1) 
-0.66922712433894982

>  <r_i_glide_lipo>  (1) 
-4.4581630097716332

>  <r_i_glide_metal>  (1) 
-0

>  <r_i_glide_rewards>  (1) 
-1.1458763648477928

>  <r_lp_Energy>  (1) 
39.698704999999997

>  <r_lp_tautomer_probability>  (1) 
0.99999999999736477

>  <s_epik_Chemistry_Notes>  (1) 
This compound contains an acetal/aminal-like group ( X-CH(R)-Y where X, Y are N, S, or O) that may be acid/base labile, releasing an aldehyde.

>  <s_epik_cmdline>  (1) 
J2VwaWtfcHl0aG9uJywgJy1waHQnLCAnMS4wJywgJy1waCcsICc3LjQnLCAnLXRuJywgJzgnLCAnLW1hJywgJzUwMCcsICctaW1hZScsICc8aW5maWxlLm1hZT4nLCAnLW9tYWUnLCAnPG91dGZpbGUubWFlPic=

>  <s_epik_input>  (1) 
W0NIXT0xQyhDbCk9W0NIXVtDSDJdTihDMTIpW0NAQEhdKFMyKVtDQEBIXShbTkhdW0NAQEhdKFtDSDNdKVtDSDJdW0NIM10pW0NIMl1bTkhdW0NIMl1cW0NIXT1bQ0hdXFtDQEhdKEMjTiljM1tjSF1bY0hdYyhbT0hdKWMoRilbY0hdMw==

>  <s_glide_docking_method>  (1) 
confgen

>  <s_i_glide_gridfile>  (1) 
gpcr_5ht2c_6bqh_protein_autoprepared_prepared

>  <s_lp_Force_Field>  (1) 
S-OPLS

>  <s_lp_Variant>  (1) 
DiffSBDD_0_num_sample_100-1

>  <s_m_source_file>  (1) 
generated__ligand_DiffSBDD_2026-05-06_prepared.sdf

>  <GenAI_Model>  (1) 
DiffSBDD

>  <Protein>  (1) 
GPCR_5HT2C

$$$$
DiffSBDD_40_num_sample_100
     RDKit          3D

  0  0  0  0  0  0  0  0  0  0999 V3000
M  V30 BEGIN CTAB
M  V30 COUNTS 73 75 0 0 1
M  V30 BEGIN ATOM
M  V30 1 C 43.455909 27.729218 57.652015 0
M  V30 2 C 41.124823 35.400883 62.934527 0 CFG=1
M  V30 3 N 39.764513 28.449354 50.447352 0
M  V30 4 C 40.213973 33.049321 62.106628 0
M  V30 5 C 39.171823 25.811811 54.991830 0
M  V30 6 C 37.613817 30.965460 58.650172 0
M  V30 7 N 38.595296 28.265065 52.490083 0 CHG=1
M  V30 8 C 38.873627 33.891258 59.715867 0
M  V30 9 O 36.505162 33.702047 59.182194 0
M  V30 10 C 38.024066 32.244358 57.893118 0
M  V30 11 C 39.794289 36.097430 63.188240 0
M  V30 12 C 41.750385 34.969666 64.272586 0
M  V30 13 N 39.866808 29.980412 52.242496 0
M  V30 14 C 39.764556 28.721643 58.156139 0 CFG=2
M  V30 15 C 41.070838 34.294141 61.836089 0
M  V30 16 C 38.375593 28.012501 56.064026 0 CFG=1
M  V30 17 C 39.598520 27.134816 55.658531 0 CFG=1
M  V30 18 S 40.730008 31.834628 63.119187 0
M  V30 19 C 38.483425 28.987759 53.660916 0
M  V30 20 N 40.946223 28.094478 57.502500 0 CFG=1 CHG=1
M  V30 21 S 38.651945 32.968482 61.274835 0
M  V30 22 C 42.130266 27.954018 58.391289 0
M  V30 23 C 39.305865 30.094795 53.491280 0
M  V30 24 C 37.808616 33.577351 58.647299 0 CFG=2
M  V30 25 C 40.568791 26.846946 56.806107 0
M  V30 26 O 38.812751 36.020741 62.239309 0
M  V30 27 C 39.184275 27.858497 59.307742 0
M  V30 28 N 39.580610 37.221057 62.673945 0
M  V30 29 C 39.429090 28.874861 51.660491 0
M  V30 30 C 38.721833 29.154770 57.078816 0 CFG=1
M  V30 31 C 37.612880 28.547835 54.803396 0
M  V30 32 C 37.433654 29.737633 57.734197 0
M  V30 33 H 44.267396 27.574898 58.354611 0
M  V30 34 H 43.455065 26.822317 57.053400 0
M  V30 35 H 43.724147 28.583438 57.034457 0
M  V30 36 H 41.803980 36.161340 62.540832 0
M  V30 37 H 39.388479 27.599015 50.047814 0
M  V30 38 H 40.388974 28.966884 49.845335 0
M  V30 39 H 38.613818 25.179361 55.683426 0
M  V30 40 H 38.542244 25.976797 54.119097 0
M  V30 41 H 40.036882 25.241347 54.654244 0
M  V30 42 H 38.312949 30.755592 59.457238 0
M  V30 43 H 36.652030 31.138040 59.134357 0
M  V30 44 H 39.857265 33.675054 59.297071 0
M  V30 45 H 38.833051 34.955259 59.940457 0
M  V30 46 H 36.268995 34.616967 59.210319 0
M  V30 47 H 37.467801 32.300419 56.958796 0
M  V30 48 H 39.066650 32.164974 57.586453 0
M  V30 49 H 41.999478 35.841350 64.881305 0
M  V30 50 H 41.072219 34.349375 64.859389 0
M  V30 51 H 42.669428 34.406419 64.118747 0
M  V30 52 H 40.510948 30.641397 51.824937 0
M  V30 53 H 40.135095 29.635057 58.619347 0
M  V30 54 H 42.079651 33.932509 61.648029 0
M  V30 55 H 40.806192 34.791685 60.912535 0
M  V30 56 H 37.689512 27.355955 56.601849 0
M  V30 57 H 40.201548 27.681818 54.942364 0
M  V30 58 H 42.230089 28.836864 59.020122 0
M  V30 59 H 41.973136 27.118452 59.053499 0
M  V30 60 H 39.522106 30.926918 54.148583 0
M  V30 61 H 37.868452 34.356743 57.887281 0
M  V30 62 H 40.176948 26.101260 57.498226 0
M  V30 63 H 41.457385 26.421435 56.356802 0
M  V30 64 H 38.446962 28.411252 59.889038 0
M  V30 65 H 38.691907 26.954349 58.949325 0
M  V30 66 H 39.952320 27.565295 60.022360 0
M  V30 67 H 39.186503 29.953987 56.500154 0
M  V30 68 H 36.974085 27.747828 54.430300 0
M  V30 69 H 36.932051 29.364150 55.030623 0
M  V30 70 H 36.926511 28.953543 58.296944 0
M  V30 71 H 36.701082 30.020602 56.982313 0
M  V30 72 H 41.232170 28.740908 56.781909 0
M  V30 73 H 38.110837 27.397262 52.289156 0
M  V30 END ATOM
M  V30 BEGIN BOND
M  V30 1 1 10 6
M  V30 2 1 11 2
M  V30 3 1 12 2
M  V30 4 1 15 2
M  V30 5 1 15 4
M  V30 6 1 17 5
M  V30 7 1 17 16
M  V30 8 2 18 4
M  V30 9 1 19 7
M  V30 10 1 20 14
M  V30 11 1 21 4
M  V30 12 1 21 8
M  V30 13 1 22 1
M  V30 14 1 22 20
M  V30 15 1 23 13
M  V30 16 2 23 19
M  V30 17 1 24 8
M  V30 18 1 24 9
M  V30 19 1 24 10
M  V30 20 1 25 17
M  V30 21 1 25 20
M  V30 22 1 26 11
M  V30 23 1 27 14
M  V30 24 2 28 11
M  V30 25 1 28 26
M  V30 26 1 29 3
M  V30 27 2 29 7
M  V30 28 1 29 13
M  V30 29 1 30 14
M  V30 30 1 30 16
M  V30 31 1 31 16
M  V30 32 1 31 19
M  V30 33 1 32 6
M  V30 34 1 32 30
M  V30 35 1 33 1
M  V30 36 1 34 1
M  V30 37 1 35 1
M  V30 38 1 2 36 CFG=3
M  V30 39 1 37 3
M  V30 40 1 38 3
M  V30 41 1 39 5
M  V30 42 1 40 5
M  V30 43 1 41 5
M  V30 44 1 42 6
M  V30 45 1 43 6
M  V30 46 1 44 8
M  V30 47 1 45 8
M  V30 48 1 46 9
M  V30 49 1 47 10
M  V30 50 1 48 10
M  V30 51 1 49 12
M  V30 52 1 50 12
M  V30 53 1 51 12
M  V30 54 1 52 13
M  V30 55 1 14 53 CFG=1
M  V30 56 1 54 15
M  V30 57 1 55 15
M  V30 58 1 16 56 CFG=1
M  V30 59 1 17 57 CFG=3
M  V30 60 1 58 22
M  V30 61 1 59 22
M  V30 62 1 60 23
M  V30 63 1 24 61 CFG=3
M  V30 64 1 62 25
M  V30 65 1 63 25
M  V30 66 1 64 27
M  V30 67 1 65 27
M  V30 68 1 66 27
M  V30 69 1 30 67 CFG=3
M  V30 70 1 68 31
M  V30 71 1 69 31
M  V30 72 1 70 32
M  V30 73 1 71 32
M  V30 74 1 20 72 CFG=3
M  V30 75 1 73 7
M  V30 END BOND
M  V30 END CTAB
M  END
>  <i_epik_Tot_Q>  (1) 
2

>  <i_epik_Tot_abs_Q>  (1) 
2

>  <i_i_glide_confnum>  (1) 
815

>  <i_i_glide_lignum>  (1) 
102

>  <i_i_glide_posenum>  (1) 
377

>  <i_i_glide_rotatable_bonds>  (1) 
14

>  <i_lp_mmshare_version>  (1) 
72125

>  <i_m_source_file_index>  (1) 
41

>  <i_f3d_flags>  (1) 
0

>  <num_sample>  (1) 
100

>  <b_lp_Chiralities_Consistent>  (1) 
1

>  <r_epik_Charging_Adjusted_Penalty>  (1) 
0.0037096170623772918

>  <r_epik_Ionization_Penalty>  (1) 
0.054330814931534903

>  <r_epik_Ionization_Penalty_Charging>  (1) 
0.0037096170623772918

>  <r_epik_Ionization_Penalty_Neutral>  (1) 
0.050621197869157614

>  <r_epik_State_Penalty>  (1) 
-0

>  <r_glide_ring_energy>  (1) 
0

>  <r_i_docking_score>  (1) 
-6.6034597474029813

>  <r_i_glide_ecoul>  (1) 
-2.3685925253925015

>  <r_i_glide_eff_state_penalty>  (1) 
-0

>  <r_i_glide_einternal>  (1) 
10.508400244249287

>  <r_i_glide_emodel>  (1) 
-61.336550110990544

>  <r_i_glide_emodel_strain>  (1) 
1.8693771743800198

>  <r_i_glide_energy>  (1) 
-48.37590175492609

>  <r_i_glide_erotb>  (1) 
0.95438045441749597

>  <r_i_glide_esite>  (1) 
0

>  <r_i_glide_evdw>  (1) 
-46.00730922953359

>  <r_i_glide_gscore>  (1) 
-6.6034597474029813

>  <r_i_glide_gscore_strain>  (1) 
0

>  <r_i_glide_hbond>  (1) 
0

>  <r_i_glide_ligand_efficiency>  (1) 
-0.20635811710634316

>  <r_i_glide_ligand_efficiency_ln>  (1) 
-1.4786946409578408

>  <r_i_glide_ligand_efficiency_sa>  (1) 
-0.65514618435357219

>  <r_i_glide_lipo>  (1) 
-3.1830194754745231

>  <r_i_glide_metal>  (1) 
-0

>  <r_i_glide_rewards>  (1) 
-1.7191663860603992

>  <r_lp_Energy>  (1) 
37.242804999999997

>  <r_lp_tautomer_probability>  (1) 
1

>  <s_epik_Chemistry_Notes>  (1) 
This compound has an imine and may undergo hydrolysis.

>  <s_epik_cmdline>  (1) 
J2VwaWtfcHl0aG9uJywgJy1waHQnLCAnMS4wJywgJy1waCcsICc3LjQnLCAnLXRuJywgJzgnLCAnLW1hJywgJzUwMCcsICctaW1hZScsICc8aW5maWxlLm1hZT4nLCAnLW9tYWUnLCAnPG91dGZpbGUubWFlPic=

>  <s_epik_input>  (1) 
W2NIXTFbbkhdYyhbTkgyXSluYzFbQ0gyXVtDQEBIXShbQ0BIXShbQ0gzXSlbQ0gyXU4oW0NAQEhdMltDSDNdKVtDSDJdW0NIM10pW0NAQEhdMltDSDJdW0NIMl1bQ0gyXVtDQEBIXShbT0hdKVtDSDJdU0MoPVMpW0NIMl1bQ0BIXShbQ0gzXSlDMz1OTzM=

>  <s_glide_docking_method>  (1) 
confgen

>  <s_i_glide_gridfile>  (1) 
gpcr_5ht2c_6bqh_protein_autoprepared_prepared

>  <s_lp_Force_Field>  (1) 
S-OPLS

>  <s_lp_Variant>  (1) 
DiffSBDD_40_num_sample_100-3

>  <s_m_source_file>  (1) 
generated__ligand_DiffSBDD_2026-05-06_prepared.sdf

>  <GenAI_Model>  (1) 
DiffSBDD

>  <Protein>  (1) 
GPCR_5HT2C

$$$$
DiffSBDD_51_num_sample_100
     RDKit          3D

  0  0  0  0  0  0  0  0  0  0999 V3000
M  V30 BEGIN CTAB
M  V30 COUNTS 64 65 0 0 1
M  V30 BEGIN ATOM
M  V30 1 C 39.060713 33.583095 61.240535 0 CFG=1
M  V30 2 O 41.228167 29.849242 62.583854 0
M  V30 3 C 41.266958 34.128435 62.375527 0
M  V30 4 N 40.091399 31.814265 62.240922 0
M  V30 5 C 38.094902 32.143758 58.517508 0
M  V30 6 C 35.891606 32.809553 59.700960 0 CFG=2
M  V30 7 C 40.823944 35.604248 62.469474 0
M  V30 8 C 40.008775 33.247710 62.437298 0 CFG=2
M  V30 9 N 39.015389 31.043242 56.626353 0
M  V30 10 O 38.927006 30.119684 61.241614 0
M  V30 11 N 38.267389 31.012111 57.819727 0
M  V30 12 C 38.068469 32.366413 61.117785 0 CFG=2
M  V30 13 N 35.977934 34.135686 59.053488 0 CHG=1
M  V30 14 C 39.217598 29.925210 55.899994 0
M  V30 15 C 37.609518 28.026693 54.048811 0
M  V30 16 C 40.820325 27.556825 57.318415 0
M  V30 17 C 39.769135 35.982315 61.402227 0
M  V30 18 C 37.899803 25.181005 55.208552 0
M  V30 19 C 41.109152 31.065298 62.744714 0
M  V30 20 O 39.876864 29.936515 54.865554 0
M  V30 21 C 39.073714 31.307592 61.539276 0
M  V30 22 C 35.099439 32.910180 61.015052 0
M  V30 23 C 39.379202 28.012538 57.613536 0
M  V30 24 C 37.257278 32.051009 59.812414 0 CFG=2
M  V30 25 C 38.408559 27.532496 55.276911 0 CFG=1
M  V30 26 O 38.567952 33.221621 58.160840 0
M  V30 27 C 38.585736 28.597436 56.407588 0 CFG=2
M  V30 28 C 38.553683 35.025720 61.364173 0
M  V30 29 O 37.718798 26.429007 55.862191 0
M  V30 30 H 39.687252 33.574739 60.347270 0
M  V30 31 H 41.818241 33.953177 61.453585 0
M  V30 32 H 41.947439 33.907349 63.197701 0
M  V30 33 H 35.260122 32.205900 59.053514 0
M  V30 34 H 40.409770 35.790924 63.461898 0
M  V30 35 H 41.693404 36.256565 62.380016 0
M  V30 36 H 39.492152 33.416944 63.383899 0
M  V30 37 H 39.364541 31.968079 56.412248 0
M  V30 38 H 37.908985 30.094433 58.042030 0
M  V30 39 H 37.392068 32.407390 61.968244 0
M  V30 40 H 36.532851 34.765418 59.612252 0
M  V30 41 H 35.052421 34.517590 58.922774 0
M  V30 42 H 38.150922 28.783038 53.482971 0
M  V30 43 H 36.667395 28.471933 54.350582 0
M  V30 44 H 37.393731 27.223734 53.345903 0
M  V30 45 H 41.313917 27.239868 58.237149 0
M  V30 46 H 41.421782 28.356068 56.885354 0
M  V30 47 H 40.845999 26.707131 56.636006 0
M  V30 48 H 39.432250 37.007326 61.560232 0
M  V30 49 H 40.254122 35.971093 60.426960 0
M  V30 50 H 37.399056 24.400838 55.783105 0
M  V30 51 H 38.955327 24.917157 55.133102 0
M  V30 52 H 37.463827 25.177032 54.210900 0
M  V30 53 H 41.813777 31.687422 63.315468 0
M  V30 54 H 35.063554 31.944475 61.520844 0
M  V30 55 H 34.073496 33.221430 60.820546 0
M  V30 56 H 35.529220 33.637494 61.704934 0
M  V30 57 H 38.828515 27.168794 58.030709 0
M  V30 58 H 39.421558 28.740830 58.422798 0
M  V30 59 H 36.954870 31.005741 59.902331 0
M  V30 60 H 39.392589 27.207080 54.936826 0
M  V30 61 H 37.574830 28.822615 56.748704 0
M  V30 62 H 37.930294 35.285516 60.512164 0
M  V30 63 H 37.941205 35.152874 62.253490 0
M  V30 64 H 36.417734 34.030444 58.146729 0
M  V30 END ATOM
M  V30 BEGIN BOND
M  V30 1 1 7 3
M  V30 2 1 8 1
M  V30 3 1 8 3
M  V30 4 1 8 4
M  V30 5 1 11 5
M  V30 6 1 11 9
M  V30 7 1 12 1
M  V30 8 1 13 6
M  V30 9 1 14 9
M  V30 10 1 17 7
M  V30 11 2 19 2
M  V30 12 1 19 4
M  V30 13 2 20 14
M  V30 14 1 21 4
M  V30 15 2 21 10
M  V30 16 1 21 12
M  V30 17 1 22 6
M  V30 18 1 23 16
M  V30 19 1 24 5
M  V30 20 1 24 6
M  V30 21 1 24 12
M  V30 22 1 25 15
M  V30 23 2 26 5
M  V30 24 1 27 14
M  V30 25 1 27 23
M  V30 26 1 27 25
M  V30 27 1 28 1
M  V30 28 1 28 17
M  V30 29 1 29 18
M  V30 30 1 29 25
M  V30 31 1 1 30 CFG=3
M  V30 32 1 31 3
M  V30 33 1 32 3
M  V30 34 1 6 33 CFG=3
M  V30 35 1 34 7
M  V30 36 1 35 7
M  V30 37 1 8 36 CFG=1
M  V30 38 1 37 9
M  V30 39 1 38 11
M  V30 40 1 12 39 CFG=1
M  V30 41 1 40 13
M  V30 42 1 41 13
M  V30 43 1 42 15
M  V30 44 1 43 15
M  V30 45 1 44 15
M  V30 46 1 45 16
M  V30 47 1 46 16
M  V30 48 1 47 16
M  V30 49 1 48 17
M  V30 50 1 49 17
M  V30 51 1 50 18
M  V30 52 1 51 18
M  V30 53 1 52 18
M  V30 54 1 53 19
M  V30 55 1 54 22
M  V30 56 1 55 22
M  V30 57 1 56 22
M  V30 58 1 57 23
M  V30 59 1 58 23
M  V30 60 1 24 59 CFG=1
M  V30 61 1 25 60 CFG=3
M  V30 62 1 27 61 CFG=1
M  V30 63 1 62 28
M  V30 64 1 63 28
M  V30 65 1 64 13
M  V30 END BOND
M  V30 END CTAB
M  END
>  <i_epik_Tot_Q>  (1) 
1

>  <i_epik_Tot_abs_Q>  (1) 
1

>  <i_i_glide_confnum>  (1) 
40

>  <i_i_glide_lignum>  (1) 
137

>  <i_i_glide_posenum>  (1) 
7

>  <i_i_glide_rotatable_bonds>  (1) 
11

>  <i_lp_mmshare_version>  (1) 
72125

>  <i_m_source_file_index>  (1) 
52

>  <i_f3d_flags>  (1) 
0

>  <num_sample>  (1) 
100

>  <b_lp_Chiralities_Consistent>  (1) 
1

>  <r_epik_Charging_Adjusted_Penalty>  (1) 
0.019458142528331109

>  <r_epik_Ionization_Penalty>  (1) 
0.0099781937774174462

>  <r_epik_Ionization_Penalty_Charging>  (1) 
0.0097290712641655529

>  <r_epik_Ionization_Penalty_Neutral>  (1) 
0.00024912251325189406

>  <r_epik_State_Penalty>  (1) 
0.0097290712641655563

>  <r_glide_ring_energy>  (1) 
0

>  <r_i_docking_score>  (1) 
-6.5991028554403801

>  <r_i_glide_ecoul>  (1) 
-2.5896951685537077

>  <r_i_glide_eff_state_penalty>  (1) 
0.0097290712641655563

>  <r_i_glide_einternal>  (1) 
36.757712234908659

>  <r_i_glide_emodel>  (1) 
-47.39044222740182

>  <r_i_glide_emodel_strain>  (1) 
0.1657251244890432

>  <r_i_glide_energy>  (1) 
-44.302602729130179

>  <r_i_glide_erotb>  (1) 
0.81470354957181534

>  <r_i_glide_esite>  (1) 
-0.22733512664098263

>  <r_i_glide_evdw>  (1) 
-41.712907560576468

>  <r_i_glide_gscore>  (1) 
-6.6088319267045454

>  <r_i_glide_gscore_strain>  (1) 
0

>  <r_i_glide_hbond>  (1) 
-0.29709655467211754

>  <r_i_glide_ligand_efficiency>  (1) 
-0.2275552708772545

>  <r_i_glide_ligand_efficiency_ln>  (1) 
-1.5110272150858206

>  <r_i_glide_ligand_efficiency_sa>  (1) 
-0.69912188748968973

>  <r_i_glide_lipo>  (1) 
-2.9126254309048245

>  <r_i_glide_metal>  (1) 
-0

>  <r_i_glide_rewards>  (1) 
-1.5123787107465558

>  <r_lp_Energy>  (1) 
32.699864999999996

>  <r_lp_tautomer_probability>  (1) 
0.99995000000000001

>  <s_epik_cmdline>  (1) 
J2VwaWtfcHl0aG9uJywgJy1waHQnLCAnMS4wJywgJy1waCcsICc3LjQnLCAnLXRuJywgJzgnLCAnLW1hJywgJzUwMCcsICctaW1hZScsICc8aW5maWxlLm1hZT4nLCAnLW9tYWUnLCAnPG91dGZpbGUubWFlPic=

>  <s_epik_input>  (1) 
W0NIMl0xW0NIMl1bQ0gyXVtDSDJdW0NAQEhdKFtDQEhdMTIpTihbQ0hdPU8pQyg9TylbQ0BASF0yW0NAQEhdKFtDQEhdKFtOSDJdKVtDSDNdKUMoPU8pW05IXVtOSF1DKD1PKVtDQEhdKFtDSDJdW0NIM10pW0NASF0oW0NIM10pT1tDSDNd

>  <s_glide_docking_method>  (1) 
confgen

>  <s_i_glide_gridfile>  (1) 
gpcr_5ht2c_6bqh_protein_autoprepared_prepared

>  <s_lp_Force_Field>  (1) 
S-OPLS

>  <s_lp_Variant>  (1) 
DiffSBDD_51_num_sample_100-2

>  <s_m_source_file>  (1) 
generated__ligand_DiffSBDD_2026-05-06_prepared.sdf

>  <GenAI_Model>  (1) 
DiffSBDD

>  <Protein>  (1) 
GPCR_5HT2C

$$$$
DiffSBDD_92_num_sample_100
     RDKit          3D

  0  0  0  0  0  0  0  0  0  0999 V3000
M  V30 BEGIN CTAB
M  V30 COUNTS 98 103 0 0 1
M  V30 BEGIN ATOM
M  V30 1 C 41.076605 27.820783 56.652499 0
M  V30 2 C 37.835766 29.956284 59.598161 0 CFG=1
M  V30 3 C 39.227396 31.694444 60.662303 0
M  V30 4 O 39.587196 24.421441 56.823886 0
M  V30 5 C 38.671787 25.469694 56.654935 0 CFG=1
M  V30 6 C 39.028478 28.436475 55.679627 0 CFG=1
M  V30 7 C 36.011122 23.466187 55.532119 0
M  V30 8 C 39.429099 31.015004 55.678030 0 CFG=1
M  V30 9 C 38.192048 24.077595 56.680198 0 CFG=2
M  V30 10 N 41.793070 35.621569 64.408502 0 CHG=1
M  V30 11 O 37.867757 31.912574 58.198396 0
M  V30 12 O 37.467544 23.895826 57.853637 0
M  V30 13 O 39.720746 28.139160 56.884374 0
M  V30 14 O 37.447888 25.176242 54.738840 0
M  V30 15 C 37.461851 23.898966 55.358506 0 CFG=2
M  V30 16 C 40.373888 28.196520 59.839627 0
M  V30 17 O 36.701820 30.425280 60.284840 0
M  V30 18 N 41.285799 34.080992 62.732540 0 CFG=2 CHG=1
M  V30 19 C 37.952843 27.408235 55.277225 0
M  V30 20 C 40.376615 33.650528 61.652005 0
M  V30 21 O 40.485300 30.452065 52.135698 0
M  V30 22 O 38.276836 26.202440 57.813453 0
M  V30 23 C 41.783034 27.187024 57.843711 0 CFG=1
M  V30 24 C 35.839538 21.966630 55.838543 0
M  V30 25 C 41.058914 32.006156 64.056145 0
M  V30 26 C 39.857002 29.980347 50.953533 0
M  V30 27 C 39.632816 30.692749 53.203219 0 CFG=1
M  V30 28 C 40.429943 30.802458 54.518337 0
M  V30 29 O 39.019590 31.907578 53.053488 0
M  V30 30 C 37.785075 30.690734 58.262304 0
M  V30 31 C 41.414328 34.375229 65.095369 0
M  V30 32 C 38.740505 32.362577 55.386091 0
M  V30 33 C 40.358552 32.098589 61.604344 0 CFG=1
M  V30 34 C 38.469313 26.001760 55.269484 0 CFG=1
M  V30 35 C 40.203692 29.703270 59.796466 0
M  V30 36 C 40.188411 31.380547 62.967524 0
M  V30 37 C 40.820440 33.508855 63.990568 0 CFG=1
M  V30 38 F 43.083545 27.221507 57.543346 0
M  V30 39 C 38.070423 32.300051 54.032813 0
M  V30 40 C 41.382550 35.530620 62.988577 0
M  V30 41 C 38.430360 29.827268 55.841915 0 CFG=2
M  V30 42 C 41.727150 27.905084 59.177930 0
M  V30 43 C 37.454028 29.884380 57.022328 0
M  V30 44 N 39.020244 30.245981 60.457070 0
M  V30 45 H 41.112860 27.096778 55.841775 0
M  V30 46 H 41.610907 28.707506 56.333955 0
M  V30 47 H 37.731930 28.882144 59.448479 0
M  V30 48 H 39.467935 32.212963 59.743948 0
M  V30 49 H 38.303986 32.143266 61.033796 0
M  V30 50 H 39.693467 28.405464 54.823641 0
M  V30 51 H 35.526903 24.107801 56.253479 0
M  V30 52 H 35.467024 23.732768 54.653559 0
M  V30 53 H 39.989482 31.114567 56.604818 0
M  V30 54 H 41.372499 36.440928 64.838401 0
M  V30 55 H 37.460002 24.768183 58.239488 0
M  V30 56 H 37.969955 23.222030 54.687022 0
M  V30 57 H 39.559605 27.659210 59.370322 0
M  V30 58 H 40.396399 27.875034 60.882961 0
M  V30 59 H 36.229883 30.990694 59.684879 0
M  V30 60 H 37.555072 27.659547 54.291662 0
M  V30 61 H 37.108542 27.353960 55.949331 0
M  V30 62 H 40.667087 34.088930 60.699885 0
M  V30 63 H 39.370453 34.041059 61.822249 0
M  V30 64 H 38.795078 27.000356 57.800481 0
M  V30 65 H 41.465169 26.151965 57.961143 0
M  V30 66 H 34.785403 21.702651 55.853117 0
M  V30 67 H 36.286000 21.347146 55.062073 0
M  V30 68 H 36.267506 21.671955 56.795478 0
M  V30 69 H 40.775164 31.608791 65.031652 0
M  V30 70 H 42.110962 31.764963 63.902512 0
M  V30 71 H 40.602989 29.865451 50.167314 0
M  V30 72 H 39.399090 29.003716 51.119746 0
M  V30 73 H 39.096429 30.668577 50.588209 0
M  V30 74 H 38.889919 29.896353 53.216120 0
M  V30 75 H 41.133603 31.621459 54.448987 0
M  V30 76 H 41.066922 29.951490 54.661027 0
M  V30 77 H 40.695566 34.556557 65.897164 0
M  V30 78 H 42.307399 33.920783 65.528068 0
M  V30 79 H 37.955379 32.651682 56.071138 0
M  V30 80 H 39.466620 33.174823 55.414636 0
M  V30 81 H 41.342673 31.838970 61.217782 0
M  V30 82 H 39.379573 25.886085 54.681509 0
M  V30 83 H 41.091261 30.073693 60.287391 0
M  V30 84 H 40.267170 30.021363 58.760445 0
M  V30 85 H 39.141051 31.420157 63.267248 0
M  V30 86 H 40.418399 30.318499 62.875115 0
M  V30 87 H 39.755263 33.671184 63.857058 0
M  V30 88 H 37.209635 31.635526 54.037196 0
M  V30 89 H 37.676222 33.287212 53.815853 0
M  V30 90 H 40.400855 35.997339 62.876643 0
M  V30 91 H 42.079846 36.021969 62.311841 0
M  V30 92 H 37.748480 29.876545 55.000161 0
M  V30 93 H 42.267295 27.279882 59.872786 0
M  V30 94 H 42.304452 28.819182 59.053389 0
M  V30 95 H 37.069999 28.910211 57.320721 0
M  V30 96 H 36.643409 30.420837 56.584433 0
M  V30 97 H 42.212657 33.722367 62.546925 0
M  V30 98 H 42.794020 35.746960 64.463009 0
M  V30 END ATOM
M  V30 BEGIN BOND
M  V30 1 1 5 4
M  V30 2 1 9 4
M  V30 3 1 9 5
M  V30 4 1 9 12 CFG=1
M  V30 5 1 13 1
M  V30 6 1 13 6
M  V30 7 1 15 7
M  V30 8 1 15 9
M  V30 9 1 15 14
M  V30 10 1 17 2
M  V30 11 1 19 6
M  V30 12 1 20 18
M  V30 13 1 5 22 CFG=1
M  V30 14 1 23 1
M  V30 15 1 24 7
M  V30 16 1 26 21
M  V30 17 1 27 21
M  V30 18 1 28 8
M  V30 19 1 28 27
M  V30 20 1 29 27
M  V30 21 1 30 2
M  V30 22 2 30 11
M  V30 23 1 31 10
M  V30 24 1 32 8
M  V30 25 1 33 3
M  V30 26 1 33 20
M  V30 27 1 34 5
M  V30 28 1 34 14
M  V30 29 1 34 19
M  V30 30 1 35 16
M  V30 31 1 36 25
M  V30 32 1 36 33
M  V30 33 1 37 18
M  V30 34 1 37 25
M  V30 35 1 37 31
M  V30 36 1 38 23
M  V30 37 1 39 29
M  V30 38 1 39 32
M  V30 39 1 40 10
M  V30 40 1 40 18
M  V30 41 1 41 6
M  V30 42 1 41 8
M  V30 43 1 42 16
M  V30 44 1 42 23
M  V30 45 1 43 30
M  V30 46 1 43 41
M  V30 47 1 44 2
M  V30 48 1 44 3
M  V30 49 1 44 35
M  V30 50 1 45 1
M  V30 51 1 46 1
M  V30 52 1 2 47 CFG=3
M  V30 53 1 48 3
M  V30 54 1 49 3
M  V30 55 1 6 50 CFG=3
M  V30 56 1 51 7
M  V30 57 1 52 7
M  V30 58 1 8 53 CFG=1
M  V30 59 1 54 10
M  V30 60 1 55 12
M  V30 61 1 15 56 CFG=3
M  V30 62 1 57 16
M  V30 63 1 58 16
M  V30 64 1 59 17
M  V30 65 1 60 19
M  V30 66 1 61 19
M  V30 67 1 62 20
M  V30 68 1 63 20
M  V30 69 1 64 22
M  V30 70 1 23 65 CFG=1
M  V30 71 1 66 24
M  V30 72 1 67 24
M  V30 73 1 68 24
M  V30 74 1 69 25
M  V30 75 1 70 25
M  V30 76 1 71 26
M  V30 77 1 72 26
M  V30 78 1 73 26
M  V30 79 1 27 74 CFG=1
M  V30 80 1 75 28
M  V30 81 1 76 28
M  V30 82 1 77 31
M  V30 83 1 78 31
M  V30 84 1 79 32
M  V30 85 1 80 32
M  V30 86 1 33 81 CFG=3
M  V30 87 1 34 82 CFG=3
M  V30 88 1 83 35
M  V30 89 1 84 35
M  V30 90 1 85 36
M  V30 91 1 86 36
M  V30 92 1 37 87 CFG=3
M  V30 93 1 88 39
M  V30 94 1 89 39
M  V30 95 1 90 40
M  V30 96 1 91 40
M  V30 97 1 41 92 CFG=3
M  V30 98 1 93 42
M  V30 99 1 94 42
M  V30 100 1 95 43
M  V30 101 1 96 43
M  V30 102 1 18 97 CFG=3
M  V30 103 1 98 10
M  V30 END BOND
M  V30 END CTAB
M  END
>  <i_epik_Tot_Q>  (1) 
2

>  <i_epik_Tot_abs_Q>  (1) 
2

>  <i_i_glide_confnum>  (1) 
171

>  <i_i_glide_lignum>  (1) 
247

>  <i_i_glide_posenum>  (1) 
185

>  <i_i_glide_rotatable_bonds>  (1) 
10

>  <i_lp_mmshare_version>  (1) 
72125

>  <i_m_source_file_index>  (1) 
93

>  <i_f3d_flags>  (1) 
0

>  <num_sample>  (1) 
100

>  <b_lp_Chiralities_Consistent>  (1) 
1

>  <r_epik_Charging_Adjusted_Penalty>  (1) 
0.13487033779534635

>  <r_epik_Ionization_Penalty>  (1) 
0.19914084790593331

>  <r_epik_Ionization_Penalty_Charging>  (1) 
0.13485274742695982

>  <r_epik_Ionization_Penalty_Neutral>  (1) 
0.064288100478973487

>  <r_epik_State_Penalty>  (1) 
1.7590368386534964e-05

>  <r_glide_ring_energy>  (1) 
2.0924469438874569

>  <r_i_docking_score>  (1) 
-6.5970720045224631

>  <r_i_glide_ecoul>  (1) 
-2.82762624249398

>  <r_i_glide_eff_state_penalty>  (1) 
1.7590368386534964e-05

>  <r_i_glide_einternal>  (1) 
15.331793897659239

>  <r_i_glide_emodel>  (1) 
-285.08435475006979

>  <r_i_glide_emodel_strain>  (1) 
5.6643599573618815

>  <r_i_glide_energy>  (1) 
-20.874506940900563

>  <r_i_glide_erotb>  (1) 
0.12528393626735909

>  <r_i_glide_esite>  (1) 
-0.10706751983660974

>  <r_i_glide_evdw>  (1) 
-18.046880698406582

>  <r_i_glide_gscore>  (1) 
-6.5970895948908499

>  <r_i_glide_gscore_strain>  (1) 
0.41608998934047037

>  <r_i_glide_hbond>  (1) 
0

>  <r_i_glide_ligand_efficiency>  (1) 
-0.14993345464823779

>  <r_i_glide_ligand_efficiency_ln>  (1) 
-1.378931963263222

>  <r_i_glide_ligand_efficiency_sa>  (1) 
-0.52931732202709214

>  <r_i_glide_lipo>  (1) 
-3.5333212473032143

>  <r_i_glide_metal>  (1) 
-0

>  <r_i_glide_rewards>  (1) 
-2.1715867820644301

>  <r_lp_Energy>  (1) 
73.076747999999995

>  <s_epik_Chemistry_Notes>  (1) 
This compound contains an acetal/aminal-like group ( X-CH(R)-Y where X, Y are N, S, or O) that may be acid/base labile, releasing an aldehyde.

>  <s_epik_cmdline>  (1) 
J2VwaWtfcHl0aG9uJywgJy1waHQnLCAnMS4wJywgJy1waCcsICc3LjQnLCAnLXRuJywgJzgnLCAnLW1hJywgJzUwMCcsICctaW1hZScsICc8aW5maWxlLm1hZT4nLCAnLW9tYWUnLCAnPG91dGZpbGUubWFlPic=

>  <s_epik_input>  (1) 
W09IXVtDQF0xMkMoTzEpKFtPSF0pW0NAQEhdKFtDSDJdW0NIM10pT1tDQEhdMltDSDJdW0NAQEhdKFtDQEBIXShbQ0gyXUMoPU8pW0NAQEhdM1tPSF0pW0NASF00W0NIMl1bQ0BIXShPW0NIM10pT1tDSDJdW0NIMl00KU9bQ0gyXVtDQEBIXShGKVtDSDJdW0NIMl1bQ0gyXU4zW0NIMl1bQ0BASF0oW0NIMl01KVtDSDJdW0NIMl1bQ0BIXShONTYpW0NIMl1bTkhdW0NIMl02

>  <s_glide_docking_method>  (1) 
confgen

>  <s_i_glide_gridfile>  (1) 
gpcr_5ht2c_6bqh_protein_autoprepared_prepared

>  <s_lp_Force_Field>  (1) 
S-OPLS

>  <s_lp_Variant>  (1) 
DiffSBDD_92_num_sample_100-1

>  <s_m_source_file>  (1) 
generated__ligand_DiffSBDD_2026-05-06_prepared.sdf

>  <GenAI_Model>  (1) 
DiffSBDD

>  <Protein>  (1) 
GPCR_5HT2C

$$$$
DiffSBDD_2_num_sample_100
     RDKit          3D

  0  0  0  0  0  0  0  0  0  0999 V3000
M  V30 BEGIN CTAB
M  V30 COUNTS 52 52 0 0 1
M  V30 BEGIN ATOM
M  V30 1 C 38.000050 31.211643 55.723630 0
M  V30 2 C 38.863713 30.209428 59.782165 0
M  V30 3 O 36.990295 33.204626 61.069329 0
M  V30 4 O 35.867403 30.420939 59.053505 0
M  V30 5 C 38.255843 31.216131 60.773498 0
M  V30 6 F 40.027008 28.951111 50.718570 0
M  V30 7 C 39.258029 28.907335 51.831385 0
M  V30 8 C 39.277827 25.954458 57.022752 0
M  V30 9 O 39.467320 25.371659 55.957377 0
M  V30 10 C 39.705117 28.368327 56.366356 0
M  V30 11 C 38.169594 29.247930 54.018702 0
M  V30 12 S 39.467421 30.021240 53.118432 0
M  V30 13 C 40.690253 28.516052 59.295847 0
M  V30 14 O 34.912625 32.494269 59.453509 0
M  V30 15 O 39.357559 31.538087 55.935416 0
M  V30 16 N 38.283904 28.810884 56.461472 0 CHG=1
M  V30 17 C 37.188161 32.148310 60.153528 0 CFG=1
M  V30 18 C 38.268176 25.432040 58.038730 0
M  V30 19 C 40.040860 27.244744 57.374381 0 CFG=1
M  V30 20 O 39.713431 27.676580 58.689843 0
M  V30 21 C 35.797574 31.509029 59.939987 0
M  V30 22 C 38.267410 28.001927 52.030872 0
M  V30 23 C 40.007590 29.371108 60.370508 0
M  V30 24 C 37.627104 28.194298 53.298560 0
M  V30 25 C 37.777177 29.716476 55.395709 0 CFG=1
M  V30 26 H 37.585193 31.844362 54.937610 0
M  V30 27 H 37.467444 31.468807 56.638738 0
M  V30 28 H 38.100585 29.514861 59.441120 0
M  V30 29 H 39.210111 30.743860 58.898159 0
M  V30 30 H 36.210529 33.665470 60.787567 0
M  V30 31 H 35.746675 30.770663 58.168356 0
M  V30 32 H 39.069554 31.831931 61.159670 0
M  V30 33 H 37.843523 30.691635 61.636383 0
M  V30 34 H 40.361920 29.221540 56.509670 0
M  V30 35 H 39.929602 27.992726 55.368572 0
M  V30 36 H 41.171151 29.176675 58.574607 0
M  V30 37 H 41.479349 27.903586 59.732543 0
M  V30 38 H 35.067711 32.566957 58.512150 0
M  V30 39 H 39.420527 32.472412 56.073169 0
M  V30 40 H 37.711747 27.980367 56.429916 0
M  V30 41 H 37.557970 32.572631 59.218581 0
M  V30 42 H 37.322526 25.963458 57.936664 0
M  V30 43 H 38.085726 24.369665 57.875746 0
M  V30 44 H 38.635927 25.567373 59.053435 0
M  V30 45 H 41.104803 27.006175 57.328295 0
M  V30 46 H 35.414507 31.142841 60.893526 0
M  V30 47 H 37.980067 27.223832 51.338388 0
M  V30 48 H 40.746234 30.027153 60.830613 0
M  V30 49 H 39.623618 28.729544 61.164913 0
M  V30 50 H 36.817162 27.564891 53.637618 0
M  V30 51 H 36.691793 29.621363 55.446465 0
M  V30 52 H 38.141326 29.256627 57.357642 0
M  V30 END ATOM
M  V30 BEGIN BOND
M  V30 1 1 5 2
M  V30 2 1 7 6
M  V30 3 2 9 8
M  V30 4 1 12 7
M  V30 5 1 12 11
M  V30 6 1 15 1
M  V30 7 1 16 10
M  V30 8 1 17 3
M  V30 9 1 17 5
M  V30 10 1 18 8
M  V30 11 1 19 8
M  V30 12 1 19 10
M  V30 13 1 20 13
M  V30 14 1 20 19
M  V30 15 1 21 4
M  V30 16 1 21 14
M  V30 17 1 21 17
M  V30 18 2 22 7
M  V30 19 1 23 2
M  V30 20 1 23 13
M  V30 21 2 24 11
M  V30 22 1 24 22
M  V30 23 1 25 1
M  V30 24 1 25 11
M  V30 25 1 25 16
M  V30 26 1 26 1
M  V30 27 1 27 1
M  V30 28 1 28 2
M  V30 29 1 29 2
M  V30 30 1 30 3
M  V30 31 1 31 4
M  V30 32 1 32 5
M  V30 33 1 33 5
M  V30 34 1 34 10
M  V30 35 1 35 10
M  V30 36 1 36 13
M  V30 37 1 37 13
M  V30 38 1 38 14
M  V30 39 1 39 15
M  V30 40 1 40 16
M  V30 41 1 17 41 CFG=3
M  V30 42 1 42 18
M  V30 43 1 43 18
M  V30 44 1 44 18
M  V30 45 1 19 45 CFG=1
M  V30 46 1 46 21
M  V30 47 1 47 22
M  V30 48 1 48 23
M  V30 49 1 49 23
M  V30 50 1 50 24
M  V30 51 1 25 51 CFG=3
M  V30 52 1 52 16
M  V30 END BOND
M  V30 END CTAB
M  END
>  <i_epik_Tot_Q>  (1) 
1

>  <i_epik_Tot_abs_Q>  (1) 
1

>  <i_i_glide_confnum>  (1) 
1110

>  <i_i_glide_lignum>  (1) 
20

>  <i_i_glide_posenum>  (1) 
232

>  <i_i_glide_rotatable_bonds>  (1) 
17

>  <i_lp_mmshare_version>  (1) 
72125

>  <i_m_source_file_index>  (1) 
3

>  <i_f3d_flags>  (1) 
0

>  <num_sample>  (1) 
100

>  <b_lp_Chiralities_Consistent>  (1) 
1

>  <r_epik_Charging_Adjusted_Penalty>  (1) 
1.2755826654989224

>  <r_epik_Ionization_Penalty>  (1) 
0.63780895661999681

>  <r_epik_Ionization_Penalty_Charging>  (1) 
0.6377913327494612

>  <r_epik_Ionization_Penalty_Neutral>  (1) 
1.7623870535632096e-05

>  <r_epik_State_Penalty>  (1) 
0.6377913327494612

>  <r_glide_ring_energy>  (1) 
0

>  <r_i_docking_score>  (1) 
-6.5934111493216152

>  <r_i_glide_ecoul>  (1) 
-10.192738944201102

>  <r_i_glide_eff_state_penalty>  (1) 
0.6377913327494612

>  <r_i_glide_einternal>  (1) 
11.282446908019569

>  <r_i_glide_emodel>  (1) 
-69.258164690884911

>  <r_i_glide_emodel_strain>  (1) 
1.7844416978933424

>  <r_i_glide_energy>  (1) 
-49.714565959629191

>  <r_i_glide_erotb>  (1) 
1.4743289393995902

>  <r_i_glide_esite>  (1) 
-0.089716158291052825

>  <r_i_glide_evdw>  (1) 
-39.521827015428087

>  <r_i_glide_gscore>  (1) 
-7.2312024820710761

>  <r_i_glide_gscore_strain>  (1) 
0

>  <r_i_glide_hbond>  (1) 
-0.30399999999999999

>  <r_i_glide_ligand_efficiency>  (1) 
-0.26373644597286461

>  <r_i_glide_ligand_efficiency_ln>  (1) 
-1.5628360309769476

>  <r_i_glide_ligand_efficiency_sa>  (1) 
-0.77117004623787533

>  <r_i_glide_lipo>  (1) 
-2.8373216811587603

>  <r_i_glide_metal>  (1) 
-0

>  <r_i_glide_rewards>  (1) 
-1.9694913896192823

>  <r_lp_Energy>  (1) 
15.151610999999999

>  <r_lp_tautomer_probability>  (1) 
0.9999999700000004

>  <s_epik_Chemistry_Notes>  (1) 
This compound contains an acetal/aminal-like group ( X-CH(R)-Y where X, Y are N, S, or O) that may be acid/base labile, releasing an aldehyde.

>  <s_epik_cmdline>  (1) 
J2VwaWtfcHl0aG9uJywgJy1waHQnLCAnMS4wJywgJy1waCcsICc3LjQnLCAnLXRuJywgJzgnLCAnLW1hJywgJzUwMCcsICctaW1hZScsICc8aW5maWxlLm1hZT4nLCAnLW9tYWUnLCAnPG91dGZpbGUubWFlPic=

>  <s_epik_input>  (1) 
RmMxc2MoW2NIXVtjSF0xKVtDQEhdKFtDSDJdW09IXSlbTkhdW0NIMl1bQ0BIXShDKD1PKVtDSDNdKU9bQ0gyXVtDSDJdW0NIMl1bQ0gyXVtDQEhdKFtPSF0pW0NIXShbT0hdKVtPSF0=

>  <s_glide_docking_method>  (1) 
confgen

>  <s_i_glide_gridfile>  (1) 
gpcr_5ht2c_6bqh_protein_autoprepared_prepared

>  <s_lp_Force_Field>  (1) 
S-OPLS

>  <s_lp_Variant>  (1) 
DiffSBDD_2_num_sample_100-2

>  <s_m_source_file>  (1) 
generated__ligand_DiffSBDD_2026-05-06_prepared.sdf

>  <GenAI_Model>  (1) 
DiffSBDD

>  <Protein>  (1) 
GPCR_5HT2C

$$$$
DiffSBDD_23_num_sample_100
     RDKit          3D

  0  0  0  0  0  0  0  0  0  0999 V3000
M  V30 BEGIN CTAB
M  V30 COUNTS 83 87 0 0 1
M  V30 BEGIN ATOM
M  V30 1 C 38.608476 26.557626 54.161297 0
M  V30 2 C 37.621905 32.633879 60.220530 0
M  V30 3 C 39.740153 35.649016 61.332379 0
M  V30 4 O 41.297021 32.670326 63.844470 0
M  V30 5 N 37.534045 37.389643 59.509725 0
M  V30 6 C 37.820165 31.338434 58.009540 0
M  V30 7 C 39.964305 30.021861 55.035660 0
M  V30 8 N 37.859288 34.064552 60.546021 0
M  V30 9 C 39.599495 33.385663 62.255285 0
M  V30 10 C 40.876655 35.890429 62.117570 0
M  V30 11 C 36.320651 35.999347 62.702401 0
M  V30 12 C 36.870595 36.876360 61.608006 0
M  V30 13 C 39.722097 28.534716 55.233910 0 CFG=2
M  V30 14 C 37.146740 38.108114 61.659979 0
M  V30 15 N 38.744724 28.018928 54.227037 0 CFG=2 CHG=1
M  V30 16 C 39.265473 33.314485 58.343082 0
M  V30 17 C 41.134129 31.315564 63.444989 0
M  V30 18 C 40.761286 33.642463 63.029432 0
M  V30 19 C 38.577026 32.150481 59.079172 0 CFG=1
M  V30 20 C 37.052099 26.413889 57.666501 0
M  V30 21 C 37.156684 36.436888 60.308320 0
M  V30 22 C 38.859536 29.144333 57.654630 0
M  V30 23 C 37.003387 23.859521 56.011704 0
M  V30 24 O 38.541765 28.783897 58.786313 0
M  V30 25 C 38.137687 24.396259 56.888643 0
M  V30 26 C 39.059910 34.393943 61.403879 0
M  V30 27 C 37.003869 34.988303 59.905154 0
M  V30 28 C 37.462988 28.745454 54.066078 0
M  V30 29 C 37.758375 38.651493 60.403107 0
M  V30 30 C 39.441978 26.619696 56.971727 0
M  V30 31 C 37.597617 26.002031 55.176655 0 CFG=2
M  V30 32 C 41.379431 34.900294 62.966664 0
M  V30 33 C 38.964684 30.864232 55.837167 0
M  V30 34 C 38.086094 25.912875 56.659274 0 CFG=2
M  V30 35 C 37.225451 24.587730 54.732297 0
M  V30 36 O 36.180661 34.665773 59.050474 0
M  V30 37 N 38.595165 30.396927 57.192247 0
M  V30 38 C 39.591483 28.158340 56.714088 0 CFG=1
M  V30 39 H 38.256784 26.339509 53.152985 0
M  V30 40 H 39.579790 26.066622 54.234524 0
M  V30 41 H 36.586057 32.472676 59.923211 0
M  V30 42 H 37.678503 31.962459 61.072261 0
M  V30 43 H 39.431831 36.412141 60.668888 0
M  V30 44 H 37.432761 32.074315 57.310912 0
M  V30 45 H 36.955397 30.821995 58.431871 0
M  V30 46 H 40.981054 30.258853 55.314399 0
M  V30 47 H 39.918107 30.296963 53.980582 0
M  V30 48 H 39.134524 32.422847 62.316589 0
M  V30 49 H 41.376723 36.843165 62.053702 0
M  V30 50 H 37.029348 36.021430 63.524481 0
M  V30 51 H 36.081746 34.974254 62.412501 0
M  V30 52 H 35.417571 36.452766 63.097688 0
M  V30 53 H 40.642732 27.995155 55.058123 0
M  V30 54 H 37.004639 38.716941 62.523877 0
M  V30 55 H 38.545829 33.964876 57.848963 0
M  V30 56 H 39.863984 32.956535 57.530100 0
M  V30 57 H 39.888803 33.924539 58.992193 0
M  V30 58 H 41.916860 30.708076 63.901672 0
M  V30 59 H 41.218219 31.193563 62.363477 0
M  V30 60 H 40.167169 30.933768 63.773397 0
M  V30 61 H 39.336630 31.516857 59.536118 0
M  V30 62 H 36.711329 27.423287 57.465633 0
M  V30 63 H 37.513051 26.408074 58.653187 0
M  V30 64 H 36.168659 25.781793 57.740961 0
M  V30 65 H 36.018969 24.130086 56.366635 0
M  V30 66 H 36.997069 22.803118 55.849446 0
M  V30 67 H 39.097363 24.019861 56.543409 0
M  V30 68 H 38.024417 24.103870 57.931113 0
M  V30 69 H 37.028385 28.974069 55.037138 0
M  V30 70 H 36.739071 28.170050 53.483840 0
M  V30 71 H 37.616214 29.674446 53.517753 0
M  V30 72 H 38.808393 38.788940 60.657991 0
M  V30 73 H 37.468607 39.611371 60.004946 0
M  V30 74 H 39.704569 26.423698 58.012348 0
M  V30 75 H 40.229639 26.114315 56.413607 0
M  V30 76 H 36.667785 26.559921 55.145410 0
M  V30 77 H 42.258774 35.099728 63.558603 0
M  V30 78 H 39.343741 31.881843 55.866542 0
M  V30 79 H 38.032730 30.973400 55.288286 0
M  V30 80 H 38.072267 24.106274 54.254415 0
M  V30 81 H 36.370037 24.551713 54.056392 0
M  V30 82 H 40.601522 28.344364 57.088243 0
M  V30 83 H 39.207510 28.220106 53.352495 0
M  V30 END ATOM
M  V30 BEGIN BOND
M  V30 1 1 8 2
M  V30 2 1 10 3
M  V30 3 1 12 11
M  V30 4 1 13 7
M  V30 5 2 14 12
M  V30 6 1 15 1
M  V30 7 1 15 13
M  V30 8 1 17 4
M  V30 9 1 18 4
M  V30 10 2 18 9
M  V30 11 1 19 2
M  V30 12 1 19 6
M  V30 13 1 19 16
M  V30 14 2 21 5
M  V30 15 1 21 12
M  V30 16 2 24 22
M  V30 17 1 25 23
M  V30 18 2 26 3
M  V30 19 1 26 8
M  V30 20 1 26 9
M  V30 21 1 27 8
M  V30 22 1 27 21
M  V30 23 1 28 15
M  V30 24 1 29 5
M  V30 25 1 29 14
M  V30 26 1 31 1
M  V30 27 2 32 10
M  V30 28 1 32 18
M  V30 29 1 33 7
M  V30 30 1 34 20 CFG=1
M  V30 31 1 34 25
M  V30 32 1 34 30
M  V30 33 1 34 31
M  V30 34 1 35 23
M  V30 35 1 35 31
M  V30 36 2 36 27
M  V30 37 1 37 6
M  V30 38 1 37 22
M  V30 39 1 37 33
M  V30 40 1 38 13
M  V30 41 1 38 22
M  V30 42 1 38 30
M  V30 43 1 39 1
M  V30 44 1 40 1
M  V30 45 1 41 2
M  V30 46 1 42 2
M  V30 47 1 43 3
M  V30 48 1 44 6
M  V30 49 1 45 6
M  V30 50 1 46 7
M  V30 51 1 47 7
M  V30 52 1 48 9
M  V30 53 1 49 10
M  V30 54 1 50 11
M  V30 55 1 51 11
M  V30 56 1 52 11
M  V30 57 1 13 53 CFG=3
M  V30 58 1 54 14
M  V30 59 1 55 16
M  V30 60 1 56 16
M  V30 61 1 57 16
M  V30 62 1 58 17
M  V30 63 1 59 17
M  V30 64 1 60 17
M  V30 65 1 19 61 CFG=1
M  V30 66 1 62 20
M  V30 67 1 63 20
M  V30 68 1 64 20
M  V30 69 1 65 23
M  V30 70 1 66 23
M  V30 71 1 67 25
M  V30 72 1 68 25
M  V30 73 1 69 28
M  V30 74 1 70 28
M  V30 75 1 71 28
M  V30 76 1 72 29
M  V30 77 1 73 29
M  V30 78 1 74 30
M  V30 79 1 75 30
M  V30 80 1 31 76 CFG=1
M  V30 81 1 77 32
M  V30 82 1 78 33
M  V30 83 1 79 33
M  V30 84 1 80 35
M  V30 85 1 81 35
M  V30 86 1 38 82 CFG=1
M  V30 87 1 15 83 CFG=3
M  V30 END BOND
M  V30 END CTAB
M  END
>  <i_epik_Tot_Q>  (1) 
1

>  <i_epik_Tot_abs_Q>  (1) 
1

>  <i_i_glide_confnum>  (1) 
295

>  <i_i_glide_lignum>  (1) 
61

>  <i_i_glide_posenum>  (1) 
374

>  <i_i_glide_rotatable_bonds>  (1) 
8

>  <i_lp_mmshare_version>  (1) 
72125

>  <i_m_source_file_index>  (1) 
24

>  <i_f3d_flags>  (1) 
0

>  <num_sample>  (1) 
100

>  <b_lp_Chiralities_Consistent>  (1) 
1

>  <r_epik_Charging_Adjusted_Penalty>  (1) 
0.0029773975431382485

>  <r_epik_Ionization_Penalty>  (1) 
0.013183626931022738

>  <r_epik_Ionization_Penalty_Charging>  (1) 
0.0029773975431382485

>  <r_epik_Ionization_Penalty_Neutral>  (1) 
0.010206229387884489

>  <r_epik_State_Penalty>  (1) 
-0

>  <r_glide_ring_energy>  (1) 
0

>  <r_i_docking_score>  (1) 
-6.5801624945108141

>  <r_i_glide_ecoul>  (1) 
0.21630675655443143

>  <r_i_glide_eff_state_penalty>  (1) 
-0

>  <r_i_glide_einternal>  (1) 
18.587980308423738

>  <r_i_glide_emodel>  (1) 
-18.042229435889652

>  <r_i_glide_emodel_strain>  (1) 
6.5987573022291883

>  <r_i_glide_energy>  (1) 
-29.516348320420938

>  <r_i_glide_erotb>  (1) 
0.5287100460970352

>  <r_i_glide_esite>  (1) 
-0.045061751741270119

>  <r_i_glide_evdw>  (1) 
-29.732655076975369

>  <r_i_glide_gscore>  (1) 
-6.5801624945108141

>  <r_i_glide_gscore_strain>  (1) 
0.64968932555729708

>  <r_i_glide_hbond>  (1) 
0

>  <r_i_glide_ligand_efficiency>  (1) 
-0.17316217090817931

>  <r_i_glide_ligand_efficiency_ln>  (1) 
-1.4188766025856518

>  <r_i_glide_ligand_efficiency_sa>  (1) 
-0.58216695998121792

>  <r_i_glide_lipo>  (1) 
-4.787789404019593

>  <r_i_glide_metal>  (1) 
-0

>  <r_i_glide_rewards>  (1) 
-1.4715239700386802

>  <r_lp_Energy>  (1) 
96.794462999999993

>  <r_lp_tautomer_probability>  (1) 
1

>  <s_epik_Chemistry_Notes>  (1) 
This compound has an imine and may undergo hydrolysis.

>  <s_epik_cmdline>  (1) 
J2VwaWtfcHl0aG9uJywgJy1waHQnLCAnMS4wJywgJy1waCcsICc3LjQnLCAnLXRuJywgJzgnLCAnLW1hJywgJzUwMCcsICctaW1hZScsICc8aW5maWxlLm1hZT4nLCAnLW9tYWUnLCAnPG91dGZpbGUubWFlPic=

>  <s_epik_input>  (1) 
W0NIMl0xW0NIMl1bQ0gyXVtDQEBIXShbQ0BAXTEyW0NIM10pW0NIMl1OKFtDSDNdKVtDQEhdM1tDQEhdKFtDSDJdMilDKD1PKU4oW0NIMl1bQ0gyXTMpW0NIMl1bQ0BASF0oW0NIM10pW0NIMl1OKGMoW2NIXVtjSF1bY0hdNClbY0hdYzRPW0NIM10pQyg9TylDNT1OW0NIMl1bQ0hdPUM1W0NIM10=

>  <s_glide_docking_method>  (1) 
confgen

>  <s_i_glide_gridfile>  (1) 
gpcr_5ht2c_6bqh_protein_autoprepared_prepared

>  <s_lp_Force_Field>  (1) 
S-OPLS

>  <s_lp_Variant>  (1) 
DiffSBDD_23_num_sample_100-4

>  <s_m_source_file>  (1) 
generated__ligand_DiffSBDD_2026-05-06_prepared.sdf

>  <GenAI_Model>  (1) 
DiffSBDD

>  <Protein>  (1) 
GPCR_5HT2C

$$$$
DiffSBDD_42_num_sample_100
     RDKit          3D

  0  0  0  0  0  0  0  0  0  0999 V3000
M  V30 BEGIN CTAB
M  V30 COUNTS 69 73 0 0 1
M  V30 BEGIN ATOM
M  V30 1 O 40.691546 32.171621 63.844653 0
M  V30 2 C 42.268033 35.094471 65.457314 0
M  V30 3 C 38.929170 25.768621 57.513449 0
M  V30 4 C 35.711665 32.168428 59.890273 0
M  V30 5 O 38.612301 28.947116 56.490017 0
M  V30 6 C 41.753281 33.775690 64.970804 0
M  V30 7 C 38.684805 30.084335 58.702534 0
M  V30 8 C 38.092263 32.654168 55.974068 0
M  V30 9 C 40.240348 34.407388 62.918248 0
M  V30 10 C 37.124135 32.732746 59.790990 0 CFG=2
M  V30 11 C 41.434922 31.684365 64.878969 0
M  V30 12 C 40.916604 33.520691 63.919012 0
M  V30 13 O 38.044918 32.477591 58.736358 0
M  V30 14 C 37.508762 23.859492 57.222671 0
M  V30 15 C 37.867229 31.215837 58.088618 0 CFG=1
M  V30 16 C 36.667397 23.139733 56.466187 0
M  V30 17 C 39.934884 32.863330 61.035289 0
M  V30 18 Cl 38.611721 26.849322 54.662398 0
M  V30 19 C 39.579102 26.482466 58.403574 0
M  V30 20 O 39.253198 30.205000 59.785732 0
M  V30 21 N 40.539100 34.108463 61.521719 0
M  V30 22 C 37.838568 25.474890 55.354731 0
M  V30 23 C 38.187806 31.282060 56.617983 0
M  V30 24 C 37.904097 32.508145 54.458049 0
M  V30 25 C 38.131306 25.071974 56.736811 0
M  V30 26 P 38.099693 32.571382 61.281215 0 CFG=2
M  V30 27 C 36.291552 23.507451 55.065164 0
M  V30 28 C 38.825797 30.179574 54.419427 0
M  V30 29 C 36.992848 24.761650 54.596873 0
M  V30 30 O 37.495493 31.625235 62.253648 0
M  V30 31 C 38.748915 28.781441 57.906782 0 CFG=2
M  V30 32 C 39.011854 31.603709 53.895629 0
M  V30 33 C 38.519622 30.185902 55.906518 0
M  V30 34 C 40.004517 27.908774 58.147891 0
M  V30 35 C 40.112705 35.223408 60.690110 0
M  V30 36 N 42.102823 32.589830 65.596498 0
M  V30 37 O 37.336419 33.863234 60.654935 0
M  V30 38 H 41.477742 35.844514 65.475450 0
M  V30 39 H 43.064541 35.471357 64.813870 0
M  V30 40 H 42.664438 35.016785 66.470620 0
M  V30 41 H 35.103014 32.509729 59.053523 0
M  V30 42 H 35.236135 32.509190 60.810137 0
M  V30 43 H 35.717552 31.078526 59.916113 0
M  V30 44 H 39.004867 33.208606 56.198913 0
M  V30 45 H 37.272050 33.222443 56.410978 0
M  V30 46 H 39.160667 34.404389 63.061239 0
M  V30 47 H 40.559547 35.429843 63.121303 0
M  V30 48 H 41.465183 30.623807 65.080196 0
M  V30 49 H 37.741620 23.513133 58.218953 0
M  V30 50 H 36.829846 30.896397 58.128598 0
M  V30 51 H 36.267225 22.221412 56.850011 0
M  V30 52 H 40.455787 32.014414 61.473511 0
M  V30 53 H 40.150248 32.800140 59.971729 0
M  V30 54 H 39.827737 26.075666 59.371239 0
M  V30 55 H 36.937257 32.045099 54.255142 0
M  V30 56 H 37.867366 33.485105 53.989086 0
M  V30 57 H 36.667430 22.699884 54.428705 0
M  V30 58 H 35.208861 23.621340 55.053086 0
M  V30 59 H 39.712159 29.580590 54.215293 0
M  V30 60 H 37.987613 29.707010 53.908786 0
M  V30 61 H 36.795075 25.073474 53.580450 0
M  V30 62 H 37.865665 28.229715 58.233915 0
M  V30 63 H 39.971211 31.959377 54.253792 0
M  V30 64 H 39.068334 31.620964 52.809018 0
M  V30 65 H 40.588967 28.237912 59.007344 0
M  V30 66 H 40.675190 27.945918 57.287622 0
M  V30 67 H 40.267553 34.983730 59.640467 0
M  V30 68 H 40.699867 36.112601 60.921307 0
M  V30 69 H 39.061476 35.468089 60.835238 0
M  V30 END ATOM
M  V30 BEGIN BOND
M  V30 1 1 6 2
M  V30 2 1 10 4
M  V30 3 1 11 1
M  V30 4 1 12 1
M  V30 5 2 12 6
M  V30 6 1 12 9
M  V30 7 1 10 13 CFG=3
M  V30 8 1 15 7
M  V30 9 1 15 13
M  V30 10 2 16 14
M  V30 11 2 19 3
M  V30 12 2 20 7
M  V30 13 1 21 9
M  V30 14 1 21 17
M  V30 15 1 22 18
M  V30 16 1 23 8
M  V30 17 1 23 15
M  V30 18 1 24 8
M  V30 19 2 25 3
M  V30 20 1 25 14
M  V30 21 1 25 22
M  V30 22 1 26 10
M  V30 23 1 26 17 CFG=3
M  V30 24 1 27 16
M  V30 25 2 29 22
M  V30 26 1 29 27
M  V30 27 2 30 26
M  V30 28 1 31 5
M  V30 29 1 31 7
M  V30 30 1 32 24
M  V30 31 1 32 28
M  V30 32 1 33 5
M  V30 33 2 33 23
M  V30 34 1 33 28
M  V30 35 1 34 19
M  V30 36 1 34 31
M  V30 37 1 35 21
M  V30 38 1 36 6
M  V30 39 2 36 11
M  V30 40 1 37 10
M  V30 41 1 37 26
M  V30 42 1 38 2
M  V30 43 1 39 2
M  V30 44 1 40 2
M  V30 45 1 41 4
M  V30 46 1 42 4
M  V30 47 1 43 4
M  V30 48 1 44 8
M  V30 49 1 45 8
M  V30 50 1 46 9
M  V30 51 1 47 9
M  V30 52 1 48 11
M  V30 53 1 49 14
M  V30 54 1 15 50 CFG=3
M  V30 55 1 51 16
M  V30 56 1 52 17
M  V30 57 1 53 17
M  V30 58 1 54 19
M  V30 59 1 55 24
M  V30 60 1 56 24
M  V30 61 1 57 27
M  V30 62 1 58 27
M  V30 63 1 59 28
M  V30 64 1 60 28
M  V30 65 1 61 29
M  V30 66 1 31 62 CFG=1
M  V30 67 1 63 32
M  V30 68 1 64 32
M  V30 69 1 65 34
M  V30 70 1 66 34
M  V30 71 1 67 35
M  V30 72 1 68 35
M  V30 73 1 69 35
M  V30 END BOND
M  V30 END CTAB
M  END
>  <i_epik_Tot_Q>  (1) 
0

>  <i_epik_Tot_abs_Q>  (1) 
0

>  <i_i_glide_confnum>  (1) 
648

>  <i_i_glide_lignum>  (1) 
106

>  <i_i_glide_posenum>  (1) 
182

>  <i_i_glide_rotatable_bonds>  (1) 
8

>  <i_lp_mmshare_version>  (1) 
72125

>  <i_m_source_file_index>  (1) 
43

>  <i_f3d_flags>  (1) 
0

>  <num_sample>  (1) 
100

>  <b_lp_Chiralities_Consistent>  (1) 
1

>  <r_epik_Charging_Adjusted_Penalty>  (1) 
1.0635715053523389

>  <r_epik_Ionization_Penalty>  (1) 
1.0635723392520104

>  <r_epik_Ionization_Penalty_Charging>  (1) 
0

>  <r_epik_Ionization_Penalty_Neutral>  (1) 
1.0635723392520104

>  <r_epik_State_Penalty>  (1) 
1.0635715053523389

>  <r_glide_ring_energy>  (1) 
0

>  <r_i_docking_score>  (1) 
-6.5800558010508441

>  <r_i_glide_ecoul>  (1) 
-6.4701913369353381

>  <r_i_glide_eff_state_penalty>  (1) 
1.0635715053523389

>  <r_i_glide_einternal>  (1) 
8.1877961632643501

>  <r_i_glide_emodel>  (1) 
-59.218769154738169

>  <r_i_glide_emodel_strain>  (1) 
3.2288734303386804

>  <r_i_glide_energy>  (1) 
-46.401404281131967

>  <r_i_glide_erotb>  (1) 
0.55382833966271061

>  <r_i_glide_esite>  (1) 
-0.044880592514474633

>  <r_i_glide_evdw>  (1) 
-39.931212944196631

>  <r_i_glide_gscore>  (1) 
-7.6436273064031832

>  <r_i_glide_gscore_strain>  (1) 
0

>  <r_i_glide_hbond>  (1) 
-0.27365544506844819

>  <r_i_glide_ligand_efficiency>  (1) 
-0.17783934597434714

>  <r_i_glide_ligand_efficiency_ln>  (1) 
-1.42705984485362

>  <r_i_glide_ligand_efficiency_sa>  (1) 
-0.59260015473814442

>  <r_i_glide_lipo>  (1) 
-4.2016401255763158

>  <r_i_glide_metal>  (1) 
-0

>  <r_i_glide_rewards>  (1) 
-0.71019013515652196

>  <r_lp_Energy>  (1) 
8.4432150000000004

>  <r_lp_tautomer_probability>  (1) 
0.99995000000000001

>  <s_epik_cmdline>  (1) 
J2VwaWtfcHl0aG9uJywgJy1waHQnLCAnMS4wJywgJy1waCcsICc3LjQnLCAnLXRuJywgJzgnLCAnLW1hJywgJzUwMCcsICctaW1hZScsICc8aW5maWxlLm1hZT4nLCAnLW9tYWUnLCAnPG91dGZpbGUubWFlPic=

>  <s_epik_input>  (1) 
bjFbY0hdb2MoYzFbQ0gzXSlbQ0gyXU4oW0NIM10pW0NIMl1bUEBAXSg9TykoTzIpW0NAXTIoW0NIM10pT1tDQEBIXTNDKD1PKVtDQEBIXShPQyg9QzM0KVtDSDJdW0NIMl1bQ0gyXVtDSDJdNClbQ0gyXVtDSF09Qz1DNVtDSF09W0NIXVtDSDJdW0NIXT1DNUNs

>  <s_glide_docking_method>  (1) 
confgen

>  <s_i_glide_gridfile>  (1) 
gpcr_5ht2c_6bqh_protein_autoprepared_prepared

>  <s_lp_Force_Field>  (1) 
S-OPLS

>  <s_lp_Variant>  (1) 
DiffSBDD_42_num_sample_100-3

>  <s_m_source_file>  (1) 
generated__ligand_DiffSBDD_2026-05-06_prepared.sdf

>  <GenAI_Model>  (1) 
DiffSBDD

>  <Protein>  (1) 
GPCR_5HT2C

$$$$
DiffSBDD_44_num_sample_100
     RDKit          3D

  0  0  0  0  0  0  0  0  0  0999 V3000
M  V30 BEGIN CTAB
M  V30 COUNTS 58 59 0 0 1
M  V30 BEGIN ATOM
M  V30 1 C 38.513154 30.098365 53.866391 0
M  V30 2 O 40.267156 28.821364 57.346245 0 CHG=-1
M  V30 3 C 39.631698 32.717412 62.089028 0
M  V30 4 C 38.466248 27.901498 54.928072 0 CFG=1
M  V30 5 N 38.521099 28.988487 55.950622 0 CFG=2 CHG=1
M  V30 6 C 38.430931 34.276041 60.610393 0
M  V30 7 N 38.639222 30.426741 60.726134 0
M  V30 8 C 38.726451 32.881173 61.155440 0
M  V30 9 O 36.651811 31.576468 61.120150 0
M  V30 10 C 38.639939 28.604559 53.560846 0 CFG=1
M  V30 11 C 37.694642 28.104473 52.462643 0
M  V30 12 C 38.302912 29.654018 58.369140 0 CFG=1
M  V30 13 C 38.742532 29.494162 59.853086 0
M  V30 14 C 39.040678 30.208824 55.289539 0
M  V30 15 C 35.632336 32.382147 60.542512 0
M  V30 16 C 40.883391 34.606066 63.069866 0
M  V30 17 C 38.965169 28.669439 57.344591 0 CFG=2
M  V30 18 C 37.949256 31.702540 60.537825 0 CFG=2
M  V30 19 F 40.343475 36.811993 62.566388 0
M  V30 20 C 39.841624 35.583649 62.443571 0 CFG=1
M  V30 21 C 40.538554 33.131478 62.933550 0
M  V30 22 C 36.763822 29.560778 58.253420 0
M  V30 23 C 39.309137 28.135918 60.221911 0
M  V30 24 C 39.490986 26.762591 55.114127 0
M  V30 25 C 39.488465 35.371461 60.943596 0
M  V30 26 H 37.468745 30.405882 53.853134 0
M  V30 27 H 39.064683 30.724824 53.163789 0
M  V30 28 H 37.467717 27.470830 54.997887 0
M  V30 29 H 38.316474 34.215749 59.528041 0
M  V30 30 H 37.476664 34.609362 61.011298 0
M  V30 31 H 39.653211 28.436098 53.201235 0
M  V30 32 H 36.648701 28.243856 52.734690 0
M  V30 33 H 37.872478 28.632316 51.525347 0
M  V30 34 H 37.856709 27.043098 52.272115 0
M  V30 35 H 38.611062 30.650005 58.055391 0
M  V30 36 H 38.707771 31.122251 55.783401 0
M  V30 37 H 40.131478 30.211782 55.264862 0
M  V30 38 H 34.667742 32.038734 60.908116 0
M  V30 39 H 35.720448 33.428200 60.821941 0
M  V30 40 H 35.611748 32.308863 59.453818 0
M  V30 41 H 40.987351 34.833459 64.131081 0
M  V30 42 H 41.864383 34.768095 62.623566 0
M  V30 43 H 38.515088 27.700027 57.558115 0
M  V30 44 H 37.842130 31.943760 59.483127 0
M  V30 45 H 38.925736 35.590895 63.035802 0
M  V30 46 H 41.082800 32.439761 63.560123 0
M  V30 47 H 36.244563 30.072221 59.060210 0
M  V30 48 H 36.420566 30.016966 57.326866 0
M  V30 49 H 36.415772 28.528626 58.253583 0
M  V30 50 H 40.330928 28.027791 59.857009 0
M  V30 51 H 39.330676 28.021496 61.306493 0
M  V30 52 H 38.691631 27.336022 59.815695 0
M  V30 53 H 39.437277 26.053706 54.287625 0
M  V30 54 H 40.510365 27.146184 55.155930 0
M  V30 55 H 39.314628 26.196058 56.027679 0
M  V30 56 H 40.400522 35.207379 60.367869 0
M  V30 57 H 39.069367 36.307474 60.574175 0
M  V30 58 H 37.546265 29.212420 56.085521 0
M  V30 END ATOM
M  V30 BEGIN BOND
M  V30 1 1 5 4
M  V30 2 2 8 3
M  V30 3 1 8 6
M  V30 4 1 10 1
M  V30 5 1 10 4
M  V30 6 1 11 10
M  V30 7 2 13 7
M  V30 8 1 13 12
M  V30 9 1 14 1
M  V30 10 1 14 5
M  V30 11 1 15 9
M  V30 12 1 17 2
M  V30 13 1 17 5
M  V30 14 1 17 12
M  V30 15 1 18 7
M  V30 16 1 18 8
M  V30 17 1 18 9
M  V30 18 1 20 16
M  V30 19 1 20 19
M  V30 20 2 21 3
M  V30 21 1 21 16
M  V30 22 1 22 12
M  V30 23 1 23 13
M  V30 24 1 24 4
M  V30 25 1 25 6
M  V30 26 1 25 20
M  V30 27 1 26 1
M  V30 28 1 27 1
M  V30 29 1 4 28 CFG=3
M  V30 30 1 29 6
M  V30 31 1 30 6
M  V30 32 1 10 31 CFG=3
M  V30 33 1 32 11
M  V30 34 1 33 11
M  V30 35 1 34 11
M  V30 36 1 12 35 CFG=3
M  V30 37 1 36 14
M  V30 38 1 37 14
M  V30 39 1 38 15
M  V30 40 1 39 15
M  V30 41 1 40 15
M  V30 42 1 41 16
M  V30 43 1 42 16
M  V30 44 1 17 43 CFG=1
M  V30 45 1 18 44 CFG=3
M  V30 46 1 20 45 CFG=1
M  V30 47 1 46 21
M  V30 48 1 47 22
M  V30 49 1 48 22
M  V30 50 1 49 22
M  V30 51 1 50 23
M  V30 52 1 51 23
M  V30 53 1 52 23
M  V30 54 1 53 24
M  V30 55 1 54 24
M  V30 56 1 55 24
M  V30 57 1 56 25
M  V30 58 1 57 25
M  V30 59 1 5 58 CFG=1
M  V30 END BOND
M  V30 END CTAB
M  END
>  <i_epik_Tot_Q>  (1) 
0

>  <i_epik_Tot_abs_Q>  (1) 
2

>  <i_i_glide_confnum>  (1) 
41

>  <i_i_glide_lignum>  (1) 
111

>  <i_i_glide_posenum>  (1) 
220

>  <i_i_glide_rotatable_bonds>  (1) 
6

>  <i_lp_mmshare_version>  (1) 
72125

>  <i_m_source_file_index>  (1) 
45

>  <i_f3d_flags>  (1) 
0

>  <num_sample>  (1) 
100

>  <b_lp_Chiralities_Consistent>  (1) 
1

>  <r_epik_Charging_Adjusted_Penalty>  (1) 
0.41733257654759531

>  <r_epik_Ionization_Penalty>  (1) 
0.0069177268181324029

>  <r_epik_Ionization_Penalty_Charging>  (1) 
0.0066527375949913311

>  <r_epik_Ionization_Penalty_Neutral>  (1) 
0.00026498922314107146

>  <r_epik_State_Penalty>  (1) 
0.41067983895260396

>  <r_glide_ring_energy>  (1) 
0

>  <r_i_docking_score>  (1) 
-6.5796902611271006

>  <r_i_glide_ecoul>  (1) 
-2.5583447797078533

>  <r_i_glide_eff_state_penalty>  (1) 
0.41067983895260396

>  <r_i_glide_einternal>  (1) 
18.524356723322668

>  <r_i_glide_emodel>  (1) 
-42.402357440774033

>  <r_i_glide_emodel_strain>  (1) 
2.2679201023669862

>  <r_i_glide_energy>  (1) 
-36.373917147239958

>  <r_i_glide_erotb>  (1) 
0.61440649929112812

>  <r_i_glide_esite>  (1) 
0

>  <r_i_glide_evdw>  (1) 
-33.815572367532106

>  <r_i_glide_gscore>  (1) 
-6.9903701000797049

>  <r_i_glide_gscore_strain>  (1) 
0

>  <r_i_glide_hbond>  (1) 
-0.24958499667770234

>  <r_i_glide_ligand_efficiency>  (1) 
-0.26318761044508404

>  <r_i_glide_ligand_efficiency_ln>  (1) 
-1.5595837692930088

>  <r_i_glide_ligand_efficiency_sa>  (1) 
-0.76956524141928351

>  <r_i_glide_lipo>  (1) 
-3.0254100753743827

>  <r_i_glide_metal>  (1) 
-0

>  <r_i_glide_rewards>  (1) 
-2.2552511919859644

>  <r_lp_Energy>  (1) 
15.952547999999998

>  <r_lp_tautomer_probability>  (1) 
0.49999399997599986

>  <s_epik_Chemistry_Notes>  (1) 
This compound has an imine and may undergo hydrolysis. This compound contains an acetal/aminal-like group ( X-CH(R)-Y where X, Y are N, S, or O) that may be acid/base labile, releasing an aldehyde.

>  <s_epik_cmdline>  (1) 
J2VwaWtfcHl0aG9uJywgJy1waHQnLCAnMS4wJywgJy1waCcsICc3LjQnLCAnLXRuJywgJzgnLCAnLW1hJywgJzUwMCcsICctaW1hZScsICc8aW5maWxlLm1hZT4nLCAnLW9tYWUnLCAnPG91dGZpbGUubWFlPic=

>  <s_epik_input>  (1) 
W0NIM11bQ0BIXTFbQ0gyXVtDSDJdTihbQ0BASF0xW0NIM10pW0NAQEhdKFtPSF0pW0NAQEhdKFtDSDNdKS9DKFtDSDNdKT1OXFtDQEBIXShPW0NIM10pQzI9Qz1bQ0hdW0NIMl1bQ0BASF0oRilbQ0gyXVtDSDJdMg==

>  <s_glide_docking_method>  (1) 
confgen

>  <s_i_glide_gridfile>  (1) 
gpcr_5ht2c_6bqh_protein_autoprepared_prepared

>  <s_lp_Force_Field>  (1) 
S-OPLS

>  <s_lp_Variant>  (1) 
DiffSBDD_44_num_sample_100-4

>  <s_m_source_file>  (1) 
generated__ligand_DiffSBDD_2026-05-06_prepared.sdf

>  <GenAI_Model>  (1) 
DiffSBDD

>  <Protein>  (1) 
GPCR_5HT2C

$$$$
DiffSBDD_44_num_sample_100
     RDKit          3D

  0  0  0  0  0  0  0  0  0  0999 V3000
M  V30 BEGIN CTAB
M  V30 COUNTS 58 59 0 0 1
M  V30 BEGIN ATOM
M  V30 1 C 39.136832 27.614008 52.866243 0
M  V30 2 O 39.467398 30.319381 56.551650 0 CHG=-1
M  V30 3 C 38.565644 31.478295 59.630853 0
M  V30 4 C 39.435953 29.865309 53.695918 0 CFG=1
M  V30 5 N 39.136402 28.999752 54.880782 0 CFG=1 CHG=1
M  V30 6 C 39.399830 31.943963 61.895987 0
M  V30 7 N 40.381427 29.213667 59.358255 0
M  V30 8 C 39.261946 31.061919 60.657956 0
M  V30 9 O 41.067397 29.705008 61.568124 0
M  V30 10 C 38.941738 29.072042 52.472258 0 CFG=1
M  V30 11 C 39.637494 29.439745 51.151494 0
M  V30 12 C 39.999043 28.090391 57.179410 0 CFG=1
M  V30 13 C 39.615598 28.503686 58.614457 0
M  V30 14 C 39.014296 27.599029 54.390598 0
M  V30 15 C 41.398789 28.421441 62.072698 0
M  V30 16 C 37.339408 33.614672 59.592878 0
M  V30 17 C 40.004877 29.229794 56.074784 0 CFG=2
M  V30 18 C 39.953600 29.685272 60.684507 0 CFG=2
M  V30 19 F 36.667393 32.920740 61.765043 0
M  V30 20 C 37.540866 33.710553 61.138745 0 CFG=1
M  V30 21 C 37.804604 32.309080 58.974504 0
M  V30 22 C 41.321631 27.308562 57.210458 0
M  V30 23 C 38.267404 28.007643 59.070509 0
M  V30 24 C 38.808166 31.269709 53.767711 0
M  V30 25 C 38.972568 33.434262 61.690080 0
M  V30 26 H 40.128079 27.263237 52.578186 0
M  V30 27 H 38.412544 26.955428 52.383978 0
M  V30 28 H 40.512007 30.021431 53.616355 0
M  V30 29 H 38.815072 31.491167 62.696460 0
M  V30 30 H 40.436725 31.942508 62.231197 0
M  V30 31 H 37.867405 29.221438 52.361509 0
M  V30 32 H 40.715715 29.287367 51.213031 0
M  V30 33 H 39.262651 28.827381 50.330451 0
M  V30 34 H 39.467390 30.483033 50.884663 0
M  V30 35 H 39.262302 27.346174 56.892244 0
M  V30 36 H 39.784576 26.938859 54.783468 0
M  V30 37 H 38.046972 27.202377 54.701996 0
M  V30 38 H 42.290024 28.485134 62.695285 0
M  V30 39 H 40.591702 28.017160 62.684695 0
M  V30 40 H 41.598571 27.731063 61.253614 0
M  V30 41 H 37.867973 34.424667 59.092470 0
M  V30 42 H 36.282678 33.745404 59.355461 0
M  V30 43 H 41.016390 29.221436 55.671825 0
M  V30 44 H 39.220134 29.024304 61.149616 0
M  V30 45 H 37.255567 34.720823 61.433592 0
M  V30 46 H 37.467414 32.091035 57.970173 0
M  V30 47 H 41.317808 26.538915 57.983287 0
M  V30 48 H 41.467405 26.803295 56.259571 0
M  V30 49 H 42.176317 27.960876 57.395469 0
M  V30 50 H 37.691957 27.570907 58.253486 0
M  V30 51 H 38.393202 27.251322 59.843478 0
M  V30 52 H 37.660121 28.823093 59.460343 0
M  V30 53 H 39.067402 31.839516 52.876086 0
M  V30 54 H 37.722856 31.230627 53.856742 0
M  V30 55 H 39.189873 31.855358 54.602548 0
M  V30 56 H 39.067413 33.932438 62.653920 0
M  V30 57 H 39.697075 33.929690 61.042163 0
M  V30 58 H 38.224805 29.284506 55.207997 0
M  V30 END ATOM
M  V30 BEGIN BOND
M  V30 1 1 5 4
M  V30 2 2 8 3
M  V30 3 1 8 6
M  V30 4 1 10 1
M  V30 5 1 10 4
M  V30 6 1 11 10
M  V30 7 2 13 7
M  V30 8 1 13 12
M  V30 9 1 14 1
M  V30 10 1 14 5
M  V30 11 1 15 9
M  V30 12 1 17 2
M  V30 13 1 17 5
M  V30 14 1 17 12
M  V30 15 1 18 7
M  V30 16 1 18 8
M  V30 17 1 18 9
M  V30 18 1 20 16
M  V30 19 1 20 19
M  V30 20 2 21 3
M  V30 21 1 21 16
M  V30 22 1 22 12
M  V30 23 1 23 13
M  V30 24 1 24 4
M  V30 25 1 25 6
M  V30 26 1 25 20
M  V30 27 1 26 1
M  V30 28 1 27 1
M  V30 29 1 4 28 CFG=3
M  V30 30 1 29 6
M  V30 31 1 30 6
M  V30 32 1 10 31 CFG=3
M  V30 33 1 32 11
M  V30 34 1 33 11
M  V30 35 1 34 11
M  V30 36 1 12 35 CFG=3
M  V30 37 1 36 14
M  V30 38 1 37 14
M  V30 39 1 38 15
M  V30 40 1 39 15
M  V30 41 1 40 15
M  V30 42 1 41 16
M  V30 43 1 42 16
M  V30 44 1 17 43 CFG=3
M  V30 45 1 18 44 CFG=1
M  V30 46 1 20 45 CFG=1
M  V30 47 1 46 21
M  V30 48 1 47 22
M  V30 49 1 48 22
M  V30 50 1 49 22
M  V30 51 1 50 23
M  V30 52 1 51 23
M  V30 53 1 52 23
M  V30 54 1 53 24
M  V30 55 1 54 24
M  V30 56 1 55 24
M  V30 57 1 56 25
M  V30 58 1 57 25
M  V30 59 1 5 58 CFG=1
M  V30 END BOND
M  V30 END CTAB
M  END
>  <i_epik_Tot_Q>  (1) 
0

>  <i_epik_Tot_abs_Q>  (1) 
2

>  <i_i_glide_confnum>  (1) 
8

>  <i_i_glide_lignum>  (1) 
108

>  <i_i_glide_posenum>  (1) 
215

>  <i_i_glide_rotatable_bonds>  (1) 
6

>  <i_lp_mmshare_version>  (1) 
72125

>  <i_m_source_file_index>  (1) 
45

>  <i_f3d_flags>  (1) 
0

>  <num_sample>  (1) 
100

>  <b_lp_Chiralities_Consistent>  (1) 
1

>  <r_epik_Charging_Adjusted_Penalty>  (1) 
0.41733257654759531

>  <r_epik_Ionization_Penalty>  (1) 
0.0069177268181324029

>  <r_epik_Ionization_Penalty_Charging>  (1) 
0.0066527375949913311

>  <r_epik_Ionization_Penalty_Neutral>  (1) 
0.00026498922314107146

>  <r_epik_State_Penalty>  (1) 
0.41067983895260396

>  <r_glide_ring_energy>  (1) 
0

>  <r_i_docking_score>  (1) 
-6.5779538231793699

>  <r_i_glide_ecoul>  (1) 
-4.516267710528119

>  <r_i_glide_eff_state_penalty>  (1) 
0.41067983895260396

>  <r_i_glide_einternal>  (1) 
12.943213993143328

>  <r_i_glide_emodel>  (1) 
-38.792409487858642

>  <r_i_glide_emodel_strain>  (1) 
2.8324821481190412

>  <r_i_glide_energy>  (1) 
-33.151723561204378

>  <r_i_glide_erotb>  (1) 
0.61440649929112812

>  <r_i_glide_esite>  (1) 
0

>  <r_i_glide_evdw>  (1) 
-28.635455850676259

>  <r_i_glide_gscore>  (1) 
-6.9886336621319742

>  <r_i_glide_gscore_strain>  (1) 
0

>  <r_i_glide_hbond>  (1) 
-0.32000000000000001

>  <r_i_glide_ligand_efficiency>  (1) 
-0.26311815292717478

>  <r_i_glide_ligand_efficiency_ln>  (1) 
-1.5591721814625505

>  <r_i_glide_ligand_efficiency_sa>  (1) 
-0.76936214640486467

>  <r_i_glide_lipo>  (1) 
-2.5566225997009724

>  <r_i_glide_metal>  (1) 
-0

>  <r_i_glide_rewards>  (1) 
-2.6172046126090986

>  <r_lp_Energy>  (1) 
13.770411999999999

>  <r_lp_tautomer_probability>  (1) 
0.49999399997599986

>  <s_epik_Chemistry_Notes>  (1) 
This compound has an imine and may undergo hydrolysis. This compound contains an acetal/aminal-like group ( X-CH(R)-Y where X, Y are N, S, or O) that may be acid/base labile, releasing an aldehyde.

>  <s_epik_cmdline>  (1) 
J2VwaWtfcHl0aG9uJywgJy1waHQnLCAnMS4wJywgJy1waCcsICc3LjQnLCAnLXRuJywgJzgnLCAnLW1hJywgJzUwMCcsICctaW1hZScsICc8aW5maWxlLm1hZT4nLCAnLW9tYWUnLCAnPG91dGZpbGUubWFlPic=

>  <s_epik_input>  (1) 
W0NIM11bQ0BIXTFbQ0gyXVtDSDJdTihbQ0BASF0xW0NIM10pW0NAQEhdKFtPSF0pW0NAQEhdKFtDSDNdKVxDKFtDSDNdKT1OXFtDQEBIXShPW0NIM10pQzI9Qz1bQ0hdW0NIMl1bQ0BASF0oRilbQ0gyXVtDSDJdMg==

>  <s_glide_docking_method>  (1) 
confgen

>  <s_i_glide_gridfile>  (1) 
gpcr_5ht2c_6bqh_protein_autoprepared_prepared

>  <s_lp_Force_Field>  (1) 
S-OPLS

>  <s_lp_Variant>  (1) 
DiffSBDD_44_num_sample_100-1

>  <s_m_source_file>  (1) 
generated__ligand_DiffSBDD_2026-05-06_prepared.sdf

>  <GenAI_Model>  (1) 
DiffSBDD

>  <Protein>  (1) 
GPCR_5HT2C

$$$$
DiffSBDD_77_num_sample_100
     RDKit          3D

  0  0  0  0  0  0  0  0  0  0999 V3000
M  V30 BEGIN CTAB
M  V30 COUNTS 77 79 0 0 1
M  V30 BEGIN ATOM
M  V30 1 C 37.381480 24.560281 55.963399 0
M  V30 2 F 40.230066 25.234769 58.183844 0
M  V30 3 C 35.843267 34.438057 58.777595 0
M  V30 4 C 37.467339 25.657263 55.089506 0
M  V30 5 C 40.935734 34.127383 63.304017 0
M  V30 6 C 37.701479 29.381840 56.217039 0
M  V30 7 C 37.826745 32.393361 59.505407 0
M  V30 8 C 38.288201 31.722215 57.136162 0 CFG=2
M  V30 9 O 39.131790 35.181002 61.651472 0
M  V30 10 C 41.912254 33.948413 64.490676 0
M  V30 11 N 39.956294 31.051037 51.983874 0
M  V30 12 C 38.545299 27.827177 54.339308 0
M  V30 13 C 39.332523 25.374033 57.180050 0
M  V30 14 O 37.467336 37.065859 59.453193 0
M  V30 15 C 36.894958 36.161288 60.363411 0
M  V30 16 C 38.478634 26.622621 55.265102 0
M  V30 17 F 38.217987 23.372248 57.854082 0
M  V30 18 C 38.409583 31.678696 54.607855 0
M  V30 19 O 39.867524 30.977687 49.737592 0
M  V30 20 O 39.379283 29.686626 57.923369 0
M  V30 21 C 38.308889 24.421528 57.011574 0
M  V30 22 C 42.145599 31.524220 63.850482 0
M  V30 23 N 39.569663 32.941082 61.524817 0
M  V30 24 C 39.978829 30.360980 53.259216 0
M  V30 25 C 39.419784 26.472914 56.308174 0
M  V30 26 C 36.932563 34.739153 59.797342 0
M  V30 27 C 39.876550 30.405913 50.815285 0
M  V30 28 C 41.146577 31.634240 62.798156 0
M  V30 29 C 39.150203 32.053952 55.910051 0
M  V30 30 F 42.732433 30.334210 64.064809 0
M  V30 31 C 40.738056 30.402251 62.000503 0
M  V30 32 C 38.735241 29.199740 55.063078 0 CFG=1
M  V30 33 C 38.896769 34.077345 61.172014 0
M  V30 34 N 38.667485 32.496757 58.309833 0
M  V30 35 C 37.849988 33.782001 60.150573 0
M  V30 36 C 40.575170 32.836241 62.541335 0
M  V30 37 C 42.500643 32.560568 64.622507 0
M  V30 38 C 38.163577 30.215147 57.424756 0 CFG=2
M  V30 39 N 38.739003 30.326403 54.075370 0 CFG=1 CHG=1
M  V30 40 H 36.600975 23.825718 55.832824 0
M  V30 41 H 36.263435 34.023857 57.858764 0
M  V30 42 H 35.147942 33.706079 59.189113 0
M  V30 43 H 35.252616 35.321445 58.542447 0
M  V30 44 H 36.753685 25.762359 54.288510 0
M  V30 45 H 41.386132 34.833314 62.602868 0
M  V30 46 H 40.043023 34.584695 63.728118 0
M  V30 47 H 36.750379 29.756191 55.835560 0
M  V30 48 H 37.467532 28.415561 56.653868 0
M  V30 49 H 38.132856 31.571932 60.152786 0
M  V30 50 H 36.803487 32.144304 59.226701 0
M  V30 51 H 37.318571 32.102533 56.866081 0
M  V30 52 H 41.392825 34.167742 65.423923 0
M  V30 53 H 42.725405 34.670035 64.418424 0
M  V30 54 H 40.024450 32.062199 51.985628 0
M  V30 55 H 37.630452 27.860320 53.744467 0
M  V30 56 H 39.345320 27.603800 53.638220 0
M  V30 57 H 37.277361 36.753127 58.580243 0
M  V30 58 H 37.182191 36.327220 61.397606 0
M  V30 59 H 35.867400 36.477687 60.334894 0
M  V30 60 H 37.328780 31.756649 54.735203 0
M  V30 61 H 38.630885 32.421277 53.843897 0
M  V30 62 H 39.491973 29.998912 58.807371 0
M  V30 63 H 39.319240 32.083273 61.061783 0
M  V30 64 H 40.787475 30.783621 53.857794 0
M  V30 65 H 40.267321 29.346695 53.031256 0
M  V30 66 H 40.201192 27.203735 56.445449 0
M  V30 67 H 39.816561 29.315659 50.953967 0
M  V30 68 H 39.319799 33.131944 55.894220 0
M  V30 69 H 40.136827 31.595779 55.971080 0
M  V30 70 H 41.313011 29.519571 62.280489 0
M  V30 71 H 39.687066 30.171007 62.178490 0
M  V30 72 H 40.882289 30.565421 60.933472 0
M  V30 73 H 39.730103 29.181963 55.506813 0
M  V30 74 H 39.657033 32.420762 58.515452 0
M  V30 75 H 43.244173 32.421074 65.395310 0
M  V30 76 H 37.414187 30.072468 58.205015 0
M  V30 77 H 37.988676 30.115946 53.434442 0
M  V30 END ATOM
M  V30 BEGIN BOND
M  V30 1 2 4 1
M  V30 2 1 10 5
M  V30 3 1 13 2
M  V30 4 1 15 14
M  V30 5 1 16 4
M  V30 6 1 16 12
M  V30 7 1 21 1
M  V30 8 2 21 13
M  V30 9 1 21 17
M  V30 10 1 24 11
M  V30 11 1 25 13
M  V30 12 2 25 16
M  V30 13 1 26 3
M  V30 14 1 26 15
M  V30 15 1 27 11
M  V30 16 2 27 19
M  V30 17 1 28 22
M  V30 18 1 29 8
M  V30 19 1 29 18
M  V30 20 1 30 22
M  V30 21 1 31 28
M  V30 22 1 32 6
M  V30 23 1 32 12
M  V30 24 2 33 9
M  V30 25 1 33 23
M  V30 26 1 34 7
M  V30 27 1 34 8
M  V30 28 1 35 7
M  V30 29 2 35 26
M  V30 30 1 35 33
M  V30 31 1 36 5
M  V30 32 1 36 23
M  V30 33 2 36 28
M  V30 34 1 37 10
M  V30 35 2 37 22
M  V30 36 1 38 6
M  V30 37 1 38 8
M  V30 38 1 38 20
M  V30 39 1 39 18
M  V30 40 1 39 24
M  V30 41 1 39 32
M  V30 42 1 40 1
M  V30 43 1 41 3
M  V30 44 1 42 3
M  V30 45 1 43 3
M  V30 46 1 44 4
M  V30 47 1 45 5
M  V30 48 1 46 5
M  V30 49 1 47 6
M  V30 50 1 48 6
M  V30 51 1 49 7
M  V30 52 1 50 7
M  V30 53 1 8 51 CFG=3
M  V30 54 1 52 10
M  V30 55 1 53 10
M  V30 56 1 54 11
M  V30 57 1 55 12
M  V30 58 1 56 12
M  V30 59 1 57 14
M  V30 60 1 58 15
M  V30 61 1 59 15
M  V30 62 1 60 18
M  V30 63 1 61 18
M  V30 64 1 62 20
M  V30 65 1 63 23
M  V30 66 1 64 24
M  V30 67 1 65 24
M  V30 68 1 66 25
M  V30 69 1 67 27
M  V30 70 1 68 29
M  V30 71 1 69 29
M  V30 72 1 70 31
M  V30 73 1 71 31
M  V30 74 1 72 31
M  V30 75 1 32 73 CFG=1
M  V30 76 1 74 34
M  V30 77 1 75 37
M  V30 78 1 38 76 CFG=1
M  V30 79 1 39 77 CFG=3
M  V30 END BOND
M  V30 END CTAB
M  END
>  <i_epik_Tot_Q>  (1) 
1

>  <i_epik_Tot_abs_Q>  (1) 
1

>  <i_i_glide_confnum>  (1) 
2395

>  <i_i_glide_lignum>  (1) 
194

>  <i_i_glide_posenum>  (1) 
46

>  <i_i_glide_rotatable_bonds>  (1) 
14

>  <i_lp_mmshare_version>  (1) 
72125

>  <i_m_source_file_index>  (1) 
78

>  <i_f3d_flags>  (1) 
0

>  <num_sample>  (1) 
100

>  <b_lp_Chiralities_Consistent>  (1) 
1

>  <r_epik_Charging_Adjusted_Penalty>  (1) 
1.2599673287133732

>  <r_epik_Ionization_Penalty>  (1) 
0.56885031527891383

>  <r_epik_Ionization_Penalty_Charging>  (1) 
0.52000942162343

>  <r_epik_Ionization_Penalty_Neutral>  (1) 
0.048840893655483872

>  <r_epik_State_Penalty>  (1) 
0.73995790708994325

>  <r_glide_ring_energy>  (1) 
0

>  <r_i_docking_score>  (1) 
-6.5772407183898025

>  <r_i_glide_ecoul>  (1) 
-0.93374128129080081

>  <r_i_glide_eff_state_penalty>  (1) 
0.73995790708994325

>  <r_i_glide_einternal>  (1) 
11.096885944797908

>  <r_i_glide_emodel>  (1) 
-62.36735062381068

>  <r_i_glide_emodel_strain>  (1) 
2.972106866301516

>  <r_i_glide_energy>  (1) 
-45.589154518017146

>  <r_i_glide_erotb>  (1) 
0.67934156738045093

>  <r_i_glide_esite>  (1) 
0

>  <r_i_glide_evdw>  (1) 
-44.655413236726346

>  <r_i_glide_gscore>  (1) 
-7.3171986254797456

>  <r_i_glide_gscore_strain>  (1) 
0

>  <r_i_glide_hbond>  (1) 
0

>  <r_i_glide_ligand_efficiency>  (1) 
-0.16864719790743082

>  <r_i_glide_ligand_efficiency_ln>  (1) 
-1.4103471161034924

>  <r_i_glide_ligand_efficiency_sa>  (1) 
-0.57191830737595439

>  <r_i_glide_lipo>  (1) 
-3.4934180860654718

>  <r_i_glide_metal>  (1) 
-0

>  <r_i_glide_rewards>  (1) 
-2.1302902527647878

>  <r_lp_Energy>  (1) 
51.282467999999994

>  <s_epik_Chemistry_Notes>  (1) 
This compound contains an acetal/aminal-like group ( X-CH(R)-Y where X, Y are N, S, or O) that may be acid/base labile, releasing an aldehyde.

>  <s_epik_cmdline>  (1) 
J2VwaWtfcHl0aG9uJywgJy1waHQnLCAnMS4wJywgJy1waCcsICc3LjQnLCAnLXRuJywgJzgnLCAnLW1hJywgJzUwMCcsICctaW1hZScsICc8aW5maWxlLm1hZT4nLCAnLW9tYWUnLCAnPG91dGZpbGUubWFlPic=

>  <s_epik_input>  (1) 
RmMxYyhGKVtjSF1bY0hdYyhbY0hdMSlbQ0gyXVtDQEhdKFtDSDJdW0NASF0yW09IXSlOKFtDSDJdW05IXVtDSF09TylbQ0gyXVtDSDJdW0NAQEhdMltOSF1bQ0gyXS9DKD1DKFxbQ0gzXSlbQ0gyXVtPSF0pQyg9TylbTkhdQyg9QzNbQ0gzXSlbQ0gyXVtDSDJdW0NIXT1DM0Y=

>  <s_glide_docking_method>  (1) 
confgen

>  <s_i_glide_gridfile>  (1) 
gpcr_5ht2c_6bqh_protein_autoprepared_prepared

>  <s_lp_Force_Field>  (1) 
S-OPLS

>  <s_lp_Variant>  (1) 
DiffSBDD_77_num_sample_100-5

>  <s_m_source_file>  (1) 
generated__ligand_DiffSBDD_2026-05-06_prepared.sdf

>  <GenAI_Model>  (1) 
DiffSBDD

>  <Protein>  (1) 
GPCR_5HT2C

$$$$
DiffSBDD_44_num_sample_100
     RDKit          3D

  0  0  0  0  0  0  0  0  0  0999 V3000
M  V30 BEGIN CTAB
M  V30 COUNTS 58 59 0 0 1
M  V30 BEGIN ATOM
M  V30 1 C 38.068435 35.692630 61.389143 0
M  V30 2 O 37.590589 31.575545 61.267201 0 CHG=-1
M  V30 3 C 38.267268 27.803287 55.389122 0
M  V30 4 C 39.711542 33.891560 61.632302 0 CFG=1
M  V30 5 N 38.606345 33.505023 60.708520 0 CFG=2 CHG=1
M  V30 6 C 39.587092 29.868319 55.125049 0
M  V30 7 N 39.067534 30.029824 58.065614 0
M  V30 8 C 38.988571 28.734380 55.958601 0
M  V30 9 O 40.643831 28.329495 57.639504 0
M  V30 10 C 39.337437 35.297492 62.158446 0 CFG=1
M  V30 11 C 40.476613 36.324032 62.059036 0
M  V30 12 C 37.750170 31.912127 58.947036 0 CFG=1
M  V30 13 C 37.919659 30.492034 58.386033 0
M  V30 14 C 37.436115 34.354578 61.011894 0
M  V30 15 C 40.990911 28.022852 58.982801 0
M  V30 16 C 37.759017 27.796116 52.973199 0
M  V30 17 C 38.407503 32.065043 60.358734 0 CFG=2
M  V30 18 C 39.288031 28.722100 57.460225 0 CFG=1
M  V30 19 F 38.885970 29.217540 51.503728 0
M  V30 20 C 38.932798 28.796829 52.766587 0 CFG=1
M  V30 21 C 37.672796 27.224989 54.378552 0
M  V30 22 C 38.296577 32.916157 57.902076 0
M  V30 23 C 36.633558 29.697676 58.227913 0
M  V30 24 C 39.965929 32.904773 62.787788 0
M  V30 25 C 38.962912 30.043285 53.703341 0
M  V30 26 H 38.328985 36.239458 60.481548 0
M  V30 27 H 37.398089 36.321577 61.976173 0
M  V30 28 H 40.623344 33.946914 61.038805 0
M  V30 29 H 39.469510 30.814617 55.652144 0
M  V30 30 H 40.661497 29.699926 55.053366 0
M  V30 31 H 39.067950 35.221581 63.211025 0
M  V30 32 H 40.843704 36.421194 61.038238 0
M  V30 33 H 40.147757 37.308349 62.393255 0
M  V30 34 H 41.321128 36.033567 62.685183 0
M  V30 35 H 36.685013 32.135480 59.034207 0
M  V30 36 H 36.756977 34.438616 60.163175 0
M  V30 37 H 36.872659 33.951681 61.853530 0
M  V30 38 H 42.016676 27.655450 59.020797 0
M  V30 39 H 40.931112 28.903290 59.623847 0
M  V30 40 H 40.339181 27.249688 59.391712 0
M  V30 41 H 37.874666 26.965334 52.276125 0
M  V30 42 H 36.807058 28.272073 52.735510 0
M  V30 43 H 39.424020 31.683990 60.246881 0
M  V30 44 H 38.672647 27.955255 57.935458 0
M  V30 45 H 39.867424 28.250216 52.833241 0
M  V30 46 H 37.083195 26.329409 54.508916 0
M  V30 47 H 37.865699 32.723862 56.917697 0
M  V30 48 H 38.037724 33.945945 58.144960 0
M  V30 49 H 39.380246 32.851406 57.801543 0
M  V30 50 H 35.799805 30.172330 58.744112 0
M  V30 51 H 36.374508 29.621323 57.172142 0
M  V30 52 H 36.739713 28.701759 58.640026 0
M  V30 53 H 40.749190 33.273581 63.450405 0
M  V30 54 H 39.067629 32.765656 63.386155 0
M  V30 55 H 40.281688 31.925167 62.429539 0
M  V30 56 H 37.947520 30.427656 53.808909 0
M  V30 57 H 39.522007 30.837084 53.205887 0
M  V30 58 H 38.921415 33.884095 59.828726 0
M  V30 END ATOM
M  V30 BEGIN BOND
M  V30 1 1 5 4
M  V30 2 2 8 3
M  V30 3 1 8 6
M  V30 4 1 10 1
M  V30 5 1 10 4
M  V30 6 1 11 10
M  V30 7 2 13 7
M  V30 8 1 13 12
M  V30 9 1 14 1
M  V30 10 1 14 5
M  V30 11 1 15 9
M  V30 12 1 17 2
M  V30 13 1 17 5
M  V30 14 1 17 12
M  V30 15 1 18 7
M  V30 16 1 18 8
M  V30 17 1 18 9
M  V30 18 1 20 16
M  V30 19 1 20 19
M  V30 20 2 21 3
M  V30 21 1 21 16
M  V30 22 1 22 12
M  V30 23 1 23 13
M  V30 24 1 24 4
M  V30 25 1 25 6
M  V30 26 1 25 20
M  V30 27 1 26 1
M  V30 28 1 27 1
M  V30 29 1 4 28 CFG=3
M  V30 30 1 29 6
M  V30 31 1 30 6
M  V30 32 1 10 31 CFG=1
M  V30 33 1 32 11
M  V30 34 1 33 11
M  V30 35 1 34 11
M  V30 36 1 12 35 CFG=1
M  V30 37 1 36 14
M  V30 38 1 37 14
M  V30 39 1 38 15
M  V30 40 1 39 15
M  V30 41 1 40 15
M  V30 42 1 41 16
M  V30 43 1 42 16
M  V30 44 1 17 43 CFG=3
M  V30 45 1 18 44 CFG=1
M  V30 46 1 20 45 CFG=3
M  V30 47 1 46 21
M  V30 48 1 47 22
M  V30 49 1 48 22
M  V30 50 1 49 22
M  V30 51 1 50 23
M  V30 52 1 51 23
M  V30 53 1 52 23
M  V30 54 1 53 24
M  V30 55 1 54 24
M  V30 56 1 55 24
M  V30 57 1 56 25
M  V30 58 1 57 25
M  V30 59 1 5 58 CFG=3
M  V30 END BOND
M  V30 END CTAB
M  END
>  <i_epik_Tot_Q>  (1) 
0

>  <i_epik_Tot_abs_Q>  (1) 
2

>  <i_i_glide_confnum>  (1) 
29

>  <i_i_glide_lignum>  (1) 
113

>  <i_i_glide_posenum>  (1) 
350

>  <i_i_glide_rotatable_bonds>  (1) 
6

>  <i_lp_mmshare_version>  (1) 
72125

>  <i_m_source_file_index>  (1) 
45

>  <i_f3d_flags>  (1) 
0

>  <num_sample>  (1) 
100

>  <b_lp_Chiralities_Consistent>  (1) 
1

>  <r_epik_Charging_Adjusted_Penalty>  (1) 
0.41733257654759531

>  <r_epik_Ionization_Penalty>  (1) 
0.0069177268181324029

>  <r_epik_Ionization_Penalty_Charging>  (1) 
0.0066527375949913311

>  <r_epik_Ionization_Penalty_Neutral>  (1) 
0.00026498922314107146

>  <r_epik_State_Penalty>  (1) 
0.41067983895260396

>  <r_glide_ring_energy>  (1) 
0

>  <r_i_docking_score>  (1) 
-6.5768779856708734

>  <r_i_glide_ecoul>  (1) 
-2.8138298612828154

>  <r_i_glide_eff_state_penalty>  (1) 
0.41067983895260396

>  <r_i_glide_einternal>  (1) 
7.8759289327904725

>  <r_i_glide_emodel>  (1) 
-50.771220814537529

>  <r_i_glide_emodel_strain>  (1) 
0.20846124471803051

>  <r_i_glide_energy>  (1) 
-35.86631727034316

>  <r_i_glide_erotb>  (1) 
0.61440649929112812

>  <r_i_glide_esite>  (1) 
-0.058079368959381455

>  <r_i_glide_evdw>  (1) 
-33.052487409060348

>  <r_i_glide_gscore>  (1) 
-6.9875578246234777

>  <r_i_glide_gscore_strain>  (1) 
0

>  <r_i_glide_hbond>  (1) 
-0.0068831429907647125

>  <r_i_glide_ligand_efficiency>  (1) 
-0.26307511942683492

>  <r_i_glide_ligand_efficiency_ln>  (1) 
-1.5589171757327882

>  <r_i_glide_ligand_efficiency_sa>  (1) 
-0.76923631568653361

>  <r_i_glide_lipo>  (1) 
-3.1270621222289732

>  <r_i_glide_metal>  (1) 
-0

>  <r_i_glide_rewards>  (1) 
-2.3352408400900466

>  <r_lp_Energy>  (1) 
18.805842999999999

>  <r_lp_tautomer_probability>  (1) 
0.49999399997599986

>  <s_epik_Chemistry_Notes>  (1) 
This compound has an imine and may undergo hydrolysis. This compound contains an acetal/aminal-like group ( X-CH(R)-Y where X, Y are N, S, or O) that may be acid/base labile, releasing an aldehyde.

>  <s_epik_cmdline>  (1) 
J2VwaWtfcHl0aG9uJywgJy1waHQnLCAnMS4wJywgJy1waCcsICc3LjQnLCAnLXRuJywgJzgnLCAnLW1hJywgJzUwMCcsICctaW1hZScsICc8aW5maWxlLm1hZT4nLCAnLW9tYWUnLCAnPG91dGZpbGUubWFlPic=

>  <s_epik_input>  (1) 
W0NIM11bQ0BIXTFbQ0gyXVtDSDJdTihbQ0BASF0xW0NIM10pW0NAQEhdKFtPSF0pW0NAQEhdKFtDSDNdKVxDKFtDSDNdKT1OXFtDQEBIXShPW0NIM10pQzI9Qz1bQ0hdW0NIMl1bQ0BASF0oRilbQ0gyXVtDSDJdMg==

>  <s_glide_docking_method>  (1) 
confgen

>  <s_i_glide_gridfile>  (1) 
gpcr_5ht2c_6bqh_protein_autoprepared_prepared

>  <s_lp_Force_Field>  (1) 
S-OPLS

>  <s_lp_Variant>  (1) 
DiffSBDD_44_num_sample_100-6

>  <s_m_source_file>  (1) 
generated__ligand_DiffSBDD_2026-05-06_prepared.sdf

>  <GenAI_Model>  (1) 
DiffSBDD

>  <Protein>  (1) 
GPCR_5HT2C

$$$$
DiffSBDD_0_num_sample_100
     RDKit          3D

  0  0  0  0  0  0  0  0  0  0999 V3000
M  V30 BEGIN CTAB
M  V30 COUNTS 60 62 0 0 1
M  V30 BEGIN ATOM
M  V30 1 C 38.235088 27.110379 57.603646 0
M  V30 2 C 38.969095 28.801976 54.060244 0 CFG=1
M  V30 3 C 38.697499 34.400344 60.432401 0
M  V30 4 C 37.858125 33.650960 57.433210 0
M  V30 5 C 39.111662 27.795229 58.519328 0
M  V30 6 C 40.726610 28.157764 56.540784 0
M  V30 7 C 39.067348 31.987810 60.339642 0
M  V30 8 C 39.645119 34.505420 61.469838 0
M  V30 9 C 38.408695 33.140846 59.863488 0
M  V30 10 C 39.655178 28.785281 51.658454 0 CFG=2
M  V30 11 N 38.123719 30.973197 54.891369 0
M  V30 12 C 38.273505 31.447344 56.261157 0
M  V30 13 C 38.247154 32.958056 56.345561 0
M  V30 14 C 40.306117 33.352991 61.941182 0
M  V30 15 F 40.653907 30.984764 61.823986 0
M  V30 16 C 40.016539 32.093545 61.375519 0
M  V30 17 C 37.389936 33.023921 58.740045 0 CFG=1
M  V30 18 C 40.288041 28.292896 58.042977 0
M  V30 19 N 35.067436 34.021438 59.453500 0
M  V30 20 C 37.908169 29.529864 54.910317 0
M  V30 21 C 38.650800 26.870898 56.376547 0
M  V30 22 C 39.321601 27.350168 54.500705 0 CFG=1
M  V30 23 N 38.549161 28.819934 52.643858 0 CHG=1
M  V30 24 O 41.227845 33.456616 62.943463 0
M  V30 25 C 39.919898 30.186223 51.064900 0
M  V30 26 C 39.353763 27.729706 50.600650 0
M  V30 27 C 41.136485 30.273111 50.139297 0
M  V30 28 N 39.864618 27.166719 55.868124 0
M  V30 29 S 37.873865 26.256540 54.976252 0
M  V30 30 C 36.089936 33.584630 59.138552 0
M  V30 31 Cl 38.667833 28.021488 60.167528 0
M  V30 32 H 37.231328 26.848235 57.898975 0
M  V30 33 H 39.867796 29.410236 54.111134 0
M  V30 34 H 38.193215 35.285571 60.071612 0
M  V30 35 H 37.867405 34.728339 57.400205 0
M  V30 36 H 40.668120 29.138217 56.074010 0
M  V30 37 H 41.762772 27.823242 56.508159 0
M  V30 38 H 38.848626 31.022809 59.907390 0
M  V30 39 H 39.865838 35.470781 61.901816 0
M  V30 40 H 40.564893 28.459000 52.146577 0
M  V30 41 H 38.955202 31.228442 54.378627 0
M  V30 42 H 39.216098 31.086141 56.674340 0
M  V30 43 H 37.467413 31.034540 56.863741 0
M  V30 44 H 38.565539 33.495315 55.464383 0
M  V30 45 H 37.183669 31.966340 58.606384 0
M  V30 46 H 40.958041 28.824272 58.703518 0
M  V30 47 H 37.946091 29.186485 55.939760 0
M  V30 48 H 36.897016 29.304320 54.571015 0
M  V30 49 H 39.956721 26.821259 53.789541 0
M  V30 50 H 37.937274 28.029936 52.487566 0
M  V30 51 H 41.311902 34.330683 63.292494 0
M  V30 52 H 39.067395 30.515449 50.480668 0
M  V30 53 H 40.043855 30.912452 51.869878 0
M  V30 54 H 40.268680 27.440023 50.093554 0
M  V30 55 H 38.929901 26.820943 51.028813 0
M  V30 56 H 38.667400 28.116084 49.853595 0
M  V30 57 H 41.250966 31.283907 49.756465 0
M  V30 58 H 42.061226 30.021437 50.653478 0
M  V30 59 H 41.029711 29.621464 49.272632 0
M  V30 60 H 38.020146 29.666482 52.494924 0
M  V30 END ATOM
M  V30 BEGIN BOND
M  V30 1 1 5 1
M  V30 2 2 8 3
M  V30 3 1 9 3
M  V30 4 2 9 7
M  V30 5 1 12 11
M  V30 6 2 13 4
M  V30 7 1 13 12
M  V30 8 1 14 8
M  V30 9 1 16 7
M  V30 10 2 16 14
M  V30 11 1 16 15
M  V30 12 1 17 4
M  V30 13 1 17 9
M  V30 14 2 18 5
M  V30 15 1 18 6
M  V30 16 1 20 2
M  V30 17 1 20 11
M  V30 18 2 21 1
M  V30 19 1 22 2
M  V30 20 1 23 2
M  V30 21 1 23 10
M  V30 22 1 24 14
M  V30 23 1 25 10
M  V30 24 1 26 10
M  V30 25 1 27 25
M  V30 26 1 28 6
M  V30 27 1 28 21
M  V30 28 1 28 22
M  V30 29 1 29 21
M  V30 30 1 29 22
M  V30 31 1 30 17
M  V30 32 3 30 19
M  V30 33 1 31 5
M  V30 34 1 32 1
M  V30 35 1 2 33 CFG=3
M  V30 36 1 34 3
M  V30 37 1 35 4
M  V30 38 1 36 6
M  V30 39 1 37 6
M  V30 40 1 38 7
M  V30 41 1 39 8
M  V30 42 1 10 40 CFG=1
M  V30 43 1 41 11
M  V30 44 1 42 12
M  V30 45 1 43 12
M  V30 46 1 44 13
M  V30 47 1 17 45 CFG=3
M  V30 48 1 46 18
M  V30 49 1 47 20
M  V30 50 1 48 20
M  V30 51 1 22 49 CFG=3
M  V30 52 1 50 23
M  V30 53 1 51 24
M  V30 54 1 52 25
M  V30 55 1 53 25
M  V30 56 1 54 26
M  V30 57 1 55 26
M  V30 58 1 56 26
M  V30 59 1 57 27
M  V30 60 1 58 27
M  V30 61 1 59 27
M  V30 62 1 60 23
M  V30 END BOND
M  V30 END CTAB
M  END
>  <i_epik_Tot_Q>  (1) 
1

>  <i_epik_Tot_abs_Q>  (1) 
1

>  <i_i_glide_confnum>  (1) 
27

>  <i_i_glide_lignum>  (1) 
4

>  <i_i_glide_posenum>  (1) 
148

>  <i_i_glide_rotatable_bonds>  (1) 
11

>  <i_lp_mmshare_version>  (1) 
72125

>  <i_m_source_file_index>  (1) 
1

>  <i_f3d_flags>  (1) 
0

>  <num_sample>  (1) 
100

>  <b_lp_Chiralities_Consistent>  (1) 
1

>  <r_epik_Charging_Adjusted_Penalty>  (1) 
1.026714880071514

>  <r_epik_Ionization_Penalty>  (1) 
0.57488375576365369

>  <r_epik_Ionization_Penalty_Charging>  (1) 
0.45778339447339428

>  <r_epik_Ionization_Penalty_Neutral>  (1) 
0.11710036129025943

>  <r_epik_State_Penalty>  (1) 
0.56893148559811979

>  <r_glide_ring_energy>  (1) 
0

>  <r_i_docking_score>  (1) 
-6.5766384919468299

>  <r_i_glide_ecoul>  (1) 
-0.99837840459490845

>  <r_i_glide_eff_state_penalty>  (1) 
0.56893148559811979

>  <r_i_glide_einternal>  (1) 
4.4738176503715845

>  <r_i_glide_emodel>  (1) 
-66.03496127419406

>  <r_i_glide_emodel_strain>  (1) 
0.089672182139608481

>  <r_i_glide_energy>  (1) 
-45.318829216883628

>  <r_i_glide_erotb>  (1) 
0.74887478347211667

>  <r_i_glide_esite>  (1) 
-0.088779810067311948

>  <r_i_glide_evdw>  (1) 
-44.320450812288719

>  <r_i_glide_gscore>  (1) 
-7.1455699775449499

>  <r_i_glide_gscore_strain>  (1) 
0

>  <r_i_glide_hbond>  (1) 
0

>  <r_i_glide_ligand_efficiency>  (1) 
-0.21214962877247839

>  <r_i_glide_ligand_efficiency_ln>  (1) 
-1.483233529698577

>  <r_i_glide_ligand_efficiency_sa>  (1) 
-0.66644273923788011

>  <r_i_glide_lipo>  (1) 
-4.1541773004196045

>  <r_i_glide_metal>  (1) 
-0

>  <r_i_glide_rewards>  (1) 
-1.2857083492264785

>  <r_lp_Energy>  (1) 
38.461821999999998

>  <r_lp_tautomer_probability>  (1) 
0.99999999999736477

>  <s_epik_Chemistry_Notes>  (1) 
This compound contains an acetal/aminal-like group ( X-CH(R)-Y where X, Y are N, S, or O) that may be acid/base labile, releasing an aldehyde.

>  <s_epik_cmdline>  (1) 
J2VwaWtfcHl0aG9uJywgJy1waHQnLCAnMS4wJywgJy1waCcsICc3LjQnLCAnLXRuJywgJzgnLCAnLW1hJywgJzUwMCcsICctaW1hZScsICc8aW5maWxlLm1hZT4nLCAnLW9tYWUnLCAnPG91dGZpbGUubWFlPic=

>  <s_epik_input>  (1) 
W0NIXT0xQyhDbCk9W0NIXVtDSDJdTihDMTIpW0NAQEhdKFMyKVtDQEBIXShbTkhdW0NAQEhdKFtDSDNdKVtDSDJdW0NIM10pW0NIMl1bTkhdW0NIMl0vW0NIXT1bQ0hdXFtDQEhdKEMjTiljM1tjSF1bY0hdYyhbT0hdKWMoRilbY0hdMw==

>  <s_glide_docking_method>  (1) 
confgen

>  <s_i_glide_gridfile>  (1) 
gpcr_5ht2c_6bqh_protein_autoprepared_prepared

>  <s_lp_Force_Field>  (1) 
S-OPLS

>  <s_lp_Variant>  (1) 
DiffSBDD_0_num_sample_100-4

>  <s_m_source_file>  (1) 
generated__ligand_DiffSBDD_2026-05-06_prepared.sdf

>  <GenAI_Model>  (1) 
DiffSBDD

>  <Protein>  (1) 
GPCR_5HT2C

$$$$
DiffSBDD_16_num_sample_100
     RDKit          3D

  0  0  0  0  0  0  0  0  0  0999 V3000
M  V30 BEGIN CTAB
M  V30 COUNTS 58 60 0 0 1
M  V30 BEGIN ATOM
M  V30 1 C 39.131491 28.885328 54.921252 0
M  V30 2 O 40.267386 29.621430 49.453499 0
M  V30 3 C 37.709306 26.769736 54.654000 0
M  V30 4 C 37.000757 32.345288 60.416787 0
M  V30 5 C 38.969465 26.492840 55.814681 0 CFG=2
M  V30 6 C 38.269637 31.250998 58.642193 0
M  V30 7 C 40.310716 29.448793 55.712072 0
M  V30 8 C 39.944995 30.228958 51.725629 0
M  V30 9 C 38.893699 26.527205 57.352231 0 CFG=1
M  V30 10 C 36.382112 30.107320 59.671751 0
M  V30 11 C 38.047806 31.188884 54.566304 0
M  V30 12 C 38.053208 32.362221 59.483915 0
M  V30 13 C 40.640532 30.522614 50.467221 0
M  V30 14 C 39.309734 30.021449 52.746817 0
M  V30 15 C 37.438519 30.115736 58.741347 0
M  V30 16 C 40.251538 28.517050 58.122794 0
M  V30 17 C 38.690741 27.628022 55.093812 0
M  V30 18 C 38.827410 27.906985 58.124868 0 CFG=1
M  V30 19 C 40.975073 28.514826 56.758254 0
M  V30 20 O 38.861816 33.456008 59.392099 0
M  V30 21 C 37.653046 28.913387 57.821440 0
M  V30 22 C 38.093100 25.360994 57.930457 0
M  V30 23 C 38.467400 29.842384 53.941272 0 CFG=1
M  V30 24 C 36.162879 31.221416 60.508306 0
M  V30 25 C 38.592502 24.021432 57.394475 0
M  V30 26 C 36.604976 25.460883 57.667575 0
M  V30 27 H 39.362035 29.786687 49.215455 0
M  V30 28 H 37.806416 26.268698 53.693211 0
M  V30 29 H 36.696654 26.821418 55.040220 0
M  V30 30 H 36.832511 33.198086 61.057705 0
M  V30 31 H 39.732960 25.806043 55.452179 0
M  V30 32 H 39.067461 31.272937 57.921652 0
M  V30 33 H 41.067396 29.806781 55.023639 0
M  V30 34 H 39.977083 30.345366 56.225195 0
M  V30 35 H 39.892694 26.181943 57.625138 0
M  V30 36 H 35.734290 29.248050 59.740897 0
M  V30 37 H 37.483905 31.796155 53.860236 0
M  V30 38 H 38.904338 31.787538 54.876590 0
M  V30 39 H 37.404939 31.049930 55.434979 0
M  V30 40 H 41.715379 30.464570 50.639147 0
M  V30 41 H 40.398556 31.539795 50.159797 0
M  V30 42 H 40.866569 27.926529 58.804378 0
M  V30 43 H 40.262194 29.512001 58.560134 0
M  V30 44 H 38.660273 27.641880 59.169400 0
M  V30 45 H 41.998967 28.821406 56.956370 0
M  V30 46 H 41.154821 27.522006 56.355525 0
M  V30 47 H 39.411527 33.439027 58.624502 0
M  V30 48 H 36.704096 28.398881 57.853479 0
M  V30 49 H 37.688327 29.326734 56.828468 0
M  V30 50 H 38.267400 25.361096 59.006967 0
M  V30 51 H 37.560001 29.359550 53.576054 0
M  V30 52 H 35.348594 31.212086 61.217847 0
M  V30 53 H 38.332629 23.900176 56.342871 0
M  V30 54 H 38.117507 23.221426 57.952210 0
M  V30 55 H 39.673307 23.910288 57.474048 0
M  V30 56 H 36.327613 25.186992 56.650202 0
M  V30 57 H 36.267397 26.460501 57.853503 0
M  V30 58 H 36.078811 24.821432 58.360009 0
M  V30 END ATOM
M  V30 BEGIN BOND
M  V30 1 1 5 3
M  V30 2 1 7 1
M  V30 3 1 9 5
M  V30 4 1 12 4
M  V30 5 2 12 6
M  V30 6 1 13 2
M  V30 7 1 13 8
M  V30 8 3 14 8
M  V30 9 1 15 6
M  V30 10 2 15 10
M  V30 11 2 17 1
M  V30 12 1 17 3
M  V30 13 1 17 5
M  V30 14 1 18 9
M  V30 15 1 18 16
M  V30 16 1 19 7
M  V30 17 1 19 16
M  V30 18 1 20 12
M  V30 19 1 21 15
M  V30 20 1 21 18
M  V30 21 1 22 9
M  V30 22 1 23 1
M  V30 23 1 23 11
M  V30 24 1 23 14
M  V30 25 2 24 4
M  V30 26 1 24 10
M  V30 27 1 25 22
M  V30 28 1 26 22
M  V30 29 1 27 2
M  V30 30 1 28 3
M  V30 31 1 29 3
M  V30 32 1 30 4
M  V30 33 1 5 31 CFG=1
M  V30 34 1 32 6
M  V30 35 1 33 7
M  V30 36 1 34 7
M  V30 37 1 9 35 CFG=1
M  V30 38 1 36 10
M  V30 39 1 37 11
M  V30 40 1 38 11
M  V30 41 1 39 11
M  V30 42 1 40 13
M  V30 43 1 41 13
M  V30 44 1 42 16
M  V30 45 1 43 16
M  V30 46 1 18 44 CFG=1
M  V30 47 1 45 19
M  V30 48 1 46 19
M  V30 49 1 47 20
M  V30 50 1 48 21
M  V30 51 1 49 21
M  V30 52 1 50 22
M  V30 53 1 23 51 CFG=3
M  V30 54 1 52 24
M  V30 55 1 53 25
M  V30 56 1 54 25
M  V30 57 1 55 25
M  V30 58 1 56 26
M  V30 59 1 57 26
M  V30 60 1 58 26
M  V30 END BOND
M  V30 END CTAB
M  END
>  <i_epik_Tot_Q>  (1) 
0

>  <i_epik_Tot_abs_Q>  (1) 
0

>  <i_i_glide_confnum>  (1) 
3

>  <i_i_glide_lignum>  (1) 
38

>  <i_i_glide_posenum>  (1) 
398

>  <i_i_glide_rotatable_bonds>  (1) 
8

>  <i_lp_mmshare_version>  (1) 
72125

>  <i_m_source_file_index>  (1) 
17

>  <i_f3d_flags>  (1) 
0

>  <num_sample>  (1) 
100

>  <b_lp_Chiralities_Consistent>  (1) 
1

>  <r_epik_Charging_Adjusted_Penalty>  (1) 
0

>  <r_epik_Ionization_Penalty>  (1) 
0.00099862310418953213

>  <r_epik_Ionization_Penalty_Charging>  (1) 
0

>  <r_epik_Ionization_Penalty_Neutral>  (1) 
0.00099862310418953213

>  <r_epik_State_Penalty>  (1) 
-0

>  <r_glide_ring_energy>  (1) 
0

>  <r_i_docking_score>  (1) 
-6.5752969040881508

>  <r_i_glide_ecoul>  (1) 
-1.9293880613224161

>  <r_i_glide_eff_state_penalty>  (1) 
-0

>  <r_i_glide_einternal>  (1) 
5.9363384939417543

>  <r_i_glide_emodel>  (1) 
-39.970117306308893

>  <r_i_glide_emodel_strain>  (1) 
2.3777283005719454

>  <r_i_glide_energy>  (1) 
-33.863838726547236

>  <r_i_glide_erotb>  (1) 
0.76791189123998571

>  <r_i_glide_esite>  (1) 
0

>  <r_i_glide_evdw>  (1) 
-31.934450665224819

>  <r_i_glide_gscore>  (1) 
-6.5752969040881508

>  <r_i_glide_gscore_strain>  (1) 
0

>  <r_i_glide_hbond>  (1) 
-0.32000000000000001

>  <r_i_glide_ligand_efficiency>  (1) 
-0.25289603477262118

>  <r_i_glide_ligand_efficiency_ln>  (1) 
-1.5441869026161987

>  <r_i_glide_ligand_efficiency_sa>  (1) 
-0.74920350872970409

>  <r_i_glide_lipo>  (1) 
-3.4086638271801029

>  <r_i_glide_metal>  (1) 
-0

>  <r_i_glide_rewards>  (1) 
-1.7284142256884294

>  <r_lp_Energy>  (1) 
30.586513999999998

>  <r_lp_tautomer_probability>  (1) 
1

>  <s_epik_cmdline>  (1) 
J2VwaWtfcHl0aG9uJywgJy1waHQnLCAnMS4wJywgJy1waCcsICc3LjQnLCAnLXRuJywgJzgnLCAnLW1hJywgJzUwMCcsICctaW1hZScsICc8aW5maWxlLm1hZT4nLCAnLW9tYWUnLCAnPG91dGZpbGUubWFlPic=

>  <s_epik_input>  (1) 
W09IXVtDSDJdQyNDW0NASF0oW0NIM10pQyg9QygvW0NIMl0xKVtDQEhdMTIpXFtDSDJdW0NIMl1bQ0gyXVtDQEhdKFtDQEhdMltDSF0oW0NIM10pW0NIM10pW0NIMl1jKFtjSF0zKVtjSF1bY0hdW2NIXWMzW09IXQ==

>  <s_glide_docking_method>  (1) 
confgen

>  <s_i_glide_gridfile>  (1) 
gpcr_5ht2c_6bqh_protein_autoprepared_prepared

>  <s_lp_Force_Field>  (1) 
S-OPLS

>  <s_lp_Variant>  (1) 
DiffSBDD_16_num_sample_100-1

>  <s_m_source_file>  (1) 
generated__ligand_DiffSBDD_2026-05-06_prepared.sdf

>  <GenAI_Model>  (1) 
DiffSBDD

>  <Protein>  (1) 
GPCR_5HT2C

$$$$
DiffSBDD_97_num_sample_100
     RDKit          3D

  0  0  0  0  0  0  0  0  0  0999 V3000
M  V30 BEGIN CTAB
M  V30 COUNTS 74 78 0 0 1
M  V30 BEGIN ATOM
M  V30 1 C 40.114594 28.421453 51.064350 0
M  V30 2 C 37.515110 30.993023 58.878440 0
M  V30 3 C 39.463619 30.911723 63.169994 0
M  V30 4 S 37.669823 30.874315 60.663207 0 CHG=1
M  V30 5 C 36.667479 35.420496 60.701458 0
M  V30 6 C 42.080098 31.910946 63.146954 0
M  V30 7 C 38.841814 30.494334 58.269324 0 CFG=2
M  V30 8 C 37.545917 28.879765 54.315758 0
M  V30 9 C 38.667357 29.370898 60.469468 0
M  V30 10 C 38.285739 33.573123 61.289089 0 CFG=1
M  V30 11 N 37.325502 37.780423 61.407021 0 CHG=1
M  V30 12 N 38.101783 29.086705 52.968163 0 CFG=1 CHG=1
M  V30 13 C 40.356987 30.559564 64.196085 0
M  V30 14 C 38.612950 29.799222 56.947048 0
M  V30 15 C 39.314256 29.992676 52.832680 0 CFG=1
M  V30 16 C 39.574336 29.573551 59.267791 0
M  V30 17 N 39.344312 34.586546 61.365232 0
M  V30 18 C 37.251303 34.076253 60.254978 0
M  V30 19 O 36.433463 37.802865 62.247884 0
M  V30 20 C 38.842242 35.851540 61.894247 0
M  V30 21 O 37.867480 38.771252 60.928821 0 CHG=-1
M  V30 22 C 41.664970 31.061739 64.185384 0
M  V30 23 C 39.441027 31.290757 55.044236 0
M  V30 24 C 37.118434 30.197203 54.973231 0
M  V30 25 C 40.098794 30.236262 54.128023 0
M  V30 26 C 40.115952 29.639443 51.600256 0
M  V30 27 C 38.022295 27.832900 52.146580 0
M  V30 28 C 41.197228 32.260083 62.118494 0
M  V30 29 F 42.525618 30.731839 65.175046 0
M  V30 30 C 38.221895 30.790909 55.838647 0 CFG=1
M  V30 31 C 38.917051 32.179969 61.004284 0 CFG=1
M  V30 32 C 39.348488 27.282079 51.651491 0
M  V30 33 C 39.882403 31.769724 62.124040 0
M  V30 34 C 37.797952 36.438936 60.929912 0 CFG=1
M  V30 35 H 40.667390 28.222025 50.175046 0
M  V30 36 H 37.249821 31.992424 58.542682 0
M  V30 37 H 36.688937 30.340212 58.590329 0
M  V30 38 H 38.455934 30.528420 63.192183 0
M  V30 39 H 36.122302 35.246950 61.631152 0
M  V30 40 H 35.956599 35.791628 59.961395 0
M  V30 41 H 43.067434 32.298604 63.141776 0
M  V30 42 H 39.467247 31.356725 58.055392 0
M  V30 43 H 38.238789 28.288896 54.910489 0
M  V30 44 H 36.667322 28.249661 54.231538 0
M  V30 45 H 39.216897 29.083198 61.362139 0
M  V30 46 H 37.988916 28.551160 60.242961 0
M  V30 47 H 37.792327 33.501462 62.253336 0
M  V30 48 H 40.034079 29.907941 64.995010 0
M  V30 49 H 37.841110 29.042102 57.095025 0
M  V30 50 H 39.510361 29.248618 56.671086 0
M  V30 51 H 39.067390 31.013681 52.578334 0
M  V30 52 H 39.846173 28.609733 58.835643 0
M  V30 53 H 40.510931 30.021412 59.595019 0
M  V30 54 H 39.725610 34.755117 60.445023 0
M  V30 55 H 37.702477 34.170320 59.265523 0
M  V30 56 H 36.420910 33.377145 60.161081 0
M  V30 57 H 38.420449 35.702005 62.888921 0
M  V30 58 H 39.676719 36.545152 62.007942 0
M  V30 59 H 40.189275 31.662947 55.744574 0
M  V30 60 H 39.149758 32.166894 54.462716 0
M  V30 61 H 36.257277 30.020938 55.616446 0
M  V30 62 H 36.768120 30.932905 54.253546 0
M  V30 63 H 40.267327 29.301144 54.654404 0
M  V30 64 H 41.067383 30.645731 53.863121 0
M  V30 65 H 40.687917 30.434239 51.139542 0
M  V30 66 H 37.467472 27.035925 52.644406 0
M  V30 67 H 37.467362 28.085331 51.251983 0
M  V30 68 H 41.526317 32.916720 61.327589 0
M  V30 69 H 37.772970 31.675363 56.293867 0
M  V30 70 H 39.525831 32.286190 60.110191 0
M  V30 71 H 39.184765 26.510189 50.899338 0
M  V30 72 H 39.913986 26.837246 52.470269 0
M  V30 73 H 38.267348 36.652549 59.968080 0
M  V30 74 H 37.376565 29.639681 52.539454 0
M  V30 END ATOM
M  V30 BEGIN BOND
M  V30 1 1 4 2 CFG=3
M  V30 2 1 7 2
M  V30 3 1 9 4
M  V30 4 1 12 8
M  V30 5 1 13 3
M  V30 6 1 14 7
M  V30 7 1 15 12
M  V30 8 1 16 7
M  V30 9 1 16 9
M  V30 10 1 17 10
M  V30 11 1 18 5
M  V30 12 1 18 10
M  V30 13 2 19 11
M  V30 14 1 20 17
M  V30 15 1 21 11
M  V30 16 1 22 6
M  V30 17 2 22 13
M  V30 18 1 24 8
M  V30 19 1 25 15
M  V30 20 1 25 23
M  V30 21 2 26 1
M  V30 22 1 26 15
M  V30 23 1 27 12
M  V30 24 2 28 6
M  V30 25 1 29 22
M  V30 26 1 30 14
M  V30 27 1 30 23
M  V30 28 1 30 24
M  V30 29 1 31 4
M  V30 30 1 31 10
M  V30 31 1 32 1
M  V30 32 1 32 27
M  V30 33 2 33 3
M  V30 34 1 33 28
M  V30 35 1 33 31
M  V30 36 1 34 5
M  V30 37 1 34 11
M  V30 38 1 34 20
M  V30 39 1 35 1
M  V30 40 1 36 2
M  V30 41 1 37 2
M  V30 42 1 38 3
M  V30 43 1 39 5
M  V30 44 1 40 5
M  V30 45 1 41 6
M  V30 46 1 7 42 CFG=3
M  V30 47 1 43 8
M  V30 48 1 44 8
M  V30 49 1 45 9
M  V30 50 1 46 9
M  V30 51 1 10 47 CFG=1
M  V30 52 1 48 13
M  V30 53 1 49 14
M  V30 54 1 50 14
M  V30 55 1 15 51 CFG=3
M  V30 56 1 52 16
M  V30 57 1 53 16
M  V30 58 1 54 17
M  V30 59 1 55 18
M  V30 60 1 56 18
M  V30 61 1 57 20
M  V30 62 1 58 20
M  V30 63 1 59 23
M  V30 64 1 60 23
M  V30 65 1 61 24
M  V30 66 1 62 24
M  V30 67 1 63 25
M  V30 68 1 64 25
M  V30 69 1 65 26
M  V30 70 1 66 27
M  V30 71 1 67 27
M  V30 72 1 68 28
M  V30 73 1 30 69 CFG=1
M  V30 74 1 31 70 CFG=3
M  V30 75 1 71 32
M  V30 76 1 72 32
M  V30 77 1 34 73 CFG=3
M  V30 78 1 12 74 CFG=3
M  V30 END BOND
M  V30 END CTAB
M  END
>  <i_epik_Tot_Q>  (1) 
2

>  <i_epik_Tot_abs_Q>  (1) 
4

>  <i_i_glide_confnum>  (1) 
23

>  <i_i_glide_lignum>  (1) 
268

>  <i_i_glide_posenum>  (1) 
166

>  <i_i_glide_rotatable_bonds>  (1) 
6

>  <i_lp_mmshare_version>  (1) 
72125

>  <i_m_source_file_index>  (1) 
98

>  <i_f3d_flags>  (1) 
0

>  <num_sample>  (1) 
100

>  <b_lp_Chiralities_Consistent>  (1) 
1

>  <r_epik_Charging_Adjusted_Penalty>  (1) 
0.028424460748094963

>  <r_epik_Ionization_Penalty>  (1) 
0.031653010901111077

>  <r_epik_Ionization_Penalty_Charging>  (1) 
0.0018620536084809386

>  <r_epik_Ionization_Penalty_Neutral>  (1) 
0.029790957292630139

>  <r_epik_State_Penalty>  (1) 
0.026562407139614025

>  <r_glide_ring_energy>  (1) 
1.3700077463138134

>  <r_i_docking_score>  (1) 
-6.5622710874826202

>  <r_i_glide_ecoul>  (1) 
-1.5453722741788196

>  <r_i_glide_eff_state_penalty>  (1) 
0.026562407139614025

>  <r_i_glide_einternal>  (1) 
5.5764146449785361

>  <r_i_glide_emodel>  (1) 
-45.298922481770973

>  <r_i_glide_emodel_strain>  (1) 
4.2011746488573323

>  <r_i_glide_energy>  (1) 
-40.069490784974995

>  <r_i_glide_erotb>  (1) 
0.42420227184638803

>  <r_i_glide_esite>  (1) 
0

>  <r_i_glide_evdw>  (1) 
-38.524118510796178

>  <r_i_glide_gscore>  (1) 
-6.588833494622234

>  <r_i_glide_gscore_strain>  (1) 
0.050293662214333068

>  <r_i_glide_hbond>  (1) 
0

>  <r_i_glide_ligand_efficiency>  (1) 
-0.19300797316125354

>  <r_i_glide_ligand_efficiency_ln>  (1) 
-1.4497897486942017

>  <r_i_glide_ligand_efficiency_sa>  (1) 
-0.62527090759384485

>  <r_i_glide_lipo>  (1) 
-3.7875115481043404

>  <r_i_glide_metal>  (1) 
-0

>  <r_i_glide_rewards>  (1) 
-1.1178061139119824

>  <r_lp_Energy>  (1) 
45.035862999999999

>  <s_epik_cmdline>  (1) 
J2VwaWtfcHl0aG9uJywgJy1waHQnLCAnMS4wJywgJy1waCcsICc3LjQnLCAnLXRuJywgJzgnLCAnLW1hJywgJzUwMCcsICctaW1hZScsICc8aW5maWxlLm1hZT4nLCAnLW9tYWUnLCAnPG91dGZpbGUubWFlPic=

>  <s_epik_input>  (1) 
W0NIMl0xW0NIMl1bQ0hdPVtDSF1bQ0BASF0oTjEyKVtDSDJdW0NIMl1bQ0BASF0oW0NIMl1bQ0gyXTIpW0NIMl1bQ0BIXShbQ0gyXVtDSDJdMylbQ0gyXVtTK10zW0NASF0oYyhbY0hdW2NIXTQpW2NIXVtjSF1jNEYpW0NASF01W05IXVtDSDJdW0NASF0oW04rXSg9TylbTy1dKVtDSDJdW0NIMl01

>  <s_glide_docking_method>  (1) 
confgen

>  <s_i_glide_gridfile>  (1) 
gpcr_5ht2c_6bqh_protein_autoprepared_prepared

>  <s_lp_Force_Field>  (1) 
S-OPLS

>  <s_lp_Variant>  (1) 
DiffSBDD_97_num_sample_100-1

>  <s_m_source_file>  (1) 
generated__ligand_DiffSBDD_2026-05-06_prepared.sdf

>  <GenAI_Model>  (1) 
DiffSBDD

>  <Protein>  (1) 
GPCR_5HT2C

$$$$
DiffSBDD_44_num_sample_100
     RDKit          3D

  0  0  0  0  0  0  0  0  0  0999 V3000
M  V30 BEGIN CTAB
M  V30 COUNTS 58 59 0 0 1
M  V30 BEGIN ATOM
M  V30 1 C 37.467030 35.288258 59.544575 0
M  V30 2 O 37.067619 31.354674 61.803611 0 CHG=-1
M  V30 3 C 38.864330 27.645508 57.145997 0
M  V30 4 C 36.150766 33.708134 60.842522 0 CFG=1
M  V30 5 N 37.340541 33.002649 60.285565 0 CFG=1 CHG=1
M  V30 6 C 38.135155 28.008434 54.820900 0
M  V30 7 N 38.676042 30.465006 57.819205 0
M  V30 8 C 38.395140 28.481815 56.251719 0
M  V30 9 O 38.380497 30.817406 55.480218 0
M  V30 10 C 36.348889 35.206838 60.567160 0 CFG=1
M  V30 11 C 36.680222 35.996944 61.851703 0
M  V30 12 C 38.782968 30.931376 60.242542 0 CFG=1
M  V30 13 C 38.096708 30.406505 58.958105 0
M  V30 14 C 38.279937 34.021237 59.760073 0
M  V30 15 C 39.758982 31.022402 55.199716 0
M  V30 16 C 39.235916 25.249835 56.673799 0
M  V30 17 C 38.007751 31.962331 61.129296 0 CFG=2
M  V30 18 C 38.072682 29.959112 56.578813 0 CFG=2
M  V30 19 F 37.101161 25.378313 55.634317 0
M  V30 20 C 38.406235 25.401221 55.362060 0 CFG=1
M  V30 21 C 39.238507 26.471255 57.580345 0
M  V30 22 C 39.424412 29.791402 61.054571 0
M  V30 23 C 36.702225 29.814578 59.145148 0
M  V30 24 C 34.868455 33.151925 60.195488 0
M  V30 25 C 38.738422 26.616916 54.448253 0
M  V30 26 H 38.050377 36.199878 59.680484 0
M  V30 27 H 37.060446 35.287658 58.534170 0
M  V30 28 H 36.072051 33.574534 61.921512 0
M  V30 29 H 37.061536 27.994617 54.652256 0
M  V30 30 H 38.535746 28.739406 54.119148 0
M  V30 31 H 35.467562 35.620311 60.086984 0
M  V30 32 H 37.654035 35.708350 62.248723 0
M  V30 33 H 36.714217 37.068491 61.651794 0
M  V30 34 H 35.950748 35.828222 62.649105 0
M  V30 35 H 39.633337 31.504890 59.880886 0
M  V30 36 H 39.065795 34.244200 60.482152 0
M  V30 37 H 38.765067 33.672309 58.847558 0
M  V30 38 H 39.856725 31.574004 54.265425 0
M  V30 39 H 40.234846 31.614813 55.978729 0
M  V30 40 H 40.301086 30.083428 55.088013 0
M  V30 41 H 40.267721 25.015982 56.421683 0
M  V30 42 H 38.858839 24.397480 57.240287 0
M  V30 43 H 38.775884 32.477103 61.708541 0
M  V30 44 H 36.985075 30.020169 56.622804 0
M  V30 45 H 38.572400 24.494180 54.779117 0
M  V30 46 H 39.560505 26.324070 58.600265 0
M  V30 47 H 40.064630 29.164341 60.432454 0
M  V30 48 H 40.035015 30.185422 61.867015 0
M  V30 49 H 38.667412 29.153489 61.504428 0
M  V30 50 H 36.481867 29.621408 60.188341 0
M  V30 51 H 35.945620 30.499880 58.765835 0
M  V30 52 H 36.601991 28.865518 58.620201 0
M  V30 53 H 33.976031 33.621680 60.605510 0
M  V30 54 H 34.862911 33.307515 59.115832 0
M  V30 55 H 34.771910 32.080331 60.374042 0
M  V30 56 H 38.389203 26.382625 53.442882 0
M  V30 57 H 39.821740 26.703819 54.361824 0
M  V30 58 H 36.968085 32.505755 59.488546 0
M  V30 END ATOM
M  V30 BEGIN BOND
M  V30 1 1 5 4
M  V30 2 2 8 3
M  V30 3 1 8 6
M  V30 4 1 10 1
M  V30 5 1 10 4
M  V30 6 1 11 10
M  V30 7 2 13 7
M  V30 8 1 13 12
M  V30 9 1 14 1
M  V30 10 1 14 5
M  V30 11 1 15 9
M  V30 12 1 17 2
M  V30 13 1 17 5
M  V30 14 1 17 12
M  V30 15 1 18 7
M  V30 16 1 18 8
M  V30 17 1 18 9
M  V30 18 1 20 16
M  V30 19 1 20 19
M  V30 20 2 21 3
M  V30 21 1 21 16
M  V30 22 1 22 12
M  V30 23 1 23 13
M  V30 24 1 24 4
M  V30 25 1 25 6
M  V30 26 1 25 20
M  V30 27 1 26 1
M  V30 28 1 27 1
M  V30 29 1 4 28 CFG=1
M  V30 30 1 29 6
M  V30 31 1 30 6
M  V30 32 1 10 31 CFG=3
M  V30 33 1 32 11
M  V30 34 1 33 11
M  V30 35 1 34 11
M  V30 36 1 12 35 CFG=3
M  V30 37 1 36 14
M  V30 38 1 37 14
M  V30 39 1 38 15
M  V30 40 1 39 15
M  V30 41 1 40 15
M  V30 42 1 41 16
M  V30 43 1 42 16
M  V30 44 1 17 43 CFG=1
M  V30 45 1 18 44 CFG=1
M  V30 46 1 20 45 CFG=3
M  V30 47 1 46 21
M  V30 48 1 47 22
M  V30 49 1 48 22
M  V30 50 1 49 22
M  V30 51 1 50 23
M  V30 52 1 51 23
M  V30 53 1 52 23
M  V30 54 1 53 24
M  V30 55 1 54 24
M  V30 56 1 55 24
M  V30 57 1 56 25
M  V30 58 1 57 25
M  V30 59 1 5 58 CFG=3
M  V30 END BOND
M  V30 END CTAB
M  END
>  <i_epik_Tot_Q>  (1) 
0

>  <i_epik_Tot_abs_Q>  (1) 
2

>  <i_i_glide_confnum>  (1) 
16

>  <i_i_glide_lignum>  (1) 
108

>  <i_i_glide_posenum>  (1) 
337

>  <i_i_glide_rotatable_bonds>  (1) 
6

>  <i_lp_mmshare_version>  (1) 
72125

>  <i_m_source_file_index>  (1) 
45

>  <i_f3d_flags>  (1) 
0

>  <num_sample>  (1) 
100

>  <b_lp_Chiralities_Consistent>  (1) 
1

>  <r_epik_Charging_Adjusted_Penalty>  (1) 
0.41733257654759531

>  <r_epik_Ionization_Penalty>  (1) 
0.0069177268181324029

>  <r_epik_Ionization_Penalty_Charging>  (1) 
0.0066527375949913311

>  <r_epik_Ionization_Penalty_Neutral>  (1) 
0.00026498922314107146

>  <r_epik_State_Penalty>  (1) 
0.41067983895260396

>  <r_glide_ring_energy>  (1) 
0

>  <r_i_docking_score>  (1) 
-6.5613998121576733

>  <r_i_glide_ecoul>  (1) 
-6.3414656698419822

>  <r_i_glide_eff_state_penalty>  (1) 
0.41067983895260396

>  <r_i_glide_einternal>  (1) 
7.7545223374388499

>  <r_i_glide_emodel>  (1) 
-46.473381685092214

>  <r_i_glide_emodel_strain>  (1) 
1.1395646625118658

>  <r_i_glide_energy>  (1) 
-36.580832207393946

>  <r_i_glide_erotb>  (1) 
0.61440649929112812

>  <r_i_glide_esite>  (1) 
-0.088096153345229314

>  <r_i_glide_evdw>  (1) 
-30.239366537551962

>  <r_i_glide_gscore>  (1) 
-6.9720796511102776

>  <r_i_glide_gscore_strain>  (1) 
0

>  <r_i_glide_hbond>  (1) 
-0.16

>  <r_i_glide_ligand_efficiency>  (1) 
-0.26245599248630691

>  <r_i_glide_ligand_efficiency_ln>  (1) 
-1.5552483847667296

>  <r_i_glide_ligand_efficiency_sa>  (1) 
-0.76742597753022423

>  <r_i_glide_lipo>  (1) 
-2.7376678609628007

>  <r_i_glide_metal>  (1) 
-0

>  <r_i_glide_rewards>  (1) 
-2.1375339587394802

>  <r_lp_Energy>  (1) 
13.770411999999999

>  <r_lp_tautomer_probability>  (1) 
0.49999399997599986

>  <s_epik_Chemistry_Notes>  (1) 
This compound has an imine and may undergo hydrolysis. This compound contains an acetal/aminal-like group ( X-CH(R)-Y where X, Y are N, S, or O) that may be acid/base labile, releasing an aldehyde.

>  <s_epik_cmdline>  (1) 
J2VwaWtfcHl0aG9uJywgJy1waHQnLCAnMS4wJywgJy1waCcsICc3LjQnLCAnLXRuJywgJzgnLCAnLW1hJywgJzUwMCcsICctaW1hZScsICc8aW5maWxlLm1hZT4nLCAnLW9tYWUnLCAnPG91dGZpbGUubWFlPic=

>  <s_epik_input>  (1) 
W0NIM11bQ0BIXTFbQ0gyXVtDSDJdTihbQ0BASF0xW0NIM10pW0NAQEhdKFtPSF0pW0NAQEhdKFtDSDNdKVxDKFtDSDNdKT1OXFtDQEBIXShPW0NIM10pQzI9Qz1bQ0hdW0NIMl1bQ0BASF0oRilbQ0gyXVtDSDJdMg==

>  <s_glide_docking_method>  (1) 
confgen

>  <s_i_glide_gridfile>  (1) 
gpcr_5ht2c_6bqh_protein_autoprepared_prepared

>  <s_lp_Force_Field>  (1) 
S-OPLS

>  <s_lp_Variant>  (1) 
DiffSBDD_44_num_sample_100-1

>  <s_m_source_file>  (1) 
generated__ligand_DiffSBDD_2026-05-06_prepared.sdf

>  <GenAI_Model>  (1) 
DiffSBDD

>  <Protein>  (1) 
GPCR_5HT2C

$$$$
DiffSBDD_84_num_sample_100
     RDKit          3D

  0  0  0  0  0  0  0  0  0  0999 V3000
M  V30 BEGIN CTAB
M  V30 COUNTS 48 50 0 0 1
M  V30 BEGIN ATOM
M  V30 1 C 39.818489 29.984926 61.319720 0
M  V30 2 C 39.016331 27.495945 52.360792 0
M  V30 3 C 39.038536 28.935565 51.851451 0 CFG=2
M  V30 4 C 38.908725 29.674538 58.245751 0
M  V30 5 C 38.838370 28.906428 54.320829 0 CFG=1
M  V30 6 C 40.106166 28.715814 60.693618 0
M  V30 7 C 39.852370 31.918173 62.742781 0
M  V30 8 N 38.193230 30.472118 57.569092 0
M  V30 9 Cl 41.742499 29.982007 63.254085 0
M  V30 10 C 38.300078 27.606723 53.703884 0
M  V30 11 C 37.021547 32.084523 60.092432 0
M  V30 12 O 39.867230 30.438893 50.142155 0
M  V30 13 C 38.626778 29.359401 59.698781 0 CFG=1
M  V30 14 C 38.856433 30.410064 60.670221 0
M  V30 15 C 40.407608 30.652806 62.391037 0
M  V30 16 C 38.210797 31.625676 60.915671 0
M  V30 17 C 40.068166 29.175181 50.735046 0
M  V30 18 C 38.726602 32.417210 61.988118 0
M  V30 19 C 38.470571 30.689754 56.170717 0 CFG=1
M  V30 20 C 39.244556 29.787332 53.119536 0
M  V30 21 C 37.847942 29.561818 55.304430 0
M  V30 22 N 37.867414 31.994781 55.858086 0 CHG=1
M  V30 23 H 38.511496 26.821224 51.669034 0
M  V30 24 H 40.032808 27.128731 52.510328 0
M  V30 25 H 38.043178 29.140295 51.457198 0
M  V30 26 H 39.773343 29.160287 57.816942 0
M  V30 27 H 39.746250 28.646967 54.867628 0
M  V30 28 H 39.907624 27.864283 61.345141 0
M  V30 29 H 41.067310 28.699859 60.177990 0
M  V30 30 H 40.262537 32.490468 63.562375 0
M  V30 31 H 37.223978 27.678416 53.534716 0
M  V30 32 H 38.474085 26.739385 54.341646 0
M  V30 33 H 36.378138 32.735635 60.683769 0
M  V30 34 H 37.353066 32.639937 59.214998 0
M  V30 35 H 36.420919 31.238277 59.757355 0
M  V30 36 H 39.081876 30.401324 49.610522 0
M  V30 37 H 37.692342 28.821493 59.853602 0
M  V30 38 H 39.970646 28.416065 49.959179 0
M  V30 39 H 41.084567 29.113438 51.123584 0
M  V30 40 H 38.279738 33.369722 62.234764 0
M  V30 41 H 39.545439 30.768797 55.989971 0
M  V30 42 H 40.285923 30.090501 53.220844 0
M  V30 43 H 38.667544 30.708178 53.065152 0
M  V30 44 H 36.968819 29.921529 54.767258 0
M  V30 45 H 37.467425 28.770943 55.952651 0
M  V30 46 H 37.907421 32.188105 54.869601 0
M  V30 47 H 36.887109 31.994583 56.161987 0
M  V30 48 H 38.344334 32.720415 56.370385 0
M  V30 END ATOM
M  V30 BEGIN BOND
M  V30 1 1 3 2
M  V30 2 1 6 1
M  V30 3 2 8 4
M  V30 4 1 10 2
M  V30 5 1 10 5
M  V30 6 1 13 4
M  V30 7 1 13 6
M  V30 8 1 14 1
M  V30 9 1 14 13
M  V30 10 2 15 1
M  V30 11 1 15 7
M  V30 12 1 15 9
M  V30 13 1 16 11
M  V30 14 2 16 14
M  V30 15 1 17 3
M  V30 16 1 17 12
M  V30 17 2 18 7
M  V30 18 1 18 16
M  V30 19 1 19 8
M  V30 20 1 20 3
M  V30 21 1 20 5
M  V30 22 1 21 5
M  V30 23 1 21 19
M  V30 24 1 22 19
M  V30 25 1 23 2
M  V30 26 1 24 2
M  V30 27 1 3 25 CFG=3
M  V30 28 1 26 4
M  V30 29 1 5 27 CFG=1
M  V30 30 1 28 6
M  V30 31 1 29 6
M  V30 32 1 30 7
M  V30 33 1 31 10
M  V30 34 1 32 10
M  V30 35 1 33 11
M  V30 36 1 34 11
M  V30 37 1 35 11
M  V30 38 1 36 12
M  V30 39 1 13 37 CFG=3
M  V30 40 1 38 17
M  V30 41 1 39 17
M  V30 42 1 40 18
M  V30 43 1 19 41 CFG=1
M  V30 44 1 42 20
M  V30 45 1 43 20
M  V30 46 1 44 21
M  V30 47 1 45 21
M  V30 48 1 46 22
M  V30 49 1 47 22
M  V30 50 1 48 22
M  V30 END BOND
M  V30 END CTAB
M  END
>  <i_epik_Tot_Q>  (1) 
1

>  <i_epik_Tot_abs_Q>  (1) 
1

>  <i_i_glide_confnum>  (1) 
451

>  <i_i_glide_lignum>  (1) 
218

>  <i_i_glide_posenum>  (1) 
157

>  <i_i_glide_rotatable_bonds>  (1) 
6

>  <i_lp_mmshare_version>  (1) 
72125

>  <i_m_source_file_index>  (1) 
85

>  <i_f3d_flags>  (1) 
0

>  <num_sample>  (1) 
100

>  <b_lp_Chiralities_Consistent>  (1) 
1

>  <r_epik_Charging_Adjusted_Penalty>  (1) 
0.46451758934955678

>  <r_epik_Ionization_Penalty>  (1) 
0.053840736014893024

>  <r_epik_Ionization_Penalty_Charging>  (1) 
0.053837750396952835

>  <r_epik_Ionization_Penalty_Neutral>  (1) 
2.9856179401856363e-06

>  <r_epik_State_Penalty>  (1) 
0.41067983895260396

>  <r_glide_ring_energy>  (1) 
0

>  <r_i_docking_score>  (1) 
-6.560239454730068

>  <r_i_glide_ecoul>  (1) 
-5.3503232204672928

>  <r_i_glide_eff_state_penalty>  (1) 
0.41067983895260396

>  <r_i_glide_einternal>  (1) 
4.4124996526650637

>  <r_i_glide_emodel>  (1) 
-52.767719619589123

>  <r_i_glide_emodel_strain>  (1) 
0.807715453287841

>  <r_i_glide_energy>  (1) 
-38.366233536025767

>  <r_i_glide_erotb>  (1) 
0.90212786361762021

>  <r_i_glide_esite>  (1) 
-0.15093135073054553

>  <r_i_glide_evdw>  (1) 
-33.015910315558472

>  <r_i_glide_gscore>  (1) 
-6.9709192936826723

>  <r_i_glide_gscore_strain>  (1) 
0

>  <r_i_glide_hbond>  (1) 
-0.55738376670798317

>  <r_i_glide_ligand_efficiency>  (1) 
-0.29819270248773039

>  <r_i_glide_ligand_efficiency_ln>  (1) 
-1.6035618132842402

>  <r_i_glide_ligand_efficiency_sa>  (1) 
-0.83554768048504102

>  <r_i_glide_lipo>  (1) 
-2.8586670824477562

>  <r_i_glide_metal>  (1) 
-0

>  <r_i_glide_rewards>  (1) 
-1.8527209585659894

>  <r_lp_Energy>  (1) 
11.505056

>  <r_lp_tautomer_probability>  (1) 
0.49999300000000002

>  <s_epik_Chemistry_Notes>  (1) 
This compound has an imine and may undergo hydrolysis. This compound contains an acetal/aminal-like group ( X-CH(R)-Y where X, Y are N, S, or O) that may be acid/base labile, releasing an aldehyde.

>  <s_epik_cmdline>  (1) 
J2VwaWtfcHl0aG9uJywgJy1waHQnLCAnMS4wJywgJy1waCcsICc3LjQnLCAnLXRuJywgJzgnLCAnLW1hJywgJzUwMCcsICctaW1hZScsICc8aW5maWxlLm1hZT4nLCAnLW9tYWUnLCAnPG91dGZpbGUubWFlPic=

>  <s_epik_input>  (1) 
Q2xjMVtjSF1bY0hdYyhbQ0gzXSljKGMxMilbQ0BIXShbQ0gyXTIpL1tDSF09Ti9bQ0BIXShbTkgyXSlbQ0gyXVtDQEhdKFtDSDJdMylbQ0gyXVtDSDJdW0NAQEhdM1tDSDJdW09IXQ==

>  <s_glide_docking_method>  (1) 
confgen

>  <s_i_glide_gridfile>  (1) 
gpcr_5ht2c_6bqh_protein_autoprepared_prepared

>  <s_lp_Force_Field>  (1) 
S-OPLS

>  <s_lp_Variant>  (1) 
DiffSBDD_84_num_sample_100-1

>  <s_m_source_file>  (1) 
generated__ligand_DiffSBDD_2026-05-06_prepared.sdf

>  <GenAI_Model>  (1) 
DiffSBDD

>  <Protein>  (1) 
GPCR_5HT2C

$$$$
DiffSBDD_85_num_sample_100
     RDKit          3D

  0  0  0  0  0  0  0  0  0  0999 V3000
M  V30 BEGIN CTAB
M  V30 COUNTS 83 87 0 0 1
M  V30 BEGIN ATOM
M  V30 1 C 39.429468 37.093786 62.426127 0
M  V30 2 N 38.911987 28.399331 54.066830 0 CHG=1
M  V30 3 C 40.386829 29.479418 50.705148 0
M  V30 4 Cl 36.731666 34.203586 61.438700 0
M  V30 5 C 40.701465 34.912034 62.499509 0 CFG=1
M  V30 6 C 37.431149 26.026999 57.214300 0
M  V30 7 C 39.648542 29.265534 53.147528 0
M  V30 8 C 39.712027 30.844826 50.663897 0
M  V30 9 O 38.359641 31.210554 62.653113 0
M  V30 10 S 39.790481 29.621295 59.359566 0
M  V30 11 C 39.626607 31.464500 52.067309 0
M  V30 12 O 40.526259 31.170007 63.169653 0 CHG=-1
M  V30 13 C 39.711586 28.596000 51.753707 0
M  V30 14 C 38.633417 30.964706 59.748969 0 CFG=1
M  V30 15 C 37.369268 29.652099 58.080787 0 CFG=1
M  V30 16 C 39.167985 27.901527 57.255988 0 CFG=1
M  V30 17 C 40.363771 36.211092 63.247395 0
M  V30 18 N 39.486957 27.083283 54.373958 0
M  V30 19 C 39.447492 34.104674 62.108907 0 CFG=2
M  V30 20 C 38.583101 25.021408 57.199040 0 CFG=1
M  V30 21 C 38.978938 30.597056 53.149410 0
M  V30 22 C 41.579680 35.224414 61.300434 0
M  V30 23 C 38.539617 26.358136 55.180749 0 CFG=2
M  V30 24 C 40.276025 26.896552 57.654226 0
M  V30 25 C 38.087404 27.154032 56.414965 0 CFG=1
M  V30 26 C 38.125340 36.348254 62.152615 0
M  V30 27 C 39.541586 31.595219 62.526552 0
M  V30 28 C 39.810735 32.697435 61.493865 0 CFG=1
M  V30 29 C 39.013741 25.001372 55.718249 0
M  V30 30 O 36.164425 29.223316 58.652505 0
M  V30 31 C 39.208071 32.385124 60.093301 0
M  V30 32 C 37.646601 31.068772 58.598561 0 CFG=1
M  V30 33 C 38.344583 34.998331 61.435355 0 CFG=2
M  V30 34 C 39.704123 25.553966 58.115386 0
M  V30 35 C 38.541313 28.675057 58.450621 0 CFG=1
M  V30 36 O 36.471587 31.724972 59.053501 0
M  V30 37 H 39.231901 38.009782 62.979648 0
M  V30 38 H 39.903429 37.397332 61.493306 0
M  V30 39 H 37.983898 28.226634 53.711184 0
M  V30 40 H 41.444620 29.616615 50.927381 0
M  V30 41 H 40.325381 29.002355 49.729345 0
M  V30 42 H 41.296968 34.300372 63.182295 0
M  V30 43 H 36.556345 25.622072 56.695370 0
M  V30 44 H 37.108372 26.311556 58.216247 0
M  V30 45 H 40.602969 29.621999 53.536676 0
M  V30 46 H 40.254421 31.521339 49.995001 0
M  V30 47 H 38.714804 30.733789 50.251911 0
M  V30 48 H 40.653750 31.624435 52.380695 0
M  V30 49 H 39.067101 32.399101 52.026351 0
M  V30 50 H 40.241810 27.648808 51.820725 0
M  V30 51 H 38.700060 28.355083 51.420541 0
M  V30 52 H 38.030323 30.537272 60.539699 0
M  V30 53 H 37.181674 29.740974 57.015512 0
M  V30 54 H 39.642265 28.663737 56.634975 0
M  V30 55 H 39.910088 35.974688 64.211952 0
M  V30 56 H 41.285943 36.752683 63.460951 0
M  V30 57 H 39.544200 26.687746 53.449737 0
M  V30 58 H 39.027906 33.882341 63.071791 0
M  V30 59 H 38.260766 24.036892 57.536715 0
M  V30 60 H 37.913255 30.418557 53.054578 0
M  V30 61 H 39.096444 31.088828 54.116747 0
M  V30 62 H 41.011802 35.538022 60.430659 0
M  V30 63 H 42.262347 36.019813 61.559633 0
M  V30 64 H 42.186021 34.358975 61.056106 0
M  V30 65 H 37.660997 26.169043 54.561136 0
M  V30 66 H 40.922370 26.730389 56.789711 0
M  V30 67 H 40.944162 27.293170 58.416263 0
M  V30 68 H 37.444854 27.924071 56.066294 0
M  V30 69 H 37.622444 36.172974 63.104764 0
M  V30 70 H 37.452352 36.973717 61.563786 0
M  V30 71 H 40.889777 32.636204 61.356720 0
M  V30 72 H 40.082479 24.840023 55.609701 0
M  V30 73 H 38.509869 24.196657 55.182745 0
M  V30 74 H 35.804467 29.987678 59.085516 0
M  V30 75 H 39.866283 32.807035 59.333790 0
M  V30 76 H 38.360421 33.027868 59.946250 0
M  V30 77 H 38.067603 31.670225 57.795660 0
M  V30 78 H 38.615697 35.190608 60.394996 0
M  V30 79 H 40.514571 24.829299 58.156400 0
M  V30 80 H 39.300785 25.668441 59.112330 0
M  V30 81 H 38.201816 27.964440 59.199453 0
M  V30 82 H 35.914041 31.896922 58.281785 0
M  V30 83 H 38.831019 28.869360 54.961571 0
M  V30 END ATOM
M  V30 BEGIN BOND
M  V30 1 1 7 2
M  V30 2 1 8 3
M  V30 3 1 11 8
M  V30 4 1 13 3
M  V30 5 1 13 7
M  V30 6 1 14 10
M  V30 7 1 17 1
M  V30 8 1 17 5
M  V30 9 1 18 2
M  V30 10 1 19 5
M  V30 11 1 20 6
M  V30 12 1 21 7
M  V30 13 1 21 11
M  V30 14 1 22 5
M  V30 15 1 23 18
M  V30 16 1 24 16
M  V30 17 1 25 6
M  V30 18 1 25 16
M  V30 19 1 25 23
M  V30 20 1 26 1
M  V30 21 2 27 9
M  V30 22 1 27 12
M  V30 23 1 28 19
M  V30 24 1 28 27
M  V30 25 1 29 20
M  V30 26 1 29 23
M  V30 27 1 30 15
M  V30 28 1 31 14
M  V30 29 1 31 28
M  V30 30 1 32 14
M  V30 31 1 32 15
M  V30 32 1 33 4
M  V30 33 1 33 19
M  V30 34 1 33 26
M  V30 35 1 34 20
M  V30 36 1 34 24
M  V30 37 1 35 10
M  V30 38 1 35 15
M  V30 39 1 35 16
M  V30 40 1 36 32
M  V30 41 1 37 1
M  V30 42 1 38 1
M  V30 43 1 39 2
M  V30 44 1 40 3
M  V30 45 1 41 3
M  V30 46 1 5 42 CFG=1
M  V30 47 1 43 6
M  V30 48 1 44 6
M  V30 49 1 45 7
M  V30 50 1 46 8
M  V30 51 1 47 8
M  V30 52 1 48 11
M  V30 53 1 49 11
M  V30 54 1 50 13
M  V30 55 1 51 13
M  V30 56 1 14 52 CFG=1
M  V30 57 1 15 53 CFG=3
M  V30 58 1 16 54 CFG=3
M  V30 59 1 55 17
M  V30 60 1 56 17
M  V30 61 1 57 18
M  V30 62 1 19 58 CFG=1
M  V30 63 1 20 59 CFG=1
M  V30 64 1 60 21
M  V30 65 1 61 21
M  V30 66 1 62 22
M  V30 67 1 63 22
M  V30 68 1 64 22
M  V30 69 1 23 65 CFG=3
M  V30 70 1 66 24
M  V30 71 1 67 24
M  V30 72 1 25 68 CFG=3
M  V30 73 1 69 26
M  V30 74 1 70 26
M  V30 75 1 28 71 CFG=3
M  V30 76 1 72 29
M  V30 77 1 73 29
M  V30 78 1 74 30
M  V30 79 1 75 31
M  V30 80 1 76 31
M  V30 81 1 32 77 CFG=3
M  V30 82 1 33 78 CFG=3
M  V30 83 1 79 34
M  V30 84 1 80 34
M  V30 85 1 35 81 CFG=1
M  V30 86 1 82 36
M  V30 87 1 83 2
M  V30 END BOND
M  V30 END CTAB
M  END
>  <i_epik_Tot_Q>  (1) 
0

>  <i_epik_Tot_abs_Q>  (1) 
2

>  <i_i_glide_confnum>  (1) 
1593

>  <i_i_glide_lignum>  (1) 
222

>  <i_i_glide_posenum>  (1) 
40

>  <i_i_glide_rotatable_bonds>  (1) 
10

>  <i_lp_mmshare_version>  (1) 
72125

>  <i_m_source_file_index>  (1) 
86

>  <i_f3d_flags>  (1) 
0

>  <num_sample>  (1) 
100

>  <b_lp_Chiralities_Consistent>  (1) 
1

>  <r_epik_Charging_Adjusted_Penalty>  (1) 
0.73371446279801333

>  <r_epik_Ionization_Penalty>  (1) 
0.028997413797582132

>  <r_epik_Ionization_Penalty_Charging>  (1) 
0.028997299906531444

>  <r_epik_Ionization_Penalty_Neutral>  (1) 
1.138910506862436e-07

>  <r_epik_State_Penalty>  (1) 
0.7047171628914819

>  <r_glide_ring_energy>  (1) 
2.357972461747277

>  <r_i_docking_score>  (1) 
-6.5572795276299596

>  <r_i_glide_ecoul>  (1) 
-8.259356352852862

>  <r_i_glide_eff_state_penalty>  (1) 
0.7047171628914819

>  <r_i_glide_einternal>  (1) 
9.2625172973177889

>  <r_i_glide_emodel>  (1) 
-17.459984801742436

>  <r_i_glide_emodel_strain>  (1) 
4.9843574465243563

>  <r_i_glide_energy>  (1) 
-19.285855755857753

>  <r_i_glide_erotb>  (1) 
0.49083612240102314

>  <r_i_glide_esite>  (1) 
0

>  <r_i_glide_evdw>  (1) 
-11.026499403004891

>  <r_i_glide_gscore>  (1) 
-7.2619966905214417

>  <r_i_glide_gscore_strain>  (1) 
0.24608936163108908

>  <r_i_glide_hbond>  (1) 
-0.15733374640135844

>  <r_i_glide_ligand_efficiency>  (1) 
-0.18214665354527665

>  <r_i_glide_ligand_efficiency_ln>  (1) 
-1.4306212357090602

>  <r_i_glide_ligand_efficiency_sa>  (1) 
-0.60143499863611816

>  <r_i_glide_lipo>  (1) 
-5.1381862592430076

>  <r_i_glide_metal>  (1) 
-0

>  <r_i_glide_rewards>  (1) 
-0.91317374583101363

>  <r_lp_Energy>  (1) 
61.998908

>  <s_epik_cmdline>  (1) 
J2VwaWtfcHl0aG9uJywgJy1waHQnLCAnMS4wJywgJy1waCcsICc3LjQnLCAnLXRuJywgJzgnLCAnLW1hJywgJzUwMCcsICctaW1hZScsICc8aW5maWxlLm1hZT4nLCAnLW9tYWUnLCAnPG91dGZpbGUubWFlPic=

>  <s_epik_input>  (1) 
W0NIM11bQ0BIXTFbQ0gyXVtDSDJdW0NIMl1bQ0BIXShDbClbQ0BIXTFbQ0BASF0oQyg9TylbT0hdKVtDSDJdW0NAQEhdMlNbQ0BASF0oW0NAQEhdKFtPSF0pW0NASF0yW09IXSlbQ0BASF0oW0NIMl1bQ0gyXTMpW0NASF0oW0NIMl1bQ0BIXTM0KVtDQEhdKFtDSDJdNClbTkhdW05IXVtDSF01W0NIMl1bQ0gyXVtDSDJdW0NIMl1bQ0gyXTU=

>  <s_glide_docking_method>  (1) 
confgen

>  <s_i_glide_gridfile>  (1) 
gpcr_5ht2c_6bqh_protein_autoprepared_prepared

>  <s_lp_Force_Field>  (1) 
S-OPLS

>  <s_lp_Variant>  (1) 
DiffSBDD_85_num_sample_100-3

>  <s_m_source_file>  (1) 
generated__ligand_DiffSBDD_2026-05-06_prepared.sdf

>  <GenAI_Model>  (1) 
DiffSBDD

>  <Protein>  (1) 
GPCR_5HT2C

$$$$
DiffSBDD_5_num_sample_100
     RDKit          3D

  0  0  0  0  0  0  0  0  0  0999 V3000
M  V30 BEGIN CTAB
M  V30 COUNTS 50 52 0 0 1
M  V30 BEGIN ATOM
M  V30 1 C 37.067490 23.952212 56.887888 0
M  V30 2 O 38.731531 26.094456 55.426039 0
M  V30 3 C 38.634473 31.194988 56.582976 0
M  V30 4 C 38.653605 28.655708 52.339524 0
M  V30 5 C 38.725388 29.773356 56.001608 0 CFG=1
M  V30 6 C 39.873773 29.604078 50.326833 0
M  V30 7 C 39.841900 30.619645 53.859727 0
M  V30 8 C 36.731318 23.702178 55.412759 0
M  V30 9 C 37.867406 27.890423 58.087713 0
M  V30 10 C 40.858686 28.485333 56.428713 0
M  V30 11 N 40.113552 30.591285 52.533706 0
M  V30 12 N 37.697019 26.786201 57.455969 0
M  V30 13 S 37.913793 31.161071 58.253516 0
M  V30 14 C 38.469310 24.496114 57.180406 0
M  V30 15 C 38.982825 29.699741 54.494269 0
M  V30 16 C 38.369520 28.702492 53.713035 0
M  V30 17 C 39.191500 28.596571 58.287094 0 CFG=1
M  V30 18 C 41.498208 27.407539 58.485370 0
M  V30 19 C 38.709106 25.960091 56.825035 0 CFG=1
M  V30 20 C 41.777871 27.744437 57.239885 0
M  V30 21 C 39.675758 28.916149 56.875609 0
M  V30 22 C 38.937006 29.910080 59.082994 0
M  V30 23 C 39.532854 29.615181 51.799735 0
M  V30 24 C 40.184819 27.739633 59.164769 0
M  V30 25 H 36.977712 23.017783 57.442940 0
M  V30 26 H 36.324635 24.633695 57.299850 0
M  V30 27 H 38.378080 25.301051 55.054616 0
M  V30 28 H 39.613951 31.671605 56.621663 0
M  V30 29 H 37.990743 31.820885 55.961351 0
M  V30 30 H 38.206497 27.898353 51.710371 0
M  V30 31 H 37.710042 29.384917 56.060267 0
M  V30 32 H 39.468442 28.721328 49.833797 0
M  V30 33 H 40.955064 29.621517 50.190118 0
M  V30 34 H 39.467152 30.490028 49.842050 0
M  V30 35 H 40.331800 31.394250 54.429598 0
M  V30 36 H 35.761113 23.213217 55.340643 0
M  V30 37 H 37.467432 23.065794 54.923854 0
M  V30 38 H 36.657186 24.631775 54.849551 0
M  V30 39 H 37.016705 28.421386 58.527385 0
M  V30 40 H 41.147323 28.742940 55.453505 0
M  V30 41 H 38.609031 24.421440 58.253307 0
M  V30 42 H 39.236452 23.870866 56.730171 0
M  V30 43 H 37.699565 27.984376 54.160215 0
M  V30 44 H 42.227586 26.852748 59.053507 0
M  V30 45 H 39.705548 26.172765 57.171120 0
M  V30 46 H 42.732017 27.463228 56.828998 0
M  V30 47 H 38.465413 29.684549 60.040741 0
M  V30 48 H 39.867440 30.395257 59.341929 0
M  V30 49 H 40.425924 28.237242 60.105265 0
M  V30 50 H 39.731208 26.792518 59.453510 0
M  V30 END ATOM
M  V30 BEGIN BOND
M  V30 1 1 5 3
M  V30 2 1 8 1
M  V30 3 1 11 7
M  V30 4 2 12 9
M  V30 5 1 13 3
M  V30 6 1 14 1
M  V30 7 1 15 5
M  V30 8 2 15 7
M  V30 9 2 16 4
M  V30 10 1 16 15
M  V30 11 1 17 9 CFG=3
M  V30 12 1 19 2
M  V30 13 1 19 12
M  V30 14 1 19 14
M  V30 15 1 20 10
M  V30 16 2 20 18
M  V30 17 1 21 5
M  V30 18 2 21 10
M  V30 19 1 21 17
M  V30 20 1 22 13
M  V30 21 1 22 17
M  V30 22 1 23 4
M  V30 23 1 23 6
M  V30 24 2 23 11
M  V30 25 1 24 17
M  V30 26 1 24 18
M  V30 27 1 25 1
M  V30 28 1 26 1
M  V30 29 1 27 2
M  V30 30 1 28 3
M  V30 31 1 29 3
M  V30 32 1 30 4
M  V30 33 1 5 31 CFG=3
M  V30 34 1 32 6
M  V30 35 1 33 6
M  V30 36 1 34 6
M  V30 37 1 35 7
M  V30 38 1 36 8
M  V30 39 1 37 8
M  V30 40 1 38 8
M  V30 41 1 39 9
M  V30 42 1 40 10
M  V30 43 1 41 14
M  V30 44 1 42 14
M  V30 45 1 43 16
M  V30 46 1 44 18
M  V30 47 1 19 45 CFG=1
M  V30 48 1 46 20
M  V30 49 1 47 22
M  V30 50 1 48 22
M  V30 51 1 49 24
M  V30 52 1 50 24
M  V30 END BOND
M  V30 END CTAB
M  END
>  <i_epik_Tot_Q>  (1) 
0

>  <i_epik_Tot_abs_Q>  (1) 
0

>  <i_i_glide_confnum>  (1) 
26

>  <i_i_glide_lignum>  (1) 
24

>  <i_i_glide_posenum>  (1) 
16

>  <i_i_glide_rotatable_bonds>  (1) 
6

>  <i_lp_mmshare_version>  (1) 
72125

>  <i_m_source_file_index>  (1) 
6

>  <i_f3d_flags>  (1) 
0

>  <num_sample>  (1) 
100

>  <b_lp_Chiralities_Consistent>  (1) 
1

>  <r_epik_Charging_Adjusted_Penalty>  (1) 
0.0081103479682914613

>  <r_epik_Ionization_Penalty>  (1) 
0.0085425111303935736

>  <r_epik_Ionization_Penalty_Charging>  (1) 
0

>  <r_epik_Ionization_Penalty_Neutral>  (1) 
0.0085425111303935736

>  <r_epik_State_Penalty>  (1) 
0.0081103479682914613

>  <r_glide_ring_energy>  (1) 
0

>  <r_i_docking_score>  (1) 
-6.5559647883299776

>  <r_i_glide_ecoul>  (1) 
-0.19526650640420773

>  <r_i_glide_eff_state_penalty>  (1) 
0.0081103479682914613

>  <r_i_glide_einternal>  (1) 
3.6039426351183348

>  <r_i_glide_emodel>  (1) 
-27.670741283419247

>  <r_i_glide_emodel_strain>  (1) 
0.0098801442299176756

>  <r_i_glide_energy>  (1) 
-22.409868407593208

>  <r_i_glide_erotb>  (1) 
0.64660109196089122

>  <r_i_glide_esite>  (1) 
0

>  <r_i_glide_evdw>  (1) 
-22.214601901188999

>  <r_i_glide_gscore>  (1) 
-6.5640751362982694

>  <r_i_glide_gscore_strain>  (1) 
0

>  <r_i_glide_hbond>  (1) 
0

>  <r_i_glide_ligand_efficiency>  (1) 
-0.27316519951374907

>  <r_i_glide_ligand_efficiency_ln>  (1) 
-1.5691432074689189

>  <r_i_glide_ligand_efficiency_sa>  (1) 
-0.78794478324328421

>  <r_i_glide_lipo>  (1) 
-3.6634794378420734

>  <r_i_glide_metal>  (1) 
-0

>  <r_i_glide_rewards>  (1) 
-2.4071767193970053

>  <r_lp_Energy>  (1) 
34.052436999999998

>  <s_epik_Chemistry_Notes>  (1) 
This compound has an imine and may undergo hydrolysis. This compound contains an acetal/aminal-like group ( X-CH(R)-Y where X, Y are N, S, or O) that may be acid/base labile, releasing an aldehyde.

>  <s_epik_cmdline>  (1) 
J2VwaWtfcHl0aG9uJywgJy1waHQnLCAnMS4wJywgJy1waCcsICc3LjQnLCAnLXRuJywgJzgnLCAnLW1hJywgJzUwMCcsICctaW1hZScsICc8aW5maWxlLm1hZT4nLCAnLW9tYWUnLCAnPG91dGZpbGUubWFlPic=

>  <s_epik_input>  (1) 
W0NIM11bQ0gyXVtDSDJdW0NAQEhdKFtPSF0pL049W0NIXVxbQ0BAXTEyQyg9W0NIXVtDSF09W0NIXVtDSDJdMilbQ0BASF0oW0NIMl1TW0NIMl0xKWMzW2NIXW5jKFtDSDNdKVtjSF1bY0hdMw==

>  <s_glide_docking_method>  (1) 
confgen

>  <s_i_glide_gridfile>  (1) 
gpcr_5ht2c_6bqh_protein_autoprepared_prepared

>  <s_lp_Force_Field>  (1) 
S-OPLS

>  <s_lp_Variant>  (1) 
DiffSBDD_5_num_sample_100-2

>  <s_m_source_file>  (1) 
generated__ligand_DiffSBDD_2026-05-06_prepared.sdf

>  <GenAI_Model>  (1) 
DiffSBDD

>  <Protein>  (1) 
GPCR_5HT2C

$$$$
DiffSBDD_93_num_sample_100
     RDKit          3D

  0  0  0  0  0  0  0  0  0  0999 V3000
M  V30 BEGIN CTAB
M  V30 COUNTS 74 77 0 0 1
M  V30 BEGIN ATOM
M  V30 1 C 41.900147 29.633316 63.166586 0
M  V30 2 S 38.311571 33.093190 58.311738 0
M  V30 3 C 43.214263 27.716710 64.220833 0 CFG=2
M  V30 4 O 39.102332 36.985644 61.460500 0
M  V30 5 C 37.357550 26.876277 57.832282 0
M  V30 6 C 38.538383 34.206544 61.771699 0 CFG=1
M  V30 7 C 39.875700 28.495246 58.073171 0
M  V30 8 C 38.437481 30.492160 57.693277 0
M  V30 9 C 44.412789 28.671106 64.284327 0
M  V30 10 N 39.074216 31.035575 59.973978 0
M  V30 11 C 38.571879 25.978321 57.768456 0
M  V30 12 C 42.064304 28.308673 63.418150 0
M  V30 13 C 40.759952 30.078355 62.315734 0
M  V30 14 C 39.617554 31.974258 60.965258 0 CFG=2
M  V30 15 C 43.954769 30.061164 64.711591 0
M  V30 16 Cl 42.082423 31.967389 64.676748 0
M  V30 17 O 40.259855 25.335623 56.172436 0
M  V30 18 C 42.893025 30.656969 63.759413 0 CFG=2
M  V30 19 C 39.643628 29.093223 61.954658 0
M  V30 20 C 37.439573 34.207830 59.452795 0
M  V30 21 C 39.687629 34.876617 62.533648 0
M  V30 22 C 40.718328 31.369128 61.861023 0
M  V30 23 C 40.387417 27.617144 56.921043 0
M  V30 24 C 38.428712 34.895597 60.404424 0 CFG=1
M  V30 25 C 38.108050 31.386660 58.931268 0 CFG=1
M  V30 26 C 39.475402 26.418745 56.601121 0 CFG=2
M  V30 27 C 38.073136 36.377221 60.676530 0
M  V30 28 C 39.355067 36.365321 62.720615 0
M  V30 29 C 37.388818 28.227134 57.853585 0
M  V30 30 S 36.449281 30.936352 59.509030 0
M  V30 31 N 38.527421 29.033639 57.870231 0
M  V30 32 C 42.760477 27.198023 65.594954 0
M  V30 33 C 38.553959 32.664233 61.836073 0
M  V30 34 H 43.549123 26.846650 63.653779 0
M  V30 35 H 36.399819 26.376808 57.833342 0
M  V30 36 H 37.609894 34.482712 62.253473 0
M  V30 37 H 40.585563 29.306285 58.242971 0
M  V30 38 H 39.884584 27.915576 58.994064 0
M  V30 39 H 39.383014 30.830518 57.267012 0
M  V30 40 H 37.699541 30.694768 56.915469 0
M  V30 41 H 45.174227 28.289448 64.965357 0
M  V30 42 H 44.887914 28.734093 63.303772 0
M  V30 43 H 38.763631 30.185645 60.423772 0
M  V30 44 H 38.189002 24.976561 57.567610 0
M  V30 45 H 39.080553 25.903204 58.729082 0
M  V30 46 H 41.375069 27.599551 63.007506 0
M  V30 47 H 40.144162 32.732024 60.382294 0
M  V30 48 H 43.552463 29.989738 65.722911 0
M  V30 49 H 44.813683 30.730226 64.782563 0
M  V30 50 H 41.097074 25.330297 56.626943 0
M  V30 51 H 43.417409 31.119778 62.930913 0
M  V30 52 H 39.527381 28.275520 62.651593 0
M  V30 53 H 38.669442 29.577068 61.979178 0
M  V30 54 H 39.813159 28.654111 60.976788 0
M  V30 55 H 36.965738 34.958313 58.819830 0
M  V30 56 H 36.627948 33.714232 59.984922 0
M  V30 57 H 40.623352 34.775069 61.983258 0
M  V30 58 H 39.862938 34.402394 63.497206 0
M  V30 59 H 41.511628 32.048592 62.128272 0
M  V30 60 H 41.368911 27.242969 57.218465 0
M  V30 61 H 40.542698 28.215460 56.020851 0
M  V30 62 H 39.408563 34.893701 59.923983 0
M  V30 63 H 38.839106 26.668668 55.749680 0
M  V30 64 H 37.990482 36.925650 59.737492 0
M  V30 65 H 37.108476 36.472307 61.182348 0
M  V30 66 H 40.192697 36.871774 63.203667 0
M  V30 67 H 38.487913 36.481776 63.373972 0
M  V30 68 H 36.471388 28.793605 57.860082 0
M  V30 69 H 35.867397 31.251286 58.332737 0
M  V30 70 H 41.937060 26.490928 65.489505 0
M  V30 71 H 43.574876 26.681417 66.106314 0
M  V30 72 H 42.417427 28.004438 66.242904 0
M  V30 73 H 38.698145 32.376085 62.878895 0
M  V30 74 H 37.561577 32.288131 61.610515 0
M  V30 END ATOM
M  V30 BEGIN BOND
M  V30 1 1 9 3
M  V30 2 1 11 5
M  V30 3 2 12 1
M  V30 4 1 12 3
M  V30 5 1 13 1
M  V30 6 1 14 10
M  V30 7 1 15 9
M  V30 8 1 18 1
M  V30 9 1 18 15
M  V30 10 1 18 16
M  V30 11 1 19 13
M  V30 12 1 20 2
M  V30 13 1 21 6
M  V30 14 2 22 13
M  V30 15 1 22 14
M  V30 16 1 23 7
M  V30 17 1 24 6
M  V30 18 1 24 20
M  V30 19 1 25 2
M  V30 20 1 25 8
M  V30 21 1 25 10
M  V30 22 1 26 11
M  V30 23 1 26 17
M  V30 24 1 26 23
M  V30 25 1 27 4
M  V30 26 1 27 24
M  V30 27 1 28 4
M  V30 28 1 28 21
M  V30 29 2 29 5
M  V30 30 1 25 30 CFG=1
M  V30 31 1 31 7
M  V30 32 1 31 8
M  V30 33 1 31 29
M  V30 34 1 32 3
M  V30 35 1 33 6
M  V30 36 1 33 14
M  V30 37 1 3 34 CFG=3
M  V30 38 1 35 5
M  V30 39 1 6 36 CFG=1
M  V30 40 1 37 7
M  V30 41 1 38 7
M  V30 42 1 39 8
M  V30 43 1 40 8
M  V30 44 1 41 9
M  V30 45 1 42 9
M  V30 46 1 43 10
M  V30 47 1 44 11
M  V30 48 1 45 11
M  V30 49 1 46 12
M  V30 50 1 14 47 CFG=3
M  V30 51 1 48 15
M  V30 52 1 49 15
M  V30 53 1 50 17
M  V30 54 1 18 51 CFG=3
M  V30 55 1 52 19
M  V30 56 1 53 19
M  V30 57 1 54 19
M  V30 58 1 55 20
M  V30 59 1 56 20
M  V30 60 1 57 21
M  V30 61 1 58 21
M  V30 62 1 59 22
M  V30 63 1 60 23
M  V30 64 1 61 23
M  V30 65 1 24 62 CFG=3
M  V30 66 1 26 63 CFG=3
M  V30 67 1 64 27
M  V30 68 1 65 27
M  V30 69 1 66 28
M  V30 70 1 67 28
M  V30 71 1 68 29
M  V30 72 1 69 30
M  V30 73 1 70 32
M  V30 74 1 71 32
M  V30 75 1 72 32
M  V30 76 1 73 33
M  V30 77 1 74 33
M  V30 END BOND
M  V30 END CTAB
M  END
>  <i_epik_Tot_Q>  (1) 
0

>  <i_epik_Tot_abs_Q>  (1) 
0

>  <i_i_glide_confnum>  (1) 
26

>  <i_i_glide_lignum>  (1) 
251

>  <i_i_glide_posenum>  (1) 
264

>  <i_i_glide_rotatable_bonds>  (1) 
6

>  <i_lp_mmshare_version>  (1) 
72125

>  <i_m_source_file_index>  (1) 
94

>  <i_f3d_flags>  (1) 
0

>  <num_sample>  (1) 
100

>  <b_lp_Chiralities_Consistent>  (1) 
1

>  <r_epik_Charging_Adjusted_Penalty>  (1) 
0.20325292957253988

>  <r_epik_Ionization_Penalty>  (1) 
0.031936562948065232

>  <r_epik_Ionization_Penalty_Charging>  (1) 
3.6030848355623751e-07

>  <r_epik_Ionization_Penalty_Neutral>  (1) 
0.031936202639581676

>  <r_epik_State_Penalty>  (1) 
0.20325256926405633

>  <r_glide_ring_energy>  (1) 
1.2305908303780131

>  <r_i_docking_score>  (1) 
-6.5555208936050597

>  <r_i_glide_ecoul>  (1) 
-7.0010205073600158

>  <r_i_glide_eff_state_penalty>  (1) 
0.20325256926405633

>  <r_i_glide_einternal>  (1) 
17.697122597336207

>  <r_i_glide_emodel>  (1) 
-39.278836436531442

>  <r_i_glide_emodel_strain>  (1) 
1.9679476909570184

>  <r_i_glide_energy>  (1) 
-40.355554008030353

>  <r_i_glide_erotb>  (1) 
0.31140238833871409

>  <r_i_glide_esite>  (1) 
-0.099823760075995083

>  <r_i_glide_evdw>  (1) 
-33.354533500670335

>  <r_i_glide_gscore>  (1) 
-6.7587734628691161

>  <r_i_glide_gscore_strain>  (1) 
0

>  <r_i_glide_hbond>  (1) 
-0.45599999999999996

>  <r_i_glide_ligand_efficiency>  (1) 
-0.19865214829106242

>  <r_i_glide_ligand_efficiency_ln>  (1) 
-1.4579139040671509

>  <r_i_glide_ligand_efficiency_sa>  (1) 
-0.6371835853710045

>  <r_i_glide_lipo>  (1) 
-3.4196639334077226

>  <r_i_glide_metal>  (1) 
-0

>  <r_i_glide_rewards>  (1) 
-0.37680840658659187

>  <r_lp_Energy>  (1) 
26.376678999999999

>  <s_epik_Chemistry_Notes>  (1) 
This compound has an imine and may undergo hydrolysis.

>  <s_epik_cmdline>  (1) 
J2VwaWtfcHl0aG9uJywgJy1waHQnLCAnMS4wJywgJy1waCcsICc3LjQnLCAnLXRuJywgJzgnLCAnLW1hJywgJzUwMCcsICctaW1hZScsICc8aW5maWxlLm1hZT4nLCAnLW9tYWUnLCAnPG91dGZpbGUubWFlPic=

>  <s_epik_input>  (1) 
Q2xbQ0BIXTFbQ0gyXVtDSDJdW0NAQEhdKFtDSDNdKVtDSF09QzEvQyhbQ0gzXSk9W0NIXS9bQ0BASF0oW0NIMl0yKVtOSF1bQ0BAXShbU0hdKShTW0NIMl1bQ0BIXShbQ0BASF0yMylbQ0gyXU9bQ0gyXVtDSDJdMylbQ0gyXU4oW0NIMl1bQ0gyXTQpW0NIXT1bQ0hdW0NIMl1bQ0BASF00W09IXQ==

>  <s_glide_docking_method>  (1) 
confgen

>  <s_i_glide_gridfile>  (1) 
gpcr_5ht2c_6bqh_protein_autoprepared_prepared

>  <s_lp_Force_Field>  (1) 
S-OPLS

>  <s_lp_Variant>  (1) 
DiffSBDD_93_num_sample_100-3

>  <s_m_source_file>  (1) 
generated__ligand_DiffSBDD_2026-05-06_prepared.sdf

>  <GenAI_Model>  (1) 
DiffSBDD

>  <Protein>  (1) 
GPCR_5HT2C

$$$$
DiffSBDD_2_num_sample_100
     RDKit          3D

  0  0  0  0  0  0  0  0  0  0999 V3000
M  V30 BEGIN CTAB
M  V30 COUNTS 52 52 0 0 1
M  V30 BEGIN ATOM
M  V30 1 C 38.047308 31.240739 55.726828 0
M  V30 2 C 38.850961 30.320709 59.776453 0
M  V30 3 O 36.892567 33.289857 61.006289 0
M  V30 4 O 35.867411 30.421430 59.053501 0
M  V30 5 C 38.240516 31.352548 60.739290 0
M  V30 6 F 39.067448 27.584043 50.664892 0
M  V30 7 C 38.991009 28.362746 51.768633 0
M  V30 8 C 39.160208 26.034973 57.197478 0
M  V30 9 O 38.147465 25.800498 57.853512 0
M  V30 10 C 39.739505 28.363094 56.372098 0
M  V30 11 C 38.474107 29.418469 53.938788 0
M  V30 12 S 37.889106 28.021562 53.043477 0
M  V30 13 C 40.693656 28.637983 59.313062 0
M  V30 14 O 34.820349 32.451054 59.453535 0
M  V30 15 O 39.383773 31.597992 56.008633 0
M  V30 16 N 38.322541 28.821306 56.368885 0 CHG=1
M  V30 17 C 37.125088 32.222054 60.111538 0 CFG=1
M  V30 18 C 39.612899 25.101554 56.085132 0
M  V30 19 C 40.010515 27.288028 57.453509 0 CFG=1
M  V30 20 O 39.693020 27.807856 58.737842 0
M  V30 21 C 35.762263 31.515104 59.930962 0
M  V30 22 C 39.759488 29.463836 51.970941 0
M  V30 23 C 40.033653 29.538843 60.365184 0
M  V30 24 C 39.467404 30.082912 53.230116 0
M  V30 25 C 37.910760 29.764102 55.294138 0 CFG=1
M  V30 26 H 37.643568 31.904663 54.960610 0
M  V30 27 H 37.467403 31.419657 56.631300 0
M  V30 28 H 38.098589 29.588902 59.494583 0
M  V30 29 H 39.150954 30.821531 58.856683 0
M  V30 30 H 36.082586 33.700621 60.732464 0
M  V30 31 H 35.766799 30.764716 58.163742 0
M  V30 32 H 39.044417 32.009575 61.075382 0
M  V30 33 H 37.867530 30.852721 61.634128 0
M  V30 34 H 40.394288 29.221388 56.501475 0
M  V30 35 H 39.999952 27.935757 55.404298 0
M  V30 36 H 41.183001 29.260787 58.566022 0
M  V30 37 H 41.470173 28.021501 59.766208 0
M  V30 38 H 34.957353 32.526437 58.509901 0
M  V30 39 H 39.407301 32.520978 56.217762 0
M  V30 40 H 37.739966 28.000253 56.286821 0
M  V30 41 H 37.463701 32.640871 59.162273 0
M  V30 42 H 40.667386 25.250246 55.853714 0
M  V30 43 H 39.467374 24.067513 56.396263 0
M  V30 44 H 39.030637 25.277675 55.180558 0
M  V30 45 H 41.059217 26.987308 57.434679 0
M  V30 46 H 35.415531 31.142198 60.895733 0
M  V30 47 H 40.505648 29.842078 51.287540 0
M  V30 48 H 40.774117 30.230699 60.766073 0
M  V30 49 H 39.687763 28.932692 61.203649 0
M  V30 50 H 39.982020 30.970429 53.568582 0
M  V30 51 H 36.832166 29.621386 55.215679 0
M  V30 52 H 38.121985 29.251603 57.261780 0
M  V30 END ATOM
M  V30 BEGIN BOND
M  V30 1 1 5 2
M  V30 2 1 7 6
M  V30 3 2 9 8
M  V30 4 1 12 7
M  V30 5 1 12 11
M  V30 6 1 15 1
M  V30 7 1 16 10
M  V30 8 1 17 3
M  V30 9 1 17 5
M  V30 10 1 18 8
M  V30 11 1 19 8
M  V30 12 1 19 10
M  V30 13 1 20 13
M  V30 14 1 20 19
M  V30 15 1 21 4
M  V30 16 1 21 14
M  V30 17 1 21 17
M  V30 18 2 22 7
M  V30 19 1 23 2
M  V30 20 1 23 13
M  V30 21 2 24 11
M  V30 22 1 24 22
M  V30 23 1 25 1
M  V30 24 1 25 11
M  V30 25 1 25 16
M  V30 26 1 26 1
M  V30 27 1 27 1
M  V30 28 1 28 2
M  V30 29 1 29 2
M  V30 30 1 30 3
M  V30 31 1 31 4
M  V30 32 1 32 5
M  V30 33 1 33 5
M  V30 34 1 34 10
M  V30 35 1 35 10
M  V30 36 1 36 13
M  V30 37 1 37 13
M  V30 38 1 38 14
M  V30 39 1 39 15
M  V30 40 1 40 16
M  V30 41 1 17 41 CFG=3
M  V30 42 1 42 18
M  V30 43 1 43 18
M  V30 44 1 44 18
M  V30 45 1 19 45 CFG=1
M  V30 46 1 46 21
M  V30 47 1 47 22
M  V30 48 1 48 23
M  V30 49 1 49 23
M  V30 50 1 50 24
M  V30 51 1 25 51 CFG=3
M  V30 52 1 52 16
M  V30 END BOND
M  V30 END CTAB
M  END
>  <i_epik_Tot_Q>  (1) 
1

>  <i_epik_Tot_abs_Q>  (1) 
1

>  <i_i_glide_confnum>  (1) 
1110

>  <i_i_glide_lignum>  (1) 
20

>  <i_i_glide_posenum>  (1) 
232

>  <i_i_glide_rotatable_bonds>  (1) 
17

>  <i_lp_mmshare_version>  (1) 
72125

>  <i_m_source_file_index>  (1) 
3

>  <i_f3d_flags>  (1) 
0

>  <num_sample>  (1) 
100

>  <b_lp_Chiralities_Consistent>  (1) 
1

>  <r_epik_Charging_Adjusted_Penalty>  (1) 
1.2755826654989224

>  <r_epik_Ionization_Penalty>  (1) 
0.63780895661999681

>  <r_epik_Ionization_Penalty_Charging>  (1) 
0.6377913327494612

>  <r_epik_Ionization_Penalty_Neutral>  (1) 
1.7623870535632096e-05

>  <r_epik_State_Penalty>  (1) 
0.6377913327494612

>  <r_glide_ring_energy>  (1) 
0

>  <r_i_docking_score>  (1) 
-6.5547005486235239

>  <r_i_glide_ecoul>  (1) 
-10.162507357738303

>  <r_i_glide_eff_state_penalty>  (1) 
0.6377913327494612

>  <r_i_glide_einternal>  (1) 
9.8209129937669601

>  <r_i_glide_emodel>  (1) 
-70.534464056967508

>  <r_i_glide_emodel_strain>  (1) 
1.706616508908855

>  <r_i_glide_energy>  (1) 
-50.326647010632669

>  <r_i_glide_erotb>  (1) 
1.4743289393995902

>  <r_i_glide_esite>  (1) 
-0.088412405434579719

>  <r_i_glide_evdw>  (1) 
-40.164139652894363

>  <r_i_glide_gscore>  (1) 
-7.1924918813729848

>  <r_i_glide_gscore_strain>  (1) 
0

>  <r_i_glide_hbond>  (1) 
-0.30399999999999999

>  <r_i_glide_ligand_efficiency>  (1) 
-0.26218802194494095

>  <r_i_glide_ligand_efficiency_ln>  (1) 
-1.5536604585484084

>  <r_i_glide_ligand_efficiency_sa>  (1) 
-0.76664242691395157

>  <r_i_glide_lipo>  (1) 
-2.8069652512830521

>  <r_i_glide_metal>  (1) 
-0

>  <r_i_glide_rewards>  (1) 
-1.9348600777494784

>  <r_lp_Energy>  (1) 
15.151610999999999

>  <r_lp_tautomer_probability>  (1) 
0.9999999700000004

>  <s_epik_Chemistry_Notes>  (1) 
This compound contains an acetal/aminal-like group ( X-CH(R)-Y where X, Y are N, S, or O) that may be acid/base labile, releasing an aldehyde.

>  <s_epik_cmdline>  (1) 
J2VwaWtfcHl0aG9uJywgJy1waHQnLCAnMS4wJywgJy1waCcsICc3LjQnLCAnLXRuJywgJzgnLCAnLW1hJywgJzUwMCcsICctaW1hZScsICc8aW5maWxlLm1hZT4nLCAnLW9tYWUnLCAnPG91dGZpbGUubWFlPic=

>  <s_epik_input>  (1) 
RmMxc2MoW2NIXVtjSF0xKVtDQEhdKFtDSDJdW09IXSlbTkhdW0NIMl1bQ0BIXShDKD1PKVtDSDNdKU9bQ0gyXVtDSDJdW0NIMl1bQ0gyXVtDQEhdKFtPSF0pW0NIXShbT0hdKVtPSF0=

>  <s_glide_docking_method>  (1) 
confgen

>  <s_i_glide_gridfile>  (1) 
gpcr_5ht2c_6bqh_protein_autoprepared_prepared

>  <s_lp_Force_Field>  (1) 
S-OPLS

>  <s_lp_Variant>  (1) 
DiffSBDD_2_num_sample_100-2

>  <s_m_source_file>  (1) 
generated__ligand_DiffSBDD_2026-05-06_prepared.sdf

>  <GenAI_Model>  (1) 
DiffSBDD

>  <Protein>  (1) 
GPCR_5HT2C

$$$$
DiffSBDD_59_num_sample_100
     RDKit          3D

  0  0  0  0  0  0  0  0  0  0999 V3000
M  V30 BEGIN CTAB
M  V30 COUNTS 54 55 0 0 1
M  V30 BEGIN ATOM
M  V30 1 O 36.667428 37.676893 61.316345 0
M  V30 2 N 38.559465 29.661181 55.779891 0 CFG=1 CHG=1
M  V30 3 C 39.867406 30.281097 52.507588 0
M  V30 4 C 37.989886 30.335833 56.976400 0
M  V30 5 C 37.443580 35.373520 61.158488 0
M  V30 6 C 38.854961 27.778654 51.703823 0
M  V30 7 C 38.338112 28.401341 52.854661 0
M  V30 8 C 38.837264 29.662313 53.262017 0
M  V30 9 C 37.528087 32.435465 59.709213 0
M  V30 10 C 36.717253 30.028849 59.181712 0
M  V30 11 Cl 37.096775 27.621499 53.761973 0
M  V30 12 C 37.623941 29.372901 58.119563 0
M  V30 13 O 37.067422 33.156938 58.650086 0
M  V30 14 N 38.242232 33.040809 60.706833 0
M  V30 15 N 38.593641 32.151072 61.663211 0
M  V30 16 C 37.753987 36.864612 60.929282 0
M  V30 17 C 37.406415 31.109215 59.978753 0
M  V30 18 C 38.247248 30.366839 54.499816 0 CFG=2
M  V30 19 C 39.983688 29.278794 55.923447 0
M  V30 20 C 38.641147 34.449552 60.832525 0 CFG=2
M  V30 21 C 40.372367 29.651550 51.356193 0
M  V30 22 C 38.105038 30.981443 61.225644 0
M  V30 23 C 39.821923 34.647704 61.811351 0
M  V30 24 C 38.547142 31.886240 54.561930 0
M  V30 25 C 39.867383 28.403856 50.955570 0
M  V30 26 H 36.016601 37.671454 60.630578 0
M  V30 27 H 40.260652 31.240760 52.803438 0
M  V30 28 H 37.067414 30.820030 56.671950 0
M  V30 29 H 38.659510 31.124328 57.323213 0
M  V30 30 H 36.589786 35.101270 60.537279 0
M  V30 31 H 37.128110 35.221480 62.189657 0
M  V30 32 H 38.469514 26.821441 51.391211 0
M  V30 33 H 36.357666 29.250528 59.852774 0
M  V30 34 H 35.818751 30.416509 58.699778 0
M  V30 35 H 38.521119 28.968826 58.590090 0
M  V30 36 H 37.085946 28.520667 57.702963 0
M  V30 37 H 38.618059 37.179874 61.512457 0
M  V30 38 H 37.980071 37.052165 59.879385 0
M  V30 39 H 36.472276 32.613767 58.132880 0
M  V30 40 H 37.164295 30.303816 54.380364 0
M  V30 41 H 40.640757 30.021078 55.466339 0
M  V30 42 H 40.267550 29.148471 56.967697 0
M  V30 43 H 40.164548 28.328887 55.420696 0
M  V30 44 H 39.014379 34.734351 59.853524 0
M  V30 45 H 41.151537 30.128732 50.778688 0
M  V30 46 H 38.267209 30.094000 61.819960 0
M  V30 47 H 40.231203 35.655222 61.758675 0
M  V30 48 H 39.519395 34.467973 62.843653 0
M  V30 49 H 40.643158 33.967781 61.581103 0
M  V30 50 H 38.284378 32.373018 53.621952 0
M  V30 51 H 37.965917 32.400081 55.327644 0
M  V30 52 H 39.597957 32.083177 54.768812 0
M  V30 53 H 40.258378 27.923388 50.072505 0
M  V30 54 H 38.055012 28.788131 55.711421 0
M  V30 END ATOM
M  V30 BEGIN BOND
M  V30 1 1 4 2
M  V30 2 2 7 6
M  V30 3 2 8 3
M  V30 4 1 8 7
M  V30 5 1 11 7
M  V30 6 1 12 4
M  V30 7 1 12 10
M  V30 8 1 13 9
M  V30 9 1 14 9
M  V30 10 1 15 14
M  V30 11 1 16 1
M  V30 12 1 16 5
M  V30 13 2 17 9
M  V30 14 1 17 10
M  V30 15 1 18 2
M  V30 16 1 18 8
M  V30 17 1 19 2
M  V30 18 1 20 5
M  V30 19 1 20 14
M  V30 20 1 21 3
M  V30 21 2 22 15
M  V30 22 1 22 17
M  V30 23 1 23 20
M  V30 24 1 24 18
M  V30 25 1 25 6
M  V30 26 2 25 21
M  V30 27 1 26 1
M  V30 28 1 27 3
M  V30 29 1 28 4
M  V30 30 1 29 4
M  V30 31 1 30 5
M  V30 32 1 31 5
M  V30 33 1 32 6
M  V30 34 1 33 10
M  V30 35 1 34 10
M  V30 36 1 35 12
M  V30 37 1 36 12
M  V30 38 1 37 16
M  V30 39 1 38 16
M  V30 40 1 39 13
M  V30 41 1 18 40 CFG=3
M  V30 42 1 41 19
M  V30 43 1 42 19
M  V30 44 1 43 19
M  V30 45 1 20 44 CFG=3
M  V30 46 1 45 21
M  V30 47 1 46 22
M  V30 48 1 47 23
M  V30 49 1 48 23
M  V30 50 1 49 23
M  V30 51 1 50 24
M  V30 52 1 51 24
M  V30 53 1 52 24
M  V30 54 1 53 25
M  V30 55 1 2 54 CFG=3
M  V30 END BOND
M  V30 END CTAB
M  END
>  <i_epik_Tot_Q>  (1) 
1

>  <i_epik_Tot_abs_Q>  (1) 
1

>  <i_i_glide_confnum>  (1) 
295

>  <i_i_glide_lignum>  (1) 
148

>  <i_i_glide_posenum>  (1) 
15

>  <i_i_glide_rotatable_bonds>  (1) 
11

>  <i_lp_mmshare_version>  (1) 
72125

>  <i_m_source_file_index>  (1) 
60

>  <i_f3d_flags>  (1) 
0

>  <num_sample>  (1) 
100

>  <b_lp_Chiralities_Consistent>  (1) 
1

>  <r_epik_Charging_Adjusted_Penalty>  (1) 
0.34288875783321848

>  <r_epik_Ionization_Penalty>  (1) 
0.16299728195075516

>  <r_epik_Ionization_Penalty_Charging>  (1) 
0.10603582337888565

>  <r_epik_Ionization_Penalty_Neutral>  (1) 
0.05696145857186951

>  <r_epik_State_Penalty>  (1) 
0.23685293445433284

>  <r_glide_ring_energy>  (1) 
0

>  <r_i_docking_score>  (1) 
-6.5543458222719071

>  <r_i_glide_ecoul>  (1) 
-5.5132440354123142

>  <r_i_glide_eff_state_penalty>  (1) 
0.23685293445433284

>  <r_i_glide_einternal>  (1) 
6.8718667806070464

>  <r_i_glide_emodel>  (1) 
-61.908188070851651

>  <r_i_glide_emodel_strain>  (1) 
1.6289944759255413

>  <r_i_glide_energy>  (1) 
-44.106797174829147

>  <r_i_glide_erotb>  (1) 
1.1440711446639862

>  <r_i_glide_esite>  (1) 
0

>  <r_i_glide_evdw>  (1) 
-38.593553139416834

>  <r_i_glide_gscore>  (1) 
-6.7911987567262395

>  <r_i_glide_gscore_strain>  (1) 
0

>  <r_i_glide_hbond>  (1) 
-0.16

>  <r_i_glide_ligand_efficiency>  (1) 
-0.26217383289087626

>  <r_i_glide_ligand_efficiency_ln>  (1) 
-1.5535763777727842

>  <r_i_glide_ligand_efficiency_sa>  (1) 
-0.76660093786817807

>  <r_i_glide_lipo>  (1) 
-3.3720408345980464

>  <r_i_glide_metal>  (1) 
-0

>  <r_i_glide_rewards>  (1) 
-1.6465648045094898

>  <r_lp_Energy>  (1) 
25.902715000000001

>  <r_lp_tautomer_probability>  (1) 
0.67048000943507491

>  <s_epik_cmdline>  (1) 
J2VwaWtfcHl0aG9uJywgJy1waHQnLCAnMS4wJywgJy1waCcsICc3LjQnLCAnLXRuJywgJzgnLCAnLW1hJywgJzUwMCcsICctaW1hZScsICc8aW5maWxlLm1hZT4nLCAnLW9tYWUnLCAnPG91dGZpbGUubWFlPic=

>  <s_epik_input>  (1) 
W09IXVtDSDJdW0NIMl1bQ0BASF0oW0NIM10pTihDMT1PKU49W0NIXVtDQEBIXTFbQ0gyXVtDSDJdW0NIMl1OKFtDSDNdKVtDQEBIXShbQ0gzXSljMltjSF1bY0hdW2NIXVtjSF1jMkNs

>  <s_glide_docking_method>  (1) 
confgen

>  <s_i_glide_gridfile>  (1) 
gpcr_5ht2c_6bqh_protein_autoprepared_prepared

>  <s_lp_Force_Field>  (1) 
S-OPLS

>  <s_lp_Variant>  (1) 
DiffSBDD_59_num_sample_100-1

>  <s_m_source_file>  (1) 
generated__ligand_DiffSBDD_2026-05-06_prepared.sdf

>  <GenAI_Model>  (1) 
DiffSBDD

>  <Protein>  (1) 
GPCR_5HT2C

$$$$
DiffSBDD_29_num_sample_100
     RDKit          3D

  0  0  0  0  0  0  0  0  0  0999 V3000
M  V30 BEGIN CTAB
M  V30 COUNTS 86 90 0 0 1
M  V30 BEGIN ATOM
M  V30 1 F 36.267339 36.725286 59.878554 0
M  V30 2 C 37.991123 31.325504 56.888992 0
M  V30 3 C 36.624545 34.000937 60.893392 0
M  V30 4 C 39.517933 26.268525 57.222716 0 CFG=2
M  V30 5 C 40.384893 29.586423 55.192082 0
M  V30 6 C 40.950619 26.828242 57.117733 0
M  V30 7 C 38.147822 37.251129 61.093156 0
M  V30 8 N 37.867073 31.314025 58.350678 0
M  V30 9 C 37.302204 25.471501 55.824752 0 CFG=1
M  V30 10 C 39.401284 29.426282 52.292464 0
M  V30 11 C 36.817902 29.624038 59.854372 0
M  V30 12 C 39.141089 28.251029 53.224199 0 CFG=2
M  V30 13 C 37.320204 36.366140 60.629021 0
M  V30 14 C 37.360185 28.821796 58.693235 0 CFG=2
M  V30 15 C 38.083015 33.756309 56.898970 0
M  V30 16 C 36.319664 23.060434 55.678034 0
M  V30 17 C 38.625747 26.306181 55.895735 0 CFG=1
M  V30 18 C 38.806087 28.345486 58.697498 0 CFG=1
M  V30 19 C 38.831692 34.893157 61.749254 0
M  V30 20 N 38.120393 33.657888 58.361799 0 CHG=1
M  V30 21 N 37.591578 35.089155 60.961292 0
M  V30 22 F 38.034577 38.572981 60.878288 0
M  V30 23 S 37.470056 28.106186 53.859768 0
M  V30 24 C 37.283390 32.572885 58.854424 0 CFG=2
M  V30 25 C 38.743130 32.530987 56.354331 0
M  V30 26 C 37.133402 23.940848 57.853080 0
M  V30 27 O 39.493518 28.706714 59.883034 0
M  V30 28 C 38.417556 27.763713 55.395182 0 CFG=2
M  V30 29 C 38.879480 26.808999 58.527762 0
M  V30 30 C 39.467769 30.762528 53.044288 0
M  V30 31 C 40.466616 30.763743 54.212994 0
M  V30 32 C 37.184393 32.664731 60.389243 0
M  V30 33 O 37.067811 25.280325 54.446044 0
M  V30 34 C 39.640549 28.349051 54.683240 0 CFG=2
M  V30 35 C 36.912025 30.252403 58.536907 0 CFG=2
M  V30 36 C 37.336199 24.021590 56.346749 0
M  V30 37 O 39.867351 24.928989 57.447712 0
M  V30 38 S 39.464117 36.669435 62.061039 0
M  V30 39 H 38.379052 30.389147 56.565484 0
M  V30 40 H 37.067521 31.308209 56.363148 0
M  V30 41 H 35.772378 34.295200 60.277925 0
M  V30 42 H 36.229205 33.858650 61.899207 0
M  V30 43 H 41.392010 29.272286 55.453488 0
M  V30 44 H 40.118514 29.894431 56.182054 0
M  V30 45 H 40.993159 27.906486 57.061135 0
M  V30 46 H 41.544037 26.591260 58.003196 0
M  V30 47 H 41.467263 26.422060 56.253435 0
M  V30 48 H 36.465766 26.019611 56.258059 0
M  V30 49 H 40.356591 29.279202 51.787598 0
M  V30 50 H 38.658642 29.463414 51.496133 0
M  V30 51 H 35.779063 29.621465 60.142648 0
M  V30 52 H 37.493706 30.004953 60.617716 0
M  V30 53 H 39.401793 27.291602 52.771247 0
M  V30 54 H 36.678178 28.136380 58.200683 0
M  V30 55 H 38.513096 34.644501 56.468338 0
M  V30 56 H 37.062886 33.786846 56.571742 0
M  V30 57 H 35.319740 23.487586 55.632499 0
M  V30 58 H 36.647053 22.815162 54.665651 0
M  V30 59 H 36.248730 22.111099 56.204476 0
M  V30 60 H 39.263389 25.789312 55.174210 0
M  V30 61 H 39.319211 28.862584 57.898520 0
M  V30 62 H 38.668673 34.339239 62.664447 0
M  V30 63 H 39.566844 34.351519 61.156537 0
M  V30 64 H 39.071085 33.515181 58.667030 0
M  V30 65 H 36.284170 32.763148 58.469133 0
M  V30 66 H 39.794851 32.502830 56.640371 0
M  V30 67 H 38.645132 32.583935 55.270308 0
M  V30 68 H 36.267729 24.507298 58.179136 0
M  V30 69 H 37.077628 22.890999 58.118476 0
M  V30 70 H 37.914878 24.302169 58.493165 0
M  V30 71 H 39.085037 28.272267 60.617349 0
M  V30 72 H 38.000479 28.411044 56.150863 0
M  V30 73 H 37.886665 26.384924 58.652167 0
M  V30 74 H 39.464833 26.414610 59.356905 0
M  V30 75 H 39.736605 31.555112 52.341625 0
M  V30 76 H 38.476431 31.014349 53.414710 0
M  V30 77 H 41.467344 30.832496 53.853392 0
M  V30 78 H 40.430691 31.695646 54.743364 0
M  V30 79 H 36.453612 31.939373 60.740061 0
M  V30 80 H 38.132401 32.414737 60.866565 0
M  V30 81 H 37.048188 26.129370 54.021718 0
M  V30 82 H 40.320092 27.517987 54.721476 0
M  V30 83 H 35.929525 30.356688 58.100611 0
M  V30 84 H 38.312465 23.621730 56.091067 0
M  V30 85 H 40.455189 24.889464 58.186775 0
M  V30 86 H 37.765889 34.520591 58.751508 0
M  V30 END ATOM
M  V30 BEGIN BOND
M  V30 1 1 6 4
M  V30 2 1 8 2
M  V30 3 1 12 10
M  V30 4 1 13 1
M  V30 5 2 13 7
M  V30 6 1 14 11
M  V30 7 1 17 4
M  V30 8 1 17 9
M  V30 9 1 18 14
M  V30 10 1 20 15
M  V30 11 1 21 3
M  V30 12 1 21 13
M  V30 13 1 21 19
M  V30 14 1 22 7
M  V30 15 1 23 12
M  V30 16 1 24 8
M  V30 17 1 24 20
M  V30 18 1 25 2
M  V30 19 1 25 15
M  V30 20 1 27 18
M  V30 21 1 28 17
M  V30 22 1 28 23
M  V30 23 1 29 4
M  V30 24 1 29 18
M  V30 25 1 30 10
M  V30 26 1 31 5
M  V30 27 1 31 30
M  V30 28 1 32 3
M  V30 29 1 32 24
M  V30 30 1 33 9
M  V30 31 1 34 5
M  V30 32 1 34 12
M  V30 33 1 34 28
M  V30 34 1 35 8
M  V30 35 1 35 11
M  V30 36 1 35 14
M  V30 37 1 36 9
M  V30 38 1 36 16
M  V30 39 1 36 26
M  V30 40 1 4 37 CFG=1
M  V30 41 1 38 7
M  V30 42 1 38 19
M  V30 43 1 39 2
M  V30 44 1 40 2
M  V30 45 1 41 3
M  V30 46 1 42 3
M  V30 47 1 43 5
M  V30 48 1 44 5
M  V30 49 1 45 6
M  V30 50 1 46 6
M  V30 51 1 47 6
M  V30 52 1 9 48 CFG=1
M  V30 53 1 49 10
M  V30 54 1 50 10
M  V30 55 1 51 11
M  V30 56 1 52 11
M  V30 57 1 12 53 CFG=3
M  V30 58 1 14 54 CFG=3
M  V30 59 1 55 15
M  V30 60 1 56 15
M  V30 61 1 57 16
M  V30 62 1 58 16
M  V30 63 1 59 16
M  V30 64 1 17 60 CFG=3
M  V30 65 1 18 61 CFG=3
M  V30 66 1 62 19
M  V30 67 1 63 19
M  V30 68 1 64 20
M  V30 69 1 24 65 CFG=3
M  V30 70 1 66 25
M  V30 71 1 67 25
M  V30 72 1 68 26
M  V30 73 1 69 26
M  V30 74 1 70 26
M  V30 75 1 71 27
M  V30 76 1 28 72 CFG=1
M  V30 77 1 73 29
M  V30 78 1 74 29
M  V30 79 1 75 30
M  V30 80 1 76 30
M  V30 81 1 77 31
M  V30 82 1 78 31
M  V30 83 1 79 32
M  V30 84 1 80 32
M  V30 85 1 81 33
M  V30 86 1 34 82 CFG=3
M  V30 87 1 35 83 CFG=3
M  V30 88 1 84 36
M  V30 89 1 85 37
M  V30 90 1 86 20
M  V30 END BOND
M  V30 END CTAB
M  END
>  <i_epik_Tot_Q>  (1) 
1

>  <i_epik_Tot_abs_Q>  (1) 
1

>  <i_i_glide_confnum>  (1) 
81

>  <i_i_glide_lignum>  (1) 
71

>  <i_i_glide_posenum>  (1) 
40

>  <i_i_glide_rotatable_bonds>  (1) 
14

>  <i_lp_mmshare_version>  (1) 
72125

>  <i_m_source_file_index>  (1) 
30

>  <i_f3d_flags>  (1) 
0

>  <num_sample>  (1) 
100

>  <b_lp_Chiralities_Consistent>  (1) 
1

>  <r_epik_Charging_Adjusted_Penalty>  (1) 
0.43533657855592212

>  <r_epik_Ionization_Penalty>  (1) 
0.17417288321429925

>  <r_epik_Ionization_Penalty_Charging>  (1) 
0.17415579174197784

>  <r_epik_Ionization_Penalty_Neutral>  (1) 
1.7091472321405907e-05

>  <r_epik_State_Penalty>  (1) 
0.2611807868139443

>  <r_glide_ring_energy>  (1) 
0.53215094814157604

>  <r_i_docking_score>  (1) 
-6.5536635466598172

>  <r_i_glide_ecoul>  (1) 
-2.7522810272038942

>  <r_i_glide_eff_state_penalty>  (1) 
0.2611807868139443

>  <r_i_glide_einternal>  (1) 
25.782268331828252

>  <r_i_glide_emodel>  (1) 
-10.253060286602667

>  <r_i_glide_emodel_strain>  (1) 
4.952571073379346

>  <r_i_glide_energy>  (1) 
-22.592176507244446

>  <r_i_glide_erotb>  (1) 
0.46833353265868582

>  <r_i_glide_esite>  (1) 
-0.13410474371033773

>  <r_i_glide_evdw>  (1) 
-19.83989548004055

>  <r_i_glide_gscore>  (1) 
-6.8148443334737614

>  <r_i_glide_gscore_strain>  (1) 
0.2381427683448365

>  <r_i_glide_hbond>  (1) 
-0.088255162264616396

>  <r_i_glide_ligand_efficiency>  (1) 
-0.17246483017525835

>  <r_i_glide_ligand_efficiency_ln>  (1) 
-1.4131626499089083

>  <r_i_glide_ligand_efficiency_sa>  (1) 
-0.57982251758697845

>  <r_i_glide_lipo>  (1) 
-4.5705958890861886

>  <r_i_glide_metal>  (1) 
-0

>  <r_i_glide_rewards>  (1) 
-1.3235279113335294

>  <r_lp_Energy>  (1) 
40.958697000000001

>  <s_epik_Chemistry_Notes>  (1) 
This compound has an imine and may undergo hydrolysis. This compound contains an acetal/aminal-like group ( X-CH(R)-Y where X, Y are N, S, or O) that may be acid/base labile, releasing an aldehyde.

>  <s_epik_cmdline>  (1) 
J2VwaWtfcHl0aG9uJywgJy1waHQnLCAnMS4wJywgJy1waCcsICc3LjQnLCAnLXRuJywgJzgnLCAnLW1hJywgJzUwMCcsICctaW1hZScsICc8aW5maWxlLm1hZT4nLCAnLW9tYWUnLCAnPG91dGZpbGUubWFlPic=

>  <s_epik_input>  (1) 
RkMxPUMoRilOKFtDSDJdUzEpW0NIMl1bQ0gyXVtDQEhdMltOSF1bQ0gyXVtDSDJdW0NIMl1OMltDQEBIXTNbQ0gyXVtDQEBIXTNbQ0BASF0oW09IXSlbQ0gyXVtDQEBdKFtDSDNdKShbT0hdKVtDQEBIXShbQ0BASF0oW09IXSlbQ0hdKFtDSDNdKVtDSDNdKVtDQEhdKFM0KVtDQEBIXShbQ0BASF00NSlbQ0gyXVtDSDJdW0NIMl1bQ0gyXTU=

>  <s_glide_docking_method>  (1) 
confgen

>  <s_i_glide_gridfile>  (1) 
gpcr_5ht2c_6bqh_protein_autoprepared_prepared

>  <s_lp_Force_Field>  (1) 
S-OPLS

>  <s_lp_Variant>  (1) 
DiffSBDD_29_num_sample_100-1

>  <s_m_source_file>  (1) 
generated__ligand_DiffSBDD_2026-05-06_prepared.sdf

>  <GenAI_Model>  (1) 
DiffSBDD

>  <Protein>  (1) 
GPCR_5HT2C

$$$$
DiffSBDD_44_num_sample_100
     RDKit          3D

  0  0  0  0  0  0  0  0  0  0999 V3000
M  V30 BEGIN CTAB
M  V30 COUNTS 58 59 0 0 1
M  V30 BEGIN ATOM
M  V30 1 C 38.077937 25.348943 54.577334 0
M  V30 2 O 38.667396 26.819983 58.821547 0 CHG=-1
M  V30 3 C 38.972437 28.608584 52.706130 0
M  V30 4 C 37.421665 24.957614 56.881609 0 CFG=1
M  V30 5 N 38.237205 26.197141 56.806883 0 CFG=1 CHG=1
M  V30 6 C 39.754127 30.943947 52.698824 0
M  V30 7 N 39.867372 29.596566 55.798311 0
M  V30 8 C 39.190675 29.702088 53.384771 0
M  V30 9 O 38.035517 31.003501 55.091278 0
M  V30 10 C 37.624038 24.269458 55.537013 0 CFG=1
M  V30 11 C 36.445052 23.412541 55.077358 0
M  V30 12 C 38.266520 28.733703 57.533052 0 CFG=1
M  V30 13 C 39.678090 29.071912 56.962799 0
M  V30 14 C 38.157649 26.602241 55.402505 0
M  V30 15 C 36.690617 30.821451 54.653470 0
M  V30 16 C 39.503330 28.317489 50.339531 0
M  V30 17 C 37.925518 27.225731 57.828253 0 CFG=2
M  V30 18 C 38.780736 29.824858 54.848689 0 CFG=2
M  V30 19 F 41.467397 29.308169 51.053522 0
M  V30 20 C 40.369563 29.611415 50.416328 0 CFG=2
M  V30 21 C 38.967769 27.837830 51.661347 0
M  V30 22 C 37.937020 29.641341 58.734171 0
M  V30 23 C 40.849948 28.737896 57.890044 0
M  V30 24 C 37.867278 24.000899 57.984552 0
M  V30 25 C 39.905987 30.898985 51.130149 0
M  V30 26 H 37.431321 25.486739 53.710601 0
M  V30 27 H 39.094538 25.133487 54.253539 0
M  V30 28 H 36.369235 25.221599 56.997103 0
M  V30 29 H 39.104441 31.785472 52.943804 0
M  V30 30 H 40.711721 31.170498 53.164266 0
M  V30 31 H 38.480287 23.621478 55.644881 0
M  V30 32 H 35.600177 24.021520 54.759245 0
M  V30 33 H 36.747254 22.769506 54.253726 0
M  V30 34 H 36.096944 22.752817 55.871271 0
M  V30 35 H 37.494758 29.046664 56.842369 0
M  V30 36 H 37.244221 27.168829 55.234239 0
M  V30 37 H 39.049165 27.149638 55.116432 0
M  V30 38 H 36.271520 31.744529 54.265135 0
M  V30 39 H 36.618182 30.087533 53.853552 0
M  V30 40 H 36.073059 30.421376 55.453442 0
M  V30 41 H 40.126356 27.511107 49.958971 0
M  V30 42 H 38.667700 28.421506 49.656623 0
M  V30 43 H 36.834913 27.231009 57.853514 0
M  V30 44 H 38.081717 29.015437 54.939070 0
M  V30 45 H 40.685353 29.870710 49.406008 0
M  V30 46 H 38.576433 26.831263 51.701500 0
M  V30 47 H 38.082999 30.692749 58.482312 0
M  V30 48 H 36.895038 29.522002 59.033053 0
M  V30 49 H 38.557698 29.412629 59.599764 0
M  V30 50 H 40.547180 28.244423 58.806684 0
M  V30 51 H 41.563923 28.089794 57.384865 0
M  V30 52 H 41.362206 29.621428 58.253465 0
M  V30 53 H 37.309158 23.070449 57.923938 0
M  V30 54 H 38.920189 23.745800 57.853464 0
M  V30 55 H 37.721618 24.421468 58.975644 0
M  V30 56 H 39.067386 31.311553 50.592930 0
M  V30 57 H 40.680326 31.621491 50.904606 0
M  V30 58 H 39.193777 25.939173 56.997998 0
M  V30 END ATOM
M  V30 BEGIN BOND
M  V30 1 1 5 4
M  V30 2 2 8 3
M  V30 3 1 8 6
M  V30 4 1 10 1
M  V30 5 1 10 4
M  V30 6 1 11 10
M  V30 7 2 13 7
M  V30 8 1 13 12
M  V30 9 1 14 1
M  V30 10 1 14 5
M  V30 11 1 15 9
M  V30 12 1 17 2
M  V30 13 1 17 5
M  V30 14 1 17 12
M  V30 15 1 18 7
M  V30 16 1 18 8
M  V30 17 1 18 9
M  V30 18 1 20 16
M  V30 19 1 20 19
M  V30 20 2 21 3
M  V30 21 1 21 16
M  V30 22 1 22 12
M  V30 23 1 23 13
M  V30 24 1 24 4
M  V30 25 1 25 6
M  V30 26 1 25 20
M  V30 27 1 26 1
M  V30 28 1 27 1
M  V30 29 1 4 28 CFG=1
M  V30 30 1 29 6
M  V30 31 1 30 6
M  V30 32 1 10 31 CFG=1
M  V30 33 1 32 11
M  V30 34 1 33 11
M  V30 35 1 34 11
M  V30 36 1 12 35 CFG=3
M  V30 37 1 36 14
M  V30 38 1 37 14
M  V30 39 1 38 15
M  V30 40 1 39 15
M  V30 41 1 40 15
M  V30 42 1 41 16
M  V30 43 1 42 16
M  V30 44 1 17 43 CFG=1
M  V30 45 1 18 44 CFG=1
M  V30 46 1 20 45 CFG=3
M  V30 47 1 46 21
M  V30 48 1 47 22
M  V30 49 1 48 22
M  V30 50 1 49 22
M  V30 51 1 50 23
M  V30 52 1 51 23
M  V30 53 1 52 23
M  V30 54 1 53 24
M  V30 55 1 54 24
M  V30 56 1 55 24
M  V30 57 1 56 25
M  V30 58 1 57 25
M  V30 59 1 5 58 CFG=1
M  V30 END BOND
M  V30 END CTAB
M  END
>  <i_epik_Tot_Q>  (1) 
0

>  <i_epik_Tot_abs_Q>  (1) 
2

>  <i_i_glide_confnum>  (1) 
18

>  <i_i_glide_lignum>  (1) 
118

>  <i_i_glide_posenum>  (1) 
26

>  <i_i_glide_rotatable_bonds>  (1) 
6

>  <i_lp_mmshare_version>  (1) 
72125

>  <i_m_source_file_index>  (1) 
45

>  <i_f3d_flags>  (1) 
0

>  <num_sample>  (1) 
100

>  <b_lp_Chiralities_Consistent>  (1) 
1

>  <r_epik_Charging_Adjusted_Penalty>  (1) 
0.41733257654759531

>  <r_epik_Ionization_Penalty>  (1) 
0.0069177268181324029

>  <r_epik_Ionization_Penalty_Charging>  (1) 
0.0066527375949913311

>  <r_epik_Ionization_Penalty_Neutral>  (1) 
0.00026498922314107146

>  <r_epik_State_Penalty>  (1) 
0.41067983895260396

>  <r_glide_ring_energy>  (1) 
0

>  <r_i_docking_score>  (1) 
-6.5511180640262898

>  <r_i_glide_ecoul>  (1) 
-0.22195009587687209

>  <r_i_glide_eff_state_penalty>  (1) 
0.41067983895260396

>  <r_i_glide_einternal>  (1) 
8.7885416325519827

>  <r_i_glide_emodel>  (1) 
-28.127781743669409

>  <r_i_glide_emodel_strain>  (1) 
4.5660326224405168

>  <r_i_glide_energy>  (1) 
-22.298463987826903

>  <r_i_glide_erotb>  (1) 
0.61440649929112812

>  <r_i_glide_esite>  (1) 
0

>  <r_i_glide_evdw>  (1) 
-22.076513891950032

>  <r_i_glide_gscore>  (1) 
-6.9617979029788941

>  <r_i_glide_gscore_strain>  (1) 
0.14150815561012919

>  <r_i_glide_hbond>  (1) 
0

>  <r_i_glide_ligand_efficiency>  (1) 
-0.2620447225610516

>  <r_i_glide_ligand_efficiency_ln>  (1) 
-1.5528113023404639

>  <r_i_glide_ligand_efficiency_sa>  (1) 
-0.76622341697358409

>  <r_i_glide_lipo>  (1) 
-4.0202827854867014

>  <r_i_glide_metal>  (1) 
-0

>  <r_i_glide_rewards>  (1) 
-2.5603115634144178

>  <r_lp_Energy>  (1) 
7.5226449999999998

>  <r_lp_tautomer_probability>  (1) 
0.49999399997599986

>  <s_epik_Chemistry_Notes>  (1) 
This compound has an imine and may undergo hydrolysis. This compound contains an acetal/aminal-like group ( X-CH(R)-Y where X, Y are N, S, or O) that may be acid/base labile, releasing an aldehyde.

>  <s_epik_cmdline>  (1) 
J2VwaWtfcHl0aG9uJywgJy1waHQnLCAnMS4wJywgJy1waCcsICc3LjQnLCAnLXRuJywgJzgnLCAnLW1hJywgJzUwMCcsICctaW1hZScsICc8aW5maWxlLm1hZT4nLCAnLW9tYWUnLCAnPG91dGZpbGUubWFlPic=

>  <s_epik_input>  (1) 
W0NIM11bQ0BIXTFbQ0gyXVtDSDJdTihbQ0BASF0xW0NIM10pW0NAQEhdKFtPSF0pW0NAQEhdKFtDSDNdKS9DKFtDSDNdKT1OXFtDQEBIXShPW0NIM10pQzI9Qz1bQ0hdW0NIMl1bQ0BASF0oRilbQ0gyXVtDSDJdMg==

>  <s_glide_docking_method>  (1) 
confgen

>  <s_i_glide_gridfile>  (1) 
gpcr_5ht2c_6bqh_protein_autoprepared_prepared

>  <s_lp_Force_Field>  (1) 
S-OPLS

>  <s_lp_Variant>  (1) 
DiffSBDD_44_num_sample_100-11

>  <s_m_source_file>  (1) 
generated__ligand_DiffSBDD_2026-05-06_prepared.sdf

>  <GenAI_Model>  (1) 
DiffSBDD

>  <Protein>  (1) 
GPCR_5HT2C

$$$$
DiffSBDD_27_num_sample_100
     RDKit          3D

  0  0  0  0  0  0  0  0  0  0999 V3000
M  V30 BEGIN CTAB
M  V30 COUNTS 52 54 0 0 1
M  V30 BEGIN ATOM
M  V30 1 C 37.584180 30.153748 57.788369 0 CFG=1
M  V30 2 C 37.457749 25.829867 54.650392 0
M  V30 3 C 39.067366 28.965365 53.421763 0
M  V30 4 C 38.589559 28.231247 54.553876 0 CHG=-1
M  V30 5 C 39.234167 28.725140 51.119584 0
M  V30 6 C 37.421757 31.586884 60.530229 0
M  V30 7 C 35.421981 33.162920 60.478812 0
M  V30 8 N 38.256126 27.094779 52.594041 0 CHG=1
M  V30 9 F 39.490185 31.622472 49.432612 0
M  V30 10 C 37.549289 33.904710 59.292550 0
M  V30 11 C 37.672406 29.780941 56.295651 0
M  V30 12 C 38.660840 32.475295 57.602432 0
M  V30 13 O 37.493055 28.983203 58.569279 0
M  V30 14 C 40.093060 30.720662 52.208091 0
M  V30 15 C 39.677944 30.206529 53.440905 0
M  V30 16 C 36.954335 33.058917 60.438106 0 CFG=2
M  V30 17 C 38.754182 31.220640 59.835670 0
M  V30 18 N 37.467462 33.267467 57.960270 0 CHG=1
M  V30 19 C 38.074954 27.015246 53.987592 0
M  V30 20 C 38.616980 28.605286 55.995905 0
M  V30 21 C 38.834634 28.226666 52.355463 0
M  V30 22 C 39.869791 29.980625 51.039872 0
M  V30 23 O 40.266906 30.473282 49.838806 0
M  V30 24 C 38.694606 31.087484 58.288020 0 CFG=1
M  V30 25 H 36.667265 30.680904 57.956500 0
M  V30 26 H 36.673018 26.132230 55.343501 0
M  V30 27 H 37.020093 25.144844 53.923549 0
M  V30 28 H 38.208740 25.279066 55.217172 0
M  V30 29 H 39.064601 28.150949 50.221095 0
M  V30 30 H 36.628451 30.924312 60.188459 0
M  V30 31 H 37.522417 31.338529 61.587451 0
M  V30 32 H 34.962532 32.746199 59.580378 0
M  V30 33 H 35.019683 32.628221 61.339796 0
M  V30 34 H 35.104460 34.202763 60.560101 0
M  V30 35 H 37.028064 34.860589 59.237700 0
M  V30 36 H 38.584095 34.163605 59.521841 0
M  V30 37 H 36.668155 29.595664 55.929005 0
M  V30 38 H 37.968963 30.630735 55.689985 0
M  V30 39 H 39.555185 33.044745 57.846978 0
M  V30 40 H 38.690605 32.395250 56.518928 0
M  V30 41 H 36.798633 28.451821 58.208577 0
M  V30 42 H 40.583341 31.672993 52.156209 0
M  V30 43 H 39.845382 30.754245 54.355045 0
M  V30 44 H 37.307607 33.539461 61.351345 0
M  V30 45 H 39.093498 30.264909 60.239555 0
M  V30 46 H 39.524554 31.932624 60.128152 0
M  V30 47 H 36.618865 32.707252 57.853531 0
M  V30 48 H 39.632399 28.875807 56.283187 0
M  V30 49 H 38.361356 27.733312 56.596138 0
M  V30 50 H 39.607854 30.588104 57.967657 0
M  V30 51 H 37.406369 34.012018 57.279674 0
M  V30 52 H 37.988126 26.394877 51.920770 0
M  V30 END ATOM
M  V30 BEGIN BOND
M  V30 1 1 4 3
M  V30 2 1 11 1
M  V30 3 1 13 1
M  V30 4 1 15 3
M  V30 5 2 15 14
M  V30 6 1 16 6
M  V30 7 1 16 7
M  V30 8 1 16 10
M  V30 9 1 17 6
M  V30 10 1 18 10
M  V30 11 1 18 12
M  V30 12 1 19 2
M  V30 13 1 19 4
M  V30 14 2 19 8
M  V30 15 1 20 4
M  V30 16 1 20 11
M  V30 17 2 21 3
M  V30 18 1 21 5
M  V30 19 1 21 8
M  V30 20 2 22 5
M  V30 21 1 22 14
M  V30 22 1 23 9
M  V30 23 1 23 22
M  V30 24 1 24 1
M  V30 25 1 24 12
M  V30 26 1 24 17
M  V30 27 1 1 25 CFG=3
M  V30 28 1 26 2
M  V30 29 1 27 2
M  V30 30 1 28 2
M  V30 31 1 29 5
M  V30 32 1 30 6
M  V30 33 1 31 6
M  V30 34 1 32 7
M  V30 35 1 33 7
M  V30 36 1 34 7
M  V30 37 1 35 10
M  V30 38 1 36 10
M  V30 39 1 37 11
M  V30 40 1 38 11
M  V30 41 1 39 12
M  V30 42 1 40 12
M  V30 43 1 41 13
M  V30 44 1 42 14
M  V30 45 1 43 15
M  V30 46 1 16 44 CFG=1
M  V30 47 1 45 17
M  V30 48 1 46 17
M  V30 49 1 47 18
M  V30 50 1 48 20
M  V30 51 1 49 20
M  V30 52 1 24 50 CFG=3
M  V30 53 1 51 18
M  V30 54 1 52 8
M  V30 END BOND
M  V30 END CTAB
M  END
>  <i_epik_Tot_Q>  (1) 
1

>  <i_epik_Tot_abs_Q>  (1) 
3

>  <i_i_glide_confnum>  (1) 
360

>  <i_i_glide_lignum>  (1) 
68

>  <i_i_glide_posenum>  (1) 
244

>  <i_i_glide_rotatable_bonds>  (1) 
6

>  <i_lp_mmshare_version>  (1) 
72125

>  <i_m_source_file_index>  (1) 
28

>  <i_f3d_flags>  (1) 
2

>  <num_sample>  (1) 
100

>  <b_lp_Chiralities_Consistent>  (1) 
0

>  <r_epik_Charging_Adjusted_Penalty>  (1) 
0.00098671700734174138

>  <r_epik_Ionization_Penalty>  (1) 
0.00098676197071069244

>  <r_epik_Ionization_Penalty_Charging>  (1) 
0.00098671700734174138

>  <r_epik_Ionization_Penalty_Neutral>  (1) 
4.4963368951131644e-08

>  <r_epik_State_Penalty>  (1) 
-0

>  <r_glide_ring_energy>  (1) 
1.078711513536265

>  <r_i_docking_score>  (1) 
-6.5504368744157375

>  <r_i_glide_ecoul>  (1) 
-7.0613801316325828

>  <r_i_glide_eff_state_penalty>  (1) 
-0

>  <r_i_glide_einternal>  (1) 
4.0303005294644567

>  <r_i_glide_emodel>  (1) 
-52.800549692166896

>  <r_i_glide_emodel_strain>  (1) 
0.82065803786062475

>  <r_i_glide_energy>  (1) 
-35.831261493005464

>  <r_i_glide_erotb>  (1) 
0.67091893137299763

>  <r_i_glide_esite>  (1) 
-0.091706154501470821

>  <r_i_glide_evdw>  (1) 
-28.769881361372878

>  <r_i_glide_gscore>  (1) 
-6.5504368744157375

>  <r_i_glide_gscore_strain>  (1) 
0

>  <r_i_glide_hbond>  (1) 
-0.20000000000000001

>  <r_i_glide_ligand_efficiency>  (1) 
-0.2729348697673224

>  <r_i_glide_ligand_efficiency_ln>  (1) 
-1.5678201240098004

>  <r_i_glide_ligand_efficiency_sa>  (1) 
-0.78728039728765842

>  <r_i_glide_lipo>  (1) 
-2.7023708564597744

>  <r_i_glide_metal>  (1) 
-0

>  <r_i_glide_rewards>  (1) 
-1.7295777070139582

>  <r_lp_Energy>  (1) 
34.541933999999998

>  <r_lp_tautomer_probability>  (1) 
1

>  <s_epik_cmdline>  (1) 
J2VwaWtfcHl0aG9uJywgJy1waHQnLCAnMS4wJywgJy1waCcsICc3LjQnLCAnLXRuJywgJzgnLCAnLW1hJywgJzUwMCcsICctaW1hZScsICc8aW5maWxlLm1hZT4nLCAnLW9tYWUnLCAnPG91dGZpbGUubWFlPic=

>  <s_epik_input>  (1) 
W0NIM11bQ0BIXTFbQ0gyXVtDSDJdW0NASF0oW0NIMl1bTkhdW0NIMl0xKVtDQEhdKFtPSF0pW0NIMl1bQ0gyXVtDQEBIXTJDKFtDSDNdKT1OYyhjMjMpW2NIXWMoT0YpW2NIXVtjSF0z

>  <s_glide_docking_method>  (1) 
confgen

>  <s_i_glide_gridfile>  (1) 
gpcr_5ht2c_6bqh_protein_autoprepared_prepared

>  <s_lp_Force_Field>  (1) 
S-OPLS

>  <s_lp_Variant>  (1) 
DiffSBDD_27_num_sample_100-1

>  <s_m_source_file>  (1) 
generated__ligand_DiffSBDD_2026-05-06_prepared.sdf

>  <GenAI_Model>  (1) 
DiffSBDD

>  <Protein>  (1) 
GPCR_5HT2C

$$$$
DiffSBDD_56_num_sample_100
     RDKit          3D

  0  0  0  0  0  0  0  0  0  0999 V3000
M  V30 BEGIN CTAB
M  V30 COUNTS 59 62 0 0 1
M  V30 BEGIN ATOM
M  V30 1 N 38.978844 32.481472 60.139146 0
M  V30 2 O 36.995452 33.613928 61.320798 0
M  V30 3 O 40.266526 26.023684 56.218604 0
M  V30 4 C 39.931767 36.798329 63.732313 0
M  V30 5 C 37.390451 36.680480 60.889587 0
M  V30 6 S 41.067397 35.208668 61.453398 0
M  V30 7 O 38.288444 26.306230 57.433461 0
M  V30 8 C 38.878532 32.945443 58.737909 0
M  V30 9 C 38.531347 36.632827 63.137319 0
M  V30 10 C 40.699675 35.562022 64.123983 0
M  V30 11 S 38.453489 33.468619 61.453913 0
M  V30 12 N 36.127824 36.821190 63.453600 0
M  V30 13 O 36.488044 29.540128 58.522335 0
M  V30 14 C 41.255081 34.754469 63.132262 0
M  V30 15 C 38.117186 30.411268 56.018676 0
M  V30 16 O 40.485787 28.821397 56.103897 0
M  V30 17 N 38.469445 36.227292 61.770101 0
M  V30 18 C 39.563737 26.835693 57.136036 0
M  V30 19 C 42.122247 33.237966 64.830683 0
M  V30 20 C 38.573286 31.066060 60.214938 0
M  V30 21 O 39.006661 32.821798 62.653402 0
M  V30 22 C 37.881026 29.335568 58.340333 0 CFG=1
M  V30 23 C 39.282954 35.124329 61.196848 0 CFG=1
M  V30 24 C 41.960873 33.586960 63.474987 0
M  V30 25 C 38.197937 29.082381 56.842274 0 CFG=2
M  V30 26 C 41.578383 34.060662 65.838003 0
M  V30 27 C 40.866966 35.224400 65.485596 0
M  V30 28 O 38.785199 31.528671 56.632066 0
M  V30 29 C 37.435027 36.913790 63.875008 0
M  V30 30 C 39.512841 28.300696 56.640094 0
M  V30 31 C 38.683524 30.560284 58.786130 0 CFG=1
M  V30 32 C 38.305609 31.764550 57.951576 0 CFG=1
M  V30 33 H 41.192672 26.058882 56.418195 0
M  V30 34 H 39.843605 37.434014 64.614924 0
M  V30 35 H 40.536922 37.395892 63.050996 0
M  V30 36 H 37.067127 37.687613 61.155057 0
M  V30 37 H 36.529625 36.015332 60.923832 0
M  V30 38 H 37.721585 36.731545 59.852582 0
M  V30 39 H 37.809230 26.213939 56.624600 0
M  V30 40 H 38.223626 33.813412 58.656255 0
M  V30 41 H 39.866995 33.223676 58.378221 0
M  V30 42 H 35.370559 36.849905 64.124040 0
M  V30 43 H 36.197476 30.273697 57.986289 0
M  V30 44 H 37.068384 30.669907 55.861440 0
M  V30 45 H 38.527255 30.272273 55.017815 0
M  V30 46 H 40.128316 26.832925 58.069289 0
M  V30 47 H 42.665787 32.342969 65.097132 0
M  V30 48 H 39.211726 30.515865 60.906219 0
M  V30 49 H 37.543901 30.999868 60.571855 0
M  V30 50 H 38.166714 28.484633 58.959138 0
M  V30 51 H 39.223474 35.267089 60.123327 0
M  V30 52 H 42.382894 32.962299 62.701401 0
M  V30 53 H 37.467271 28.404272 56.421603 0
M  V30 54 H 41.704260 33.797421 66.879381 0
M  V30 55 H 40.445075 35.853820 66.255807 0
M  V30 56 H 37.524290 37.221511 64.903702 0
M  V30 57 H 39.735426 30.333033 58.617995 0
M  V30 58 H 37.228458 31.902732 57.938632 0
M  V30 59 H 35.910415 36.352008 62.587967 0
M  V30 END ATOM
M  V30 BEGIN BOND
M  V30 1 1 8 1
M  V30 2 1 9 4
M  V30 3 1 10 4
M  V30 4 1 11 1
M  V30 5 2 11 2
M  V30 6 1 14 6
M  V30 7 1 14 10
M  V30 8 1 17 5
M  V30 9 1 17 9
M  V30 10 1 18 3
M  V30 11 1 18 7
M  V30 12 1 20 1
M  V30 13 2 21 11
M  V30 14 1 22 13
M  V30 15 1 23 6
M  V30 16 1 23 11
M  V30 17 1 23 17
M  V30 18 2 24 14
M  V30 19 1 24 19
M  V30 20 1 25 15
M  V30 21 1 25 22
M  V30 22 2 26 19
M  V30 23 2 27 10
M  V30 24 1 27 26
M  V30 25 1 28 15
M  V30 26 2 29 9
M  V30 27 1 29 12
M  V30 28 2 30 16
M  V30 29 1 30 18
M  V30 30 1 30 25
M  V30 31 1 31 20
M  V30 32 1 31 22
M  V30 33 1 32 8
M  V30 34 1 32 28
M  V30 35 1 32 31
M  V30 36 1 33 3
M  V30 37 1 34 4
M  V30 38 1 35 4
M  V30 39 1 36 5
M  V30 40 1 37 5
M  V30 41 1 38 5
M  V30 42 1 39 7
M  V30 43 1 40 8
M  V30 44 1 41 8
M  V30 45 1 42 12
M  V30 46 1 43 13
M  V30 47 1 44 15
M  V30 48 1 45 15
M  V30 49 1 46 18
M  V30 50 1 47 19
M  V30 51 1 48 20
M  V30 52 1 49 20
M  V30 53 1 22 50 CFG=1
M  V30 54 1 23 51 CFG=3
M  V30 55 1 52 24
M  V30 56 1 25 53 CFG=3
M  V30 57 1 54 26
M  V30 58 1 55 27
M  V30 59 1 56 29
M  V30 60 1 31 57 CFG=3
M  V30 61 1 32 58 CFG=3
M  V30 62 1 59 12
M  V30 END BOND
M  V30 END CTAB
M  END
>  <i_epik_Tot_Q>  (1) 
0

>  <i_epik_Tot_abs_Q>  (1) 
0

>  <i_i_glide_confnum>  (1) 
35

>  <i_i_glide_lignum>  (1) 
145

>  <i_i_glide_posenum>  (1) 
281

>  <i_i_glide_rotatable_bonds>  (1) 
7

>  <i_lp_mmshare_version>  (1) 
72125

>  <i_m_source_file_index>  (1) 
57

>  <i_f3d_flags>  (1) 
0

>  <num_sample>  (1) 
100

>  <b_lp_Chiralities_Consistent>  (1) 
1

>  <r_epik_Charging_Adjusted_Penalty>  (1) 
0.0073760756096081168

>  <r_epik_Ionization_Penalty>  (1) 
0.10489428414322399

>  <r_epik_Ionization_Penalty_Charging>  (1) 
0.0073760756096081168

>  <r_epik_Ionization_Penalty_Neutral>  (1) 
0.097518208533615869

>  <r_epik_State_Penalty>  (1) 
-0

>  <r_glide_ring_energy>  (1) 
0

>  <r_i_docking_score>  (1) 
-6.5448820791671798

>  <r_i_glide_ecoul>  (1) 
-6.6039844912162184

>  <r_i_glide_eff_state_penalty>  (1) 
-0

>  <r_i_glide_einternal>  (1) 
1.7481531302439448

>  <r_i_glide_emodel>  (1) 
-50.473280273130008

>  <r_i_glide_emodel_strain>  (1) 
1.5739073042748117

>  <r_i_glide_energy>  (1) 
-45.624438597039628

>  <r_i_glide_erotb>  (1) 
0.34464789498163795

>  <r_i_glide_esite>  (1) 
0

>  <r_i_glide_evdw>  (1) 
-39.020454105823411

>  <r_i_glide_gscore>  (1) 
-6.5448820791671798

>  <r_i_glide_gscore_strain>  (1) 
0

>  <r_i_glide_hbond>  (1) 
-0.37746019646212964

>  <r_i_glide_ligand_efficiency>  (1) 
-0.20452756497397437

>  <r_i_glide_ligand_efficiency_ln>  (1) 
-1.4655775042729158

>  <r_i_glide_ligand_efficiency_sa>  (1) 
-0.64933454359236242

>  <r_i_glide_lipo>  (1) 
-2.0681777950469473

>  <r_i_glide_metal>  (1) 
-0

>  <r_i_glide_rewards>  (1) 
-1.5022716036661381

>  <r_lp_Energy>  (1) 
30.746641

>  <r_lp_tautomer_probability>  (1) 
1

>  <s_epik_Chemistry_Notes>  (1) 
This compound has an imine and may undergo hydrolysis. This compound contains an acetal/aminal-like group ( X-CH(R)-Y where X, Y are N, S, or O) that may be acid/base labile, releasing an aldehyde.

>  <s_epik_cmdline>  (1) 
J2VwaWtfcHl0aG9uJywgJy1waHQnLCAnMS4wJywgJy1waCcsICc3LjQnLCAnLXRuJywgJzgnLCAnLW1hJywgJzUwMCcsICctaW1hZScsICc8aW5maWxlLm1hZT4nLCAnLW9tYWUnLCAnPG91dGZpbGUubWFlPic=

>  <s_epik_input>  (1) 
W2NIXTFbY0hdW2NIXVtjSF1jKGMxMilTW0NASF0oTihbQ0gzXSlbQ0BIXShbQ0gyXTIpXFtDSF09TlxbSF0pUyg9TykoPU8pTihbQ0gyXTMpW0NIMl1bQ0BIXShbQ0BASF0zNClPW0NIMl1bQ0BIXShbQ0BASF00W09IXSlDKD1PKVtDSF0oW09IXSlbT0hd

>  <s_glide_docking_method>  (1) 
confgen

>  <s_i_glide_gridfile>  (1) 
gpcr_5ht2c_6bqh_protein_autoprepared_prepared

>  <s_lp_Force_Field>  (1) 
S-OPLS

>  <s_lp_Variant>  (1) 
DiffSBDD_56_num_sample_100-1

>  <s_m_source_file>  (1) 
generated__ligand_DiffSBDD_2026-05-06_prepared.sdf

>  <GenAI_Model>  (1) 
DiffSBDD

>  <Protein>  (1) 
GPCR_5HT2C

$$$$
DiffSBDD_18_num_sample_100
     RDKit          3D

  0  0  0  0  0  0  0  0  0  0999 V3000
M  V30 BEGIN CTAB
M  V30 COUNTS 71 73 0 0 1
M  V30 BEGIN ATOM
M  V30 1 O 38.465931 35.176330 62.013051 0
M  V30 2 C 38.711043 28.037442 55.074686 0
M  V30 3 C 36.951346 30.709436 59.386041 0
M  V30 4 C 38.144806 27.024496 54.429574 0
M  V30 5 O 37.291228 32.029332 61.853478 0
M  V30 6 C 39.577832 28.642306 57.294596 0 CFG=2
M  V30 7 C 41.940533 31.524903 63.870417 0
M  V30 8 N 38.983071 27.722542 56.294628 0 CHG=1
M  V30 9 N 40.727700 28.012914 57.946770 0
M  V30 10 C 40.699385 35.651406 63.011756 0
M  V30 11 C 42.487223 33.431578 65.396634 0
M  V30 12 O 42.800040 30.752660 63.453505 0
M  V30 13 O 37.536737 24.821342 55.053513 0
M  V30 14 C 40.243818 30.282607 66.109889 0
M  V30 15 C 38.149650 31.315092 57.215652 0
M  V30 16 C 38.053703 26.036853 55.277315 0
M  V30 17 C 41.067456 32.108247 67.648400 0
M  V30 18 C 42.080939 34.475320 64.646514 0
M  V30 19 C 36.842883 32.656405 60.892787 0
M  V30 20 N 40.860668 31.966542 63.166936 0
M  V30 21 C 38.250547 30.552882 58.556428 0 CFG=2
M  V30 22 C 39.701239 35.869747 61.862784 0 CFG=2
M  V30 23 C 38.560161 29.040334 58.386809 0 CFG=2
M  V30 24 C 39.186296 28.431905 59.644405 0
M  V30 25 O 40.667404 33.221290 68.055974 0 CHG=-1
M  V30 26 C 38.589347 26.258989 56.720342 0
M  V30 27 C 40.494990 33.171790 62.943153 0
M  V30 28 C 36.475697 34.134580 61.036724 0
M  V30 29 C 37.679575 35.070847 60.826914 0
M  V30 30 C 39.348597 37.366459 61.853502 0
M  V30 31 C 41.091499 34.456753 63.535051 0
M  V30 32 C 41.997102 32.025351 65.288574 0 CFG=1
M  V30 33 C 40.752338 31.741181 66.181306 0 CFG=1
M  V30 34 N 36.643755 32.104665 59.684078 0
M  V30 35 N 40.590259 28.181562 59.345519 0
M  V30 36 O 41.706732 31.269842 68.321636 0
M  V30 37 H 38.933661 29.022509 54.679230 0
M  V30 38 H 36.109013 30.313493 58.816966 0
M  V30 39 H 36.995832 30.108086 60.294183 0
M  V30 40 H 37.830684 27.064432 53.396018 0
M  V30 41 H 39.956147 29.506463 56.753052 0
M  V30 42 H 40.780118 27.019478 57.731380 0
M  V30 43 H 41.124792 36.553712 63.429256 0
M  V30 44 H 43.215332 33.610561 66.174741 0
M  V30 45 H 37.827282 26.285951 57.499936 0
M  V30 46 H 39.467281 30.094180 66.852553 0
M  V30 47 H 39.810719 30.057694 65.135522 0
M  V30 48 H 41.049305 29.569644 66.287132 0
M  V30 49 H 37.467403 30.818426 56.526311 0
M  V30 50 H 37.785050 32.333035 57.352049 0
M  V30 51 H 39.115448 31.418947 56.723440 0
M  V30 52 H 42.520832 35.433929 64.884444 0
M  V30 53 H 39.067320 31.008554 59.118675 0
M  V30 54 H 40.198786 35.591117 60.932348 0
M  V30 55 H 37.610790 28.538219 58.193838 0
M  V30 56 H 38.707446 27.475845 59.853602 0
M  V30 57 H 39.092234 29.053683 60.535615 0
M  V30 58 H 39.484274 25.688050 56.972002 0
M  V30 59 H 39.690377 33.350188 62.239857 0
M  V30 60 H 35.706912 34.369479 60.298912 0
M  V30 61 H 36.018146 34.309697 62.010872 0
M  V30 62 H 38.290331 34.713632 59.995507 0
M  V30 63 H 37.300674 36.049600 60.536454 0
M  V30 64 H 40.241024 37.984177 61.755904 0
M  V30 65 H 38.667585 37.649134 61.053475 0
M  V30 66 H 38.862297 37.621468 62.794627 0
M  V30 67 H 42.808144 31.442714 65.730882 0
M  V30 68 H 39.943187 32.389989 65.848465 0
M  V30 69 H 36.264083 32.670733 58.934871 0
M  V30 70 H 40.942653 27.366851 59.845807 0
M  V30 71 H 37.575310 24.330788 55.860360 0
M  V30 END ATOM
M  V30 BEGIN BOND
M  V30 1 1 4 2
M  V30 2 2 8 2
M  V30 3 1 8 6
M  V30 4 1 9 6
M  V30 5 2 12 7
M  V30 6 2 16 4
M  V30 7 1 16 13
M  V30 8 2 18 11
M  V30 9 2 19 5
M  V30 10 1 20 7
M  V30 11 1 21 3
M  V30 12 1 21 15
M  V30 13 1 22 1
M  V30 14 1 22 10
M  V30 15 1 23 6
M  V30 16 1 23 21
M  V30 17 1 24 23
M  V30 18 1 25 17
M  V30 19 1 26 8
M  V30 20 1 26 16
M  V30 21 2 27 20
M  V30 22 1 28 19
M  V30 23 1 29 1
M  V30 24 1 29 28
M  V30 25 1 30 22
M  V30 26 2 31 10
M  V30 27 1 31 18
M  V30 28 1 31 27
M  V30 29 1 32 7
M  V30 30 1 32 11
M  V30 31 1 33 14
M  V30 32 1 33 17
M  V30 33 1 33 32
M  V30 34 1 34 3
M  V30 35 1 34 19
M  V30 36 1 35 9
M  V30 37 1 35 24
M  V30 38 2 36 17
M  V30 39 1 37 2
M  V30 40 1 38 3
M  V30 41 1 39 3
M  V30 42 1 40 4
M  V30 43 1 6 41 CFG=3
M  V30 44 1 42 9
M  V30 45 1 43 10
M  V30 46 1 44 11
M  V30 47 1 45 26
M  V30 48 1 46 14
M  V30 49 1 47 14
M  V30 50 1 48 14
M  V30 51 1 49 15
M  V30 52 1 50 15
M  V30 53 1 51 15
M  V30 54 1 52 18
M  V30 55 1 21 53 CFG=1
M  V30 56 1 22 54 CFG=3
M  V30 57 1 23 55 CFG=3
M  V30 58 1 56 24
M  V30 59 1 57 24
M  V30 60 1 58 26
M  V30 61 1 59 27
M  V30 62 1 60 28
M  V30 63 1 61 28
M  V30 64 1 62 29
M  V30 65 1 63 29
M  V30 66 1 64 30
M  V30 67 1 65 30
M  V30 68 1 66 30
M  V30 69 1 32 67 CFG=1
M  V30 70 1 33 68 CFG=3
M  V30 71 1 69 34
M  V30 72 1 70 35
M  V30 73 1 71 13
M  V30 END BOND
M  V30 END CTAB
M  END
>  <i_epik_Tot_Q>  (1) 
0

>  <i_epik_Tot_abs_Q>  (1) 
2

>  <i_i_glide_confnum>  (1) 
1604

>  <i_i_glide_lignum>  (1) 
46

>  <i_i_glide_posenum>  (1) 
383

>  <i_i_glide_rotatable_bonds>  (1) 
13

>  <i_lp_mmshare_version>  (1) 
72125

>  <i_m_source_file_index>  (1) 
19

>  <i_f3d_flags>  (1) 
0

>  <num_sample>  (1) 
100

>  <b_lp_Chiralities_Consistent>  (1) 
1

>  <r_epik_Charging_Adjusted_Penalty>  (1) 
0.76693695219889413

>  <r_epik_Ionization_Penalty>  (1) 
0.76778133156762796

>  <r_epik_Ionization_Penalty_Charging>  (1) 
0.00011398914501928687

>  <r_epik_Ionization_Penalty_Neutral>  (1) 
0.7676673424226087

>  <r_epik_State_Penalty>  (1) 
0.76682296305387487

>  <r_glide_ring_energy>  (1) 
1.7561163794185886

>  <r_i_docking_score>  (1) 
-6.544242135992751

>  <r_i_glide_ecoul>  (1) 
-4.209387807593064

>  <r_i_glide_eff_state_penalty>  (1) 
0.76682296305387487

>  <r_i_glide_einternal>  (1) 
8.3828637832544501

>  <r_i_glide_emodel>  (1) 
-72.463561271994962

>  <r_i_glide_emodel_strain>  (1) 
2.4746909317999837

>  <r_i_glide_energy>  (1) 
-54.565772143172524

>  <r_i_glide_erotb>  (1) 
0.89312676016186854

>  <r_i_glide_esite>  (1) 
-0.082666389273615526

>  <r_i_glide_evdw>  (1) 
-50.356384335579456

>  <r_i_glide_gscore>  (1) 
-7.3110650990466262

>  <r_i_glide_gscore_strain>  (1) 
0

>  <r_i_glide_hbond>  (1) 
-0.25495114870437674

>  <r_i_glide_ligand_efficiency>  (1) 
-0.18178450377757641

>  <r_i_glide_ligand_efficiency_ln>  (1) 
-1.4277768290834381

>  <r_i_glide_ligand_efficiency_sa>  (1) 
-0.60023920644996787

>  <r_i_glide_lipo>  (1) 
-3.2710750888471587

>  <r_i_glide_metal>  (1) 
-0

>  <r_i_glide_rewards>  (1) 
-1.4462718444654104

>  <r_lp_Energy>  (1) 
32.160671999999998

>  <r_lp_tautomer_probability>  (1) 
0.99929914239148299

>  <s_epik_Chemistry_Notes>  (1) 
This compound has an imine and may undergo hydrolysis. This compound contains an acetal/aminal-like group ( X-CH(R)-Y where X, Y are N, S, or O) that may be acid/base labile, releasing an aldehyde.

>  <s_epik_cmdline>  (1) 
J2VwaWtfcHl0aG9uJywgJy1waHQnLCAnMS4wJywgJy1waCcsICc3LjQnLCAnLXRuJywgJzgnLCAnLW1hJywgJzUwMCcsICctaW1hZScsICc8aW5maWxlLm1hZT4nLCAnLW9tYWUnLCAnPG91dGZpbGUubWFlPic=

>  <s_epik_input>  (1) 
W09IXUMoPU8pW0NASF0oW0NIM10pW0NAQEhdMVtDSF09W0NIXVxDKFtDSF09TkMxPU8pPVtDSF1cW0NASF0oW0NIM10pT1tDSDJdW0NIMl1DKD1PKVtOSF1bQ0gyXVtDQEhdKFtDSDNdKVtDQEBIXTJbQ0gyXVtOSF1bTkhdW0NASF0ybjNbY0hdW2NIXWMoW09IXSlbY0hdMw==

>  <s_glide_docking_method>  (1) 
confgen

>  <s_i_glide_gridfile>  (1) 
gpcr_5ht2c_6bqh_protein_autoprepared_prepared

>  <s_lp_Force_Field>  (1) 
S-OPLS

>  <s_lp_Variant>  (1) 
DiffSBDD_18_num_sample_100-6

>  <s_m_source_file>  (1) 
generated__ligand_DiffSBDD_2026-05-06_prepared.sdf

>  <GenAI_Model>  (1) 
DiffSBDD

>  <Protein>  (1) 
GPCR_5HT2C

$$$$
DiffSBDD_44_num_sample_100
     RDKit          3D

  0  0  0  0  0  0  0  0  0  0999 V3000
M  V30 BEGIN CTAB
M  V30 COUNTS 58 59 0 0 1
M  V30 BEGIN ATOM
M  V30 1 C 38.171299 35.859672 61.324252 0
M  V30 2 O 37.470973 31.803787 61.655843 0 CHG=-1
M  V30 3 C 39.063672 29.370703 56.076450 0
M  V30 4 C 39.733715 34.015574 61.665775 0 CFG=1
M  V30 5 N 38.579067 33.584129 60.825890 0 CFG=2 CHG=1
M  V30 6 C 38.525925 26.971165 56.154358 0
M  V30 7 N 38.707159 29.709413 58.901746 0
M  V30 8 C 38.832555 28.310949 56.811468 0
M  V30 9 O 39.928043 27.663702 58.908647 0
M  V30 10 C 39.387444 35.437406 62.157971 0 CFG=1
M  V30 11 C 40.565660 36.422130 62.081050 0
M  V30 12 C 37.564176 31.850166 59.315798 0 CFG=1
M  V30 13 C 37.609166 30.369226 58.923243 0
M  V30 14 C 37.465926 34.540007 61.018257 0
M  V30 15 C 41.215676 28.193631 58.611094 0
M  V30 16 C 38.920495 29.354497 53.621088 0
M  V30 17 C 38.283588 32.127944 60.671643 0 CFG=2
M  V30 18 C 38.813965 28.358034 58.349075 0 CFG=1
M  V30 19 F 38.267150 27.464246 52.456791 0
M  V30 20 C 38.240673 27.950792 53.696501 0 CFG=1
M  V30 21 C 39.155420 30.030481 54.956252 0
M  V30 22 C 38.140198 32.665920 58.131895 0
M  V30 23 C 36.269764 29.763933 58.525594 0
M  V30 24 C 40.102654 33.067739 62.824497 0
M  V30 25 C 38.882248 26.885535 54.635843 0
M  V30 26 H 38.493513 36.325913 60.392010 0
M  V30 27 H 37.526848 36.568954 61.844735 0
M  V30 28 H 40.593755 34.066132 60.999191 0
M  V30 29 H 39.077986 26.196091 56.687361 0
M  V30 30 H 37.467552 26.754415 56.302628 0
M  V30 31 H 39.067036 35.377465 63.198052 0
M  V30 32 H 40.948504 36.514537 61.063840 0
M  V30 33 H 40.267349 37.415594 62.416846 0
M  V30 34 H 41.391005 36.096716 62.715732 0
M  V30 35 H 36.523485 32.164243 59.412109 0
M  V30 36 H 36.826446 34.606631 60.138201 0
M  V30 37 H 36.834162 34.245798 61.853520 0
M  V30 38 H 41.975218 27.621242 59.141770 0
M  V30 39 H 41.443251 28.129531 57.546803 0
M  V30 40 H 41.312551 29.231659 58.927966 0
M  V30 41 H 38.277719 30.021076 53.052133 0
M  V30 42 H 39.867386 29.297697 53.085910 0
M  V30 43 H 39.271400 31.675967 60.573894 0
M  V30 44 H 37.956150 27.761100 58.653525 0
M  V30 45 H 37.184270 28.062137 53.945669 0
M  V30 46 H 39.382753 31.086634 54.939900 0
M  V30 47 H 37.645106 32.396702 57.197265 0
M  V30 48 H 37.987561 33.737786 58.248533 0
M  V30 49 H 39.205550 32.488090 57.993042 0
M  V30 50 H 35.437688 30.421977 58.765845 0
M  V30 51 H 36.261391 29.610933 57.448266 0
M  V30 52 H 36.075388 28.821931 59.028186 0
M  V30 53 H 40.878107 33.503933 63.454518 0
M  V30 54 H 39.240329 32.855879 63.453547 0
M  V30 55 H 40.484852 32.112927 62.464954 0
M  V30 56 H 39.965314 26.897081 54.511603 0
M  V30 57 H 38.567490 25.899653 54.291952 0
M  V30 58 H 38.899350 33.818100 59.898755 0
M  V30 END ATOM
M  V30 BEGIN BOND
M  V30 1 1 5 4
M  V30 2 2 8 3
M  V30 3 1 8 6
M  V30 4 1 10 1
M  V30 5 1 10 4
M  V30 6 1 11 10
M  V30 7 2 13 7
M  V30 8 1 13 12
M  V30 9 1 14 1
M  V30 10 1 14 5
M  V30 11 1 15 9
M  V30 12 1 17 2
M  V30 13 1 17 5
M  V30 14 1 17 12
M  V30 15 1 18 7
M  V30 16 1 18 8
M  V30 17 1 18 9
M  V30 18 1 20 16
M  V30 19 1 20 19
M  V30 20 2 21 3
M  V30 21 1 21 16
M  V30 22 1 22 12
M  V30 23 1 23 13
M  V30 24 1 24 4
M  V30 25 1 25 6
M  V30 26 1 25 20
M  V30 27 1 26 1
M  V30 28 1 27 1
M  V30 29 1 4 28 CFG=3
M  V30 30 1 29 6
M  V30 31 1 30 6
M  V30 32 1 10 31 CFG=1
M  V30 33 1 32 11
M  V30 34 1 33 11
M  V30 35 1 34 11
M  V30 36 1 12 35 CFG=1
M  V30 37 1 36 14
M  V30 38 1 37 14
M  V30 39 1 38 15
M  V30 40 1 39 15
M  V30 41 1 40 15
M  V30 42 1 41 16
M  V30 43 1 42 16
M  V30 44 1 17 43 CFG=3
M  V30 45 1 18 44 CFG=1
M  V30 46 1 20 45 CFG=1
M  V30 47 1 46 21
M  V30 48 1 47 22
M  V30 49 1 48 22
M  V30 50 1 49 22
M  V30 51 1 50 23
M  V30 52 1 51 23
M  V30 53 1 52 23
M  V30 54 1 53 24
M  V30 55 1 54 24
M  V30 56 1 55 24
M  V30 57 1 56 25
M  V30 58 1 57 25
M  V30 59 1 5 58 CFG=3
M  V30 END BOND
M  V30 END CTAB
M  END
>  <i_epik_Tot_Q>  (1) 
0

>  <i_epik_Tot_abs_Q>  (1) 
2

>  <i_i_glide_confnum>  (1) 
7

>  <i_i_glide_lignum>  (1) 
113

>  <i_i_glide_posenum>  (1) 
55

>  <i_i_glide_rotatable_bonds>  (1) 
6

>  <i_lp_mmshare_version>  (1) 
72125

>  <i_m_source_file_index>  (1) 
45

>  <i_f3d_flags>  (1) 
0

>  <num_sample>  (1) 
100

>  <b_lp_Chiralities_Consistent>  (1) 
1

>  <r_epik_Charging_Adjusted_Penalty>  (1) 
0.41733257654759531

>  <r_epik_Ionization_Penalty>  (1) 
0.0069177268181324029

>  <r_epik_Ionization_Penalty_Charging>  (1) 
0.0066527375949913311

>  <r_epik_Ionization_Penalty_Neutral>  (1) 
0.00026498922314107146

>  <r_epik_State_Penalty>  (1) 
0.41067983895260396

>  <r_glide_ring_energy>  (1) 
0

>  <r_i_docking_score>  (1) 
-6.5400834668039574

>  <r_i_glide_ecoul>  (1) 
-2.9434114522219712

>  <r_i_glide_eff_state_penalty>  (1) 
0.41067983895260396

>  <r_i_glide_einternal>  (1) 
6.1753819891379287

>  <r_i_glide_emodel>  (1) 
-51.736248227443838

>  <r_i_glide_emodel_strain>  (1) 
0.18586439437947178

>  <r_i_glide_energy>  (1) 
-36.058793315334157

>  <r_i_glide_erotb>  (1) 
0.61440649929112812

>  <r_i_glide_esite>  (1) 
-0.051736252894278335

>  <r_i_glide_evdw>  (1) 
-33.115381863112184

>  <r_i_glide_gscore>  (1) 
-6.9507633057565616

>  <r_i_glide_gscore_strain>  (1) 
0

>  <r_i_glide_hbond>  (1) 
-0.089230053380939575

>  <r_i_glide_ligand_efficiency>  (1) 
-0.26160333867215829

>  <r_i_glide_ligand_efficiency_ln>  (1) 
-1.5501957721185766

>  <r_i_glide_ligand_efficiency_sa>  (1) 
-0.76493280265309871

>  <r_i_glide_lipo>  (1) 
-2.9304304072119827

>  <r_i_glide_metal>  (1) 
-0

>  <r_i_glide_rewards>  (1) 
-2.396492280571584

>  <r_lp_Energy>  (1) 
18.805842999999999

>  <r_lp_tautomer_probability>  (1) 
0.49999399997599986

>  <s_epik_Chemistry_Notes>  (1) 
This compound has an imine and may undergo hydrolysis. This compound contains an acetal/aminal-like group ( X-CH(R)-Y where X, Y are N, S, or O) that may be acid/base labile, releasing an aldehyde.

>  <s_epik_cmdline>  (1) 
J2VwaWtfcHl0aG9uJywgJy1waHQnLCAnMS4wJywgJy1waCcsICc3LjQnLCAnLXRuJywgJzgnLCAnLW1hJywgJzUwMCcsICctaW1hZScsICc8aW5maWxlLm1hZT4nLCAnLW9tYWUnLCAnPG91dGZpbGUubWFlPic=

>  <s_epik_input>  (1) 
W0NIM11bQ0BIXTFbQ0gyXVtDSDJdTihbQ0BASF0xW0NIM10pW0NAQEhdKFtPSF0pW0NAQEhdKFtDSDNdKVxDKFtDSDNdKT1OXFtDQEBIXShPW0NIM10pQzI9Qz1bQ0hdW0NIMl1bQ0BASF0oRilbQ0gyXVtDSDJdMg==

>  <s_glide_docking_method>  (1) 
confgen

>  <s_i_glide_gridfile>  (1) 
gpcr_5ht2c_6bqh_protein_autoprepared_prepared

>  <s_lp_Force_Field>  (1) 
S-OPLS

>  <s_lp_Variant>  (1) 
DiffSBDD_44_num_sample_100-6

>  <s_m_source_file>  (1) 
generated__ligand_DiffSBDD_2026-05-06_prepared.sdf

>  <GenAI_Model>  (1) 
DiffSBDD

>  <Protein>  (1) 
GPCR_5HT2C

$$$$
DiffSBDD_27_num_sample_100
     RDKit          3D

  0  0  0  0  0  0  0  0  0  0999 V3000
M  V30 BEGIN CTAB
M  V30 COUNTS 52 54 0 0 1
M  V30 BEGIN ATOM
M  V30 1 C 37.560351 30.047797 57.833310 0 CFG=1
M  V30 2 C 37.391388 25.933959 54.527329 0
M  V30 3 C 39.067434 29.053902 53.359687 0
M  V30 4 C 38.579221 28.307133 54.477482 0 CHG=-1
M  V30 5 C 39.226876 28.853559 51.053367 0
M  V30 6 C 37.333028 31.476994 60.597092 0
M  V30 7 C 35.290026 32.978927 60.426919 0
M  V30 8 N 38.209972 27.221404 52.492176 0 CHG=1
M  V30 9 F 39.467482 31.692159 49.351739 0
M  V30 10 C 37.459159 33.818639 59.376980 0
M  V30 11 C 37.664211 29.782410 56.312471 0
M  V30 12 C 38.664960 32.409733 57.727229 0
M  V30 13 O 37.619964 28.822934 58.534325 0
M  V30 14 C 40.133380 30.808291 52.177867 0
M  V30 15 C 39.705785 30.279716 53.402663 0
M  V30 16 C 36.825764 32.936424 60.476674 0 CFG=2
M  V30 17 C 38.679081 31.123019 59.931757 0
M  V30 18 N 37.467403 33.213896 58.027238 0 CHG=1
M  V30 19 C 38.032059 27.117087 53.886299 0
M  V30 20 C 38.628511 28.642604 55.929418 0
M  V30 21 C 38.815766 28.342111 52.277763 0
M  V30 22 C 39.893351 30.094502 50.996316 0
M  V30 23 O 40.300742 30.599951 49.804380 0
M  V30 24 C 38.646686 31.007055 58.384476 0 CFG=1
M  V30 25 H 36.566556 30.423868 58.045687 0
M  V30 26 H 36.682409 26.245989 55.294438 0
M  V30 27 H 36.863800 25.316386 53.800767 0
M  V30 28 H 38.145669 25.312716 55.009750 0
M  V30 29 H 39.041166 28.300772 50.143796 0
M  V30 30 H 36.566259 30.786406 60.247022 0
M  V30 31 H 37.420781 31.247903 61.660351 0
M  V30 32 H 34.907729 32.502836 59.522518 0
M  V30 33 H 34.860717 32.460022 61.284450 0
M  V30 34 H 34.916147 34.003378 60.447984 0
M  V30 35 H 36.906333 34.756237 59.311097 0
M  V30 36 H 38.471119 34.105873 59.664787 0
M  V30 37 H 36.667383 29.603603 55.928939 0
M  V30 38 H 37.939520 30.676540 55.763123 0
M  V30 39 H 39.533499 32.975786 58.052713 0
M  V30 40 H 38.776137 32.354017 56.647419 0
M  V30 41 H 38.360783 28.334100 58.208276 0
M  V30 42 H 40.644970 31.749547 52.143022 0
M  V30 43 H 39.883405 30.804944 54.327879 0
M  V30 44 H 37.101399 33.425073 61.413582 0
M  V30 45 H 39.002438 30.163167 60.336565 0
M  V30 46 H 39.449699 31.825855 60.249127 0
M  V30 47 H 36.621729 32.665559 57.853734 0
M  V30 48 H 39.645914 28.916802 56.210750 0
M  V30 49 H 38.403341 27.734731 56.487186 0
M  V30 50 H 39.573549 30.514208 58.096053 0
M  V30 51 H 37.456235 33.976516 57.364655 0
M  V30 52 H 37.923050 26.541175 51.803165 0
M  V30 END ATOM
M  V30 BEGIN BOND
M  V30 1 1 4 3
M  V30 2 1 11 1
M  V30 3 1 13 1
M  V30 4 1 15 3
M  V30 5 2 15 14
M  V30 6 1 16 6
M  V30 7 1 16 7
M  V30 8 1 16 10
M  V30 9 1 17 6
M  V30 10 1 18 10
M  V30 11 1 18 12
M  V30 12 1 19 2
M  V30 13 1 19 4
M  V30 14 2 19 8
M  V30 15 1 20 4
M  V30 16 1 20 11
M  V30 17 2 21 3
M  V30 18 1 21 5
M  V30 19 1 21 8
M  V30 20 2 22 5
M  V30 21 1 22 14
M  V30 22 1 23 9
M  V30 23 1 23 22
M  V30 24 1 24 1
M  V30 25 1 24 12
M  V30 26 1 24 17
M  V30 27 1 1 25 CFG=3
M  V30 28 1 26 2
M  V30 29 1 27 2
M  V30 30 1 28 2
M  V30 31 1 29 5
M  V30 32 1 30 6
M  V30 33 1 31 6
M  V30 34 1 32 7
M  V30 35 1 33 7
M  V30 36 1 34 7
M  V30 37 1 35 10
M  V30 38 1 36 10
M  V30 39 1 37 11
M  V30 40 1 38 11
M  V30 41 1 39 12
M  V30 42 1 40 12
M  V30 43 1 41 13
M  V30 44 1 42 14
M  V30 45 1 43 15
M  V30 46 1 16 44 CFG=1
M  V30 47 1 45 17
M  V30 48 1 46 17
M  V30 49 1 47 18
M  V30 50 1 48 20
M  V30 51 1 49 20
M  V30 52 1 24 50 CFG=3
M  V30 53 1 51 18
M  V30 54 1 52 8
M  V30 END BOND
M  V30 END CTAB
M  END
>  <i_epik_Tot_Q>  (1) 
1

>  <i_epik_Tot_abs_Q>  (1) 
3

>  <i_i_glide_confnum>  (1) 
360

>  <i_i_glide_lignum>  (1) 
68

>  <i_i_glide_posenum>  (1) 
111

>  <i_i_glide_rotatable_bonds>  (1) 
6

>  <i_lp_mmshare_version>  (1) 
72125

>  <i_m_source_file_index>  (1) 
28

>  <i_f3d_flags>  (1) 
2

>  <num_sample>  (1) 
100

>  <b_lp_Chiralities_Consistent>  (1) 
0

>  <r_epik_Charging_Adjusted_Penalty>  (1) 
0.00098671700734174138

>  <r_epik_Ionization_Penalty>  (1) 
0.00098676197071069244

>  <r_epik_Ionization_Penalty_Charging>  (1) 
0.00098671700734174138

>  <r_epik_Ionization_Penalty_Neutral>  (1) 
4.4963368951131644e-08

>  <r_epik_State_Penalty>  (1) 
-0

>  <r_glide_ring_energy>  (1) 
1.078711513536265

>  <r_i_docking_score>  (1) 
-6.5384990340813047

>  <r_i_glide_ecoul>  (1) 
-7.5661766512524515

>  <r_i_glide_eff_state_penalty>  (1) 
-0

>  <r_i_glide_einternal>  (1) 
3.8887217159551994

>  <r_i_glide_emodel>  (1) 
-52.881814338999362

>  <r_i_glide_emodel_strain>  (1) 
1.2247441506604559

>  <r_i_glide_energy>  (1) 
-36.281916633882133

>  <r_i_glide_erotb>  (1) 
0.67091893137299763

>  <r_i_glide_esite>  (1) 
-0.092293711906870052

>  <r_i_glide_evdw>  (1) 
-28.715739982629682

>  <r_i_glide_gscore>  (1) 
-6.5384990340813047

>  <r_i_glide_gscore_strain>  (1) 
0

>  <r_i_glide_hbond>  (1) 
-0.20000000000000001

>  <r_i_glide_ligand_efficiency>  (1) 
-0.27243745975338768

>  <r_i_glide_ligand_efficiency_ln>  (1) 
-1.5649628510259723

>  <r_i_glide_ligand_efficiency_sa>  (1) 
-0.78584561852993051

>  <r_i_glide_lipo>  (1) 
-2.6312322631654856

>  <r_i_glide_metal>  (1) 
-0

>  <r_i_glide_rewards>  (1) 
-1.7151784935625944

>  <r_lp_Energy>  (1) 
34.541933999999998

>  <r_lp_tautomer_probability>  (1) 
1

>  <s_epik_cmdline>  (1) 
J2VwaWtfcHl0aG9uJywgJy1waHQnLCAnMS4wJywgJy1waCcsICc3LjQnLCAnLXRuJywgJzgnLCAnLW1hJywgJzUwMCcsICctaW1hZScsICc8aW5maWxlLm1hZT4nLCAnLW9tYWUnLCAnPG91dGZpbGUubWFlPic=

>  <s_epik_input>  (1) 
W0NIM11bQ0BIXTFbQ0gyXVtDSDJdW0NASF0oW0NIMl1bTkhdW0NIMl0xKVtDQEhdKFtPSF0pW0NIMl1bQ0gyXVtDQEBIXTJDKFtDSDNdKT1OYyhjMjMpW2NIXWMoT0YpW2NIXVtjSF0z

>  <s_glide_docking_method>  (1) 
confgen

>  <s_i_glide_gridfile>  (1) 
gpcr_5ht2c_6bqh_protein_autoprepared_prepared

>  <s_lp_Force_Field>  (1) 
S-OPLS

>  <s_lp_Variant>  (1) 
DiffSBDD_27_num_sample_100-1

>  <s_m_source_file>  (1) 
generated__ligand_DiffSBDD_2026-05-06_prepared.sdf

>  <GenAI_Model>  (1) 
DiffSBDD

>  <Protein>  (1) 
GPCR_5HT2C

$$$$
DiffSBDD_18_num_sample_100
     RDKit          3D

  0  0  0  0  0  0  0  0  0  0999 V3000
M  V30 BEGIN CTAB
M  V30 COUNTS 70 72 0 0 1
M  V30 BEGIN ATOM
M  V30 1 O 38.548029 32.158200 59.611429 0
M  V30 2 C 43.765597 26.235150 67.135991 0
M  V30 3 C 41.622113 29.602566 63.492397 0
M  V30 4 C 44.488827 25.884171 68.148170 0
M  V30 5 O 40.758354 31.198332 61.341117 0
M  V30 6 C 43.661754 27.925210 65.273214 0 CFG=2
M  V30 7 C 38.525016 27.932694 54.531305 0
M  V30 8 N 44.291760 27.265562 66.417994 0
M  V30 9 N 44.667404 28.227266 64.253486 0
M  V30 10 C 39.067403 30.248624 58.221481 0
M  V30 11 C 39.847165 27.081493 56.456110 0
M  V30 12 O 38.989933 27.910952 53.391854 0
M  V30 13 O 46.549880 26.703276 68.986391 0
M  V30 14 C 37.067410 26.527836 57.496056 0
M  V30 15 C 40.907422 30.706121 65.688331 0
M  V30 16 C 45.634788 26.738139 68.165030 0
M  V30 17 C 37.740980 24.558351 56.205962 0
M  V30 18 C 39.916234 28.185383 57.226216 0
M  V30 19 C 39.943838 30.469523 61.906223 0
M  V30 20 N 37.748655 28.924329 55.053518 0
M  V30 21 C 41.608729 29.496819 65.037221 0 CFG=2
M  V30 22 C 38.186998 31.490446 58.401850 0 CFG=2
M  V30 23 C 43.015518 29.266483 65.659634 0 CFG=2
M  V30 24 C 44.080146 30.283226 65.228947 0
M  V30 25 O 37.067579 23.819310 55.453560 0 CHG=-1
M  V30 26 C 45.599146 27.773788 66.971604 0
M  V30 27 C 37.867536 29.529831 56.177445 0
M  V30 28 C 38.483024 30.423004 61.435570 0
M  V30 29 C 37.937267 31.734874 60.828482 0
M  V30 30 C 38.425392 32.572809 57.331560 0
M  V30 31 C 38.962698 29.328220 57.230972 0
M  V30 32 C 38.769132 26.777665 55.473410 0 CFG=1
M  V30 33 C 37.508094 26.067831 56.086832 0 CFG=2
M  V30 34 N 40.267407 29.677321 62.943596 0
M  V30 35 N 44.962707 29.619816 64.270408 0
M  V30 36 O 38.582046 24.176305 57.052408 0
M  V30 37 H 42.823295 25.816953 66.811645 0
M  V30 38 H 42.104116 28.728540 63.053182 0
M  V30 39 H 42.220358 30.463729 63.192275 0
M  V30 40 H 44.293272 25.102825 68.867227 0
M  V30 41 H 42.931843 27.235672 64.846010 0
M  V30 42 H 45.514492 27.681304 64.397033 0
M  V30 43 H 39.837111 30.113060 58.966142 0
M  V30 44 H 40.610451 26.323213 56.564771 0
M  V30 45 H 46.431038 27.621400 66.285188 0
M  V30 46 H 36.240088 25.915704 57.853484 0
M  V30 47 H 37.867430 26.421792 58.229529 0
M  V30 48 H 36.731213 27.556027 57.543067 0
M  V30 49 H 41.407897 31.642084 65.439594 0
M  V30 50 H 39.869638 30.790693 65.364459 0
M  V30 51 H 40.892262 30.615569 66.774810 0
M  V30 52 H 40.744451 28.239150 57.918457 0
M  V30 53 H 41.007684 28.623036 65.295366 0
M  V30 54 H 37.130626 31.218946 58.433606 0
M  V30 55 H 42.897433 29.309021 66.743937 0
M  V30 56 H 43.666600 31.194468 64.798043 0
M  V30 57 H 44.679511 30.581047 66.089743 0
M  V30 58 H 45.547357 28.804570 67.320971 0
M  V30 59 H 37.146624 30.302810 56.442871 0
M  V30 60 H 37.871124 30.185662 62.304589 0
M  V30 61 H 38.357725 29.597326 60.737422 0
M  V30 62 H 38.080638 32.538521 61.551809 0
M  V30 63 H 36.858419 31.660558 60.686455 0
M  V30 64 H 38.153165 32.258710 56.326015 0
M  V30 65 H 37.827275 33.458357 57.549333 0
M  V30 66 H 39.468732 32.880544 57.309195 0
M  V30 67 H 39.238873 26.038863 54.819528 0
M  V30 68 H 36.667409 26.205461 55.407750 0
M  V30 69 H 39.549500 29.100814 63.371483 0
M  V30 70 H 45.938815 29.758365 64.526831 0
M  V30 END ATOM
M  V30 BEGIN BOND
M  V30 1 2 4 2
M  V30 2 1 8 2
M  V30 3 1 8 6
M  V30 4 1 9 6
M  V30 5 2 12 7
M  V30 6 1 16 4
M  V30 7 2 16 13
M  V30 8 2 18 11
M  V30 9 2 19 5
M  V30 10 1 20 7
M  V30 11 1 21 3
M  V30 12 1 21 15
M  V30 13 1 22 1
M  V30 14 1 22 10
M  V30 15 1 23 6
M  V30 16 1 23 21
M  V30 17 1 24 23
M  V30 18 1 25 17
M  V30 19 1 26 8
M  V30 20 1 26 16
M  V30 21 2 27 20
M  V30 22 1 28 19
M  V30 23 1 29 1
M  V30 24 1 29 28
M  V30 25 1 30 22
M  V30 26 2 31 10
M  V30 27 1 31 18
M  V30 28 1 31 27
M  V30 29 1 32 7
M  V30 30 1 32 11
M  V30 31 1 33 14
M  V30 32 1 33 17
M  V30 33 1 33 32
M  V30 34 1 34 3
M  V30 35 1 34 19
M  V30 36 1 35 9
M  V30 37 1 35 24
M  V30 38 2 36 17
M  V30 39 1 37 2
M  V30 40 1 38 3
M  V30 41 1 39 3
M  V30 42 1 40 4
M  V30 43 1 6 41 CFG=3
M  V30 44 1 42 9
M  V30 45 1 43 10
M  V30 46 1 44 11
M  V30 47 1 45 26
M  V30 48 1 46 14
M  V30 49 1 47 14
M  V30 50 1 48 14
M  V30 51 1 49 15
M  V30 52 1 50 15
M  V30 53 1 51 15
M  V30 54 1 52 18
M  V30 55 1 21 53 CFG=3
M  V30 56 1 22 54 CFG=1
M  V30 57 1 23 55 CFG=1
M  V30 58 1 56 24
M  V30 59 1 57 24
M  V30 60 1 58 26
M  V30 61 1 59 27
M  V30 62 1 60 28
M  V30 63 1 61 28
M  V30 64 1 62 29
M  V30 65 1 63 29
M  V30 66 1 64 30
M  V30 67 1 65 30
M  V30 68 1 66 30
M  V30 69 1 32 67 CFG=3
M  V30 70 1 33 68 CFG=3
M  V30 71 1 69 34
M  V30 72 1 70 35
M  V30 END BOND
M  V30 END CTAB
M  END
>  <i_epik_Tot_Q>  (1) 
-1

>  <i_epik_Tot_abs_Q>  (1) 
1

>  <i_i_glide_confnum>  (1) 
1281

>  <i_i_glide_lignum>  (1) 
44

>  <i_i_glide_posenum>  (1) 
399

>  <i_i_glide_rotatable_bonds>  (1) 
12

>  <i_lp_mmshare_version>  (1) 
72125

>  <i_m_source_file_index>  (1) 
19

>  <i_f3d_flags>  (1) 
0

>  <num_sample>  (1) 
100

>  <b_lp_Chiralities_Consistent>  (1) 
1

>  <r_epik_Charging_Adjusted_Penalty>  (1) 
0.37971815023500188

>  <r_epik_Ionization_Penalty>  (1) 
0.19445293645399606

>  <r_epik_Ionization_Penalty_Charging>  (1) 
0.18991606969001057

>  <r_epik_Ionization_Penalty_Neutral>  (1) 
0.004536866763985496

>  <r_epik_State_Penalty>  (1) 
0.18980208054499129

>  <r_glide_ring_energy>  (1) 
1.7561163794185886

>  <r_i_docking_score>  (1) 
-6.5374659875855867

>  <r_i_glide_ecoul>  (1) 
-7.3393916160183039

>  <r_i_glide_eff_state_penalty>  (1) 
0.18980208054499129

>  <r_i_glide_einternal>  (1) 
9.8698822323228974

>  <r_i_glide_emodel>  (1) 
-69.838085720521249

>  <r_i_glide_emodel_strain>  (1) 
0.9232228215866769

>  <r_i_glide_energy>  (1) 
-54.478152859708153

>  <r_i_glide_erotb>  (1) 
0.89642714384868305

>  <r_i_glide_esite>  (1) 
-0.086002788989491541

>  <r_i_glide_evdw>  (1) 
-47.138761243689849

>  <r_i_glide_gscore>  (1) 
-6.7272680681305781

>  <r_i_glide_gscore_strain>  (1) 
0

>  <r_i_glide_hbond>  (1) 
-0.432548931237979

>  <r_i_glide_ligand_efficiency>  (1) 
-0.18159627743293297

>  <r_i_glide_ligand_efficiency_ln>  (1) 
-1.4262984565713686

>  <r_i_glide_ligand_efficiency_sa>  (1) 
-0.59961769675362986

>  <r_i_glide_lipo>  (1) 
-1.8511444692034158

>  <r_i_glide_metal>  (1) 
-0

>  <r_i_glide_rewards>  (1) 
-1.7961522179611358

>  <r_lp_Energy>  (1) 
18.74419

>  <r_lp_tautomer_probability>  (1) 
0.98846045845713826

>  <s_epik_Chemistry_Notes>  (1) 
This compound has an imine and may undergo hydrolysis. This compound contains an acetal/aminal-like group ( X-CH(R)-Y where X, Y are N, S, or O) that may be acid/base labile, releasing an aldehyde.

>  <s_epik_cmdline>  (1) 
J2VwaWtfcHl0aG9uJywgJy1waHQnLCAnMS4wJywgJy1waCcsICc3LjQnLCAnLXRuJywgJzgnLCAnLW1hJywgJzUwMCcsICctaW1hZScsICc8aW5maWxlLm1hZT4nLCAnLW9tYWUnLCAnPG91dGZpbGUubWFlPic=

>  <s_epik_input>  (1) 
W09IXUMoPU8pW0NASF0oW0NIM10pW0NAQEhdMVtDSF09W0NIXVxDKFtDSF09TkMxPU8pPVtDSF1cW0NASF0oW0NIM10pT1tDSDJdW0NIMl1DKD1PKVtOSF1bQ0gyXVtDQEhdKFtDSDNdKVtDQEBIXTJbQ0gyXVtOSF1bTkhdW0NASF0ybjNbY0hdW2NIXWMoW09IXSlbY0hdMw==

>  <s_glide_docking_method>  (1) 
confgen

>  <s_i_glide_gridfile>  (1) 
gpcr_5ht2c_6bqh_protein_autoprepared_prepared

>  <s_lp_Force_Field>  (1) 
S-OPLS

>  <s_lp_Variant>  (1) 
DiffSBDD_18_num_sample_100-4

>  <s_m_source_file>  (1) 
generated__ligand_DiffSBDD_2026-05-06_prepared.sdf

>  <GenAI_Model>  (1) 
DiffSBDD

>  <Protein>  (1) 
GPCR_5HT2C

$$$$
DiffSBDD_64_num_sample_100
     RDKit          3D

  0  0  0  0  0  0  0  0  0  0999 V3000
M  V30 BEGIN CTAB
M  V30 COUNTS 66 68 0 0 1
M  V30 BEGIN ATOM
M  V30 1 C 40.122455 30.670252 52.344527 0
M  V30 2 C 38.879651 28.311601 52.598772 0
M  V30 3 C 41.489032 32.610816 64.954177 0
M  V30 4 C 37.574352 30.044789 56.755048 0
M  V30 5 C 38.657704 31.227606 58.660579 0
M  V30 6 O 41.067363 29.420151 61.144902 0
M  V30 7 N 39.063713 29.075557 53.744995 0
M  V30 8 C 40.775941 30.437967 63.264378 0
M  V30 9 O 40.336561 30.272377 50.060862 0 CHG=-1
M  V30 10 C 41.272173 30.215209 64.583149 0
M  V30 11 C 40.600647 31.804962 62.805944 0
M  V30 12 C 39.183029 33.454447 59.872892 0
M  V30 13 O 39.858855 30.974649 54.696739 0
M  V30 14 C 40.987118 32.871986 63.669775 0
M  V30 15 C 39.682682 30.282775 53.693871 0
M  V30 16 C 37.450596 29.363928 55.637676 0
M  V30 17 C 39.287024 28.681632 51.379419 0
M  V30 18 C 39.164333 26.848560 56.939200 0
M  V30 19 C 40.267409 25.816706 57.159191 0
M  V30 20 C 39.987941 33.504070 61.169578 0
M  V30 21 C 39.650815 27.986878 55.986519 0
M  V30 22 N 40.053847 32.103779 61.510095 0
M  V30 23 C 38.821585 31.403630 61.192090 0
M  V30 24 C 41.621342 31.294410 65.411150 0
M  V30 25 C 40.859141 28.024258 62.961544 0
M  V30 26 C 37.467317 30.735749 57.867380 0
M  V30 27 C 38.561583 28.534001 55.027374 0 CFG=2
M  V30 28 C 36.856824 32.529330 60.105182 0
M  V30 29 C 38.655474 27.323838 58.309923 0
M  V30 30 C 39.940439 29.897592 51.185446 0
M  V30 31 N 40.478324 29.320951 62.415475 0
M  V30 32 C 38.341761 32.135556 59.913348 0 CFG=2
M  V30 33 H 40.622513 31.619345 52.247776 0
M  V30 34 H 38.372314 27.376837 52.776604 0
M  V30 35 H 41.768578 33.432593 65.597396 0
M  V30 36 H 39.226742 31.788148 57.919080 0
M  V30 37 H 39.291387 30.382213 58.926045 0
M  V30 38 H 41.188665 28.528913 60.843808 0
M  V30 39 H 41.398311 29.212967 64.959788 0
M  V30 40 H 38.562756 34.345909 59.767235 0
M  V30 41 H 39.864235 33.466364 59.025828 0
M  V30 42 H 40.885294 33.895751 63.353695 0
M  V30 43 H 36.517281 29.361230 55.097454 0
M  V30 44 H 39.104843 28.026018 50.539868 0
M  V30 45 H 38.353030 26.303554 56.458777 0
M  V30 46 H 41.094728 26.259190 57.714234 0
M  V30 47 H 39.905730 24.952597 57.717739 0
M  V30 48 H 40.646050 25.451894 56.204222 0
M  V30 49 H 39.401833 34.052610 61.905895 0
M  V30 50 H 40.963475 33.975014 61.054146 0
M  V30 51 H 40.430927 27.565097 55.355300 0
M  V30 52 H 40.141264 28.790482 56.537659 0
M  V30 53 H 38.853706 30.337251 61.011515 0
M  V30 54 H 38.122282 31.554217 62.015554 0
M  V30 55 H 42.004841 31.107965 66.404215 0
M  V30 56 H 40.267955 27.764108 63.839471 0
M  V30 57 H 40.665376 27.255395 62.219698 0
M  V30 58 H 41.922586 27.983208 63.196777 0
M  V30 59 H 36.504295 30.986698 58.253651 0
M  V30 60 H 37.987016 27.643907 54.776755 0
M  V30 61 H 36.741208 33.221797 60.939439 0
M  V30 62 H 36.444244 33.020616 59.222492 0
M  V30 63 H 36.234438 31.666703 60.338242 0
M  V30 64 H 39.358372 28.008735 58.785407 0
M  V30 65 H 37.688136 27.813706 58.235785 0
M  V30 66 H 38.511285 26.484894 58.989026 0
M  V30 END ATOM
M  V30 BEGIN BOND
M  V30 1 1 7 2
M  V30 2 2 10 8
M  V30 3 1 11 8
M  V30 4 1 14 3
M  V30 5 2 14 11
M  V30 6 1 15 1
M  V30 7 1 15 7
M  V30 8 2 15 13
M  V30 9 2 16 4
M  V30 10 2 17 2
M  V30 11 1 19 18
M  V30 12 1 20 12
M  V30 13 1 21 18
M  V30 14 1 22 11
M  V30 15 1 22 20
M  V30 16 1 23 22
M  V30 17 2 24 3
M  V30 18 1 24 10
M  V30 19 2 26 4
M  V30 20 1 26 5
M  V30 21 1 27 7
M  V30 22 1 27 16
M  V30 23 1 27 21
M  V30 24 1 29 18
M  V30 25 2 30 1
M  V30 26 1 30 9
M  V30 27 1 30 17
M  V30 28 1 31 6
M  V30 29 1 31 8
M  V30 30 1 31 25
M  V30 31 1 32 5 CFG=3
M  V30 32 1 32 12
M  V30 33 1 32 23
M  V30 34 1 32 28
M  V30 35 1 33 1
M  V30 36 1 34 2
M  V30 37 1 35 3
M  V30 38 1 36 5
M  V30 39 1 37 5
M  V30 40 1 38 6
M  V30 41 1 39 10
M  V30 42 1 40 12
M  V30 43 1 41 12
M  V30 44 1 42 14
M  V30 45 1 43 16
M  V30 46 1 44 17
M  V30 47 1 45 18
M  V30 48 1 46 19
M  V30 49 1 47 19
M  V30 50 1 48 19
M  V30 51 1 49 20
M  V30 52 1 50 20
M  V30 53 1 51 21
M  V30 54 1 52 21
M  V30 55 1 53 23
M  V30 56 1 54 23
M  V30 57 1 55 24
M  V30 58 1 56 25
M  V30 59 1 57 25
M  V30 60 1 58 25
M  V30 61 1 59 26
M  V30 62 1 27 60 CFG=3
M  V30 63 1 61 28
M  V30 64 1 62 28
M  V30 65 1 63 28
M  V30 66 1 64 29
M  V30 67 1 65 29
M  V30 68 1 66 29
M  V30 END BOND
M  V30 END CTAB
M  END
>  <i_epik_Tot_Q>  (1) 
-1

>  <i_epik_Tot_abs_Q>  (1) 
1

>  <i_i_glide_confnum>  (1) 
326

>  <i_i_glide_lignum>  (1) 
161

>  <i_i_glide_posenum>  (1) 
271

>  <i_i_glide_rotatable_bonds>  (1) 
9

>  <i_lp_mmshare_version>  (1) 
72125

>  <i_m_source_file_index>  (1) 
65

>  <i_f3d_flags>  (1) 
0

>  <num_sample>  (1) 
100

>  <b_lp_Chiralities_Consistent>  (1) 
1

>  <r_epik_Charging_Adjusted_Penalty>  (1) 
0.52418754829992387

>  <r_epik_Ionization_Penalty>  (1) 
0.2719134954630722

>  <r_epik_Ionization_Penalty_Charging>  (1) 
0.27149649770889844

>  <r_epik_Ionization_Penalty_Neutral>  (1) 
0.00041699775417375828

>  <r_epik_State_Penalty>  (1) 
0.25269105059102542

>  <r_glide_ring_energy>  (1) 
0

>  <r_i_docking_score>  (1) 
-6.5271995399233722

>  <r_i_glide_ecoul>  (1) 
-4.9571690825040564

>  <r_i_glide_eff_state_penalty>  (1) 
0.25269105059102542

>  <r_i_glide_einternal>  (1) 
7.7249876363637995

>  <r_i_glide_emodel>  (1) 
-47.064392051038624

>  <r_i_glide_emodel_strain>  (1) 
5.3195357753010342

>  <r_i_glide_energy>  (1) 
-39.674804607801804

>  <r_i_glide_erotb>  (1) 
0.62750977655133311

>  <r_i_glide_esite>  (1) 
-0.029967734519725561

>  <r_i_glide_evdw>  (1) 
-34.717635525297744

>  <r_i_glide_gscore>  (1) 
-6.7798905905143974

>  <r_i_glide_gscore_strain>  (1) 
0.32988394382525854

>  <r_i_glide_hbond>  (1) 
-0.32000000000000001

>  <r_i_glide_ligand_efficiency>  (1) 
-0.20397498562260538

>  <r_i_glide_ligand_efficiency_ln>  (1) 
-1.4616179017284119

>  <r_i_glide_ligand_efficiency_sa>  (1) 
-0.64758021350504436

>  <r_i_glide_lipo>  (1) 
-3.6686501987602744

>  <r_i_glide_metal>  (1) 
-0

>  <r_i_glide_rewards>  (1) 
-1.2392092389704938

>  <r_lp_Energy>  (1) 
24.016719999999999

>  <r_lp_tautomer_probability>  (1) 
1

>  <s_epik_Chemistry_Notes>  (1) 
This compound has a N-S or N-O group and may undergo hydrolysis at high or low pH.

>  <s_epik_cmdline>  (1) 
J2VwaWtfcHl0aG9uJywgJy1waHQnLCAnMS4wJywgJy1waCcsICc3LjQnLCAnLXRuJywgJzgnLCAnLW1hJywgJzUwMCcsICctaW1hZScsICc8aW5maWxlLm1hZT4nLCAnLW9tYWUnLCAnPG91dGZpbGUubWFlPic=

>  <s_epik_input>  (1) 
Tz1DMVtDSDJdQyg9TylbQ0hdPVtDSF1OMVtDQEBIXShbQ0gyXVtDSF0oW0NIM10pW0NIM10pW0NIXT1DPVtDSF1bQ0gyXVtDQF0yKFtDSDNdKVtDSDJdW0NIMl1OKFtDSDJdMiljM1tjSF1bY0hdW2NIXVtjSF1jM04oW09IXSlbQ0gzXQ==

>  <s_glide_docking_method>  (1) 
confgen

>  <s_i_glide_gridfile>  (1) 
gpcr_5ht2c_6bqh_protein_autoprepared_prepared

>  <s_lp_Force_Field>  (1) 
S-OPLS

>  <s_lp_Variant>  (1) 
DiffSBDD_64_num_sample_100-1

>  <s_m_source_file>  (1) 
generated__ligand_DiffSBDD_2026-05-06_prepared.sdf

>  <GenAI_Model>  (1) 
DiffSBDD

>  <Protein>  (1) 
GPCR_5HT2C

$$$$
DiffSBDD_85_num_sample_100
     RDKit          3D

  0  0  0  0  0  0  0  0  0  0999 V3000
M  V30 BEGIN CTAB
M  V30 COUNTS 83 87 0 0 1
M  V30 BEGIN ATOM
M  V30 1 C 42.402698 30.351253 65.401031 0
M  V30 2 N 38.421389 29.687486 54.881588 0
M  V30 3 C 40.167077 30.373081 51.503916 0
M  V30 4 Cl 42.667403 32.421432 61.853513 0
M  V30 5 C 40.267305 31.665341 64.994440 0 CFG=1
M  V30 6 C 38.582759 26.904318 58.414527 0
M  V30 7 C 38.627662 29.612234 53.444491 0
M  V30 8 C 40.241846 28.909972 51.036590 0
M  V30 9 O 39.321123 35.593050 62.691197 0
M  V30 10 S 38.914264 30.255520 61.193361 0
M  V30 11 C 38.997611 28.102353 51.429839 0
M  V30 12 O 41.461190 35.121868 63.078785 0 CHG=-1
M  V30 13 C 39.794040 30.520383 52.993834 0
M  V30 14 C 38.391592 31.985701 61.170633 0 CFG=1
M  V30 15 C 37.072149 30.935132 59.352867 0 CFG=1
M  V30 16 C 38.983938 29.422174 58.482777 0 CFG=1
M  V30 17 C 41.328123 31.253127 66.034962 0
M  V30 18 N 39.543813 29.090525 55.600098 0 CHG=1
M  V30 19 C 40.901465 32.418005 63.808096 0 CFG=2
M  V30 20 C 40.087723 26.701861 58.278454 0 CFG=1
M  V30 21 C 38.753332 28.154079 52.941300 0
M  V30 22 C 39.467408 30.421432 64.598287 0
M  V30 23 C 39.163474 27.895133 56.369529 0 CFG=2
M  V30 24 C 40.483349 29.158848 58.816696 0
M  V30 25 C 38.392979 28.226604 57.661801 0 CFG=1
M  V30 26 C 42.975550 31.026994 64.150554 0
M  V30 27 C 40.267393 34.799529 62.894907 0
M  V30 28 C 39.922907 33.282946 62.899961 0 CFG=1
M  V30 29 C 40.358291 27.015745 56.795940 0
M  V30 30 O 35.892731 30.821453 60.122039 0
M  V30 31 C 39.592544 32.899479 61.414078 0
M  V30 32 C 37.771079 32.229489 59.781998 0 CFG=1
M  V30 33 C 41.907173 31.492629 63.131816 0 CFG=2
M  V30 34 C 40.784974 27.709799 59.220615 0
M  V30 35 C 38.041410 29.779528 59.672980 0 CFG=1
M  V30 36 O 36.873607 33.326469 59.786041 0
M  V30 37 H 43.202605 30.175942 66.121109 0
M  V30 38 H 42.006116 29.366559 65.155914 0
M  V30 39 H 38.488105 30.648311 55.193231 0
M  V30 40 H 39.467193 30.915172 50.876839 0
M  V30 41 H 41.120441 30.864914 51.316728 0
M  V30 42 H 39.595326 32.378367 65.453521 0
M  V30 43 H 38.033369 26.094443 57.929662 0
M  V30 44 H 38.267445 26.929088 59.453566 0
M  V30 45 H 37.708622 30.021367 53.053495 0
M  V30 46 H 40.351891 28.885190 49.951114 0
M  V30 47 H 41.129330 28.435752 51.453502 0
M  V30 48 H 38.126349 28.487862 50.906605 0
M  V30 49 H 39.108901 27.066403 51.105929 0
M  V30 50 H 39.545597 31.562888 53.198853 0
M  V30 51 H 40.667696 30.308823 53.595417 0
M  V30 52 H 37.626188 32.124094 61.935951 0
M  V30 53 H 36.795142 30.948036 58.298651 0
M  V30 54 H 38.991074 30.308620 57.848460 0
M  V30 55 H 41.796796 32.148046 66.447693 0
M  V30 56 H 40.862235 30.744424 66.879940 0
M  V30 57 H 39.916416 29.798513 56.215800 0
M  V30 58 H 41.524583 33.143124 64.330526 0
M  V30 59 H 40.361568 25.677008 58.525108 0
M  V30 60 H 39.567525 27.623676 53.430695 0
M  V30 61 H 37.845137 27.598655 53.179367 0
M  V30 62 H 40.079203 29.623119 64.183571 0
M  V30 63 H 38.957392 30.021446 65.474400 0
M  V30 64 H 38.707357 30.632244 63.853405 0
M  V30 65 H 38.522838 27.275335 55.738705 0
M  V30 66 H 41.067380 29.359671 57.925678 0
M  V30 67 H 40.901081 29.845464 59.548423 0
M  V30 68 H 37.339321 28.411309 57.449968 0
M  V30 69 H 43.467391 31.908531 64.543565 0
M  V30 70 H 43.727383 30.396814 63.675739 0
M  V30 71 H 38.977671 33.221539 63.417085 0
M  V30 72 H 41.328761 27.491566 56.651573 0
M  V30 73 H 40.374336 26.097016 56.207968 0
M  V30 74 H 35.427380 31.638101 59.992782 0
M  V30 75 H 40.424826 32.491914 60.858012 0
M  V30 76 H 39.374072 33.813456 60.859369 0
M  V30 77 H 38.562047 32.443343 59.062152 0
M  V30 78 H 41.418530 30.642950 62.659715 0
M  V30 79 H 41.865838 27.560945 59.215580 0
M  V30 80 H 40.454191 27.559789 60.249626 0
M  V30 81 H 37.455491 28.895316 59.892657 0
M  V30 82 H 37.350869 34.109690 60.019633 0
M  V30 83 H 40.225974 28.848076 54.896891 0
M  V30 END ATOM
M  V30 BEGIN BOND
M  V30 1 1 7 2
M  V30 2 1 8 3
M  V30 3 1 11 8
M  V30 4 1 13 3
M  V30 5 1 13 7
M  V30 6 1 14 10
M  V30 7 1 17 1
M  V30 8 1 17 5
M  V30 9 1 18 2
M  V30 10 1 19 5
M  V30 11 1 20 6
M  V30 12 1 21 7
M  V30 13 1 21 11
M  V30 14 1 22 5
M  V30 15 1 23 18
M  V30 16 1 24 16
M  V30 17 1 25 6
M  V30 18 1 25 16
M  V30 19 1 25 23
M  V30 20 1 26 1
M  V30 21 2 27 9
M  V30 22 1 27 12
M  V30 23 1 28 19
M  V30 24 1 28 27
M  V30 25 1 29 20
M  V30 26 1 29 23
M  V30 27 1 30 15
M  V30 28 1 31 14
M  V30 29 1 31 28
M  V30 30 1 32 14
M  V30 31 1 32 15
M  V30 32 1 33 4
M  V30 33 1 33 19
M  V30 34 1 33 26
M  V30 35 1 34 20
M  V30 36 1 34 24
M  V30 37 1 35 10
M  V30 38 1 35 15
M  V30 39 1 35 16
M  V30 40 1 36 32
M  V30 41 1 37 1
M  V30 42 1 38 1
M  V30 43 1 39 2
M  V30 44 1 40 3
M  V30 45 1 41 3
M  V30 46 1 5 42 CFG=1
M  V30 47 1 43 6
M  V30 48 1 44 6
M  V30 49 1 45 7
M  V30 50 1 46 8
M  V30 51 1 47 8
M  V30 52 1 48 11
M  V30 53 1 49 11
M  V30 54 1 50 13
M  V30 55 1 51 13
M  V30 56 1 14 52 CFG=1
M  V30 57 1 15 53 CFG=3
M  V30 58 1 16 54 CFG=3
M  V30 59 1 55 17
M  V30 60 1 56 17
M  V30 61 1 57 18
M  V30 62 1 19 58 CFG=1
M  V30 63 1 20 59 CFG=1
M  V30 64 1 60 21
M  V30 65 1 61 21
M  V30 66 1 62 22
M  V30 67 1 63 22
M  V30 68 1 64 22
M  V30 69 1 23 65 CFG=3
M  V30 70 1 66 24
M  V30 71 1 67 24
M  V30 72 1 25 68 CFG=3
M  V30 73 1 69 26
M  V30 74 1 70 26
M  V30 75 1 28 71 CFG=1
M  V30 76 1 72 29
M  V30 77 1 73 29
M  V30 78 1 74 30
M  V30 79 1 75 31
M  V30 80 1 76 31
M  V30 81 1 32 77 CFG=3
M  V30 82 1 33 78 CFG=3
M  V30 83 1 79 34
M  V30 84 1 80 34
M  V30 85 1 35 81 CFG=1
M  V30 86 1 82 36
M  V30 87 1 83 18
M  V30 END BOND
M  V30 END CTAB
M  END
>  <i_epik_Tot_Q>  (1) 
0

>  <i_epik_Tot_abs_Q>  (1) 
2

>  <i_i_glide_confnum>  (1) 
502

>  <i_i_glide_lignum>  (1) 
220

>  <i_i_glide_posenum>  (1) 
269

>  <i_i_glide_rotatable_bonds>  (1) 
10

>  <i_lp_mmshare_version>  (1) 
72125

>  <i_m_source_file_index>  (1) 
86

>  <i_f3d_flags>  (1) 
0

>  <num_sample>  (1) 
100

>  <b_lp_Chiralities_Consistent>  (1) 
1

>  <r_epik_Charging_Adjusted_Penalty>  (1) 
0.24139881983135253

>  <r_epik_Ionization_Penalty>  (1) 
0.013577590547947769

>  <r_epik_Ionization_Penalty_Charging>  (1) 
0.013577468157686226

>  <r_epik_Ionization_Penalty_Neutral>  (1) 
1.223902615442005e-07

>  <r_epik_State_Penalty>  (1) 
0.22782135167366629

>  <r_glide_ring_energy>  (1) 
0.086842340695230336

>  <r_i_docking_score>  (1) 
-6.5233654816809308

>  <r_i_glide_ecoul>  (1) 
-0.74282051614987021

>  <r_i_glide_eff_state_penalty>  (1) 
0.22782135167366629

>  <r_i_glide_einternal>  (1) 
25.598028144548326

>  <r_i_glide_emodel>  (1) 
-33.351231911529439

>  <r_i_glide_emodel_strain>  (1) 
0.60768849865884533

>  <r_i_glide_energy>  (1) 
-30.074584721346028

>  <r_i_glide_erotb>  (1) 
0.49083612240102314

>  <r_i_glide_esite>  (1) 
0

>  <r_i_glide_evdw>  (1) 
-29.331764205196158

>  <r_i_glide_gscore>  (1) 
-6.7511868333545975

>  <r_i_glide_gscore_strain>  (1) 
0

>  <r_i_glide_hbond>  (1) 
0

>  <r_i_glide_ligand_efficiency>  (1) 
-0.1812045967133592

>  <r_i_glide_ligand_efficiency_ln>  (1) 
-1.4232221071346176

>  <r_i_glide_ligand_efficiency_sa>  (1) 
-0.59832439551280259

>  <r_i_glide_lipo>  (1) 
-4.6604852480858403

>  <r_i_glide_metal>  (1) 
-0

>  <r_i_glide_rewards>  (1) 
-1.0035264199874923

>  <r_lp_Energy>  (1) 
69.240732999999992

>  <s_epik_cmdline>  (1) 
J2VwaWtfcHl0aG9uJywgJy1waHQnLCAnMS4wJywgJy1waCcsICc3LjQnLCAnLXRuJywgJzgnLCAnLW1hJywgJzUwMCcsICctaW1hZScsICc8aW5maWxlLm1hZT4nLCAnLW9tYWUnLCAnPG91dGZpbGUubWFlPic=

>  <s_epik_input>  (1) 
W0NIM11bQ0BIXTFbQ0gyXVtDSDJdW0NIMl1bQ0BIXShDbClbQ0BIXTFbQ0BASF0oQyg9TylbT0hdKVtDSDJdW0NAQEhdMlNbQ0BASF0oW0NAQEhdKFtPSF0pW0NASF0yW09IXSlbQ0BASF0oW0NIMl1bQ0gyXTMpW0NASF0oW0NIMl1bQ0BIXTM0KVtDQEhdKFtDSDJdNClbTkhdW05IXVtDSF01W0NIMl1bQ0gyXVtDSDJdW0NIMl1bQ0gyXTU=

>  <s_glide_docking_method>  (1) 
confgen

>  <s_i_glide_gridfile>  (1) 
gpcr_5ht2c_6bqh_protein_autoprepared_prepared

>  <s_lp_Force_Field>  (1) 
S-OPLS

>  <s_lp_Variant>  (1) 
DiffSBDD_85_num_sample_100-1

>  <s_m_source_file>  (1) 
generated__ligand_DiffSBDD_2026-05-06_prepared.sdf

>  <GenAI_Model>  (1) 
DiffSBDD

>  <Protein>  (1) 
GPCR_5HT2C

$$$$
DiffSBDD_1_num_sample_100
     RDKit          3D

  0  0  0  0  0  0  0  0  0  0999 V3000
M  V30 BEGIN CTAB
M  V30 COUNTS 63 66 0 0 1
M  V30 BEGIN ATOM
M  V30 1 C 38.877711 36.730817 61.435428 0
M  V30 2 C 38.927128 28.093829 56.947681 0
M  V30 3 O 39.304225 38.932515 61.453500 0
M  V30 4 C 38.090617 29.880565 58.543078 0 CFG=1
M  V30 5 C 39.156771 35.311908 61.742807 0
M  V30 6 C 36.921728 31.845852 59.346771 0
M  V30 7 C 37.560741 27.842557 54.305372 0
M  V30 8 C 39.126928 25.796556 57.218168 0
M  V30 9 N 39.692132 26.167658 55.894094 0 CHG=1
M  V30 10 C 39.190542 30.655111 62.130625 0
M  V30 11 C 38.184905 34.250484 61.194375 0
M  V30 12 C 39.081175 28.087191 54.376430 0 CFG=2
M  V30 13 C 39.701769 27.645777 55.736156 0 CFG=1
M  V30 14 C 37.665623 31.769860 60.694688 0 CFG=2
M  V30 15 C 39.469569 32.166240 62.208935 0
M  V30 16 C 39.641537 37.688294 61.847593 0
M  V30 17 N 37.671507 31.251351 58.253554 0
M  V30 18 C 38.865343 29.381195 57.339448 0
M  V30 19 O 40.127232 34.958267 62.411610 0
M  V30 20 C 39.372933 29.569691 54.050980 0
M  V30 21 C 38.055898 38.668002 60.691633 0
M  V30 22 C 38.962693 29.865585 59.811184 0
M  V30 23 C 38.257010 26.970814 57.680234 0
M  V30 24 N 38.268556 30.450522 60.986131 0 CFG=1 CHG=1
M  V30 25 O 36.659739 31.807944 61.682971 0
M  V30 26 C 37.718604 37.096656 60.612853 0
M  V30 27 C 38.747512 32.814339 61.009021 0 CFG=2
M  V30 28 O 37.067405 28.021535 52.998062 0
M  V30 29 H 37.212487 29.250478 58.694185 0
M  V30 30 H 36.668958 32.878965 59.104553 0
M  V30 31 H 35.967411 31.322422 59.424772 0
M  V30 32 H 37.067454 28.563592 54.953117 0
M  V30 33 H 37.284338 26.845068 54.648620 0
M  V30 34 H 39.956944 25.658958 57.913408 0
M  V30 35 H 38.576351 24.855629 57.172844 0
M  V30 36 H 39.099301 25.775286 55.176639 0
M  V30 37 H 40.109873 30.074147 62.038407 0
M  V30 38 H 38.699192 30.326062 63.047598 0
M  V30 39 H 37.813152 34.579586 60.225721 0
M  V30 40 H 37.319482 34.237868 61.853436 0
M  V30 41 H 39.554958 27.486990 53.598088 0
M  V30 42 H 40.731488 27.989803 55.839153 0
M  V30 43 H 40.539914 32.375367 62.194811 0
M  V30 44 H 39.070468 32.561790 63.141788 0
M  V30 45 H 40.537314 37.621394 62.448706 0
M  V30 46 H 37.013933 31.257194 57.459631 0
M  V30 47 H 39.390590 30.132094 56.767308 0
M  V30 48 H 38.689085 30.238391 54.575243 0
M  V30 49 H 40.380979 29.875104 54.324772 0
M  V30 50 H 39.248403 29.765957 52.985203 0
M  V30 51 H 37.232926 39.200808 61.169982 0
M  V30 52 H 38.155515 39.086785 59.689335 0
M  V30 53 H 39.264220 28.845983 60.053983 0
M  V30 54 H 39.877171 30.421216 59.626173 0
M  V30 55 H 38.267033 27.083671 58.763522 0
M  V30 56 H 37.227246 26.863919 57.335760 0
M  V30 57 H 36.124226 32.574228 61.526362 0
M  V30 58 H 37.782285 36.711151 59.595008 0
M  V30 59 H 36.767277 36.838135 61.080569 0
M  V30 60 H 39.447389 32.834614 60.171023 0
M  V30 61 H 37.264972 27.261107 52.467292 0
M  V30 62 H 40.624385 25.787955 55.794864 0
M  V30 63 H 37.525452 29.822905 61.249364 0
M  V30 END ATOM
M  V30 BEGIN BOND
M  V30 1 1 5 1
M  V30 2 1 9 8
M  V30 3 1 11 5
M  V30 4 1 12 7
M  V30 5 1 13 2
M  V30 6 1 13 9
M  V30 7 1 13 12
M  V30 8 1 14 6
M  V30 9 1 15 10
M  V30 10 2 16 1
M  V30 11 1 16 3
M  V30 12 1 17 4
M  V30 13 1 17 6
M  V30 14 2 18 2
M  V30 15 1 18 4
M  V30 16 2 19 5
M  V30 17 1 20 12
M  V30 18 1 21 3
M  V30 19 1 22 4
M  V30 20 1 23 2
M  V30 21 1 23 8
M  V30 22 1 24 10
M  V30 23 1 24 14
M  V30 24 1 24 22
M  V30 25 1 14 25 CFG=1
M  V30 26 1 26 1
M  V30 27 1 26 21
M  V30 28 1 27 11
M  V30 29 1 27 14
M  V30 30 1 27 15
M  V30 31 1 28 7
M  V30 32 1 4 29 CFG=1
M  V30 33 1 30 6
M  V30 34 1 31 6
M  V30 35 1 32 7
M  V30 36 1 33 7
M  V30 37 1 34 8
M  V30 38 1 35 8
M  V30 39 1 36 9
M  V30 40 1 37 10
M  V30 41 1 38 10
M  V30 42 1 39 11
M  V30 43 1 40 11
M  V30 44 1 12 41 CFG=3
M  V30 45 1 13 42 CFG=1
M  V30 46 1 43 15
M  V30 47 1 44 15
M  V30 48 1 45 16
M  V30 49 1 46 17
M  V30 50 1 47 18
M  V30 51 1 48 20
M  V30 52 1 49 20
M  V30 53 1 50 20
M  V30 54 1 51 21
M  V30 55 1 52 21
M  V30 56 1 53 22
M  V30 57 1 54 22
M  V30 58 1 55 23
M  V30 59 1 56 23
M  V30 60 1 57 25
M  V30 61 1 58 26
M  V30 62 1 59 26
M  V30 63 1 27 60 CFG=3
M  V30 64 1 61 28
M  V30 65 1 62 9
M  V30 66 1 24 63 CFG=1
M  V30 END BOND
M  V30 END CTAB
M  END
>  <i_epik_Tot_Q>  (1) 
2

>  <i_epik_Tot_abs_Q>  (1) 
2

>  <i_i_glide_confnum>  (1) 
116

>  <i_i_glide_lignum>  (1) 
12

>  <i_i_glide_posenum>  (1) 
136

>  <i_i_glide_rotatable_bonds>  (1) 
8

>  <i_lp_mmshare_version>  (1) 
72125

>  <i_m_source_file_index>  (1) 
2

>  <i_f3d_flags>  (1) 
0

>  <num_sample>  (1) 
100

>  <b_lp_Chiralities_Consistent>  (1) 
1

>  <r_epik_Charging_Adjusted_Penalty>  (1) 
2.3622130296898831

>  <r_epik_Ionization_Penalty>  (1) 
1.4312966064593899

>  <r_epik_Ionization_Penalty_Charging>  (1) 
1.1852885594971458

>  <r_epik_Ionization_Penalty_Neutral>  (1) 
0.24600804696224418

>  <r_epik_State_Penalty>  (1) 
1.176924470192737

>  <r_glide_ring_energy>  (1) 
0

>  <r_i_docking_score>  (1) 
-6.5161552058800387

>  <r_i_glide_ecoul>  (1) 
-9.706030693580086

>  <r_i_glide_eff_state_penalty>  (1) 
1.176924470192737

>  <r_i_glide_einternal>  (1) 
6.3588342961920574

>  <r_i_glide_emodel>  (1) 
-60.161840791421689

>  <r_i_glide_emodel_strain>  (1) 
0.77695111077032664

>  <r_i_glide_energy>  (1) 
-39.140752331235959

>  <r_i_glide_erotb>  (1) 
0.75687532201182384

>  <r_i_glide_esite>  (1) 
0

>  <r_i_glide_evdw>  (1) 
-29.434721637655876

>  <r_i_glide_gscore>  (1) 
-7.6930796760727755

>  <r_i_glide_gscore_strain>  (1) 
0

>  <r_i_glide_hbond>  (1) 
-0.59538798161595108

>  <r_i_glide_ligand_efficiency>  (1) 
-0.23271982878142997

>  <r_i_glide_ligand_efficiency_ln>  (1) 
-1.5041199441474453

>  <r_i_glide_ligand_efficiency_sa>  (1) 
-0.70667446561448266

>  <r_i_glide_lipo>  (1) 
-3.0703470668989503

>  <r_i_glide_metal>  (1) 
-0

>  <r_i_glide_rewards>  (1) 
-1.8565792636498926

>  <r_lp_Energy>  (1) 
21.512373

>  <s_epik_cmdline>  (1) 
J2VwaWtfcHl0aG9uJywgJy1waHQnLCAnMS4wJywgJy1waCcsICc3LjQnLCAnLXRuJywgJzgnLCAnLW1hJywgJzUwMCcsICctaW1hZScsICc8aW5maWxlLm1hZT4nLCAnLW9tYWUnLCAnPG91dGZpbGUubWFlPic=

>  <s_epik_input>  (1) 
W0NIMl0xW0NIMl1PW0NIXT1DMUMoPU8pW0NIMl1bQ0BIXTJbQ0gyXVtDSDJdTihbQ0BAXTIzW09IXSlbQ0gyXVtDQEBIXShbTkhdW0NIMl0zKVxbQ0hdPUM0XFtDQEBIXShbTkhdW0NIMl1bQ0gyXTQpW0NASF0oW0NIM10pW0NIMl1bT0hd

>  <s_glide_docking_method>  (1) 
confgen

>  <s_i_glide_gridfile>  (1) 
gpcr_5ht2c_6bqh_protein_autoprepared_prepared

>  <s_lp_Force_Field>  (1) 
S-OPLS

>  <s_lp_Variant>  (1) 
DiffSBDD_1_num_sample_100-6

>  <s_m_source_file>  (1) 
generated__ligand_DiffSBDD_2026-05-06_prepared.sdf

>  <GenAI_Model>  (1) 
DiffSBDD

>  <Protein>  (1) 
GPCR_5HT2C

$$$$
DiffSBDD_72_num_sample_100
     RDKit          3D

  0  0  0  0  0  0  0  0  0  0999 V3000
M  V30 BEGIN CTAB
M  V30 COUNTS 68 72 0 0 1
M  V30 BEGIN ATOM
M  V30 1 C 41.708969 35.221401 64.176924 0
M  V30 2 C 36.587784 31.639567 59.880359 0
M  V30 3 C 38.517341 29.238309 56.589629 0 CFG=1
M  V30 4 C 38.643744 34.598342 60.893450 0
M  V30 5 C 38.267171 32.278785 58.089598 0 CFG=2
M  V30 6 O 35.928058 30.821421 60.517488 0
M  V30 7 C 38.547432 29.888065 55.189593 0
M  V30 8 C 37.287146 31.258582 58.620041 0 CFG=1
M  V30 9 N 38.241808 33.336033 60.276002 0
M  V30 10 O 40.667025 26.522190 57.853315 0
M  V30 11 O 41.467360 30.208004 62.253590 0
M  V30 12 C 37.800247 27.586241 54.273412 0
M  V30 13 C 40.342089 27.743096 57.232798 0 CFG=1
M  V30 14 C 38.971156 27.757639 56.549813 0 CFG=2
M  V30 15 C 38.782193 30.947338 58.605095 0 CFG=1
M  V30 16 C 41.042153 32.484044 64.296648 0
M  V30 17 O 40.681194 35.394806 62.002635 0
M  V30 18 C 36.148183 33.339514 61.675227 0
M  V30 19 C 38.742746 28.021446 59.870246 0
M  V30 20 C 39.443145 29.981093 57.603569 0 CFG=1
M  V30 21 C 41.016870 34.625187 63.104442 0
M  V30 22 C 42.065068 34.456750 65.304824 0
M  V30 23 C 40.345577 28.899718 58.237583 0 CFG=1
M  V30 24 C 41.734609 33.089786 65.364776 0
M  V30 25 C 38.987670 27.132655 55.135127 0
M  V30 26 C 40.689267 31.006032 64.354997 0
M  V30 27 O 38.607533 33.451187 58.866779 0
M  V30 28 C 36.790439 33.088634 60.300435 0 CFG=2
M  V30 29 C 41.693917 30.246746 63.485023 0
M  V30 30 C 40.678126 33.248140 63.170948 0
M  V30 31 O 40.023996 28.551421 59.584126 0
M  V30 32 C 40.167306 34.765142 60.830682 0
M  V30 33 O 42.669227 29.724853 64.067393 0 CHG=-1
M  V30 34 C 37.705318 29.121712 54.154401 0
M  V30 35 H 41.969904 36.267525 64.132472 0
M  V30 36 H 37.484247 29.215395 56.926177 0
M  V30 37 H 38.137487 35.445899 60.429967 0
M  V30 38 H 38.362952 34.594232 61.945174 0
M  V30 39 H 38.295660 32.472865 57.019859 0
M  V30 40 H 38.197996 30.919486 55.241849 0
M  V30 41 H 39.578422 29.935298 54.835604 0
M  V30 42 H 36.667422 30.759278 57.890343 0
M  V30 43 H 40.766566 26.705424 58.777509 0
M  V30 44 H 36.877147 27.192764 54.693254 0
M  V30 45 H 37.873416 27.143030 53.278998 0
M  V30 46 H 41.109188 27.953394 56.486358 0
M  V30 47 H 38.266276 27.190319 57.158835 0
M  V30 48 H 39.291188 30.985132 59.567256 0
M  V30 49 H 35.119817 32.978060 61.721564 0
M  V30 50 H 36.730835 32.821485 62.434171 0
M  V30 51 H 36.109170 34.401109 61.918697 0
M  V30 52 H 38.667431 27.940337 60.953294 0
M  V30 53 H 37.926513 28.653254 59.525516 0
M  V30 54 H 38.616385 27.025117 59.451674 0
M  V30 55 H 40.107656 30.598687 57.004791 0
M  V30 56 H 42.595888 34.919209 66.123103 0
M  V30 57 H 41.366021 29.274112 58.310912 0
M  V30 58 H 42.013868 32.504903 66.229330 0
M  V30 59 H 39.008933 26.045045 55.211243 0
M  V30 60 H 39.900194 27.410780 54.614618 0
M  V30 61 H 40.721204 30.635871 65.379997 0
M  V30 62 H 39.679018 30.839651 63.978829 0
M  V30 63 H 36.305238 33.739899 59.572323 0
M  V30 64 H 40.145015 32.773386 62.363351 0
M  V30 65 H 40.667484 33.816194 60.653506 0
M  V30 66 H 40.406777 35.382069 59.969729 0
M  V30 67 H 36.667413 29.427381 54.257660 0
M  V30 68 H 38.008159 29.432079 53.153922 0
M  V30 END ATOM
M  V30 BEGIN BOND
M  V30 1 2 6 2
M  V30 2 1 7 3
M  V30 3 1 8 2
M  V30 4 1 8 5
M  V30 5 1 9 4
M  V30 6 1 13 10
M  V30 7 1 14 3
M  V30 8 1 14 13
M  V30 9 1 15 5
M  V30 10 1 15 8
M  V30 11 1 20 3
M  V30 12 1 20 15
M  V30 13 2 21 1
M  V30 14 1 21 17
M  V30 15 1 22 1
M  V30 16 1 23 13
M  V30 17 1 23 20
M  V30 18 1 24 16
M  V30 19 2 24 22
M  V30 20 1 25 12
M  V30 21 1 25 14
M  V30 22 1 26 16
M  V30 23 1 27 5
M  V30 24 1 27 9
M  V30 25 1 28 2
M  V30 26 1 28 9
M  V30 27 1 28 18
M  V30 28 2 29 11
M  V30 29 1 29 26
M  V30 30 2 30 16
M  V30 31 1 30 21
M  V30 32 1 31 19
M  V30 33 1 31 23
M  V30 34 1 32 4
M  V30 35 1 32 17
M  V30 36 1 33 29
M  V30 37 1 34 7
M  V30 38 1 34 12
M  V30 39 1 35 1
M  V30 40 1 3 36 CFG=1
M  V30 41 1 37 4
M  V30 42 1 38 4
M  V30 43 1 5 39 CFG=3
M  V30 44 1 40 7
M  V30 45 1 41 7
M  V30 46 1 8 42 CFG=3
M  V30 47 1 43 10
M  V30 48 1 44 12
M  V30 49 1 45 12
M  V30 50 1 13 46 CFG=3
M  V30 51 1 14 47 CFG=1
M  V30 52 1 15 48 CFG=1
M  V30 53 1 49 18
M  V30 54 1 50 18
M  V30 55 1 51 18
M  V30 56 1 52 19
M  V30 57 1 53 19
M  V30 58 1 54 19
M  V30 59 1 20 55 CFG=3
M  V30 60 1 56 22
M  V30 61 1 23 57 CFG=1
M  V30 62 1 58 24
M  V30 63 1 59 25
M  V30 64 1 60 25
M  V30 65 1 61 26
M  V30 66 1 62 26
M  V30 67 1 28 63 CFG=3
M  V30 68 1 64 30
M  V30 69 1 65 32
M  V30 70 1 66 32
M  V30 71 1 67 34
M  V30 72 1 68 34
M  V30 END BOND
M  V30 END CTAB
M  END
>  <i_epik_Tot_Q>  (1) 
-1

>  <i_epik_Tot_abs_Q>  (1) 
1

>  <i_i_glide_confnum>  (1) 
516

>  <i_i_glide_lignum>  (1) 
181

>  <i_i_glide_posenum>  (1) 
248

>  <i_i_glide_rotatable_bonds>  (1) 
9

>  <i_lp_mmshare_version>  (1) 
72125

>  <i_m_source_file_index>  (1) 
73

>  <i_f3d_flags>  (1) 
0

>  <num_sample>  (1) 
100

>  <b_lp_Chiralities_Consistent>  (1) 
1

>  <r_epik_Charging_Adjusted_Penalty>  (1) 
0.00040534896778007237

>  <r_epik_Ionization_Penalty>  (1) 
0.00058627792093801146

>  <r_epik_Ionization_Penalty_Charging>  (1) 
0.00040534896778007237

>  <r_epik_Ionization_Penalty_Neutral>  (1) 
0.00018092895315793904

>  <r_epik_State_Penalty>  (1) 
-0

>  <r_glide_ring_energy>  (1) 
0.98737463910041545

>  <r_i_docking_score>  (1) 
-6.5157055680449121

>  <r_i_glide_ecoul>  (1) 
-4.944412371598939

>  <r_i_glide_eff_state_penalty>  (1) 
-0

>  <r_i_glide_einternal>  (1) 
21.308013088368249

>  <r_i_glide_emodel>  (1) 
-44.308200535138596

>  <r_i_glide_emodel_strain>  (1) 
1.7261511783537742

>  <r_i_glide_energy>  (1) 
-43.071427289709703

>  <r_i_glide_erotb>  (1) 
0.54329249107916178

>  <r_i_glide_esite>  (1) 
-0.074756711551314359

>  <r_i_glide_evdw>  (1) 
-38.127014918110767

>  <r_i_glide_gscore>  (1) 
-6.5157055680449121

>  <r_i_glide_gscore_strain>  (1) 
0

>  <r_i_glide_hbond>  (1) 
-0.18234859296274683

>  <r_i_glide_ligand_efficiency>  (1) 
-0.19163839906014446

>  <r_i_glide_ligand_efficiency_ln>  (1) 
-1.4395021193318329

>  <r_i_glide_ligand_efficiency_sa>  (1) 
-0.62083401917316794

>  <r_i_glide_lipo>  (1) 
-3.3293619209263516

>  <r_i_glide_metal>  (1) 
-0

>  <r_i_glide_rewards>  (1) 
-0.82451823203828134

>  <r_lp_Energy>  (1) 
56.228467999999999

>  <r_lp_tautomer_probability>  (1) 
1

>  <s_epik_Chemistry_Notes>  (1) 
This compound has a N-S or N-O group and may undergo hydrolysis at high or low pH.

>  <s_epik_cmdline>  (1) 
J2VwaWtfcHl0aG9uJywgJy1waHQnLCAnMS4wJywgJy1waCcsICc3LjQnLCAnLXRuJywgJzgnLCAnLW1hJywgJzUwMCcsICctaW1hZScsICc8aW5maWxlLm1hZT4nLCAnLW9tYWUnLCAnPG91dGZpbGUubWFlPic=

>  <s_epik_input>  (1) 
Tz1DKFtPSF0pW0NIMl1jMVtjSF1bY0hdW2NIXWMoW2NIXTEpT1tDSDJdW0NIMl1OKE8yKVtDQEhdKFtDSDNdKUMoPU8pW0NAQEhdKFtDQEBIXTIzKVtDQEhdM1tDQEhdNFtDQEBIXShPW0NIM10pW0NAQEhdKFtPSF0pW0NAQEhdKFtDQEBIXTQ1KVtDSDJdW0NIMl1bQ0gyXVtDSDJdNQ==

>  <s_glide_docking_method>  (1) 
confgen

>  <s_i_glide_gridfile>  (1) 
gpcr_5ht2c_6bqh_protein_autoprepared_prepared

>  <s_lp_Force_Field>  (1) 
S-OPLS

>  <s_lp_Variant>  (1) 
DiffSBDD_72_num_sample_100-1

>  <s_m_source_file>  (1) 
generated__ligand_DiffSBDD_2026-05-06_prepared.sdf

>  <GenAI_Model>  (1) 
DiffSBDD

>  <Protein>  (1) 
GPCR_5HT2C

$$$$
DiffSBDD_60_num_sample_100
     RDKit          3D

  0  0  0  0  0  0  0  0  0  0999 V3000
M  V30 BEGIN CTAB
M  V30 COUNTS 75 77 0 0 1
M  V30 BEGIN ATOM
M  V30 1 C 38.748133 36.870614 62.718432 0
M  V30 2 C 39.566856 29.425712 51.063758 0
M  V30 3 C 39.068547 28.299077 51.738244 0
M  V30 4 C 37.935433 31.757128 60.175376 0
M  V30 5 N 36.714703 36.428815 62.496735 0
M  V30 6 C 41.177675 35.484389 61.626538 0
M  V30 7 C 38.595704 31.671513 55.893716 0
M  V30 8 C 35.619421 30.983573 59.456400 0
M  V30 9 C 37.069761 31.201120 59.026544 0 CFG=2
M  V30 10 C 36.591128 34.611523 60.782008 0
M  V30 11 C 38.533094 30.163287 56.270515 0 CFG=1
M  V30 12 O 39.276488 33.127195 62.239639 0
M  V30 13 C 39.476254 28.635048 58.260649 0 CFG=1
M  V30 14 C 39.324951 28.322522 59.763514 0
M  V30 15 C 38.486511 33.176283 59.899572 0 CFG=1
M  V30 16 N 37.399286 34.159028 59.631229 0 CHG=1
M  V30 17 C 39.510024 29.328426 55.402984 0
M  V30 18 C 37.340788 35.588501 61.624648 0
M  V30 19 C 39.813886 35.154938 61.004929 0 CFG=1
M  V30 20 C 39.554783 33.628393 60.941615 0 CFG=1
M  V30 21 O 38.667075 27.220413 51.033323 0
M  V30 22 C 39.006353 28.281754 53.143959 0
M  V30 23 C 38.678178 35.832370 61.730948 0
M  V30 24 C 41.667699 27.649190 58.053509 0
M  V30 25 C 43.082451 28.045902 57.652051 0
M  V30 26 C 40.012052 30.536734 51.793571 0
M  V30 27 C 38.773851 29.952203 57.817647 0 CFG=2
M  V30 28 O 37.533762 29.957192 58.523627 0
M  V30 29 N 37.547962 37.221309 63.174755 0
M  V30 30 C 37.630754 32.109659 54.783434 0
M  V30 31 C 39.467348 29.389768 53.880625 0
M  V30 32 C 39.970060 30.517979 53.199602 0
M  V30 33 O 40.864911 28.818500 58.013389 0
M  V30 34 H 39.621778 37.366714 63.116904 0
M  V30 35 H 39.613415 29.434819 49.983518 0
M  V30 36 H 37.371973 31.743711 61.108343 0
M  V30 37 H 38.776940 31.091893 60.358939 0
M  V30 38 H 41.375194 36.557301 61.610808 0
M  V30 39 H 41.969444 35.009895 61.053390 0
M  V30 40 H 41.256191 35.144321 62.659548 0
M  V30 41 H 39.614929 31.966674 55.656188 0
M  V30 42 H 38.369966 32.300218 56.742906 0
M  V30 43 H 35.103586 31.931363 59.607048 0
M  V30 44 H 35.564054 30.420882 60.385946 0
M  V30 45 H 35.076540 30.427277 58.687809 0
M  V30 46 H 37.067333 31.918339 58.221271 0
M  V30 47 H 35.696924 35.079347 60.372316 0
M  V30 48 H 36.256711 33.765035 61.382065 0
M  V30 49 H 37.530458 29.790769 56.058942 0
M  V30 50 H 39.957305 33.415065 62.830791 0
M  V30 51 H 39.067003 27.788989 57.707333 0
M  V30 52 H 38.281940 28.251323 60.068221 0
M  V30 53 H 39.814667 29.077072 60.378535 0
M  V30 54 H 39.772574 27.361172 60.001678 0
M  V30 55 H 39.020181 33.124830 58.949101 0
M  V30 56 H 37.804316 34.981963 59.207558 0
M  V30 57 H 40.532535 29.597162 55.666942 0
M  V30 58 H 39.415752 28.273910 55.652435 0
M  V30 59 H 39.868033 35.522574 59.982057 0
M  V30 60 H 40.483105 33.134947 60.653989 0
M  V30 61 H 38.637600 27.405191 53.657044 0
M  V30 62 H 41.278086 26.895174 57.367820 0
M  V30 63 H 41.700198 27.223447 59.053963 0
M  V30 64 H 43.770454 27.200981 57.693727 0
M  V30 65 H 43.469949 28.858682 58.253254 0
M  V30 66 H 43.080423 28.442159 56.653563 0
M  V30 67 H 40.402155 31.400921 51.277620 0
M  V30 68 H 39.408031 30.760530 58.179675 0
M  V30 69 H 35.717365 36.460620 62.654991 0
M  V30 70 H 37.467643 33.185476 54.832512 0
M  V30 71 H 36.667201 31.619979 54.883155 0
M  V30 72 H 37.987140 31.901078 53.783231 0
M  V30 73 H 40.343588 31.361406 53.753555 0
M  V30 74 H 38.017735 26.689690 51.472328 0
M  V30 75 H 36.772614 33.741162 58.955623 0
M  V30 END ATOM
M  V30 BEGIN BOND
M  V30 1 2 3 2
M  V30 2 1 9 4
M  V30 3 1 9 8
M  V30 4 1 11 7
M  V30 5 1 14 13
M  V30 6 1 15 4
M  V30 7 1 16 10
M  V30 8 1 16 15
M  V30 9 1 17 11
M  V30 10 1 18 5
M  V30 11 1 18 10
M  V30 12 1 19 6
M  V30 13 1 20 12
M  V30 14 1 20 15
M  V30 15 1 20 19
M  V30 16 1 21 3
M  V30 17 1 22 3
M  V30 18 1 23 1
M  V30 19 2 23 18
M  V30 20 1 23 19
M  V30 21 1 25 24
M  V30 22 1 26 2
M  V30 23 1 27 11
M  V30 24 1 27 13
M  V30 25 1 28 9
M  V30 26 1 28 27
M  V30 27 2 29 1
M  V30 28 1 29 5
M  V30 29 1 30 7
M  V30 30 1 31 17
M  V30 31 2 31 22
M  V30 32 2 32 26
M  V30 33 1 32 31
M  V30 34 1 33 13
M  V30 35 1 33 24
M  V30 36 1 34 1
M  V30 37 1 35 2
M  V30 38 1 36 4
M  V30 39 1 37 4
M  V30 40 1 38 6
M  V30 41 1 39 6
M  V30 42 1 40 6
M  V30 43 1 41 7
M  V30 44 1 42 7
M  V30 45 1 43 8
M  V30 46 1 44 8
M  V30 47 1 45 8
M  V30 48 1 9 46 CFG=3
M  V30 49 1 47 10
M  V30 50 1 48 10
M  V30 51 1 11 49 CFG=3
M  V30 52 1 50 12
M  V30 53 1 13 51 CFG=3
M  V30 54 1 52 14
M  V30 55 1 53 14
M  V30 56 1 54 14
M  V30 57 1 15 55 CFG=3
M  V30 58 1 56 16
M  V30 59 1 57 17
M  V30 60 1 58 17
M  V30 61 1 19 59 CFG=3
M  V30 62 1 20 60 CFG=3
M  V30 63 1 61 22
M  V30 64 1 62 24
M  V30 65 1 63 24
M  V30 66 1 64 25
M  V30 67 1 65 25
M  V30 68 1 66 25
M  V30 69 1 67 26
M  V30 70 1 27 68 CFG=1
M  V30 71 1 69 5
M  V30 72 1 70 30
M  V30 73 1 71 30
M  V30 74 1 72 30
M  V30 75 1 73 32
M  V30 76 1 74 21
M  V30 77 1 75 16
M  V30 END BOND
M  V30 END CTAB
M  END
>  <i_epik_Tot_Q>  (1) 
1

>  <i_epik_Tot_abs_Q>  (1) 
1

>  <i_i_glide_confnum>  (1) 
620

>  <i_i_glide_lignum>  (1) 
153

>  <i_i_glide_posenum>  (1) 
244

>  <i_i_glide_rotatable_bonds>  (1) 
13

>  <i_lp_mmshare_version>  (1) 
72125

>  <i_m_source_file_index>  (1) 
61

>  <i_f3d_flags>  (1) 
0

>  <num_sample>  (1) 
100

>  <b_lp_Chiralities_Consistent>  (1) 
1

>  <r_epik_Charging_Adjusted_Penalty>  (1) 
1.0909141645048002

>  <r_epik_Ionization_Penalty>  (1) 
0.35907651910540517

>  <r_epik_Ionization_Penalty_Charging>  (1) 
0.3574178230480502

>  <r_epik_Ionization_Penalty_Neutral>  (1) 
0.0016586960573549945

>  <r_epik_State_Penalty>  (1) 
0.73349634145674991

>  <r_glide_ring_energy>  (1) 
0

>  <r_i_docking_score>  (1) 
-6.5155223794920003

>  <r_i_glide_ecoul>  (1) 
-3.7070431442324003

>  <r_i_glide_eff_state_penalty>  (1) 
0.73349634145674991

>  <r_i_glide_einternal>  (1) 
18.915031120727058

>  <r_i_glide_emodel>  (1) 
-56.215458706471672

>  <r_i_glide_emodel_strain>  (1) 
3.0961503025750474

>  <r_i_glide_energy>  (1) 
-44.780159983770545

>  <r_i_glide_erotb>  (1) 
0.85380530184711001

>  <r_i_glide_esite>  (1) 
-0.0032255620115469552

>  <r_i_glide_evdw>  (1) 
-41.073116839538145

>  <r_i_glide_gscore>  (1) 
-7.24901872094875

>  <r_i_glide_gscore_strain>  (1) 
0

>  <r_i_glide_hbond>  (1) 
-0.073377841171110111

>  <r_i_glide_ligand_efficiency>  (1) 
-0.19744007210581818

>  <r_i_glide_ligand_efficiency_ln>  (1) 
-1.4490184416296288

>  <r_i_glide_ligand_efficiency_sa>  (1) 
-0.63329580939626329

>  <r_i_glide_lipo>  (1) 
-4.2678830822165299

>  <r_i_glide_metal>  (1) 
-0

>  <r_i_glide_rewards>  (1) 
-1.1486252237849057

>  <r_lp_Energy>  (1) 
28.272465

>  <r_lp_tautomer_probability>  (1) 
0.49999999999868239

>  <s_epik_cmdline>  (1) 
J2VwaWtfcHl0aG9uJywgJy1waHQnLCAnMS4wJywgJy1waCcsICc3LjQnLCAnLXRuJywgJzgnLCAnLW1hJywgJzUwMCcsICctaW1hZScsICc8aW5maWxlLm1hZT4nLCAnLW9tYWUnLCAnPG91dGZpbGUubWFlPic=

>  <s_epik_input>  (1) 
bjFbbkhdW2NIXWMoYzEyKVtDQEBIXShbQ0gzXSlbQ0BASF0oW09IXSlbQ0BIXShbTkhdW0NIMl0yKVtDSDJdW0NASF0oW0NIM10pT1tDQEBIXShbQ0BIXShbQ0gzXSlPW0NIMl1bQ0gzXSlbQ0BASF0oW0NIMl1bQ0gzXSlbQ0gyXUMoPVtDSF0zKVtDSDJdW0NIXT1bQ0hdQzM9Tw==

>  <s_glide_docking_method>  (1) 
confgen

>  <s_i_glide_gridfile>  (1) 
gpcr_5ht2c_6bqh_protein_autoprepared_prepared

>  <s_lp_Force_Field>  (1) 
S-OPLS

>  <s_lp_Variant>  (1) 
DiffSBDD_60_num_sample_100-2

>  <s_m_source_file>  (1) 
generated__ligand_DiffSBDD_2026-05-06_prepared.sdf

>  <GenAI_Model>  (1) 
DiffSBDD

>  <Protein>  (1) 
GPCR_5HT2C

$$$$
DiffSBDD_59_num_sample_100
     RDKit          3D

  0  0  0  0  0  0  0  0  0  0999 V3000
M  V30 BEGIN CTAB
M  V30 COUNTS 54 55 0 0 1
M  V30 BEGIN ATOM
M  V30 1 O 37.867417 33.234843 56.823125 0
M  V30 2 N 38.931089 26.727983 54.253598 0 CFG=2 CHG=1
M  V30 3 C 39.296095 28.242531 51.103849 0
M  V30 4 C 39.771755 27.261003 55.362658 0
M  V30 5 C 37.536454 32.370727 59.048003 0
M  V30 6 C 40.267396 30.698761 52.061076 0
M  V30 7 C 39.528393 29.870700 52.920802 0
M  V30 8 C 39.041031 28.617503 52.444544 0
M  V30 9 C 38.372359 29.418523 59.219557 0
M  V30 10 C 39.986327 28.074022 57.776882 0
M  V30 11 Cl 39.225401 30.400832 54.541622 0
M  V30 12 C 39.044693 27.495921 56.704172 0
M  V30 13 O 37.314472 29.438216 58.593017 0
M  V30 14 N 38.813473 30.370635 60.014583 0
M  V30 15 N 39.972972 30.124026 60.641051 0
M  V30 16 C 38.520838 32.580767 57.886187 0
M  V30 17 C 39.323314 28.265763 59.160098 0 CFG=1
M  V30 18 C 38.214913 27.683649 53.342205 0 CFG=2
M  V30 19 C 38.095140 25.576647 54.682534 0
M  V30 20 C 38.126292 31.651218 60.289172 0 CFG=2
M  V30 21 C 40.019819 29.100009 50.254038 0
M  V30 22 C 40.260031 28.939240 60.179107 0
M  V30 23 C 37.063159 31.454770 61.379815 0
M  V30 24 C 36.948455 28.328608 53.884125 0
M  V30 25 C 40.507790 30.319903 50.734315 0
M  V30 26 H 37.013242 32.824844 56.684839 0
M  V30 27 H 38.923348 27.302283 50.724239 0
M  V30 28 H 40.267957 28.166453 55.053498 0
M  V30 29 H 40.576070 26.542268 55.532703 0
M  V30 30 H 37.150616 33.343584 59.355581 0
M  V30 31 H 36.667334 31.825616 58.684895 0
M  V30 32 H 40.643537 31.628072 52.420703 0
M  V30 33 H 40.386767 29.025551 57.421912 0
M  V30 34 H 40.846335 27.412060 57.891203 0
M  V30 35 H 38.640069 26.560804 57.091767 0
M  V30 36 H 38.198094 28.163201 56.548791 0
M  V30 37 H 38.906008 31.633282 57.512946 0
M  V30 38 H 39.373036 33.181341 58.207058 0
M  V30 39 H 38.876023 27.354519 59.555640 0
M  V30 40 H 37.803418 26.988352 52.608759 0
M  V30 41 H 37.337939 25.865666 55.410923 0
M  V30 42 H 37.551722 25.133961 53.853711 0
M  V30 43 H 38.717888 24.799733 55.127438 0
M  V30 44 H 38.875942 32.331481 60.700151 0
M  V30 45 H 40.202453 28.821320 49.230606 0
M  V30 46 H 41.157111 28.413317 60.506507 0
M  V30 47 H 36.634114 32.411601 61.678756 0
M  V30 48 H 36.249863 30.816565 61.034612 0
M  V30 49 H 37.506606 30.993196 62.260686 0
M  V30 50 H 36.439353 28.821055 53.053514 0
M  V30 51 H 36.267437 27.581002 54.253506 0
M  V30 52 H 37.084951 29.039079 54.694136 0
M  V30 53 H 41.067806 30.972449 50.080575 0
M  V30 54 H 39.611651 26.321953 53.627733 0
M  V30 END ATOM
M  V30 BEGIN BOND
M  V30 1 1 4 2
M  V30 2 2 7 6
M  V30 3 2 8 3
M  V30 4 1 8 7
M  V30 5 1 11 7
M  V30 6 1 12 4
M  V30 7 1 12 10
M  V30 8 2 13 9
M  V30 9 1 14 9
M  V30 10 1 15 14
M  V30 11 1 16 1
M  V30 12 1 16 5
M  V30 13 1 17 9
M  V30 14 1 17 10
M  V30 15 1 18 2
M  V30 16 1 18 8
M  V30 17 1 19 2
M  V30 18 1 20 5
M  V30 19 1 20 14
M  V30 20 1 21 3
M  V30 21 2 22 15
M  V30 22 1 22 17
M  V30 23 1 23 20
M  V30 24 1 24 18
M  V30 25 1 25 6
M  V30 26 2 25 21
M  V30 27 1 26 1
M  V30 28 1 27 3
M  V30 29 1 28 4
M  V30 30 1 29 4
M  V30 31 1 30 5
M  V30 32 1 31 5
M  V30 33 1 32 6
M  V30 34 1 33 10
M  V30 35 1 34 10
M  V30 36 1 35 12
M  V30 37 1 36 12
M  V30 38 1 37 16
M  V30 39 1 38 16
M  V30 40 1 17 39 CFG=1
M  V30 41 1 18 40 CFG=3
M  V30 42 1 41 19
M  V30 43 1 42 19
M  V30 44 1 43 19
M  V30 45 1 20 44 CFG=1
M  V30 46 1 45 21
M  V30 47 1 46 22
M  V30 48 1 47 23
M  V30 49 1 48 23
M  V30 50 1 49 23
M  V30 51 1 50 24
M  V30 52 1 51 24
M  V30 53 1 52 24
M  V30 54 1 53 25
M  V30 55 1 2 54 CFG=3
M  V30 END BOND
M  V30 END CTAB
M  END
>  <i_epik_Tot_Q>  (1) 
1

>  <i_epik_Tot_abs_Q>  (1) 
1

>  <i_i_glide_confnum>  (1) 
268

>  <i_i_glide_lignum>  (1) 
151

>  <i_i_glide_posenum>  (1) 
2

>  <i_i_glide_rotatable_bonds>  (1) 
10

>  <i_lp_mmshare_version>  (1) 
72125

>  <i_m_source_file_index>  (1) 
60

>  <i_f3d_flags>  (1) 
0

>  <num_sample>  (1) 
100

>  <b_lp_Chiralities_Consistent>  (1) 
1

>  <r_epik_Charging_Adjusted_Penalty>  (1) 
0.90698054963472508

>  <r_epik_Ionization_Penalty>  (1) 
0.11890783771570668

>  <r_epik_Ionization_Penalty_Charging>  (1) 
0.11890771087092902

>  <r_epik_Ionization_Penalty_Neutral>  (1) 
1.2684477765112781e-07

>  <r_epik_State_Penalty>  (1) 
0.78807283876379608

>  <r_glide_ring_energy>  (1) 
0

>  <r_i_docking_score>  (1) 
-6.5149379089510875

>  <r_i_glide_ecoul>  (1) 
-2.8892514738686548

>  <r_i_glide_eff_state_penalty>  (1) 
0.78807283876379608

>  <r_i_glide_einternal>  (1) 
4.9154146339985632

>  <r_i_glide_emodel>  (1) 
-60.908781782696835

>  <r_i_glide_emodel_strain>  (1) 
0.33140482651542413

>  <r_i_glide_energy>  (1) 
-41.574113131238136

>  <r_i_glide_erotb>  (1) 
1.1440711446639862

>  <r_i_glide_esite>  (1) 
0

>  <r_i_glide_evdw>  (1) 
-38.684861657369481

>  <r_i_glide_gscore>  (1) 
-7.3030107477148833

>  <r_i_glide_gscore_strain>  (1) 
0

>  <r_i_glide_hbond>  (1) 
-0.20675559303872931

>  <r_i_glide_ligand_efficiency>  (1) 
-0.26059751635804351

>  <r_i_glide_ligand_efficiency_ln>  (1) 
-1.5442355213558854

>  <r_i_glide_ligand_efficiency_sa>  (1) 
-0.76199176036513672

>  <r_i_glide_lipo>  (1) 
-3.7461849022684186

>  <r_i_glide_metal>  (1) 
-0

>  <r_i_glide_rewards>  (1) 
-2.1265105931229491

>  <r_lp_Energy>  (1) 
20.477868999999998

>  <r_lp_tautomer_probability>  (1) 
0.26444745842670125

>  <s_epik_Chemistry_Notes>  (1) 
This compound has an imine and may undergo hydrolysis.

>  <s_epik_cmdline>  (1) 
J2VwaWtfcHl0aG9uJywgJy1waHQnLCAnMS4wJywgJy1waCcsICc3LjQnLCAnLXRuJywgJzgnLCAnLW1hJywgJzUwMCcsICctaW1hZScsICc8aW5maWxlLm1hZT4nLCAnLW9tYWUnLCAnPG91dGZpbGUubWFlPic=

>  <s_epik_input>  (1) 
W09IXVtDSDJdW0NIMl1bQ0BASF0oW0NIM10pTihDMT1PKU49W0NIXVtDQEBIXTFbQ0gyXVtDSDJdW0NIMl1OKFtDSDNdKVtDQEBIXShbQ0gzXSljMltjSF1bY0hdW2NIXVtjSF1jMkNs

>  <s_glide_docking_method>  (1) 
confgen

>  <s_i_glide_gridfile>  (1) 
gpcr_5ht2c_6bqh_protein_autoprepared_prepared

>  <s_lp_Force_Field>  (1) 
S-OPLS

>  <s_lp_Variant>  (1) 
DiffSBDD_59_num_sample_100-4

>  <s_m_source_file>  (1) 
generated__ligand_DiffSBDD_2026-05-06_prepared.sdf

>  <GenAI_Model>  (1) 
DiffSBDD

>  <Protein>  (1) 
GPCR_5HT2C

$$$$
DiffSBDD_83_num_sample_100
     RDKit          3D

  0  0  0  0  0  0  0  0  0  0999 V3000
M  V30 BEGIN CTAB
M  V30 COUNTS 66 69 0 0 1
M  V30 BEGIN ATOM
M  V30 1 C 41.319920 28.686826 58.307614 0
M  V30 2 C 38.966150 30.684010 54.336894 0
M  V30 3 O 39.697379 28.834148 51.197471 0
M  V30 4 O 40.404060 35.687719 61.444755 0
M  V30 5 C 40.048519 29.228797 58.077494 0
M  V30 6 N 40.229460 32.553900 63.340261 0
M  V30 7 C 39.227981 27.046052 57.396889 0
M  V30 8 C 41.088567 31.831590 64.099067 0
M  V30 9 O 42.194036 31.455557 63.702137 0
M  V30 10 C 36.122977 32.021547 59.616292 0
M  V30 11 C 39.952896 32.324106 61.900781 0 CFG=1
M  V30 12 C 39.222543 29.134293 52.459119 0
M  V30 13 C 40.230679 29.873294 50.385830 0
M  V30 14 N 38.151199 33.172712 60.563733 0
M  V30 15 C 40.625840 31.492898 65.509599 0
M  V30 16 C 36.979825 29.692990 58.529773 0 CFG=2
M  V30 17 C 41.555672 27.330030 58.066388 0
M  V30 18 O 37.648947 31.767102 62.253514 0
M  V30 19 C 39.467390 30.398914 53.053166 0
M  V30 20 C 38.484400 28.164887 53.166508 0
M  V30 21 O 40.169015 29.957433 61.540062 0
M  V30 22 C 38.227559 29.714597 55.042734 0
M  V30 23 C 40.500911 26.499575 57.621086 0
M  V30 24 O 37.838451 30.251374 59.528917 0
M  V30 25 C 37.656591 29.031709 57.327019 0 CFG=1
M  V30 26 C 40.592842 31.087282 61.300436 0
M  V30 27 C 40.162955 34.872927 62.570364 0
M  V30 28 C 37.988249 28.450205 54.454295 0
M  V30 29 C 36.761932 33.343483 60.119917 0 CFG=1
M  V30 30 C 38.482901 32.389913 61.603946 0
M  V30 31 O 42.804635 26.821439 58.253499 0
M  V30 32 C 37.067415 31.186866 58.766824 0 CFG=2
M  V30 33 O 37.738581 30.019731 56.295821 0
M  V30 34 C 36.702101 34.445907 59.053267 0
M  V30 35 C 39.007750 28.419674 57.616040 0
M  V30 36 C 40.715278 33.477934 62.324577 0 CFG=1
M  V30 37 H 42.122339 29.320753 58.653514 0
M  V30 38 H 39.147814 31.650808 54.782035 0
M  V30 39 H 39.727122 35.542208 60.803099 0
M  V30 40 H 39.867401 30.278085 58.242083 0
M  V30 41 H 38.425472 26.416420 57.042035 0
M  V30 42 H 35.214845 32.233716 59.053510 0
M  V30 43 H 35.799438 31.414869 60.462174 0
M  V30 44 H 40.430774 29.484497 49.386981 0
M  V30 45 H 39.526688 30.700066 50.276094 0
M  V30 46 H 41.173051 30.247503 50.785574 0
M  V30 47 H 38.875056 33.652277 60.052083 0
M  V30 48 H 39.696402 30.922994 65.478305 0
M  V30 49 H 41.373462 30.891037 66.027046 0
M  V30 50 H 40.463411 32.406064 66.081305 0
M  V30 51 H 36.106346 29.183530 58.930130 0
M  V30 52 H 40.032158 31.151443 52.526040 0
M  V30 53 H 38.295490 27.200228 52.718413 0
M  V30 54 H 40.667461 25.449860 57.441742 0
M  V30 55 H 37.067412 28.180036 57.053492 0
M  V30 56 H 41.448488 31.269088 60.653440 0
M  V30 57 H 39.094302 34.854423 62.787343 0
M  V30 58 H 40.665560 35.309033 63.434970 0
M  V30 59 H 37.422930 27.702315 54.983796 0
M  V30 60 H 36.177010 33.696558 60.971594 0
M  V30 61 H 42.931324 25.999140 57.777618 0
M  V30 62 H 37.642909 31.759946 58.043026 0
M  V30 63 H 35.671574 34.644150 58.753398 0
M  V30 64 H 37.116325 35.384360 59.421559 0
M  V30 65 H 37.250882 34.164052 58.153707 0
M  V30 66 H 41.782252 33.467261 62.098626 0
M  V30 END ATOM
M  V30 BEGIN BOND
M  V30 1 2 5 1
M  V30 2 1 8 6
M  V30 3 2 9 8
M  V30 4 1 11 6
M  V30 5 1 12 3
M  V30 6 1 13 3
M  V30 7 1 15 8
M  V30 8 1 17 1
M  V30 9 2 19 2
M  V30 10 1 19 12
M  V30 11 2 20 12
M  V30 12 1 22 2
M  V30 13 1 23 7
M  V30 14 2 23 17
M  V30 15 1 24 16
M  V30 16 1 25 16
M  V30 17 1 11 26 CFG=3
M  V30 18 2 26 21
M  V30 19 1 27 4
M  V30 20 1 28 20
M  V30 21 2 28 22
M  V30 22 1 29 10
M  V30 23 1 29 14
M  V30 24 1 30 11
M  V30 25 1 30 14
M  V30 26 2 30 18
M  V30 27 1 31 17
M  V30 28 1 32 10
M  V30 29 1 32 16
M  V30 30 1 32 24
M  V30 31 1 33 22
M  V30 32 1 33 25
M  V30 33 1 34 29
M  V30 34 1 35 5
M  V30 35 2 35 7
M  V30 36 1 35 25
M  V30 37 1 36 6
M  V30 38 1 36 11
M  V30 39 1 36 27
M  V30 40 1 37 1
M  V30 41 1 38 2
M  V30 42 1 39 4
M  V30 43 1 40 5
M  V30 44 1 41 7
M  V30 45 1 42 10
M  V30 46 1 43 10
M  V30 47 1 44 13
M  V30 48 1 45 13
M  V30 49 1 46 13
M  V30 50 1 47 14
M  V30 51 1 48 15
M  V30 52 1 49 15
M  V30 53 1 50 15
M  V30 54 1 16 51 CFG=1
M  V30 55 1 52 19
M  V30 56 1 53 20
M  V30 57 1 54 23
M  V30 58 1 25 55 CFG=3
M  V30 59 1 56 26
M  V30 60 1 57 27
M  V30 61 1 58 27
M  V30 62 1 59 28
M  V30 63 1 29 60 CFG=1
M  V30 64 1 61 31
M  V30 65 1 32 62 CFG=3
M  V30 66 1 63 34
M  V30 67 1 64 34
M  V30 68 1 65 34
M  V30 69 1 36 66 CFG=3
M  V30 END BOND
M  V30 END CTAB
M  END
>  <i_epik_Tot_Q>  (1) 
0

>  <i_epik_Tot_abs_Q>  (1) 
0

>  <i_i_glide_confnum>  (1) 
2937

>  <i_i_glide_lignum>  (1) 
217

>  <i_i_glide_posenum>  (1) 
232

>  <i_i_glide_rotatable_bonds>  (1) 
15

>  <i_lp_mmshare_version>  (1) 
72125

>  <i_m_source_file_index>  (1) 
84

>  <i_f3d_flags>  (1) 
0

>  <num_sample>  (1) 
100

>  <b_lp_Chiralities_Consistent>  (1) 
1

>  <r_epik_Charging_Adjusted_Penalty>  (1) 
0.0031499927794813721

>  <r_epik_Ionization_Penalty>  (1) 
0.0031524718426135371

>  <r_epik_Ionization_Penalty_Charging>  (1) 
0

>  <r_epik_Ionization_Penalty_Neutral>  (1) 
0.0031524718426135371

>  <r_epik_State_Penalty>  (1) 
0.0031499927794813721

>  <r_glide_ring_energy>  (1) 
0

>  <r_i_docking_score>  (1) 
-6.5142195809271861

>  <r_i_glide_ecoul>  (1) 
-7.7455125206120865

>  <r_i_glide_eff_state_penalty>  (1) 
0.0031499927794813721

>  <r_i_glide_einternal>  (1) 
14.182218696320593

>  <r_i_glide_emodel>  (1) 
-63.424440978155999

>  <r_i_glide_emodel_strain>  (1) 
3.1513037133098436

>  <r_i_glide_energy>  (1) 
-54.104204084092316

>  <r_i_glide_erotb>  (1) 
0.82106346531741226

>  <r_i_glide_esite>  (1) 
-0.0097569960044023053

>  <r_i_glide_evdw>  (1) 
-46.358691563480228

>  <r_i_glide_gscore>  (1) 
-6.5173695737066675

>  <r_i_glide_gscore_strain>  (1) 
0

>  <r_i_glide_hbond>  (1) 
-0.55825731820326729

>  <r_i_glide_ligand_efficiency>  (1) 
-0.18095054391464405

>  <r_i_glide_ligand_efficiency_ln>  (1) 
-1.4212267186838339

>  <r_i_glide_ligand_efficiency_sa>  (1) 
-0.59748553165406715

>  <r_i_glide_lipo>  (1) 
-3.3606491438806878

>  <r_i_glide_metal>  (1) 
-0

>  <r_i_glide_rewards>  (1) 
0.069991875330100983

>  <r_lp_Energy>  (1) 
25.148723999999998

>  <r_lp_tautomer_probability>  (1) 
0.99999999999736477

>  <s_epik_cmdline>  (1) 
J2VwaWtfcHl0aG9uJywgJy1waHQnLCAnMS4wJywgJy1waCcsICc3LjQnLCAnLXRuJywgJzgnLCAnLW1hJywgJzUwMCcsICctaW1hZScsICc8aW5maWxlLm1hZT4nLCAnLW9tYWUnLCAnPG91dGZpbGUubWFlPic=

>  <s_epik_input>  (1) 
W0NIM11PYzFbY0hdW2NIXWMoW2NIXVtjSF0xKU9bQ0BASF0oYyhbY0hdW2NIXTIpW2NIXVtjSF1jMltPSF0pW0NASF0zT1tDSF0zW0NIMl1bQ0BIXShbQ0gzXSlbTkhdQyg9TylDNChbQ0hdPU8pTihDKD1PKVtDSDNdKVtDQEBIXTRbQ0gyXVtPSF0=

>  <s_glide_docking_method>  (1) 
confgen

>  <s_i_glide_gridfile>  (1) 
gpcr_5ht2c_6bqh_protein_autoprepared_prepared

>  <s_lp_Force_Field>  (1) 
S-OPLS

>  <s_lp_Variant>  (1) 
DiffSBDD_83_num_sample_100-1

>  <s_m_source_file>  (1) 
generated__ligand_DiffSBDD_2026-05-06_prepared.sdf

>  <GenAI_Model>  (1) 
DiffSBDD

>  <Protein>  (1) 
GPCR_5HT2C

$$$$
DiffSBDD_50_num_sample_100
     RDKit          3D

  0  0  0  0  0  0  0  0  0  0999 V3000
M  V30 BEGIN CTAB
M  V30 COUNTS 54 56 0 0 1
M  V30 BEGIN ATOM
M  V30 1 C 38.768338 27.991157 51.601748 0 CFG=1
M  V30 2 N 38.383883 29.082723 52.480408 0
M  V30 3 C 38.730507 27.179620 56.426179 0
M  V30 4 C 39.377320 28.163653 57.435613 0 CFG=1
M  V30 5 N 36.667496 30.635216 58.771210 0 CHG=1
M  V30 6 C 37.880368 32.716357 59.551280 0
M  V30 7 O 41.250263 28.422127 58.957395 0
M  V30 8 C 36.455600 34.085119 61.106054 0
M  V30 9 C 37.765193 30.136588 57.919922 0 CFG=1
M  V30 10 C 35.779243 31.785018 60.733585 0
M  V30 11 C 37.548938 33.974484 60.341522 0
M  V30 12 C 39.646236 28.553977 50.483789 0
M  V30 13 C 37.956849 28.474998 53.730509 0
M  V30 14 C 38.667349 27.113538 53.841362 0 CFG=1
M  V30 15 C 39.454996 26.999231 52.530780 0
M  V30 16 S 40.269324 30.157657 51.016467 0
M  V30 17 C 35.530735 32.993394 61.258194 0
M  V30 18 F 38.380090 35.024724 60.254397 0
M  V30 19 C 39.509519 30.000064 52.644725 0
M  V30 20 C 37.043727 31.453215 59.945592 0 CFG=1
M  V30 21 C 39.529717 27.018294 55.113461 0
M  V30 22 C 38.316019 28.772645 58.388645 0
M  V30 23 O 37.067399 30.021426 56.705563 0
M  V30 24 C 40.524196 27.474274 58.200311 0
M  V30 25 H 37.868018 27.532214 51.191981 0
M  V30 26 H 38.577729 26.203951 56.889905 0
M  V30 27 H 37.725056 27.522491 56.190443 0
M  V30 28 H 39.816330 28.992569 56.878273 0
M  V30 29 H 36.073892 31.221584 58.172621 0
M  V30 30 H 38.948116 32.511017 59.630660 0
M  V30 31 H 37.692739 32.976013 58.508209 0
M  V30 32 H 41.996284 27.991387 59.352430 0
M  V30 33 H 36.266627 35.012861 61.626238 0
M  V30 34 H 38.558586 30.873787 57.795163 0
M  V30 35 H 35.067387 30.985994 60.875414 0
M  V30 36 H 39.068243 28.702958 49.574790 0
M  V30 37 H 40.457088 27.868476 50.253235 0
M  V30 38 H 36.878692 28.317228 53.691120 0
M  V30 39 H 38.157931 29.141458 54.568275 0
M  V30 40 H 37.908545 26.329552 53.861432 0
M  V30 41 H 40.505785 27.221856 52.653584 0
M  V30 42 H 39.455030 26.021623 52.081277 0
M  V30 43 H 34.620308 33.148890 61.818575 0
M  V30 44 H 39.176795 30.967644 53.021964 0
M  V30 45 H 40.259229 29.621585 53.337437 0
M  V30 46 H 37.650142 30.829165 60.603327 0
M  V30 47 H 40.268401 27.810535 55.055380 0
M  V30 48 H 40.086533 26.080536 55.128052 0
M  V30 49 H 37.502817 28.061901 58.523836 0
M  V30 50 H 38.747047 28.916522 59.379713 0
M  V30 51 H 36.407624 30.721171 56.650525 0
M  V30 52 H 41.212893 26.992082 57.505173 0
M  V30 53 H 40.133732 26.697499 58.858181 0
M  V30 54 H 36.111711 29.847020 59.065818 0
M  V30 END ATOM
M  V30 BEGIN BOND
M  V30 1 1 2 1
M  V30 2 1 4 3
M  V30 3 1 9 5
M  V30 4 1 11 6
M  V30 5 2 11 8
M  V30 6 1 12 1
M  V30 7 1 13 2
M  V30 8 1 14 13
M  V30 9 1 15 1
M  V30 10 1 15 14
M  V30 11 1 16 12
M  V30 12 1 17 8
M  V30 13 2 17 10
M  V30 14 1 18 11
M  V30 15 1 19 2
M  V30 16 1 19 16
M  V30 17 1 20 5
M  V30 18 1 20 6
M  V30 19 1 20 10
M  V30 20 1 21 3
M  V30 21 1 21 14
M  V30 22 1 22 4
M  V30 23 1 22 9
M  V30 24 1 23 9
M  V30 25 1 24 4
M  V30 26 1 24 7
M  V30 27 1 1 25 CFG=3
M  V30 28 1 26 3
M  V30 29 1 27 3
M  V30 30 1 4 28 CFG=3
M  V30 31 1 29 5
M  V30 32 1 30 6
M  V30 33 1 31 6
M  V30 34 1 32 7
M  V30 35 1 33 8
M  V30 36 1 9 34 CFG=3
M  V30 37 1 35 10
M  V30 38 1 36 12
M  V30 39 1 37 12
M  V30 40 1 38 13
M  V30 41 1 39 13
M  V30 42 1 14 40 CFG=1
M  V30 43 1 41 15
M  V30 44 1 42 15
M  V30 45 1 43 17
M  V30 46 1 44 19
M  V30 47 1 45 19
M  V30 48 1 20 46 CFG=1
M  V30 49 1 47 21
M  V30 50 1 48 21
M  V30 51 1 49 22
M  V30 52 1 50 22
M  V30 53 1 51 23
M  V30 54 1 52 24
M  V30 55 1 53 24
M  V30 56 1 54 5
M  V30 END BOND
M  V30 END CTAB
M  END
>  <i_epik_Tot_Q>  (1) 
1

>  <i_epik_Tot_abs_Q>  (1) 
1

>  <i_i_glide_confnum>  (1) 
602

>  <i_i_glide_lignum>  (1) 
135

>  <i_i_glide_posenum>  (1) 
269

>  <i_i_glide_rotatable_bonds>  (1) 
10

>  <i_lp_mmshare_version>  (1) 
72125

>  <i_m_source_file_index>  (1) 
51

>  <i_f3d_flags>  (1) 
0

>  <num_sample>  (1) 
100

>  <b_lp_Chiralities_Consistent>  (1) 
1

>  <r_epik_Charging_Adjusted_Penalty>  (1) 
2.5903076652609913

>  <r_epik_Ionization_Penalty>  (1) 
1.4636165094899594

>  <r_epik_Ionization_Penalty_Charging>  (1) 
1.2951538326304957

>  <r_epik_Ionization_Penalty_Neutral>  (1) 
0.1684626768594637

>  <r_epik_State_Penalty>  (1) 
1.2951538326304957

>  <r_glide_ring_energy>  (1) 
0

>  <r_i_docking_score>  (1) 
-6.5141689808975531

>  <r_i_glide_ecoul>  (1) 
-12.250912474984231

>  <r_i_glide_eff_state_penalty>  (1) 
1.2951538326304957

>  <r_i_glide_einternal>  (1) 
4.0261218751138088

>  <r_i_glide_emodel>  (1) 
-62.246502707224423

>  <r_i_glide_emodel_strain>  (1) 
1.1366561875409502

>  <r_i_glide_energy>  (1) 
-41.974069547828748

>  <r_i_glide_erotb>  (1) 
0.89870886967847008

>  <r_i_glide_esite>  (1) 
-0.16724680520258739

>  <r_i_glide_evdw>  (1) 
-29.723157072844518

>  <r_i_glide_gscore>  (1) 
-7.8093228135280484

>  <r_i_glide_gscore_strain>  (1) 
0

>  <r_i_glide_hbond>  (1) 
-0.35999999999999999

>  <r_i_glide_ligand_efficiency>  (1) 
-0.27142370753739803

>  <r_i_glide_ligand_efficiency_ln>  (1) 
-1.5591395528657077

>  <r_i_glide_ligand_efficiency_sa>  (1) 
-0.78292145113411205

>  <r_i_glide_lipo>  (1) 
-3.3616733443324969

>  <r_i_glide_metal>  (1) 
-0

>  <r_i_glide_rewards>  (1) 
-1.4953168087815722

>  <r_lp_Energy>  (1) 
5.0849209999999996

>  <s_epik_Chemistry_Notes>  (1) 
This compound contains an acetal/aminal-like group ( X-CH(R)-Y where X, Y are N, S, or O) that may be acid/base labile, releasing an aldehyde.

>  <s_epik_cmdline>  (1) 
J2VwaWtfcHl0aG9uJywgJy1waHQnLCAnMS4wJywgJy1waCcsICc3LjQnLCAnLXRuJywgJzgnLCAnLW1hJywgJzUwMCcsICctaW1hZScsICc8aW5maWxlLm1hZT4nLCAnLW9tYWUnLCAnPG91dGZpbGUubWFlPic=

>  <s_epik_input>  (1) 
W0NIMl0xU1tDSDJdTihbQ0BASF0xMilbQ0gyXVtDQEBIXShbQ0gyXTIpW0NIMl1bQ0gyXVtDQEhdKFtDSDJdW09IXSlbQ0gyXVtDQEBIXShbT0hdKVtOSF1bQ0BASF0oW0NIMl0zKVtDSF09W0NIXVtDSF09QzNG

>  <s_glide_docking_method>  (1) 
confgen

>  <s_i_glide_gridfile>  (1) 
gpcr_5ht2c_6bqh_protein_autoprepared_prepared

>  <s_lp_Force_Field>  (1) 
S-OPLS

>  <s_lp_Variant>  (1) 
DiffSBDD_50_num_sample_100-2

>  <s_m_source_file>  (1) 
generated__ligand_DiffSBDD_2026-05-06_prepared.sdf

>  <GenAI_Model>  (1) 
DiffSBDD

>  <Protein>  (1) 
GPCR_5HT2C

$$$$
DiffSBDD_48_num_sample_100
     RDKit          3D

  0  0  0  0  0  0  0  0  0  0999 V3000
M  V30 BEGIN CTAB
M  V30 COUNTS 71 75 0 0 1
M  V30 BEGIN ATOM
M  V30 1 C 39.951963 35.624940 62.607618 0
M  V30 2 C 38.456577 29.692382 54.776922 0 CFG=1
M  V30 3 C 38.296525 34.091043 60.947636 0
M  V30 4 C 40.933777 34.095839 68.191288 0
M  V30 5 C 41.989447 34.235992 64.400313 0
M  V30 6 C 38.488203 31.924225 60.103042 0 CFG=1
M  V30 7 O 37.618294 27.581776 53.922995 0
M  V30 8 O 37.917203 26.307638 56.392724 0
M  V30 9 C 41.439479 33.590645 63.099996 0
M  V30 10 C 37.839720 30.528531 60.178722 0
M  V30 11 C 37.489620 33.189882 60.069266 0
M  V30 12 N 39.474670 32.154595 61.203097 0
M  V30 13 C 37.467370 30.407874 57.651339 0
M  V30 14 C 38.267408 27.480507 56.257598 0
M  V30 15 C 39.988641 27.564349 58.175090 0
M  V30 16 C 41.337414 33.685679 65.691686 0 CFG=1
M  V30 17 N 36.963463 30.180966 59.030364 0 CHG=1
M  V30 18 C 38.851193 29.788446 57.305404 0 CFG=2
M  V30 19 C 41.815827 32.267610 66.070089 0
M  V30 20 C 38.833527 36.222063 61.975387 0
M  V30 21 C 40.826395 31.624569 61.053489 0
M  V30 22 O 38.667487 27.721772 58.703735 0
M  V30 23 O 42.557940 31.617307 65.334631 0
M  V30 24 O 39.467380 31.617596 55.843399 0
M  V30 25 C 39.356074 30.208587 55.913043 0 CFG=2
M  V30 26 C 41.322790 31.702094 67.401084 0
M  V30 27 C 39.038103 30.021712 53.386761 0
M  V30 28 C 38.077081 28.197375 54.885418 0
M  V30 29 C 38.899325 28.269035 57.395394 0 CFG=1
M  V30 30 C 41.539630 34.641245 66.884993 0
M  V30 31 C 40.232797 34.245494 62.402274 0
M  V30 32 C 39.360065 33.500270 61.538125 0
M  V30 33 C 37.999649 35.448168 61.141502 0
M  V30 34 C 41.521926 32.718161 68.538895 0
M  V30 35 H 40.581874 36.223830 63.242104 0
M  V30 36 H 37.504896 30.220478 54.845192 0
M  V30 37 H 39.851220 34.021481 68.089443 0
M  V30 38 H 41.110284 34.796448 69.008183 0
M  V30 39 H 43.056362 34.020744 64.458191 0
M  V30 40 H 41.983066 35.321941 64.381348 0
M  V30 41 H 39.067496 31.986809 59.184352 0
M  V30 42 H 41.161230 32.579867 63.373600 0
M  V30 43 H 42.255916 33.535247 62.381295 0
M  V30 44 H 37.253661 30.445174 61.093107 0
M  V30 45 H 38.618792 29.770885 60.256014 0
M  V30 46 H 37.346899 33.593575 59.066197 0
M  V30 47 H 36.525336 32.982181 60.533630 0
M  V30 48 H 37.484457 31.485334 57.489520 0
M  V30 49 H 36.705092 30.021406 56.974185 0
M  V30 50 H 40.255015 26.537808 57.927163 0
M  V30 51 H 40.750494 28.154640 58.680736 0
M  V30 52 H 36.111955 30.724630 59.098807 0
M  V30 53 H 39.580293 30.166366 58.019823 0
M  V30 54 H 38.619624 37.269152 62.131995 0
M  V30 55 H 41.534575 32.372540 60.699812 0
M  V30 56 H 41.186263 31.149064 61.963574 0
M  V30 57 H 40.813880 30.821540 60.315564 0
M  V30 58 H 40.267496 31.452092 67.296908 0
M  V30 59 H 38.610726 31.999189 55.711450 0
M  V30 60 H 40.356407 29.801914 55.767741 0
M  V30 61 H 41.849680 30.773329 67.622138 0
M  V30 62 H 40.267410 33.606770 65.517707 0
M  V30 63 H 38.420041 29.621193 52.583390 0
M  V30 64 H 39.099048 31.099602 53.233322 0
M  V30 65 H 40.042926 29.621509 53.260916 0
M  V30 66 H 42.606111 34.821428 67.021135 0
M  V30 67 H 41.092774 35.610468 66.659277 0
M  V30 68 H 37.146438 35.896355 60.654459 0
M  V30 69 H 41.067372 32.337202 69.452581 0
M  V30 70 H 42.586762 32.819966 68.752510 0
M  V30 71 H 36.722308 29.203586 59.114772 0
M  V30 END ATOM
M  V30 BEGIN BOND
M  V30 1 1 9 5
M  V30 2 1 10 6
M  V30 3 1 11 3
M  V30 4 1 11 6
M  V30 5 1 12 6
M  V30 6 2 14 8
M  V30 7 1 16 5
M  V30 8 1 17 10
M  V30 9 1 17 13
M  V30 10 1 18 13
M  V30 11 1 19 16
M  V30 12 2 20 1
M  V30 13 1 21 12
M  V30 14 1 22 15
M  V30 15 2 23 19
M  V30 16 1 25 2
M  V30 17 1 25 18
M  V30 18 1 25 24
M  V30 19 1 26 19
M  V30 20 1 27 2
M  V30 21 1 28 2
M  V30 22 2 28 7
M  V30 23 1 28 14
M  V30 24 1 29 14
M  V30 25 1 29 15
M  V30 26 1 29 18
M  V30 27 1 29 22 CFG=1
M  V30 28 1 30 4
M  V30 29 1 30 16
M  V30 30 1 31 1
M  V30 31 1 31 9
M  V30 32 1 32 3
M  V30 33 1 32 12
M  V30 34 2 32 31
M  V30 35 2 33 3
M  V30 36 1 33 20
M  V30 37 1 34 4
M  V30 38 1 34 26
M  V30 39 1 35 1
M  V30 40 1 2 36 CFG=3
M  V30 41 1 37 4
M  V30 42 1 38 4
M  V30 43 1 39 5
M  V30 44 1 40 5
M  V30 45 1 6 41 CFG=3
M  V30 46 1 42 9
M  V30 47 1 43 9
M  V30 48 1 44 10
M  V30 49 1 45 10
M  V30 50 1 46 11
M  V30 51 1 47 11
M  V30 52 1 48 13
M  V30 53 1 49 13
M  V30 54 1 50 15
M  V30 55 1 51 15
M  V30 56 1 52 17
M  V30 57 1 18 53 CFG=1
M  V30 58 1 54 20
M  V30 59 1 55 21
M  V30 60 1 56 21
M  V30 61 1 57 21
M  V30 62 1 58 26
M  V30 63 1 59 24
M  V30 64 1 25 60 CFG=3
M  V30 65 1 61 26
M  V30 66 1 16 62 CFG=3
M  V30 67 1 63 27
M  V30 68 1 64 27
M  V30 69 1 65 27
M  V30 70 1 66 30
M  V30 71 1 67 30
M  V30 72 1 68 33
M  V30 73 1 69 34
M  V30 74 1 70 34
M  V30 75 1 71 17
M  V30 END BOND
M  V30 END CTAB
M  END
>  <i_epik_Tot_Q>  (1) 
1

>  <i_epik_Tot_abs_Q>  (1) 
1

>  <i_i_glide_confnum>  (1) 
92

>  <i_i_glide_lignum>  (1) 
131

>  <i_i_glide_posenum>  (1) 
372

>  <i_i_glide_rotatable_bonds>  (1) 
8

>  <i_lp_mmshare_version>  (1) 
72125

>  <i_m_source_file_index>  (1) 
49

>  <i_f3d_flags>  (1) 
0

>  <num_sample>  (1) 
100

>  <b_lp_Chiralities_Consistent>  (1) 
1

>  <r_epik_Charging_Adjusted_Penalty>  (1) 
0.027363245261170371

>  <r_epik_Ionization_Penalty>  (1) 
0.0277407901544389

>  <r_epik_Ionization_Penalty_Charging>  (1) 
0.027363245261170371

>  <r_epik_Ionization_Penalty_Neutral>  (1) 
0.00037754489326852995

>  <r_epik_State_Penalty>  (1) 
-0

>  <r_glide_ring_energy>  (1) 
0

>  <r_i_docking_score>  (1) 
-6.5139783404562053

>  <r_i_glide_ecoul>  (1) 
-1.5968972551896439

>  <r_i_glide_eff_state_penalty>  (1) 
-0

>  <r_i_glide_einternal>  (1) 
7.5491701339379578

>  <r_i_glide_emodel>  (1) 
-60.784648303792508

>  <r_i_glide_emodel_strain>  (1) 
1.9378390163381312

>  <r_i_glide_energy>  (1) 
-43.86943110042268

>  <r_i_glide_erotb>  (1) 
0.64114366914740972

>  <r_i_glide_esite>  (1) 
-0.072589326482959182

>  <r_i_glide_evdw>  (1) 
-42.272533845233035

>  <r_i_glide_gscore>  (1) 
-6.5139783404562053

>  <r_i_glide_gscore_strain>  (1) 
0

>  <r_i_glide_hbond>  (1) 
0

>  <r_i_glide_ligand_efficiency>  (1) 
-0.19158759824871191

>  <r_i_glide_ligand_efficiency_ln>  (1) 
-1.4391205263103948

>  <r_i_glide_ligand_efficiency_sa>  (1) 
-0.62066944426493653

>  <r_i_glide_lipo>  (1) 
-3.2291260019500871

>  <r_i_glide_metal>  (1) 
-0

>  <r_i_glide_rewards>  (1) 
-1.5002454006304706

>  <r_lp_Energy>  (1) 
35.25817

>  <r_lp_tautomer_probability>  (1) 
1

>  <s_epik_cmdline>  (1) 
J2VwaWtfcHl0aG9uJywgJy1waHQnLCAnMS4wJywgJy1waCcsICc3LjQnLCAnLXRuJywgJzgnLCAnLW1hJywgJzUwMCcsICctaW1hZScsICc8aW5maWxlLm1hZT4nLCAnLW9tYWUnLCAnPG91dGZpbGUubWFlPic=

>  <s_epik_input>  (1) 
W0NIMl0xW0NIMl1bQ0gyXVtDSDJdQyhbT0hdKT1DMVtDSDJdW0NIMl1jKFtjSF1bY0hdW2NIXTIpYyhjMjMpTihbQ0gzXSlbQ0BIXShbQ0gyXTMpW0NIMl1bTkhdW0NIMl1bQ0BASF00W0NASF0oW09IXSlbQ0BASF0oW0NIM10pQyg9TylDKD1PKVtDQEBdNDVbQ0gyXU81

>  <s_glide_docking_method>  (1) 
confgen

>  <s_i_glide_gridfile>  (1) 
gpcr_5ht2c_6bqh_protein_autoprepared_prepared

>  <s_lp_Force_Field>  (1) 
S-OPLS

>  <s_lp_Variant>  (1) 
DiffSBDD_48_num_sample_100-1

>  <s_m_source_file>  (1) 
generated__ligand_DiffSBDD_2026-05-06_prepared.sdf

>  <GenAI_Model>  (1) 
DiffSBDD

>  <Protein>  (1) 
GPCR_5HT2C

$$$$
DiffSBDD_64_num_sample_100
     RDKit          3D

  0  0  0  0  0  0  0  0  0  0999 V3000
M  V30 BEGIN CTAB
M  V30 COUNTS 67 69 0 0 1
M  V30 BEGIN ATOM
M  V30 1 C 38.592315 28.530658 51.672891 0
M  V30 2 C 39.868053 30.421367 53.222080 0
M  V30 3 C 40.680796 30.286769 64.790741 0
M  V30 4 C 38.184233 31.786087 56.766304 0
M  V30 5 C 37.761553 31.823885 59.226710 0
M  V30 6 O 40.423404 35.130702 63.673805 0
M  V30 7 N 38.880911 29.610970 53.825491 0
M  V30 8 C 41.288681 32.966789 64.071011 0
M  V30 9 O 39.867397 29.221439 49.853489 0
M  V30 10 C 41.995327 32.308316 65.119540 0
M  V30 11 C 40.267347 32.236421 63.348063 0
M  V30 12 C 39.399763 33.635095 60.076619 0
M  V30 13 O 37.348817 27.916115 53.633519 0
M  V30 14 C 39.972882 30.897029 63.743827 0
M  V30 15 C 38.201415 28.632259 53.109068 0
M  V30 16 C 38.378642 31.299582 55.561402 0
M  V30 17 C 40.187235 30.300646 51.946413 0
M  V30 18 C 39.654048 28.920382 57.566881 0
M  V30 19 C 38.313447 28.333485 58.042585 0
M  V30 20 C 40.375943 33.479227 61.249015 0
M  V30 21 C 39.735993 29.075166 56.035231 0
M  V30 22 N 39.546525 32.838298 62.252862 0
M  V30 23 C 38.507737 32.011394 61.665535 0
M  V30 24 C 41.689065 30.983423 65.467524 0
M  V30 25 C 42.489696 34.995424 64.686146 0
M  V30 26 C 37.867400 32.461462 57.848683 0
M  V30 27 C 38.600205 29.807256 55.267872 0 CFG=2
M  V30 28 C 36.934589 33.721922 60.683503 0
M  V30 29 C 40.820486 28.059640 58.081563 0
M  V30 30 C 39.539514 29.334998 51.143356 0
M  V30 31 N 41.577138 34.333582 63.760698 0
M  V30 32 C 38.129094 32.789158 60.385925 0 CFG=2
M  V30 33 H 38.104854 27.795700 51.050757 0
M  V30 34 H 39.211373 28.682351 49.437960 0
M  V30 35 H 40.330923 31.134653 53.888206 0
M  V30 36 H 40.447507 29.269939 65.073606 0
M  V30 37 H 36.742445 31.456822 59.357477 0
M  V30 38 H 38.397322 30.943636 59.259135 0
M  V30 39 H 39.843655 34.652403 63.089978 0
M  V30 40 H 42.764606 32.822743 65.669933 0
M  V30 41 H 39.867406 33.338552 59.144177 0
M  V30 42 H 39.138346 34.686615 59.954587 0
M  V30 43 H 39.207534 30.330931 63.241247 0
M  V30 44 H 38.379265 31.958762 54.705817 0
M  V30 45 H 40.946300 30.939542 51.516274 0
M  V30 46 H 39.790603 29.904295 58.005921 0
M  V30 47 H 38.119823 27.363544 57.583624 0
M  V30 48 H 38.308469 28.195738 59.124082 0
M  V30 49 H 37.476432 28.989312 57.802163 0
M  V30 50 H 40.795493 34.457167 61.460426 0
M  V30 51 H 41.195444 32.807276 60.993226 0
M  V30 52 H 39.823532 28.069554 55.618875 0
M  V30 53 H 40.667406 29.569993 55.785225 0
M  V30 54 H 37.660260 31.862645 62.335297 0
M  V30 55 H 38.912352 31.042753 61.371189 0
M  V30 56 H 42.228492 30.501181 66.269849 0
M  V30 57 H 42.642687 36.029949 64.378301 0
M  V30 58 H 42.097837 35.008010 65.704139 0
M  V30 59 H 43.467405 34.520644 64.675660 0
M  V30 60 H 37.663071 33.520599 57.794670 0
M  V30 61 H 37.650744 29.341204 55.533167 0
M  V30 62 H 37.158612 34.409255 61.499721 0
M  V30 63 H 36.670167 34.324484 59.814007 0
M  V30 64 H 36.047097 33.155959 60.967847 0
M  V30 65 H 40.751207 27.035156 57.714070 0
M  V30 66 H 41.785129 28.454970 57.762896 0
M  V30 67 H 40.830199 28.020500 59.171256 0
M  V30 END ATOM
M  V30 BEGIN BOND
M  V30 1 1 7 2
M  V30 2 2 10 8
M  V30 3 1 11 8
M  V30 4 1 14 3
M  V30 5 2 14 11
M  V30 6 1 15 1
M  V30 7 1 15 7
M  V30 8 2 15 13
M  V30 9 2 16 4
M  V30 10 2 17 2
M  V30 11 1 19 18
M  V30 12 1 20 12
M  V30 13 1 21 18
M  V30 14 1 22 11
M  V30 15 1 22 20
M  V30 16 1 23 22
M  V30 17 2 24 3
M  V30 18 1 24 10
M  V30 19 2 26 4
M  V30 20 1 26 5
M  V30 21 1 27 7
M  V30 22 1 27 16
M  V30 23 1 27 21
M  V30 24 1 29 18
M  V30 25 2 30 1
M  V30 26 1 30 9
M  V30 27 1 30 17
M  V30 28 1 31 6
M  V30 29 1 31 8
M  V30 30 1 31 25
M  V30 31 1 32 5 CFG=3
M  V30 32 1 32 12
M  V30 33 1 32 23
M  V30 34 1 32 28
M  V30 35 1 33 1
M  V30 36 1 34 9
M  V30 37 1 35 2
M  V30 38 1 36 3
M  V30 39 1 37 5
M  V30 40 1 38 5
M  V30 41 1 39 6
M  V30 42 1 40 10
M  V30 43 1 41 12
M  V30 44 1 42 12
M  V30 45 1 43 14
M  V30 46 1 44 16
M  V30 47 1 45 17
M  V30 48 1 46 18
M  V30 49 1 47 19
M  V30 50 1 48 19
M  V30 51 1 49 19
M  V30 52 1 50 20
M  V30 53 1 51 20
M  V30 54 1 52 21
M  V30 55 1 53 21
M  V30 56 1 54 23
M  V30 57 1 55 23
M  V30 58 1 56 24
M  V30 59 1 57 25
M  V30 60 1 58 25
M  V30 61 1 59 25
M  V30 62 1 60 26
M  V30 63 1 27 61 CFG=1
M  V30 64 1 62 28
M  V30 65 1 63 28
M  V30 66 1 64 28
M  V30 67 1 65 29
M  V30 68 1 66 29
M  V30 69 1 67 29
M  V30 END BOND
M  V30 END CTAB
M  END
>  <i_epik_Tot_Q>  (1) 
0

>  <i_epik_Tot_abs_Q>  (1) 
0

>  <i_i_glide_confnum>  (1) 
925

>  <i_i_glide_lignum>  (1) 
162

>  <i_i_glide_posenum>  (1) 
388

>  <i_i_glide_rotatable_bonds>  (1) 
10

>  <i_lp_mmshare_version>  (1) 
72125

>  <i_m_source_file_index>  (1) 
65

>  <i_f3d_flags>  (1) 
0

>  <num_sample>  (1) 
100

>  <b_lp_Chiralities_Consistent>  (1) 
1

>  <r_epik_Charging_Adjusted_Penalty>  (1) 
0.62675424586451389

>  <r_epik_Ionization_Penalty>  (1) 
0.6271712436186877

>  <r_epik_Ionization_Penalty_Charging>  (1) 
1.6245979767145579e-07

>  <r_epik_Ionization_Penalty_Neutral>  (1) 
0.62717108115888998

>  <r_epik_State_Penalty>  (1) 
0.62675408340471617

>  <r_glide_ring_energy>  (1) 
0

>  <r_i_docking_score>  (1) 
-6.5097850212746389

>  <r_i_glide_ecoul>  (1) 
-0.8291394230500384

>  <r_i_glide_eff_state_penalty>  (1) 
0.62675408340471617

>  <r_i_glide_einternal>  (1) 
2.9358029560353209

>  <r_i_glide_emodel>  (1) 
-58.764486967569745

>  <r_i_glide_emodel_strain>  (1) 
4.5409392108366546

>  <r_i_glide_energy>  (1) 
-47.522761926827869

>  <r_i_glide_erotb>  (1) 
0.72903887146802748

>  <r_i_glide_esite>  (1) 
0

>  <r_i_glide_evdw>  (1) 
-46.693622503777831

>  <r_i_glide_gscore>  (1) 
-7.1365391046793549

>  <r_i_glide_gscore_strain>  (1) 
0.13523480270916366

>  <r_i_glide_hbond>  (1) 
-0.021879756333017805

>  <r_i_glide_ligand_efficiency>  (1) 
-0.20343078191483246

>  <r_i_glide_ligand_efficiency_ln>  (1) 
-1.4577183163011107

>  <r_i_glide_ligand_efficiency_sa>  (1) 
-0.64585247442863691

>  <r_i_glide_lipo>  (1) 
-3.7116906465556161

>  <r_i_glide_metal>  (1) 
-0

>  <r_i_glide_rewards>  (1) 
-1.8081903373215154

>  <r_lp_Energy>  (1) 
25.450896

>  <r_lp_tautomer_probability>  (1) 
0.99998436711719629

>  <s_epik_Chemistry_Notes>  (1) 
This compound has a N-S or N-O group and may undergo hydrolysis at high or low pH.

>  <s_epik_cmdline>  (1) 
J2VwaWtfcHl0aG9uJywgJy1waHQnLCAnMS4wJywgJy1waCcsICc3LjQnLCAnLXRuJywgJzgnLCAnLW1hJywgJzUwMCcsICctaW1hZScsICc8aW5maWxlLm1hZT4nLCAnLW9tYWUnLCAnPG91dGZpbGUubWFlPic=

>  <s_epik_input>  (1) 
Tz1DMVtDSDJdQyg9TylbQ0hdPVtDSF1OMVtDQEBIXShbQ0gyXVtDSF0oW0NIM10pW0NIM10pW0NIXT1DPVtDSF1bQ0gyXVtDQF0yKFtDSDNdKVtDSDJdW0NIMl1OKFtDSDJdMiljM1tjSF1bY0hdW2NIXVtjSF1jM04oW09IXSlbQ0gzXQ==

>  <s_glide_docking_method>  (1) 
confgen

>  <s_i_glide_gridfile>  (1) 
gpcr_5ht2c_6bqh_protein_autoprepared_prepared

>  <s_lp_Force_Field>  (1) 
S-OPLS

>  <s_lp_Variant>  (1) 
DiffSBDD_64_num_sample_100-2

>  <s_m_source_file>  (1) 
generated__ligand_DiffSBDD_2026-05-06_prepared.sdf

>  <GenAI_Model>  (1) 
DiffSBDD

>  <Protein>  (1) 
GPCR_5HT2C

$$$$
DiffSBDD_23_num_sample_100
     RDKit          3D

  0  0  0  0  0  0  0  0  0  0999 V3000
M  V30 BEGIN CTAB
M  V30 COUNTS 83 87 0 0 1
M  V30 BEGIN ATOM
M  V30 1 C 39.833791 35.489045 62.800327 0
M  V30 2 C 37.300678 29.886251 57.136467 0
M  V30 3 C 39.788812 27.425645 55.752405 0
M  V30 4 O 37.332774 24.770179 57.853506 0
M  V30 5 N 38.308642 27.954211 53.415687 0
M  V30 6 C 39.018954 30.582035 58.795172 0
M  V30 7 C 37.487520 33.753135 60.329259 0
M  V30 8 N 38.115401 29.248104 56.082414 0
M  V30 9 C 37.746926 26.972177 57.016481 0
M  V30 10 C 40.193543 26.101508 55.926348 0
M  V30 11 C 40.051803 31.106807 52.617891 0
M  V30 12 C 39.458539 29.717889 52.593751 0
M  V30 13 C 38.341206 33.923780 61.577789 0 CFG=2
M  V30 14 C 39.515803 28.842227 51.665870 0
M  V30 15 N 39.265666 35.078652 61.495562 0 CFG=2 CHG=1
M  V30 16 C 36.558154 29.989056 59.522145 0
M  V30 17 C 37.467423 23.420162 57.464185 0
M  V30 18 C 38.149029 25.641219 57.175375 0
M  V30 19 C 37.764941 29.710958 58.588953 0 CFG=1
M  V30 20 C 42.203856 32.563659 62.339017 0
M  V30 21 C 38.715538 29.168555 53.653734 0
M  V30 22 C 39.215797 31.455786 61.071440 0
M  V30 23 C 42.591645 34.385324 65.104655 0
M  V30 24 O 39.803508 30.435308 61.433801 0
M  V30 25 C 41.891846 33.081008 64.763543 0
M  V30 26 C 38.546183 27.868087 56.271803 0
M  V30 27 C 38.414806 30.000402 54.947423 0
M  V30 28 C 40.267390 34.963834 60.439650 0
M  V30 29 C 38.800418 27.558948 51.994039 0
M  V30 30 C 39.907867 32.524391 63.332919 0
M  V30 31 C 41.173104 34.811050 63.177762 0 CFG=2
M  V30 32 C 39.383218 25.207796 56.628323 0
M  V30 33 C 38.126758 32.840588 59.290543 0
M  V30 34 C 41.259749 33.252586 63.348684 0 CFG=2
M  V30 35 C 41.731353 35.447266 64.457656 0
M  V30 36 O 38.391207 31.231386 54.920456 0
M  V30 37 N 38.799226 31.630136 59.787114 0
M  V30 38 C 38.912787 32.568336 62.105892 0 CFG=1
M  V30 39 H 40.026610 36.559823 62.728871 0
M  V30 40 H 39.084601 35.406507 63.578287 0
M  V30 41 H 36.266365 29.586220 57.053093 0
M  V30 42 H 37.247526 30.956264 56.966996 0
M  V30 43 H 40.424694 28.105087 55.221330 0
M  V30 44 H 39.327745 31.050323 57.857700 0
M  V30 45 H 39.859025 29.934848 59.053557 0
M  V30 46 H 36.532927 33.313626 60.621761 0
M  V30 47 H 37.240620 34.716873 59.879523 0
M  V30 48 H 36.810981 27.298126 57.448902 0
M  V30 49 H 41.128566 25.766879 55.514815 0
M  V30 50 H 40.673224 31.221342 53.506195 0
M  V30 51 H 39.273725 31.868259 52.627462 0
M  V30 52 H 40.677079 31.267320 51.740144 0
M  V30 53 H 37.586039 34.278494 62.253445 0
M  V30 54 H 40.021813 28.982103 50.720934 0
M  V30 55 H 36.061152 30.926878 59.281502 0
M  V30 56 H 36.841245 30.021564 60.571150 0
M  V30 57 H 35.794057 29.221445 59.414327 0
M  V30 58 H 36.731087 22.745318 57.853337 0
M  V30 59 H 38.416844 23.066348 57.853756 0
M  V30 60 H 37.397787 23.242067 56.387612 0
M  V30 61 H 38.063728 28.688363 58.805910 0
M  V30 62 H 41.778885 32.409742 61.353366 0
M  V30 63 H 42.498868 31.572210 62.682899 0
M  V30 64 H 43.102180 33.141351 62.201459 0
M  V30 65 H 43.577957 34.421568 64.656192 0
M  V30 66 H 42.692252 34.532263 66.180352 0
M  V30 67 H 41.134237 32.920904 65.531427 0
M  V30 68 H 42.566006 32.227896 64.844890 0
M  V30 69 H 40.780821 34.052811 60.653950 0
M  V30 70 H 40.962842 35.801065 60.434446 0
M  V30 71 H 39.867594 34.821485 59.453683 0
M  V30 72 H 39.473650 26.702114 52.021731 0
M  V30 73 H 37.968306 27.373078 51.313316 0
M  V30 74 H 40.122661 31.479889 63.561739 0
M  V30 75 H 39.467084 32.821431 64.254837 0
M  V30 76 H 41.867507 35.088956 62.397238 0
M  V30 77 H 39.711052 24.190332 56.749273 0
M  V30 78 H 37.329653 32.554553 58.605748 0
M  V30 79 H 38.814391 33.346763 58.619974 0
M  V30 80 H 40.929163 35.730274 65.141592 0
M  V30 81 H 42.314155 36.342355 64.239082 0
M  V30 82 H 38.017173 32.126346 62.544896 0
M  V30 83 H 38.678438 35.854844 61.222622 0
M  V30 END ATOM
M  V30 BEGIN BOND
M  V30 1 1 8 2
M  V30 2 1 10 3
M  V30 3 1 12 11
M  V30 4 1 13 7
M  V30 5 2 14 12
M  V30 6 1 15 1
M  V30 7 1 15 13
M  V30 8 1 17 4
M  V30 9 1 18 4
M  V30 10 2 18 9
M  V30 11 1 19 2
M  V30 12 1 19 6
M  V30 13 1 19 16
M  V30 14 2 21 5
M  V30 15 1 21 12
M  V30 16 2 24 22
M  V30 17 1 25 23
M  V30 18 2 26 3
M  V30 19 1 26 8
M  V30 20 1 26 9
M  V30 21 1 27 8
M  V30 22 1 27 21
M  V30 23 1 28 15
M  V30 24 1 29 5
M  V30 25 1 29 14
M  V30 26 1 31 1
M  V30 27 2 32 10
M  V30 28 1 32 18
M  V30 29 1 33 7
M  V30 30 1 34 20 CFG=3
M  V30 31 1 34 25
M  V30 32 1 34 30
M  V30 33 1 34 31
M  V30 34 1 35 23
M  V30 35 1 35 31
M  V30 36 2 36 27
M  V30 37 1 37 6
M  V30 38 1 37 22
M  V30 39 1 37 33
M  V30 40 1 38 13
M  V30 41 1 38 22
M  V30 42 1 38 30
M  V30 43 1 39 1
M  V30 44 1 40 1
M  V30 45 1 41 2
M  V30 46 1 42 2
M  V30 47 1 43 3
M  V30 48 1 44 6
M  V30 49 1 45 6
M  V30 50 1 46 7
M  V30 51 1 47 7
M  V30 52 1 48 9
M  V30 53 1 49 10
M  V30 54 1 50 11
M  V30 55 1 51 11
M  V30 56 1 52 11
M  V30 57 1 13 53 CFG=1
M  V30 58 1 54 14
M  V30 59 1 55 16
M  V30 60 1 56 16
M  V30 61 1 57 16
M  V30 62 1 58 17
M  V30 63 1 59 17
M  V30 64 1 60 17
M  V30 65 1 19 61 CFG=3
M  V30 66 1 62 20
M  V30 67 1 63 20
M  V30 68 1 64 20
M  V30 69 1 65 23
M  V30 70 1 66 23
M  V30 71 1 67 25
M  V30 72 1 68 25
M  V30 73 1 69 28
M  V30 74 1 70 28
M  V30 75 1 71 28
M  V30 76 1 72 29
M  V30 77 1 73 29
M  V30 78 1 74 30
M  V30 79 1 75 30
M  V30 80 1 31 76 CFG=3
M  V30 81 1 77 32
M  V30 82 1 78 33
M  V30 83 1 79 33
M  V30 84 1 80 35
M  V30 85 1 81 35
M  V30 86 1 38 82 CFG=1
M  V30 87 1 15 83 CFG=3
M  V30 END BOND
M  V30 END CTAB
M  END
>  <i_epik_Tot_Q>  (1) 
1

>  <i_epik_Tot_abs_Q>  (1) 
1

>  <i_i_glide_confnum>  (1) 
250

>  <i_i_glide_lignum>  (1) 
61

>  <i_i_glide_posenum>  (1) 
387

>  <i_i_glide_rotatable_bonds>  (1) 
8

>  <i_lp_mmshare_version>  (1) 
72125

>  <i_m_source_file_index>  (1) 
24

>  <i_f3d_flags>  (1) 
0

>  <num_sample>  (1) 
100

>  <b_lp_Chiralities_Consistent>  (1) 
1

>  <r_epik_Charging_Adjusted_Penalty>  (1) 
0.0029773975431382485

>  <r_epik_Ionization_Penalty>  (1) 
0.013183626931022738

>  <r_epik_Ionization_Penalty_Charging>  (1) 
0.0029773975431382485

>  <r_epik_Ionization_Penalty_Neutral>  (1) 
0.010206229387884489

>  <r_epik_State_Penalty>  (1) 
-0

>  <r_glide_ring_energy>  (1) 
0

>  <r_i_docking_score>  (1) 
-6.5082126561276743

>  <r_i_glide_ecoul>  (1) 
-0.93711959262429101

>  <r_i_glide_eff_state_penalty>  (1) 
-0

>  <r_i_glide_einternal>  (1) 
51.224938057862857

>  <r_i_glide_emodel>  (1) 
-9.4050972714320835

>  <r_i_glide_emodel_strain>  (1) 
1.173004706058407

>  <r_i_glide_energy>  (1) 
-31.820257291765181

>  <r_i_glide_erotb>  (1) 
0.5287100460970352

>  <r_i_glide_esite>  (1) 
-0.022816632858170694

>  <r_i_glide_evdw>  (1) 
-30.883137699140889

>  <r_i_glide_gscore>  (1) 
-6.5082126561276743

>  <r_i_glide_gscore_strain>  (1) 
0

>  <r_i_glide_hbond>  (1) 
0

>  <r_i_glide_ligand_efficiency>  (1) 
-0.17126875410862299

>  <r_i_glide_ligand_efficiency_ln>  (1) 
-1.4033621008804404

>  <r_i_glide_ligand_efficiency_sa>  (1) 
-0.57580133926628962

>  <r_i_glide_lipo>  (1) 
-4.3645006135821491

>  <r_i_glide_metal>  (1) 
-0

>  <r_i_glide_rewards>  (1) 
-0.96488063193370099

>  <r_lp_Energy>  (1) 
96.794462999999993

>  <r_lp_tautomer_probability>  (1) 
1

>  <s_epik_Chemistry_Notes>  (1) 
This compound has an imine and may undergo hydrolysis.

>  <s_epik_cmdline>  (1) 
J2VwaWtfcHl0aG9uJywgJy1waHQnLCAnMS4wJywgJy1waCcsICc3LjQnLCAnLXRuJywgJzgnLCAnLW1hJywgJzUwMCcsICctaW1hZScsICc8aW5maWxlLm1hZT4nLCAnLW9tYWUnLCAnPG91dGZpbGUubWFlPic=

>  <s_epik_input>  (1) 
W0NIMl0xW0NIMl1bQ0gyXVtDQEBIXShbQ0BAXTEyW0NIM10pW0NIMl1OKFtDSDNdKVtDQEhdM1tDQEhdKFtDSDJdMilDKD1PKU4oW0NIMl1bQ0gyXTMpW0NIMl1bQ0BASF0oW0NIM10pW0NIMl1OKGMoW2NIXVtjSF1bY0hdNClbY0hdYzRPW0NIM10pQyg9TylDNT1OW0NIMl1bQ0hdPUM1W0NIM10=

>  <s_glide_docking_method>  (1) 
confgen

>  <s_i_glide_gridfile>  (1) 
gpcr_5ht2c_6bqh_protein_autoprepared_prepared

>  <s_lp_Force_Field>  (1) 
S-OPLS

>  <s_lp_Variant>  (1) 
DiffSBDD_23_num_sample_100-4

>  <s_m_source_file>  (1) 
generated__ligand_DiffSBDD_2026-05-06_prepared.sdf

>  <GenAI_Model>  (1) 
DiffSBDD

>  <Protein>  (1) 
GPCR_5HT2C

$$$$
DiffSBDD_97_num_sample_100
     RDKit          3D

  0  0  0  0  0  0  0  0  0  0999 V3000
M  V30 BEGIN CTAB
M  V30 COUNTS 74 78 0 0 1
M  V30 BEGIN ATOM
M  V30 1 C 39.867403 29.712101 51.943232 0
M  V30 2 C 38.767922 28.706434 60.009779 0
M  V30 3 C 41.375455 32.705325 62.685490 0
M  V30 4 S 39.467402 29.317901 61.560381 0 CHG=1
M  V30 5 C 37.123373 32.959301 59.177824 0
M  V30 6 C 40.861939 31.452786 65.157530 0
M  V30 7 C 39.835843 28.842032 58.918061 0 CFG=2
M  V30 8 C 38.848029 27.346973 54.525169 0
M  V30 9 C 41.067340 28.639272 61.130523 0
M  V30 10 C 38.500275 31.971131 61.111605 0 CFG=1
M  V30 11 N 36.200783 35.291536 59.453484 0 CHG=1
M  V30 12 N 38.101979 28.362941 53.738057 0 CFG=1 CHG=1
M  V30 13 C 41.997176 33.172659 63.858288 0
M  V30 14 C 39.612506 27.915616 57.701369 0
M  V30 15 C 38.438445 29.800864 54.020496 0 CFG=1
M  V30 16 C 41.206353 28.628743 59.591256 0
M  V30 17 N 38.596818 33.339992 61.635382 0
M  V30 18 C 38.314077 32.097918 59.582159 0
M  V30 19 O 35.140350 34.821416 59.053502 0
M  V30 20 C 37.416260 34.155434 61.352172 0
M  V30 21 O 36.444405 36.488598 59.564732 0 CHG=-1
M  V30 22 C 41.743573 32.546193 65.091818 0
M  V30 23 C 37.913359 29.504433 56.510324 0
M  V30 24 C 38.117060 27.013000 55.837480 0
M  V30 25 C 38.870564 30.088784 55.467840 0
M  V30 26 C 39.467923 30.356503 53.048438 0
M  V30 27 C 38.030739 28.042115 52.285424 0
M  V30 28 C 40.227978 30.986235 63.990576 0
M  V30 29 F 42.347540 32.997311 66.216279 0
M  V30 30 C 38.250982 28.061140 56.966604 0 CFG=1
M  V30 31 C 39.778262 31.130635 61.458737 0 CFG=1
M  V30 32 C 39.340078 28.358316 51.540491 0
M  V30 33 C 40.481670 31.613717 62.744289 0
M  V30 34 C 37.283351 34.332329 59.832128 0 CFG=1
M  V30 35 H 40.605666 30.161889 51.294661 0
M  V30 36 H 37.808683 29.160990 59.772694 0
M  V30 37 H 38.566137 27.646237 60.164293 0
M  V30 38 H 41.572089 33.193107 61.741453 0
M  V30 39 H 36.195183 32.484282 59.497613 0
M  V30 40 H 37.071350 33.052843 58.092327 0
M  V30 41 H 40.665860 30.974190 66.106162 0
M  V30 42 H 39.837266 29.868056 58.557912 0
M  V30 43 H 39.876173 27.650376 54.696307 0
M  V30 44 H 38.913099 26.420347 53.953882 0
M  V30 45 H 41.867325 29.128539 61.681628 0
M  V30 46 H 41.051638 27.621427 61.490132 0
M  V30 47 H 37.625899 31.507195 61.570299 0
M  V30 48 H 42.670320 34.014499 63.812133 0
M  V30 49 H 39.710036 26.883364 58.041430 0
M  V30 50 H 40.432956 28.059826 56.997880 0
M  V30 51 H 37.521267 30.365836 53.853246 0
M  V30 52 H 41.673998 27.695101 59.275178 0
M  V30 53 H 41.867402 29.421329 59.249942 0
M  V30 54 H 38.769989 33.316618 62.632514 0
M  V30 55 H 39.213308 32.503747 59.118574 0
M  V30 56 H 38.152619 31.128354 59.154460 0
M  V30 57 H 36.522472 33.697168 61.778291 0
M  V30 58 H 37.539057 35.129002 61.827399 0
M  V30 59 H 37.926677 30.154515 57.372347 0
M  V30 60 H 36.888196 29.606683 56.151865 0
M  V30 61 H 38.493069 26.058214 56.208216 0
M  V30 62 H 37.067419 26.821392 55.616977 0
M  V30 63 H 39.897760 29.773690 55.645579 0
M  V30 64 H 38.886940 31.172478 55.598632 0
M  V30 65 H 39.883649 31.326668 53.280905 0
M  V30 66 H 37.764677 26.996641 52.138883 0
M  V30 67 H 37.218714 28.626366 51.853623 0
M  V30 68 H 39.542302 30.155043 64.056700 0
M  V30 69 H 37.486648 27.796565 57.698282 0
M  V30 70 H 40.499603 31.275564 60.654637 0
M  V30 71 H 39.175816 28.328003 50.462483 0
M  V30 72 H 40.105943 27.620456 51.769844 0
M  V30 73 H 38.188740 34.806631 59.453494 0
M  V30 74 H 37.153344 28.253248 54.066569 0
M  V30 END ATOM
M  V30 BEGIN BOND
M  V30 1 1 4 2 CFG=3
M  V30 2 1 7 2
M  V30 3 1 9 4
M  V30 4 1 12 8
M  V30 5 1 13 3
M  V30 6 1 14 7
M  V30 7 1 15 12
M  V30 8 1 16 7
M  V30 9 1 16 9
M  V30 10 1 17 10
M  V30 11 1 18 5
M  V30 12 1 18 10
M  V30 13 2 19 11
M  V30 14 1 20 17
M  V30 15 1 21 11
M  V30 16 1 22 6
M  V30 17 2 22 13
M  V30 18 1 24 8
M  V30 19 1 25 15
M  V30 20 1 25 23
M  V30 21 2 26 1
M  V30 22 1 26 15
M  V30 23 1 27 12
M  V30 24 2 28 6
M  V30 25 1 29 22
M  V30 26 1 30 14
M  V30 27 1 30 23
M  V30 28 1 30 24
M  V30 29 1 31 4
M  V30 30 1 31 10
M  V30 31 1 32 1
M  V30 32 1 32 27
M  V30 33 2 33 3
M  V30 34 1 33 28
M  V30 35 1 33 31
M  V30 36 1 34 5
M  V30 37 1 34 11
M  V30 38 1 34 20
M  V30 39 1 35 1
M  V30 40 1 36 2
M  V30 41 1 37 2
M  V30 42 1 38 3
M  V30 43 1 39 5
M  V30 44 1 40 5
M  V30 45 1 41 6
M  V30 46 1 7 42 CFG=3
M  V30 47 1 43 8
M  V30 48 1 44 8
M  V30 49 1 45 9
M  V30 50 1 46 9
M  V30 51 1 10 47 CFG=1
M  V30 52 1 48 13
M  V30 53 1 49 14
M  V30 54 1 50 14
M  V30 55 1 15 51 CFG=3
M  V30 56 1 52 16
M  V30 57 1 53 16
M  V30 58 1 54 17
M  V30 59 1 55 18
M  V30 60 1 56 18
M  V30 61 1 57 20
M  V30 62 1 58 20
M  V30 63 1 59 23
M  V30 64 1 60 23
M  V30 65 1 61 24
M  V30 66 1 62 24
M  V30 67 1 63 25
M  V30 68 1 64 25
M  V30 69 1 65 26
M  V30 70 1 66 27
M  V30 71 1 67 27
M  V30 72 1 68 28
M  V30 73 1 30 69 CFG=1
M  V30 74 1 31 70 CFG=3
M  V30 75 1 71 32
M  V30 76 1 72 32
M  V30 77 1 34 73 CFG=3
M  V30 78 1 12 74 CFG=1
M  V30 END BOND
M  V30 END CTAB
M  END
>  <i_epik_Tot_Q>  (1) 
2

>  <i_epik_Tot_abs_Q>  (1) 
4

>  <i_i_glide_confnum>  (1) 
81

>  <i_i_glide_lignum>  (1) 
268

>  <i_i_glide_posenum>  (1) 
107

>  <i_i_glide_rotatable_bonds>  (1) 
6

>  <i_lp_mmshare_version>  (1) 
72125

>  <i_m_source_file_index>  (1) 
98

>  <i_f3d_flags>  (1) 
0

>  <num_sample>  (1) 
100

>  <b_lp_Chiralities_Consistent>  (1) 
1

>  <r_epik_Charging_Adjusted_Penalty>  (1) 
0.028424460748094963

>  <r_epik_Ionization_Penalty>  (1) 
0.031653010901111077

>  <r_epik_Ionization_Penalty_Charging>  (1) 
0.0018620536084809386

>  <r_epik_Ionization_Penalty_Neutral>  (1) 
0.029790957292630139

>  <r_epik_State_Penalty>  (1) 
0.026562407139614025

>  <r_glide_ring_energy>  (1) 
0

>  <r_i_docking_score>  (1) 
-6.5081036099393703

>  <r_i_glide_ecoul>  (1) 
0.6849493222166072

>  <r_i_glide_eff_state_penalty>  (1) 
0.026562407139614025

>  <r_i_glide_einternal>  (1) 
9.2202974079782418

>  <r_i_glide_emodel>  (1) 
-46.030456474767284

>  <r_i_glide_emodel_strain>  (1) 
2.1322804059615237

>  <r_i_glide_energy>  (1) 
-40.654524039931395

>  <r_i_glide_erotb>  (1) 
0.42420227184638803

>  <r_i_glide_esite>  (1) 
-0.02831733162455562

>  <r_i_glide_evdw>  (1) 
-41.339473362148006

>  <r_i_glide_gscore>  (1) 
-6.5346660170789841

>  <r_i_glide_gscore_strain>  (1) 
0

>  <r_i_glide_hbond>  (1) 
0

>  <r_i_glide_ligand_efficiency>  (1) 
-0.19141481205704031

>  <r_i_glide_ligand_efficiency_ln>  (1) 
-1.4378226335586164

>  <r_i_glide_ligand_efficiency_sa>  (1) 
-0.62010968407929934

>  <r_i_glide_lipo>  (1) 
-4.1026160985552957

>  <r_i_glide_metal>  (1) 
-0

>  <r_i_glide_rewards>  (1) 
-0.86370358897061139

>  <r_lp_Energy>  (1) 
45.035862999999999

>  <s_epik_cmdline>  (1) 
J2VwaWtfcHl0aG9uJywgJy1waHQnLCAnMS4wJywgJy1waCcsICc3LjQnLCAnLXRuJywgJzgnLCAnLW1hJywgJzUwMCcsICctaW1hZScsICc8aW5maWxlLm1hZT4nLCAnLW9tYWUnLCAnPG91dGZpbGUubWFlPic=

>  <s_epik_input>  (1) 
W0NIMl0xW0NIMl1bQ0hdPVtDSF1bQ0BASF0oTjEyKVtDSDJdW0NIMl1bQ0BASF0oW0NIMl1bQ0gyXTIpW0NIMl1bQ0BIXShbQ0gyXVtDSDJdMylbQ0gyXVtTK10zW0NASF0oYyhbY0hdW2NIXTQpW2NIXVtjSF1jNEYpW0NASF01W05IXVtDSDJdW0NASF0oW04rXSg9TylbTy1dKVtDSDJdW0NIMl01

>  <s_glide_docking_method>  (1) 
confgen

>  <s_i_glide_gridfile>  (1) 
gpcr_5ht2c_6bqh_protein_autoprepared_prepared

>  <s_lp_Force_Field>  (1) 
S-OPLS

>  <s_lp_Variant>  (1) 
DiffSBDD_97_num_sample_100-1

>  <s_m_source_file>  (1) 
generated__ligand_DiffSBDD_2026-05-06_prepared.sdf

>  <GenAI_Model>  (1) 
DiffSBDD

>  <Protein>  (1) 
GPCR_5HT2C

$$$$
DiffSBDD_44_num_sample_100
     RDKit          3D

  0  0  0  0  0  0  0  0  0  0999 V3000
M  V30 BEGIN CTAB
M  V30 COUNTS 58 59 0 0 1
M  V30 BEGIN ATOM
M  V30 1 C 40.200331 26.356084 55.511956 0
M  V30 2 O 39.197971 27.673648 59.415258 0 CHG=-1
M  V30 3 C 38.832920 28.932248 52.842833 0
M  V30 4 C 38.254247 25.531306 56.739475 0 CFG=1
M  V30 5 N 39.098698 26.339743 57.649430 0 CFG=1 CHG=1
M  V30 6 C 40.270733 30.871721 52.500418 0
M  V30 7 N 38.549315 29.434096 55.665933 0
M  V30 8 C 39.457268 29.953945 53.371259 0
M  V30 9 O 39.050696 31.693451 55.010446 0
M  V30 10 C 38.980340 25.448026 55.400034 0 CFG=1
M  V30 11 C 38.070541 25.865885 54.253630 0
M  V30 12 C 37.699296 28.553991 57.774351 0 CFG=1
M  V30 13 C 38.574972 29.463685 56.944221 0
M  V30 14 C 40.351896 26.729205 56.982564 0
M  V30 15 C 37.693722 32.020871 54.760158 0
M  V30 16 C 39.307493 28.314592 50.501524 0
M  V30 17 C 38.365327 27.330369 58.468256 0 CFG=2
M  V30 18 C 39.378396 30.316184 54.859794 0 CFG=1
M  V30 19 F 40.507624 29.621370 49.053558 0
M  V30 20 C 39.857230 29.726522 50.201845 0 CFG=2
M  V30 21 C 38.582190 28.152945 51.824604 0
M  V30 22 C 36.739593 29.362218 58.679273 0
M  V30 23 C 39.466463 30.400120 57.744638 0
M  V30 24 C 37.971598 24.161614 57.351050 0
M  V30 25 C 40.869414 30.243864 51.216482 0
M  V30 26 H 40.086542 27.256109 54.909502 0
M  V30 27 H 41.067404 25.819273 55.144661 0
M  V30 28 H 37.290625 26.010717 56.582874 0
M  V30 29 H 39.660961 31.735476 52.246662 0
M  V30 30 H 41.067329 31.221899 53.139249 0
M  V30 31 H 39.329662 24.433776 55.218316 0
M  V30 32 H 37.564976 26.810007 54.458088 0
M  V30 33 H 38.681533 26.021440 53.372875 0
M  V30 34 H 37.313233 25.114102 54.032816 0
M  V30 35 H 37.067456 28.092346 57.049480 0
M  V30 36 H 40.649991 27.764640 57.126926 0
M  V30 37 H 41.119895 26.131983 57.458518 0
M  V30 38 H 37.577679 33.098584 54.662708 0
M  V30 39 H 37.327132 31.553773 53.853500 0
M  V30 40 H 37.067610 31.685372 55.580076 0
M  V30 41 H 40.120154 27.589414 50.486815 0
M  V30 42 H 38.667443 28.022171 49.689643 0
M  V30 43 H 37.506688 26.700741 58.653245 0
M  V30 44 H 40.410814 30.225007 55.204118 0
M  V30 45 H 39.067538 30.461473 50.050546 0
M  V30 46 H 37.920304 27.308403 51.912425 0
M  V30 47 H 36.434336 30.298188 58.214638 0
M  V30 48 H 35.819485 28.821668 58.887214 0
M  V30 49 H 37.199972 29.611109 59.634891 0
M  V30 50 H 39.129509 30.474437 58.777533 0
M  V30 51 H 40.473557 29.999000 57.784348 0
M  V30 52 H 39.467533 31.414329 57.353014 0
M  V30 53 H 37.278694 23.610191 56.717624 0
M  V30 54 H 38.890520 23.588011 57.456582 0
M  V30 55 H 37.509706 24.249593 58.333475 0
M  V30 56 H 41.499621 30.992312 50.736201 0
M  V30 57 H 41.510845 29.398103 51.453475 0
M  V30 58 H 39.415488 25.706905 58.367256 0
M  V30 END ATOM
M  V30 BEGIN BOND
M  V30 1 1 5 4
M  V30 2 2 8 3
M  V30 3 1 8 6
M  V30 4 1 10 1
M  V30 5 1 10 4
M  V30 6 1 11 10
M  V30 7 2 13 7
M  V30 8 1 13 12
M  V30 9 1 14 1
M  V30 10 1 14 5
M  V30 11 1 15 9
M  V30 12 1 17 2
M  V30 13 1 17 5
M  V30 14 1 17 12
M  V30 15 1 18 7
M  V30 16 1 18 8
M  V30 17 1 18 9
M  V30 18 1 20 16
M  V30 19 1 20 19
M  V30 20 2 21 3
M  V30 21 1 21 16
M  V30 22 1 22 12
M  V30 23 1 23 13
M  V30 24 1 24 4
M  V30 25 1 25 6
M  V30 26 1 25 20
M  V30 27 1 26 1
M  V30 28 1 27 1
M  V30 29 1 4 28 CFG=3
M  V30 30 1 29 6
M  V30 31 1 30 6
M  V30 32 1 10 31 CFG=3
M  V30 33 1 32 11
M  V30 34 1 33 11
M  V30 35 1 34 11
M  V30 36 1 12 35 CFG=3
M  V30 37 1 36 14
M  V30 38 1 37 14
M  V30 39 1 38 15
M  V30 40 1 39 15
M  V30 41 1 40 15
M  V30 42 1 41 16
M  V30 43 1 42 16
M  V30 44 1 17 43 CFG=1
M  V30 45 1 18 44 CFG=1
M  V30 46 1 20 45 CFG=3
M  V30 47 1 46 21
M  V30 48 1 47 22
M  V30 49 1 48 22
M  V30 50 1 49 22
M  V30 51 1 50 23
M  V30 52 1 51 23
M  V30 53 1 52 23
M  V30 54 1 53 24
M  V30 55 1 54 24
M  V30 56 1 55 24
M  V30 57 1 56 25
M  V30 58 1 57 25
M  V30 59 1 5 58 CFG=1
M  V30 END BOND
M  V30 END CTAB
M  END
>  <i_epik_Tot_Q>  (1) 
0

>  <i_epik_Tot_abs_Q>  (1) 
2

>  <i_i_glide_confnum>  (1) 
13

>  <i_i_glide_lignum>  (1) 
120

>  <i_i_glide_posenum>  (1) 
153

>  <i_i_glide_rotatable_bonds>  (1) 
6

>  <i_lp_mmshare_version>  (1) 
72125

>  <i_m_source_file_index>  (1) 
45

>  <i_f3d_flags>  (1) 
0

>  <num_sample>  (1) 
100

>  <b_lp_Chiralities_Consistent>  (1) 
1

>  <r_epik_Charging_Adjusted_Penalty>  (1) 
0.41733257654759531

>  <r_epik_Ionization_Penalty>  (1) 
0.0069177268181324029

>  <r_epik_Ionization_Penalty_Charging>  (1) 
0.0066527375949913311

>  <r_epik_Ionization_Penalty_Neutral>  (1) 
0.00026498922314107146

>  <r_epik_State_Penalty>  (1) 
0.41067983895260396

>  <r_glide_ring_energy>  (1) 
0

>  <r_i_docking_score>  (1) 
-6.5065523612860279

>  <r_i_glide_ecoul>  (1) 
-1.389072563981109

>  <r_i_glide_eff_state_penalty>  (1) 
0.41067983895260396

>  <r_i_glide_einternal>  (1) 
11.949873330017866

>  <r_i_glide_emodel>  (1) 
-37.1861576086784

>  <r_i_glide_emodel_strain>  (1) 
1.8874922906588623

>  <r_i_glide_energy>  (1) 
-28.526601270791318

>  <r_i_glide_erotb>  (1) 
0.61440649929112812

>  <r_i_glide_esite>  (1) 
-0.011419499405697642

>  <r_i_glide_evdw>  (1) 
-27.137528706810208

>  <r_i_glide_gscore>  (1) 
-6.9172322002386322

>  <r_i_glide_gscore_strain>  (1) 
0

>  <r_i_glide_hbond>  (1) 
0

>  <r_i_glide_ligand_efficiency>  (1) 
-0.26026209445144111

>  <r_i_glide_ligand_efficiency_ln>  (1) 
-1.542247895264681

>  <r_i_glide_ligand_efficiency_sa>  (1) 
-0.76101098076044627

>  <r_i_glide_lipo>  (1) 
-3.6653057151404456

>  <r_i_glide_metal>  (1) 
-0

>  <r_i_glide_rewards>  (1) 
-2.2896761650459405

>  <r_lp_Energy>  (1) 
10.956301

>  <r_lp_tautomer_probability>  (1) 
0.49999399997599986

>  <s_epik_Chemistry_Notes>  (1) 
This compound has an imine and may undergo hydrolysis. This compound contains an acetal/aminal-like group ( X-CH(R)-Y where X, Y are N, S, or O) that may be acid/base labile, releasing an aldehyde.

>  <s_epik_cmdline>  (1) 
J2VwaWtfcHl0aG9uJywgJy1waHQnLCAnMS4wJywgJy1waCcsICc3LjQnLCAnLXRuJywgJzgnLCAnLW1hJywgJzUwMCcsICctaW1hZScsICc8aW5maWxlLm1hZT4nLCAnLW9tYWUnLCAnPG91dGZpbGUubWFlPic=

>  <s_epik_input>  (1) 
W0NIM11bQ0BIXTFbQ0gyXVtDSDJdTihbQ0BASF0xW0NIM10pW0NAQEhdKFtPSF0pW0NAQEhdKFtDSDNdKVxDKFtDSDNdKT1OXFtDQEBIXShPW0NIM10pQzI9Qz1bQ0hdW0NIMl1bQ0BASF0oRilbQ0gyXVtDSDJdMg==

>  <s_glide_docking_method>  (1) 
confgen

>  <s_i_glide_gridfile>  (1) 
gpcr_5ht2c_6bqh_protein_autoprepared_prepared

>  <s_lp_Force_Field>  (1) 
S-OPLS

>  <s_lp_Variant>  (1) 
DiffSBDD_44_num_sample_100-13

>  <s_m_source_file>  (1) 
generated__ligand_DiffSBDD_2026-05-06_prepared.sdf

>  <GenAI_Model>  (1) 
DiffSBDD

>  <Protein>  (1) 
GPCR_5HT2C

$$$$
DiffSBDD_77_num_sample_100
     RDKit          3D

  0  0  0  0  0  0  0  0  0  0999 V3000
M  V30 BEGIN CTAB
M  V30 COUNTS 77 79 0 0 1
M  V30 BEGIN ATOM
M  V30 1 C 41.814507 30.569355 68.279260 0
M  V30 2 F 45.467378 30.883631 68.505423 0
M  V30 3 C 36.402947 32.664233 59.053580 0
M  V30 4 C 41.468820 31.860785 67.836469 0
M  V30 5 C 39.121814 28.541206 58.027142 0
M  V30 6 C 42.375341 33.616564 64.688618 0
M  V30 7 C 39.177398 32.329130 61.830083 0
M  V30 8 C 41.029136 33.844561 62.520579 0 CFG=2
M  V30 9 O 39.149414 29.811035 60.351947 0
M  V30 10 C 39.278566 27.444286 56.950892 0
M  V30 11 N 39.867457 37.562282 66.576579 0
M  V30 12 C 42.105068 34.219015 67.129986 0
M  V30 13 C 44.170691 31.200233 68.287754 0
M  V30 14 O 35.864505 34.021486 61.776627 0
M  V30 15 C 37.021459 34.187133 60.992188 0
M  V30 16 C 42.475558 32.823975 67.616419 0
M  V30 17 F 43.494797 28.997341 68.930360 0
M  V30 18 C 40.965721 36.021273 63.956065 0
M  V30 19 O 40.310599 39.150386 68.119353 0
M  V30 20 O 40.745723 31.983223 64.182520 0
M  V30 21 C 43.164465 30.239174 68.504654 0
M  V30 22 C 38.986737 29.225183 55.195644 0
M  V30 23 N 38.442425 30.944425 58.494099 0
M  V30 24 C 39.856452 36.159589 66.177776 0
M  V30 25 C 43.828487 32.490155 67.844319 0
M  V30 26 C 37.322368 32.905469 60.225576 0
M  V30 27 C 40.267218 37.968675 67.786907 0
M  V30 28 C 38.686176 30.251774 56.183623 0
M  V30 29 C 40.208354 35.033357 63.045756 0
M  V30 30 F 38.989744 29.560845 53.894042 0
M  V30 31 C 38.339343 31.662198 55.730712 0
M  V30 32 C 41.433082 34.263275 65.744783 0 CFG=1
M  V30 33 C 38.664526 30.817132 59.839031 0
M  V30 34 N 40.321778 33.157181 61.442557 0
M  V30 35 C 38.340524 32.055559 60.605770 0
M  V30 36 C 38.739044 29.942623 57.503672 0
M  V30 37 C 39.260752 27.955583 55.528835 0
M  V30 38 C 41.650286 32.879029 63.562247 0 CFG=2
M  V30 39 N 41.037741 35.664956 65.407599 0 CFG=1 CHG=1
M  V30 40 H 41.043820 29.830695 68.446413 0
M  V30 41 H 35.496090 33.261699 59.151442 0
M  V30 42 H 36.873839 32.975248 58.125006 0
M  V30 43 H 36.062054 31.628177 59.053205 0
M  V30 44 H 40.433543 32.110718 67.664172 0
M  V30 45 H 40.092944 28.612821 58.519621 0
M  V30 46 H 38.385762 28.185399 58.749678 0
M  V30 47 H 43.067105 34.354258 64.287824 0
M  V30 48 H 43.019643 32.871032 65.151267 0
M  V30 49 H 38.575448 32.787930 62.612322 0
M  V30 50 H 39.507288 31.374119 62.235159 0
M  V30 51 H 41.868192 34.328574 62.033617 0
M  V30 52 H 38.472357 26.716889 57.048475 0
M  V30 53 H 40.208477 26.896789 57.111755 0
M  V30 54 H 39.581006 38.252585 65.896090 0
M  V30 55 H 43.009615 34.818580 67.053501 0
M  V30 56 H 41.470288 34.669195 67.894015 0
M  V30 57 H 35.124881 33.901447 61.198848 0
M  V30 58 H 36.852081 34.997454 60.281191 0
M  V30 59 H 37.837569 34.524461 61.622108 0
M  V30 60 H 41.972180 36.185450 63.569353 0
M  V30 61 H 40.473427 36.988361 63.853894 0
M  V30 62 H 41.230452 31.258345 64.549112 0
M  V30 63 H 38.098845 31.828851 58.147586 0
M  V30 64 H 38.966373 36.024398 65.569004 0
M  V30 65 H 39.666233 35.542642 67.057231 0
M  V30 66 H 44.603806 33.221442 67.677126 0
M  V30 67 H 40.547383 37.118650 68.428340 0
M  V30 68 H 39.921723 35.612626 62.166429 0
M  V30 69 H 39.263496 34.716793 63.453498 0
M  V30 70 H 38.120771 31.701515 54.663618 0
M  V30 71 H 37.467408 32.046136 56.243427 0
M  V30 72 H 39.174144 32.335246 55.924345 0
M  V30 73 H 40.511836 33.690672 65.831966 0
M  V30 74 H 39.985159 33.867913 60.801084 0
M  V30 75 H 39.475358 27.234354 54.753396 0
M  V30 76 H 42.379192 32.264093 63.031283 0
M  V30 77 H 41.805449 36.235967 65.737262 0
M  V30 END ATOM
M  V30 BEGIN BOND
M  V30 1 2 4 1
M  V30 2 1 10 5
M  V30 3 1 13 2
M  V30 4 1 15 14
M  V30 5 1 16 4
M  V30 6 1 16 12
M  V30 7 1 21 1
M  V30 8 2 21 13
M  V30 9 1 21 17
M  V30 10 1 24 11
M  V30 11 1 25 13
M  V30 12 2 25 16
M  V30 13 1 26 3
M  V30 14 1 26 15
M  V30 15 1 27 11
M  V30 16 2 27 19
M  V30 17 1 28 22
M  V30 18 1 29 8
M  V30 19 1 29 18
M  V30 20 1 30 22
M  V30 21 1 31 28
M  V30 22 1 32 6
M  V30 23 1 32 12
M  V30 24 2 33 9
M  V30 25 1 33 23
M  V30 26 1 34 7
M  V30 27 1 34 8
M  V30 28 1 35 7
M  V30 29 2 35 26
M  V30 30 1 35 33
M  V30 31 1 36 5
M  V30 32 1 36 23
M  V30 33 2 36 28
M  V30 34 1 37 10
M  V30 35 2 37 22
M  V30 36 1 38 6
M  V30 37 1 38 8
M  V30 38 1 38 20
M  V30 39 1 39 18
M  V30 40 1 39 24
M  V30 41 1 39 32
M  V30 42 1 40 1
M  V30 43 1 41 3
M  V30 44 1 42 3
M  V30 45 1 43 3
M  V30 46 1 44 4
M  V30 47 1 45 5
M  V30 48 1 46 5
M  V30 49 1 47 6
M  V30 50 1 48 6
M  V30 51 1 49 7
M  V30 52 1 50 7
M  V30 53 1 8 51 CFG=3
M  V30 54 1 52 10
M  V30 55 1 53 10
M  V30 56 1 54 11
M  V30 57 1 55 12
M  V30 58 1 56 12
M  V30 59 1 57 14
M  V30 60 1 58 15
M  V30 61 1 59 15
M  V30 62 1 60 18
M  V30 63 1 61 18
M  V30 64 1 62 20
M  V30 65 1 63 23
M  V30 66 1 64 24
M  V30 67 1 65 24
M  V30 68 1 66 25
M  V30 69 1 67 27
M  V30 70 1 68 29
M  V30 71 1 69 29
M  V30 72 1 70 31
M  V30 73 1 71 31
M  V30 74 1 72 31
M  V30 75 1 32 73 CFG=1
M  V30 76 1 74 34
M  V30 77 1 75 37
M  V30 78 1 38 76 CFG=3
M  V30 79 1 39 77 CFG=1
M  V30 END BOND
M  V30 END CTAB
M  END
>  <i_epik_Tot_Q>  (1) 
1

>  <i_epik_Tot_abs_Q>  (1) 
1

>  <i_i_glide_confnum>  (1) 
3146

>  <i_i_glide_lignum>  (1) 
196

>  <i_i_glide_posenum>  (1) 
96

>  <i_i_glide_rotatable_bonds>  (1) 
14

>  <i_lp_mmshare_version>  (1) 
72125

>  <i_m_source_file_index>  (1) 
78

>  <i_f3d_flags>  (1) 
0

>  <num_sample>  (1) 
100

>  <b_lp_Chiralities_Consistent>  (1) 
1

>  <r_epik_Charging_Adjusted_Penalty>  (1) 
1.2599673287133732

>  <r_epik_Ionization_Penalty>  (1) 
0.56885031527891383

>  <r_epik_Ionization_Penalty_Charging>  (1) 
0.52000942162343

>  <r_epik_Ionization_Penalty_Neutral>  (1) 
0.048840893655483872

>  <r_epik_State_Penalty>  (1) 
0.73995790708994325

>  <r_glide_ring_energy>  (1) 
0

>  <r_i_docking_score>  (1) 
-6.4997319276974954

>  <r_i_glide_ecoul>  (1) 
-7.0102466475630454

>  <r_i_glide_eff_state_penalty>  (1) 
0.73995790708994325

>  <r_i_glide_einternal>  (1) 
19.744561842711391

>  <r_i_glide_emodel>  (1) 
-65.484910114663066

>  <r_i_glide_emodel_strain>  (1) 
2.5464281820482029

>  <r_i_glide_energy>  (1) 
-49.237596094007429

>  <r_i_glide_erotb>  (1) 
0.67934156738045093

>  <r_i_glide_esite>  (1) 
-0.069342023685217455

>  <r_i_glide_evdw>  (1) 
-42.227349446444386

>  <r_i_glide_gscore>  (1) 
-7.2396898347874385

>  <r_i_glide_gscore_strain>  (1) 
0

>  <r_i_glide_hbond>  (1) 
-0.2554961648955083

>  <r_i_glide_ligand_efficiency>  (1) 
-0.1666597930178845

>  <r_i_glide_ligand_efficiency_ln>  (1) 
-1.3937270311611967

>  <r_i_glide_ligand_efficiency_sa>  (1) 
-0.56517859717262253

>  <r_i_glide_lipo>  (1) 
-2.7989963071614956

>  <r_i_glide_metal>  (1) 
-0

>  <r_i_glide_rewards>  (1) 
-1.6322924369689913

>  <r_lp_Energy>  (1) 
52.110675999999998

>  <s_epik_Chemistry_Notes>  (1) 
This compound contains an acetal/aminal-like group ( X-CH(R)-Y where X, Y are N, S, or O) that may be acid/base labile, releasing an aldehyde.

>  <s_epik_cmdline>  (1) 
J2VwaWtfcHl0aG9uJywgJy1waHQnLCAnMS4wJywgJy1waCcsICc3LjQnLCAnLXRuJywgJzgnLCAnLW1hJywgJzUwMCcsICctaW1hZScsICc8aW5maWxlLm1hZT4nLCAnLW9tYWUnLCAnPG91dGZpbGUubWFlPic=

>  <s_epik_input>  (1) 
RmMxYyhGKVtjSF1bY0hdYyhbY0hdMSlbQ0gyXVtDQEhdKFtDSDJdW0NASF0yW09IXSlOKFtDSDJdW05IXVtDSF09TylbQ0gyXVtDSDJdW0NAQEhdMltOSF1bQ0gyXVxDKD1DKFxbQ0gzXSlbQ0gyXVtPSF0pQyg9TylbTkhdQyg9QzNbQ0gzXSlbQ0gyXVtDSDJdW0NIXT1DM0Y=

>  <s_glide_docking_method>  (1) 
confgen

>  <s_i_glide_gridfile>  (1) 
gpcr_5ht2c_6bqh_protein_autoprepared_prepared

>  <s_lp_Force_Field>  (1) 
S-OPLS

>  <s_lp_Variant>  (1) 
DiffSBDD_77_num_sample_100-7

>  <s_m_source_file>  (1) 
generated__ligand_DiffSBDD_2026-05-06_prepared.sdf

>  <GenAI_Model>  (1) 
DiffSBDD

>  <Protein>  (1) 
GPCR_5HT2C

$$$$
DiffSBDD_23_num_sample_100
     RDKit          3D

  0  0  0  0  0  0  0  0  0  0999 V3000
M  V30 BEGIN CTAB
M  V30 COUNTS 83 87 0 0 1
M  V30 BEGIN ATOM
M  V30 1 C 40.334776 26.514516 54.512728 0
M  V30 2 C 38.650756 30.852807 61.533113 0
M  V30 3 C 37.809876 33.585700 60.948577 0
M  V30 4 O 40.283547 36.843173 61.853469 0
M  V30 5 N 40.754167 29.370177 62.551005 0
M  V30 6 C 38.485600 28.911101 60.030335 0
M  V30 7 C 40.350562 26.048250 58.253700 0
M  V30 8 N 39.408922 32.008647 62.098960 0
M  V30 9 C 39.860688 34.493233 61.941769 0
M  V30 10 C 37.441319 34.883093 60.548817 0
M  V30 11 C 41.735034 30.978908 65.746219 0
M  V30 12 C 41.495023 30.013902 64.593282 0
M  V30 13 C 39.776473 26.131108 56.865748 0 CFG=2
M  V30 14 C 41.817602 28.784225 64.512506 0
M  V30 15 N 40.667394 26.821403 55.927094 0 CFG=2 CHG=1
M  V30 16 C 38.676490 31.186667 58.960121 0
M  V30 17 C 39.597244 37.949368 62.408196 0
M  V30 18 C 39.474973 35.780423 61.549131 0
M  V30 19 C 39.114671 30.304924 60.146785 0 CFG=1
M  V30 20 C 37.633015 29.084488 54.729328 0
M  V30 21 C 40.839366 30.364493 63.385448 0
M  V30 22 C 38.053839 27.847841 57.862054 0
M  V30 23 C 38.047254 27.679854 51.905668 0
M  V30 24 O 37.067400 28.542114 57.692932 0
M  V30 25 C 37.193157 27.235488 53.094580 0
M  V30 26 C 39.024133 33.372618 61.665136 0
M  V30 27 C 40.329556 31.832578 63.153474 0
M  V30 28 C 41.014486 28.235547 56.268887 0
M  V30 29 C 41.416191 28.132612 63.219857 0
M  V30 30 C 37.638999 26.580403 55.504845 0
M  V30 31 C 39.443631 27.578949 53.867006 0 CFG=2
M  V30 32 C 38.264484 35.977106 60.852287 0
M  V30 33 C 40.141447 27.308990 59.101288 0
M  V30 34 C 37.971906 27.616381 54.366190 0 CFG=2
M  V30 35 C 39.456442 27.399920 52.347886 0
M  V30 36 O 40.734797 32.746699 63.867866 0
M  V30 37 N 38.880577 28.029799 58.925904 0
M  V30 38 C 38.349432 26.664596 56.893121 0 CFG=1
M  V30 39 H 41.247646 26.421176 53.928957 0
M  V30 40 H 39.905122 25.518787 54.403286 0
M  V30 41 H 37.589948 31.059740 61.471890 0
M  V30 42 H 38.513553 30.073816 62.279163 0
M  V30 43 H 37.157273 32.771292 60.709180 0
M  V30 44 H 37.409394 29.070052 60.009960 0
M  V30 45 H 38.667625 28.347593 60.945584 0
M  V30 46 H 39.837025 25.221530 58.721165 0
M  V30 47 H 41.405627 25.783554 58.253487 0
M  V30 48 H 40.797109 34.377762 62.446361 0
M  V30 49 H 36.518646 35.038307 60.009969 0
M  V30 50 H 40.801908 31.434707 66.079015 0
M  V30 51 H 42.440593 31.761620 65.466781 0
M  V30 52 H 42.155874 30.446755 66.599420 0
M  V30 53 H 39.735819 25.092230 56.532530 0
M  V30 54 H 42.330991 28.233318 65.287249 0
M  V30 55 H 37.591379 31.261123 58.891432 0
M  V30 56 H 39.031613 30.776979 58.013742 0
M  V30 57 H 39.067555 32.199257 59.031629 0
M  V30 58 H 40.267362 38.513671 63.053498 0
M  V30 59 H 38.758455 37.621415 63.029722 0
M  V30 60 H 39.234161 38.615009 61.625212 0
M  V30 61 H 40.199772 30.208983 60.138746 0
M  V30 62 H 38.273573 29.472587 55.518899 0
M  V30 63 H 36.609677 29.221488 55.053495 0
M  V30 64 H 37.766923 29.746259 53.873146 0
M  V30 65 H 37.904352 28.740916 51.699134 0
M  V30 66 H 37.867400 27.117188 50.998059 0
M  V30 67 H 37.067657 26.152704 53.053576 0
M  V30 68 H 36.196826 27.667932 53.054806 0
M  V30 69 H 40.183177 28.788626 56.688412 0
M  V30 70 H 41.330200 28.868574 55.453508 0
M  V30 71 H 41.835736 28.249596 56.983959 0
M  V30 72 H 40.705008 27.326667 63.392006 0
M  V30 73 H 42.282579 27.777467 62.663384 0
M  V30 74 H 36.572613 26.421457 55.648782 0
M  V30 75 H 37.871764 25.590458 55.113594 0
M  V30 76 H 39.863609 28.573137 54.013253 0
M  V30 77 H 37.971540 36.969732 60.545813 0
M  V30 78 H 40.267372 27.092524 60.158530 0
M  V30 79 H 40.941323 28.022611 58.918086 0
M  V30 80 H 39.710091 26.375855 52.078080 0
M  V30 81 H 40.177677 28.050015 51.850124 0
M  V30 82 H 37.825798 25.878928 57.441729 0
M  V30 83 H 41.540014 26.324351 56.065251 0
M  V30 END ATOM
M  V30 BEGIN BOND
M  V30 1 1 8 2
M  V30 2 1 10 3
M  V30 3 1 12 11
M  V30 4 1 13 7
M  V30 5 2 14 12
M  V30 6 1 15 1
M  V30 7 1 15 13
M  V30 8 1 17 4
M  V30 9 1 18 4
M  V30 10 2 18 9
M  V30 11 1 19 2
M  V30 12 1 19 6
M  V30 13 1 19 16
M  V30 14 2 21 5
M  V30 15 1 21 12
M  V30 16 2 24 22
M  V30 17 1 25 23
M  V30 18 2 26 3
M  V30 19 1 26 8
M  V30 20 1 26 9
M  V30 21 1 27 8
M  V30 22 1 27 21
M  V30 23 1 28 15
M  V30 24 1 29 5
M  V30 25 1 29 14
M  V30 26 1 31 1
M  V30 27 2 32 10
M  V30 28 1 32 18
M  V30 29 1 33 7
M  V30 30 1 34 20 CFG=1
M  V30 31 1 34 25
M  V30 32 1 34 30
M  V30 33 1 34 31
M  V30 34 1 35 23
M  V30 35 1 35 31
M  V30 36 2 36 27
M  V30 37 1 37 6
M  V30 38 1 37 22
M  V30 39 1 37 33
M  V30 40 1 38 13
M  V30 41 1 38 22
M  V30 42 1 38 30
M  V30 43 1 39 1
M  V30 44 1 40 1
M  V30 45 1 41 2
M  V30 46 1 42 2
M  V30 47 1 43 3
M  V30 48 1 44 6
M  V30 49 1 45 6
M  V30 50 1 46 7
M  V30 51 1 47 7
M  V30 52 1 48 9
M  V30 53 1 49 10
M  V30 54 1 50 11
M  V30 55 1 51 11
M  V30 56 1 52 11
M  V30 57 1 13 53 CFG=3
M  V30 58 1 54 14
M  V30 59 1 55 16
M  V30 60 1 56 16
M  V30 61 1 57 16
M  V30 62 1 58 17
M  V30 63 1 59 17
M  V30 64 1 60 17
M  V30 65 1 19 61 CFG=1
M  V30 66 1 62 20
M  V30 67 1 63 20
M  V30 68 1 64 20
M  V30 69 1 65 23
M  V30 70 1 66 23
M  V30 71 1 67 25
M  V30 72 1 68 25
M  V30 73 1 69 28
M  V30 74 1 70 28
M  V30 75 1 71 28
M  V30 76 1 72 29
M  V30 77 1 73 29
M  V30 78 1 74 30
M  V30 79 1 75 30
M  V30 80 1 31 76 CFG=3
M  V30 81 1 77 32
M  V30 82 1 78 33
M  V30 83 1 79 33
M  V30 84 1 80 35
M  V30 85 1 81 35
M  V30 86 1 38 82 CFG=1
M  V30 87 1 15 83 CFG=1
M  V30 END BOND
M  V30 END CTAB
M  END
>  <i_epik_Tot_Q>  (1) 
1

>  <i_epik_Tot_abs_Q>  (1) 
1

>  <i_i_glide_confnum>  (1) 
411

>  <i_i_glide_lignum>  (1) 
61

>  <i_i_glide_posenum>  (1) 
273

>  <i_i_glide_rotatable_bonds>  (1) 
8

>  <i_lp_mmshare_version>  (1) 
72125

>  <i_m_source_file_index>  (1) 
24

>  <i_f3d_flags>  (1) 
0

>  <num_sample>  (1) 
100

>  <b_lp_Chiralities_Consistent>  (1) 
1

>  <r_epik_Charging_Adjusted_Penalty>  (1) 
0.0029773975431382485

>  <r_epik_Ionization_Penalty>  (1) 
0.013183626931022738

>  <r_epik_Ionization_Penalty_Charging>  (1) 
0.0029773975431382485

>  <r_epik_Ionization_Penalty_Neutral>  (1) 
0.010206229387884489

>  <r_epik_State_Penalty>  (1) 
-0

>  <r_glide_ring_energy>  (1) 
0

>  <r_i_docking_score>  (1) 
-6.495384959969198

>  <r_i_glide_ecoul>  (1) 
-0.83270434498324974

>  <r_i_glide_eff_state_penalty>  (1) 
-0

>  <r_i_glide_einternal>  (1) 
16.902816825543766

>  <r_i_glide_emodel>  (1) 
-29.784791856081988

>  <r_i_glide_emodel_strain>  (1) 
2.0379545336369347

>  <r_i_glide_energy>  (1) 
-35.912454982218122

>  <r_i_glide_erotb>  (1) 
0.5287100460970352

>  <r_i_glide_esite>  (1) 
-0.0097904524527093126

>  <r_i_glide_evdw>  (1) 
-35.079750637234874

>  <r_i_glide_gscore>  (1) 
-6.495384959969198

>  <r_i_glide_gscore_strain>  (1) 
0

>  <r_i_glide_hbond>  (1) 
0

>  <r_i_glide_ligand_efficiency>  (1) 
-0.17093118315708417

>  <r_i_glide_ligand_efficiency_ln>  (1) 
-1.4005960722360835

>  <r_i_glide_ligand_efficiency_sa>  (1) 
-0.57466643402916628

>  <r_i_glide_lipo>  (1) 
-4.2591201035205932

>  <r_i_glide_metal>  (1) 
-0

>  <r_i_glide_rewards>  (1) 
-0.87629126648369948

>  <r_lp_Energy>  (1) 
96.794462999999993

>  <r_lp_tautomer_probability>  (1) 
1

>  <s_epik_Chemistry_Notes>  (1) 
This compound has an imine and may undergo hydrolysis.

>  <s_epik_cmdline>  (1) 
J2VwaWtfcHl0aG9uJywgJy1waHQnLCAnMS4wJywgJy1waCcsICc3LjQnLCAnLXRuJywgJzgnLCAnLW1hJywgJzUwMCcsICctaW1hZScsICc8aW5maWxlLm1hZT4nLCAnLW9tYWUnLCAnPG91dGZpbGUubWFlPic=

>  <s_epik_input>  (1) 
W0NIMl0xW0NIMl1bQ0gyXVtDQEBIXShbQ0BAXTEyW0NIM10pW0NIMl1OKFtDSDNdKVtDQEhdM1tDQEhdKFtDSDJdMilDKD1PKU4oW0NIMl1bQ0gyXTMpW0NIMl1bQ0BASF0oW0NIM10pW0NIMl1OKGMoW2NIXVtjSF1bY0hdNClbY0hdYzRPW0NIM10pQyg9TylDNT1OW0NIMl1bQ0hdPUM1W0NIM10=

>  <s_glide_docking_method>  (1) 
confgen

>  <s_i_glide_gridfile>  (1) 
gpcr_5ht2c_6bqh_protein_autoprepared_prepared

>  <s_lp_Force_Field>  (1) 
S-OPLS

>  <s_lp_Variant>  (1) 
DiffSBDD_23_num_sample_100-4

>  <s_m_source_file>  (1) 
generated__ligand_DiffSBDD_2026-05-06_prepared.sdf

>  <GenAI_Model>  (1) 
DiffSBDD

>  <Protein>  (1) 
GPCR_5HT2C

$$$$
DiffSBDD_29_num_sample_100
     RDKit          3D

  0  0  0  0  0  0  0  0  0  0999 V3000
M  V30 BEGIN CTAB
M  V30 COUNTS 86 90 0 0 1
M  V30 BEGIN ATOM
M  V30 1 F 41.223802 31.604458 63.346789 0
M  V30 2 C 36.154212 33.744869 59.093801 0
M  V30 3 C 39.910986 32.556940 60.911004 0
M  V30 4 C 39.757153 29.771129 54.953190 0 CFG=2
M  V30 5 C 39.552960 26.400967 56.818180 0
M  V30 6 C 40.538617 31.033389 54.577363 0
M  V30 7 C 41.519129 33.819059 63.898812 0
M  V30 8 N 37.190498 32.754921 58.693207 0 CFG=2 CHG=1
M  V30 9 C 39.967448 28.938286 52.267633 0 CFG=1
M  V30 10 C 36.983086 24.974767 55.981784 0
M  V30 11 C 38.063674 33.923646 56.606699 0
M  V30 12 C 37.981225 25.612229 55.041071 0 CFG=1
M  V30 13 C 41.090314 32.913244 63.074324 0
M  V30 14 C 38.717854 32.577102 56.673928 0 CFG=2
M  V30 15 C 35.474592 32.124149 60.913206 0
M  V30 16 C 40.177923 29.704853 49.816684 0
M  V30 17 C 39.259962 28.870351 53.735414 0 CFG=1
M  V30 18 C 37.941704 31.443130 55.986344 0 CFG=1
M  V30 19 C 40.453988 34.861262 61.830237 0
M  V30 20 N 36.452326 31.181473 60.379527 0
M  V30 21 N 40.511542 33.382390 61.951624 0
M  V30 22 F 42.121369 33.547503 65.068648 0
M  V30 23 S 37.467467 26.710603 53.713628 0
M  V30 24 C 37.620467 31.867060 59.826279 0 CFG=2
M  V30 25 C 34.975752 33.026522 59.777165 0
M  V30 26 C 39.680342 31.378465 51.518033 0
M  V30 27 O 37.467464 31.809307 54.706560 0
M  V30 28 C 39.084228 27.379320 54.228636 0 CFG=2
M  V30 29 C 38.610760 30.075658 55.964259 0
M  V30 30 C 37.768050 24.533524 57.243089 0
M  V30 31 C 38.669838 25.647729 57.845857 0
M  V30 32 C 38.377566 32.586571 60.986280 0
M  V30 33 O 39.851832 27.661729 51.661763 0
M  V30 34 C 38.668357 26.832923 55.652533 0 CFG=2
M  V30 35 C 38.344504 33.323099 57.954506 0 CFG=2
M  V30 36 C 39.467125 29.896427 51.174732 0
M  V30 37 O 40.642566 29.029214 55.775762 0
M  V30 38 S 41.285958 35.473468 63.441400 0
M  V30 39 H 36.576241 34.504925 59.751007 0
M  V30 40 H 35.780825 34.277005 58.221734 0
M  V30 41 H 40.264937 31.529844 61.011030 0
M  V30 42 H 40.266888 32.908302 59.949779 0
M  V30 43 H 40.008846 27.241830 57.337183 0
M  V30 44 H 40.364388 25.759965 56.471585 0
M  V30 45 H 39.902514 31.825554 54.208415 0
M  V30 46 H 41.067400 31.458799 55.413328 0
M  V30 47 H 41.302678 30.844892 53.853541 0
M  V30 48 H 41.018638 29.212971 52.253490 0
M  V30 49 H 36.215050 25.691389 56.268182 0
M  V30 50 H 36.474899 24.131290 55.514083 0
M  V30 51 H 38.667377 34.694364 56.152426 0
M  V30 52 H 37.067392 33.936938 56.253869 0
M  V30 53 H 38.705132 24.892544 54.654693 0
M  V30 54 H 39.778372 32.604280 56.481055 0
M  V30 55 H 35.892717 32.723115 61.720838 0
M  V30 56 H 34.667425 31.544120 61.349736 0
M  V30 57 H 41.220983 30.021633 49.864230 0
M  V30 58 H 40.151349 28.679977 49.454631 0
M  V30 59 H 39.696519 30.313089 49.053564 0
M  V30 60 H 38.262126 29.254151 53.518483 0
M  V30 61 H 37.067527 31.221731 56.573185 0
M  V30 62 H 41.002798 35.214899 60.957206 0
M  V30 63 H 39.428984 35.227353 61.779930 0
M  V30 64 H 36.015253 30.609251 59.667202 0
M  V30 65 H 38.263037 31.086179 59.418988 0
M  V30 66 H 34.264103 33.758491 60.162556 0
M  V30 67 H 34.428153 32.424580 59.053322 0
M  V30 68 H 40.719098 31.602617 51.745943 0
M  V30 69 H 39.398543 32.013006 50.675348 0
M  V30 70 H 39.067533 31.700651 52.357042 0
M  V30 71 H 36.760849 32.435435 54.848204 0
M  V30 72 H 39.901380 26.737574 53.890927 0
M  V30 73 H 37.781932 29.416164 55.741673 0
M  V30 74 H 38.895018 29.849427 56.994984 0
M  V30 75 H 37.079989 24.158995 57.999357 0
M  V30 76 H 38.412244 23.695185 56.978694 0
M  V30 77 H 38.027202 26.371322 58.348101 0
M  V30 78 H 39.306061 25.229070 58.621392 0
M  V30 79 H 38.027594 33.610072 61.097996 0
M  V30 80 H 38.131408 32.103742 61.934303 0
M  V30 81 H 38.936468 27.418349 51.635469 0
M  V30 82 H 37.875379 27.442819 56.080423 0
M  V30 83 H 39.077566 33.843859 58.559469 0
M  V30 84 H 38.422216 29.621448 51.038850 0
M  V30 85 H 40.259123 28.177163 55.924812 0
M  V30 86 H 36.694455 32.171441 58.020727 0
M  V30 END ATOM
M  V30 BEGIN BOND
M  V30 1 1 6 4
M  V30 2 1 8 2
M  V30 3 1 12 10
M  V30 4 1 13 1
M  V30 5 2 13 7
M  V30 6 1 14 11
M  V30 7 1 17 4
M  V30 8 1 17 9
M  V30 9 1 18 14
M  V30 10 1 20 15
M  V30 11 1 21 3
M  V30 12 1 21 13
M  V30 13 1 21 19
M  V30 14 1 22 7
M  V30 15 1 23 12
M  V30 16 1 24 8
M  V30 17 1 24 20
M  V30 18 1 25 2
M  V30 19 1 25 15
M  V30 20 1 27 18
M  V30 21 1 28 17
M  V30 22 1 28 23
M  V30 23 1 29 4
M  V30 24 1 29 18
M  V30 25 1 30 10
M  V30 26 1 31 5
M  V30 27 1 31 30
M  V30 28 1 32 3
M  V30 29 1 32 24
M  V30 30 1 33 9
M  V30 31 1 34 5
M  V30 32 1 34 12
M  V30 33 1 34 28
M  V30 34 1 35 8
M  V30 35 1 35 11
M  V30 36 1 35 14
M  V30 37 1 36 9
M  V30 38 1 36 16
M  V30 39 1 36 26
M  V30 40 1 4 37 CFG=1
M  V30 41 1 38 7
M  V30 42 1 38 19
M  V30 43 1 39 2
M  V30 44 1 40 2
M  V30 45 1 41 3
M  V30 46 1 42 3
M  V30 47 1 43 5
M  V30 48 1 44 5
M  V30 49 1 45 6
M  V30 50 1 46 6
M  V30 51 1 47 6
M  V30 52 1 9 48 CFG=1
M  V30 53 1 49 10
M  V30 54 1 50 10
M  V30 55 1 51 11
M  V30 56 1 52 11
M  V30 57 1 12 53 CFG=3
M  V30 58 1 14 54 CFG=1
M  V30 59 1 55 15
M  V30 60 1 56 15
M  V30 61 1 57 16
M  V30 62 1 58 16
M  V30 63 1 59 16
M  V30 64 1 17 60 CFG=3
M  V30 65 1 18 61 CFG=1
M  V30 66 1 62 19
M  V30 67 1 63 19
M  V30 68 1 64 20
M  V30 69 1 24 65 CFG=3
M  V30 70 1 66 25
M  V30 71 1 67 25
M  V30 72 1 68 26
M  V30 73 1 69 26
M  V30 74 1 70 26
M  V30 75 1 71 27
M  V30 76 1 28 72 CFG=3
M  V30 77 1 73 29
M  V30 78 1 74 29
M  V30 79 1 75 30
M  V30 80 1 76 30
M  V30 81 1 77 31
M  V30 82 1 78 31
M  V30 83 1 79 32
M  V30 84 1 80 32
M  V30 85 1 81 33
M  V30 86 1 34 82 CFG=1
M  V30 87 1 35 83 CFG=1
M  V30 88 1 84 36
M  V30 89 1 85 37
M  V30 90 1 8 86 CFG=3
M  V30 END BOND
M  V30 END CTAB
M  END
>  <i_epik_Tot_Q>  (1) 
1

>  <i_epik_Tot_abs_Q>  (1) 
1

>  <i_i_glide_confnum>  (1) 
1176

>  <i_i_glide_lignum>  (1) 
78

>  <i_i_glide_posenum>  (1) 
189

>  <i_i_glide_rotatable_bonds>  (1) 
14

>  <i_lp_mmshare_version>  (1) 
72125

>  <i_m_source_file_index>  (1) 
30

>  <i_f3d_flags>  (1) 
0

>  <num_sample>  (1) 
100

>  <b_lp_Chiralities_Consistent>  (1) 
1

>  <r_epik_Charging_Adjusted_Penalty>  (1) 
1.7477768688038313

>  <r_epik_Ionization_Penalty>  (1) 
0.56833185219894722

>  <r_epik_Ionization_Penalty_Charging>  (1) 
0.56833130032608237

>  <r_epik_Ionization_Penalty_Neutral>  (1) 
5.5187286482775955e-07

>  <r_epik_State_Penalty>  (1) 
1.179445568477749

>  <r_glide_ring_energy>  (1) 
2.3029442833191154

>  <r_i_docking_score>  (1) 
-6.4945695525606952

>  <r_i_glide_ecoul>  (1) 
-6.8229948513622656

>  <r_i_glide_eff_state_penalty>  (1) 
1.179445568477749

>  <r_i_glide_einternal>  (1) 
23.766627148202499

>  <r_i_glide_emodel>  (1) 
-30.012661749540506

>  <r_i_glide_emodel_strain>  (1) 
7.4747190771915939

>  <r_i_glide_energy>  (1) 
-31.766590469412684

>  <r_i_glide_erotb>  (1) 
0.46833353265868582

>  <r_i_glide_esite>  (1) 
-0.13438002424949594

>  <r_i_glide_evdw>  (1) 
-24.943595618050416

>  <r_i_glide_gscore>  (1) 
-7.674015121038444

>  <r_i_glide_gscore_strain>  (1) 
0.86867976929789847

>  <r_i_glide_hbond>  (1) 
-0.35999999999999999

>  <r_i_glide_ligand_efficiency>  (1) 
-0.17090972506738672

>  <r_i_glide_ligand_efficiency_ln>  (1) 
-1.4004202464119546

>  <r_i_glide_ligand_efficiency_sa>  (1) 
-0.57459429245932658

>  <r_i_glide_lipo>  (1) 
-4.7534077951386138

>  <r_i_glide_metal>  (1) 
-0

>  <r_i_glide_rewards>  (1) 
-1.4926115950000558

>  <r_lp_Energy>  (1) 
47.259627999999999

>  <s_epik_Chemistry_Notes>  (1) 
This compound has an imine and may undergo hydrolysis. This compound contains an acetal/aminal-like group ( X-CH(R)-Y where X, Y are N, S, or O) that may be acid/base labile, releasing an aldehyde.

>  <s_epik_cmdline>  (1) 
J2VwaWtfcHl0aG9uJywgJy1waHQnLCAnMS4wJywgJy1waCcsICc3LjQnLCAnLXRuJywgJzgnLCAnLW1hJywgJzUwMCcsICctaW1hZScsICc8aW5maWxlLm1hZT4nLCAnLW9tYWUnLCAnPG91dGZpbGUubWFlPic=

>  <s_epik_input>  (1) 
RkMxPUMoRilOKFtDSDJdUzEpW0NIMl1bQ0gyXVtDQEhdMltOSF1bQ0gyXVtDSDJdW0NIMl1OMltDQEBIXTNbQ0gyXVtDQEBIXTNbQ0BASF0oW09IXSlbQ0gyXVtDQEBdKFtDSDNdKShbT0hdKVtDQEBIXShbQ0BASF0oW09IXSlbQ0hdKFtDSDNdKVtDSDNdKVtDQEhdKFM0KVtDQEBIXShbQ0BASF00NSlbQ0gyXVtDSDJdW0NIMl1bQ0gyXTU=

>  <s_glide_docking_method>  (1) 
confgen

>  <s_i_glide_gridfile>  (1) 
gpcr_5ht2c_6bqh_protein_autoprepared_prepared

>  <s_lp_Force_Field>  (1) 
S-OPLS

>  <s_lp_Variant>  (1) 
DiffSBDD_29_num_sample_100-8

>  <s_m_source_file>  (1) 
generated__ligand_DiffSBDD_2026-05-06_prepared.sdf

>  <GenAI_Model>  (1) 
DiffSBDD

>  <Protein>  (1) 
GPCR_5HT2C

$$$$
DiffSBDD_1_num_sample_100
     RDKit          3D

  0  0  0  0  0  0  0  0  0  0999 V3000
M  V30 BEGIN CTAB
M  V30 COUNTS 62 65 0 0 1
M  V30 BEGIN ATOM
M  V30 1 C 38.771986 26.562377 57.357551 0
M  V30 2 C 39.465095 34.914214 62.260875 0
M  V30 3 O 37.311760 24.870301 57.192410 0
M  V30 4 C 37.654328 33.462043 61.227461 0 CFG=1
M  V30 5 C 39.198254 27.941423 57.670363 0
M  V30 6 C 37.944006 31.008513 60.891791 0
M  V30 7 C 40.862918 33.152534 64.435816 0
M  V30 8 C 39.587835 37.196712 62.808900 0
M  V30 9 N 40.940125 36.605586 62.653511 0 CHG=1
M  V30 10 C 38.312541 32.596575 57.555147 0
M  V30 11 C 38.154764 28.899446 58.264629 0
M  V30 12 C 41.038833 34.681982 64.262070 0 CFG=2
M  V30 13 C 40.860203 35.135089 62.783025 0 CFG=1
M  V30 14 C 37.810455 31.231610 59.373309 0 CFG=2
M  V30 15 C 38.761289 31.178343 57.155121 0
M  V30 16 C 37.552017 26.151642 57.506479 0
M  V30 17 N 37.277886 32.096718 61.646313 0
M  V30 18 C 39.058895 33.739672 61.743876 0
M  V30 19 O 40.349126 28.338537 57.481589 0
M  V30 20 C 42.410826 35.092903 64.821742 0
M  V30 21 C 38.667038 24.421632 56.788578 0
M  V30 22 C 37.534050 33.626131 59.690966 0
M  V30 23 C 38.585351 36.132230 62.345702 0
M  V30 24 N 38.247419 32.563381 59.000244 0
M  V30 25 O 36.435486 31.059762 59.053555 0
M  V30 26 C 39.753144 25.599576 56.864428 0
M  V30 27 C 38.660306 30.342700 58.458920 0 CFG=2
M  V30 28 O 41.066786 32.754146 65.775871 0
M  V30 29 H 36.970506 34.170705 61.694835 0
M  V30 30 H 38.997867 30.952449 61.162941 0
M  V30 31 H 37.517387 30.045884 61.152233 0
M  V30 32 H 41.570931 32.613664 63.805119 0
M  V30 33 H 39.867372 32.821504 64.146243 0
M  V30 34 H 39.499780 38.134092 62.255546 0
M  V30 35 H 39.430647 37.419987 63.865393 0
M  V30 36 H 41.576607 37.004800 63.334954 0
M  V30 37 H 37.338199 32.825554 57.127420 0
M  V30 38 H 39.009590 33.359786 57.211283 0
M  V30 39 H 37.867396 28.494219 59.234139 0
M  V30 40 H 37.259925 28.902479 57.642149 0
M  V30 41 H 40.280955 35.190521 64.860763 0
M  V30 42 H 41.597317 34.656306 62.137604 0
M  V30 43 H 38.098837 30.791498 56.379960 0
M  V30 44 H 39.775036 31.168891 56.754505 0
M  V30 45 H 36.690610 26.701797 57.853528 0
M  V30 46 H 37.467379 31.994241 62.636252 0
M  V30 47 H 39.756743 32.917366 61.699074 0
M  V30 48 H 43.181496 34.423610 64.446815 0
M  V30 49 H 42.683595 36.114741 64.570693 0
M  V30 50 H 42.427237 35.022694 65.910007 0
M  V30 51 H 38.973308 23.614749 57.452888 0
M  V30 52 H 38.616232 24.021464 55.776269 0
M  V30 53 H 36.482414 33.619424 59.400554 0
M  V30 54 H 37.925753 34.597182 59.389486 0
M  V30 55 H 38.176492 36.371608 61.362895 0
M  V30 56 H 37.765106 36.021478 63.053595 0
M  V30 57 H 36.218357 31.415598 58.183953 0
M  V30 58 H 40.163022 25.879747 55.893472 0
M  V30 59 H 40.541592 25.415715 57.594681 0
M  V30 60 H 39.646736 30.302133 58.918819 0
M  V30 61 H 40.391184 33.131856 66.318217 0
M  V30 62 H 41.268961 36.820204 61.722129 0
M  V30 END ATOM
M  V30 BEGIN BOND
M  V30 1 1 5 1
M  V30 2 1 9 8
M  V30 3 1 11 5
M  V30 4 1 12 7
M  V30 5 1 13 2
M  V30 6 1 13 9
M  V30 7 1 13 12
M  V30 8 1 14 6
M  V30 9 1 15 10
M  V30 10 2 16 1
M  V30 11 1 16 3
M  V30 12 1 17 4
M  V30 13 1 17 6
M  V30 14 2 18 2
M  V30 15 1 18 4
M  V30 16 2 19 5
M  V30 17 1 20 12
M  V30 18 1 21 3
M  V30 19 1 22 4
M  V30 20 1 23 2
M  V30 21 1 23 8
M  V30 22 1 24 10
M  V30 23 1 24 14
M  V30 24 1 24 22
M  V30 25 1 14 25 CFG=3
M  V30 26 1 26 1
M  V30 27 1 26 21
M  V30 28 1 27 11
M  V30 29 1 27 14
M  V30 30 1 27 15
M  V30 31 1 28 7
M  V30 32 1 4 29 CFG=1
M  V30 33 1 30 6
M  V30 34 1 31 6
M  V30 35 1 32 7
M  V30 36 1 33 7
M  V30 37 1 34 8
M  V30 38 1 35 8
M  V30 39 1 36 9
M  V30 40 1 37 10
M  V30 41 1 38 10
M  V30 42 1 39 11
M  V30 43 1 40 11
M  V30 44 1 12 41 CFG=1
M  V30 45 1 13 42 CFG=3
M  V30 46 1 43 15
M  V30 47 1 44 15
M  V30 48 1 45 16
M  V30 49 1 46 17
M  V30 50 1 47 18
M  V30 51 1 48 20
M  V30 52 1 49 20
M  V30 53 1 50 20
M  V30 54 1 51 21
M  V30 55 1 52 21
M  V30 56 1 53 22
M  V30 57 1 54 22
M  V30 58 1 55 23
M  V30 59 1 56 23
M  V30 60 1 57 25
M  V30 61 1 58 26
M  V30 62 1 59 26
M  V30 63 1 27 60 CFG=1
M  V30 64 1 61 28
M  V30 65 1 62 9
M  V30 END BOND
M  V30 END CTAB
M  END
>  <i_epik_Tot_Q>  (1) 
1

>  <i_epik_Tot_abs_Q>  (1) 
1

>  <i_i_glide_confnum>  (1) 
251

>  <i_i_glide_lignum>  (1) 
7

>  <i_i_glide_posenum>  (1) 
24

>  <i_i_glide_rotatable_bonds>  (1) 
8

>  <i_lp_mmshare_version>  (1) 
72125

>  <i_m_source_file_index>  (1) 
2

>  <i_f3d_flags>  (1) 
0

>  <num_sample>  (1) 
100

>  <b_lp_Chiralities_Consistent>  (1) 
1

>  <r_epik_Charging_Adjusted_Penalty>  (1) 
0.089223518210420474

>  <r_epik_Ionization_Penalty>  (1) 
0.15303808439063821

>  <r_epik_Ionization_Penalty_Charging>  (1) 
0.0017986555257548985

>  <r_epik_Ionization_Penalty_Neutral>  (1) 
0.15123942886488331

>  <r_epik_State_Penalty>  (1) 
0.08742486268466558

>  <r_glide_ring_energy>  (1) 
0.21879301362513937

>  <r_i_docking_score>  (1) 
-6.4834028406187949

>  <r_i_glide_ecoul>  (1) 
-7.584594900844766

>  <r_i_glide_eff_state_penalty>  (1) 
0.08742486268466558

>  <r_i_glide_einternal>  (1) 
12.761622698289329

>  <r_i_glide_emodel>  (1) 
-49.526108863112213

>  <r_i_glide_emodel_strain>  (1) 
0.13747992954802157

>  <r_i_glide_energy>  (1) 
-39.975116422909522

>  <r_i_glide_erotb>  (1) 
0.76037187950223806

>  <r_i_glide_esite>  (1) 
-0.045472909282282745

>  <r_i_glide_evdw>  (1) 
-32.390521522064759

>  <r_i_glide_gscore>  (1) 
-6.5708277033034603

>  <r_i_glide_gscore_strain>  (1) 
0

>  <r_i_glide_hbond>  (1) 
-0.27500519274268376

>  <r_i_glide_ligand_efficiency>  (1) 
-0.23155010145067126

>  <r_i_glide_ligand_efficiency_ln>  (1) 
-1.4965597365939198

>  <r_i_glide_ligand_efficiency_sa>  (1) 
-0.70312248450179926

>  <r_i_glide_lipo>  (1) 
-2.9358736897556432

>  <r_i_glide_metal>  (1) 
-0

>  <r_i_glide_rewards>  (1) 
-1.3176324797951364

>  <r_lp_Energy>  (1) 
13.724687999999999

>  <s_epik_cmdline>  (1) 
J2VwaWtfcHl0aG9uJywgJy1waHQnLCAnMS4wJywgJy1waCcsICc3LjQnLCAnLXRuJywgJzgnLCAnLW1hJywgJzUwMCcsICctaW1hZScsICc8aW5maWxlLm1hZT4nLCAnLW9tYWUnLCAnPG91dGZpbGUubWFlPic=

>  <s_epik_input>  (1) 
W0NIMl0xW0NIMl1PW0NIXT1DMUMoPU8pW0NIMl1bQ0BIXTJbQ0gyXVtDSDJdTihbQ0BAXTIzW09IXSlbQ0gyXVtDQEBIXShbTkhdW0NIMl0zKVxbQ0hdPUM0XFtDQEBIXShbTkhdW0NIMl1bQ0gyXTQpW0NASF0oW0NIM10pW0NIMl1bT0hd

>  <s_glide_docking_method>  (1) 
confgen

>  <s_i_glide_gridfile>  (1) 
gpcr_5ht2c_6bqh_protein_autoprepared_prepared

>  <s_lp_Force_Field>  (1) 
S-OPLS

>  <s_lp_Variant>  (1) 
DiffSBDD_1_num_sample_100-1

>  <s_m_source_file>  (1) 
generated__ligand_DiffSBDD_2026-05-06_prepared.sdf

>  <GenAI_Model>  (1) 
DiffSBDD

>  <Protein>  (1) 
GPCR_5HT2C

$$$$
DiffSBDD_50_num_sample_100
     RDKit          3D

  0  0  0  0  0  0  0  0  0  0999 V3000
M  V30 BEGIN CTAB
M  V30 COUNTS 53 55 0 0 1
M  V30 BEGIN ATOM
M  V30 1 C 37.136185 32.419105 60.368392 0 CFG=1
M  V30 2 N 37.802061 31.844674 61.549136 0
M  V30 3 C 37.609156 28.546343 57.906977 0
M  V30 4 C 38.439723 27.704920 56.911933 0 CFG=1
M  V30 5 N 39.867408 30.239799 54.467806 0
M  V30 6 C 40.010250 30.903104 52.113766 0
M  V30 7 O 39.482607 25.520182 56.591288 0
M  V30 8 C 39.867404 28.890860 50.616150 0
M  V30 9 C 39.019452 29.822798 55.561876 0 CFG=1
M  V30 10 C 38.826319 28.697972 52.798689 0
M  V30 11 C 40.274152 30.148986 50.825302 0
M  V30 12 C 37.766587 33.776435 60.020552 0
M  V30 13 C 38.426715 30.583633 61.155022 0
M  V30 14 C 37.622925 30.083920 59.957573 0 CFG=1
M  V30 15 C 37.303904 31.386748 59.255473 0
M  V30 16 S 39.448283 33.711384 60.639851 0
M  V30 17 C 39.139146 28.152369 51.616343 0
M  V30 18 F 40.954588 30.770580 49.853482 0
M  V30 19 C 38.812335 32.778583 62.040020 0
M  V30 20 C 39.194701 30.130834 53.184787 0 CFG=1
M  V30 21 C 38.405391 29.068644 59.115732 0
M  V30 22 C 39.548036 28.528557 56.214418 0
M  V30 23 O 39.067420 30.913378 56.444469 0
M  V30 24 C 38.977735 26.412853 57.563513 0
M  V30 25 H 36.075648 32.540825 60.589902 0
M  V30 26 H 37.146259 29.380335 57.381968 0
M  V30 27 H 36.758546 27.969620 58.253497 0
M  V30 28 H 37.745546 27.392432 56.130889 0
M  V30 29 H 40.763252 29.775314 54.481739 0
M  V30 30 H 39.476771 31.816914 51.856102 0
M  V30 31 H 40.973825 31.221435 52.502941 0
M  V30 32 H 40.321379 25.840127 56.291342 0
M  V30 33 H 40.093484 28.421411 49.674785 0
M  V30 34 H 37.984451 29.700181 55.237568 0
M  V30 35 H 38.278678 28.118426 53.526935 0
M  V30 36 H 37.238482 34.574524 60.543567 0
M  V30 37 H 37.735197 34.004885 58.954506 0
M  V30 38 H 38.458537 29.878324 61.985291 0
M  V30 39 H 39.456179 30.758749 60.836889 0
M  V30 40 H 36.675576 29.638497 60.253502 0
M  V30 41 H 38.129123 31.680914 58.611792 0
M  V30 42 H 36.404331 31.302389 58.653503 0
M  V30 43 H 38.840338 27.135104 51.408056 0
M  V30 44 H 38.306236 33.510032 62.653501 0
M  V30 45 H 39.595745 32.306966 62.634636 0
M  V30 46 H 38.257046 30.662810 53.322966 0
M  V30 47 H 38.691995 28.229482 59.749926 0
M  V30 48 H 39.336581 29.530753 58.788835 0
M  V30 49 H 40.367434 28.753771 56.897878 0
M  V30 50 H 39.985210 27.895916 55.442088 0
M  V30 51 H 38.190841 31.264040 56.530561 0
M  V30 52 H 38.175268 25.901273 58.096189 0
M  V30 53 H 39.759138 26.628901 58.293261 0
M  V30 END ATOM
M  V30 BEGIN BOND
M  V30 1 1 2 1
M  V30 2 1 4 3
M  V30 3 1 9 5
M  V30 4 1 11 6
M  V30 5 2 11 8
M  V30 6 1 12 1
M  V30 7 1 13 2
M  V30 8 1 14 13
M  V30 9 1 15 1
M  V30 10 1 15 14
M  V30 11 1 16 12
M  V30 12 1 17 8
M  V30 13 2 17 10
M  V30 14 1 18 11
M  V30 15 1 19 2
M  V30 16 1 19 16
M  V30 17 1 20 5
M  V30 18 1 20 6
M  V30 19 1 20 10
M  V30 20 1 21 3
M  V30 21 1 21 14
M  V30 22 1 22 4
M  V30 23 1 22 9
M  V30 24 1 23 9
M  V30 25 1 24 4
M  V30 26 1 24 7
M  V30 27 1 1 25 CFG=1
M  V30 28 1 26 3
M  V30 29 1 27 3
M  V30 30 1 4 28 CFG=3
M  V30 31 1 29 5
M  V30 32 1 30 6
M  V30 33 1 31 6
M  V30 34 1 32 7
M  V30 35 1 33 8
M  V30 36 1 9 34 CFG=3
M  V30 37 1 35 10
M  V30 38 1 36 12
M  V30 39 1 37 12
M  V30 40 1 38 13
M  V30 41 1 39 13
M  V30 42 1 14 40 CFG=1
M  V30 43 1 41 15
M  V30 44 1 42 15
M  V30 45 1 43 17
M  V30 46 1 44 19
M  V30 47 1 45 19
M  V30 48 1 20 46 CFG=1
M  V30 49 1 47 21
M  V30 50 1 48 21
M  V30 51 1 49 22
M  V30 52 1 50 22
M  V30 53 1 51 23
M  V30 54 1 52 24
M  V30 55 1 53 24
M  V30 END BOND
M  V30 END CTAB
M  END
>  <i_epik_Tot_Q>  (1) 
0

>  <i_epik_Tot_abs_Q>  (1) 
0

>  <i_i_glide_confnum>  (1) 
933

>  <i_i_glide_lignum>  (1) 
134

>  <i_i_glide_posenum>  (1) 
194

>  <i_i_glide_rotatable_bonds>  (1) 
10

>  <i_lp_mmshare_version>  (1) 
72125

>  <i_m_source_file_index>  (1) 
51

>  <i_f3d_flags>  (1) 
0

>  <num_sample>  (1) 
100

>  <b_lp_Chiralities_Consistent>  (1) 
1

>  <r_epik_Charging_Adjusted_Penalty>  (1) 
0.070623884543316251

>  <r_epik_Ionization_Penalty>  (1) 
0.082390450655877454

>  <r_epik_Ionization_Penalty_Charging>  (1) 
0

>  <r_epik_Ionization_Penalty_Neutral>  (1) 
0.082390450655877454

>  <r_epik_State_Penalty>  (1) 
0.070623884543316251

>  <r_glide_ring_energy>  (1) 
0.058048771700043092

>  <r_i_docking_score>  (1) 
-6.4829505772531597

>  <r_i_glide_ecoul>  (1) 
-3.0745415426476761

>  <r_i_glide_eff_state_penalty>  (1) 
0.070623884543316251

>  <r_i_glide_einternal>  (1) 
6.7056501641757009

>  <r_i_glide_emodel>  (1) 
-53.049215043248005

>  <r_i_glide_emodel_strain>  (1) 
0.58046148290511468

>  <r_i_glide_energy>  (1) 
-38.13875303283713

>  <r_i_glide_erotb>  (1) 
0.90323980524591641

>  <r_i_glide_esite>  (1) 
0

>  <r_i_glide_evdw>  (1) 
-35.064211490189457

>  <r_i_glide_gscore>  (1) 
-6.553574461796476

>  <r_i_glide_gscore_strain>  (1) 
0

>  <r_i_glide_hbond>  (1) 
0

>  <r_i_glide_ligand_efficiency>  (1) 
-0.27012294071888165

>  <r_i_glide_ligand_efficiency_ln>  (1) 
-1.5516675563544053

>  <r_i_glide_ligand_efficiency_sa>  (1) 
-0.77916939036396127

>  <r_i_glide_lipo>  (1) 
-3.0216568659017322

>  <r_i_glide_metal>  (1) 
-0

>  <r_i_glide_rewards>  (1) 
-2.2207655952340355

>  <r_lp_Energy>  (1) 
-4.9771999999999998

>  <s_epik_Chemistry_Notes>  (1) 
This compound contains an acetal/aminal-like group ( X-CH(R)-Y where X, Y are N, S, or O) that may be acid/base labile, releasing an aldehyde.

>  <s_epik_cmdline>  (1) 
J2VwaWtfcHl0aG9uJywgJy1waHQnLCAnMS4wJywgJy1waCcsICc3LjQnLCAnLXRuJywgJzgnLCAnLW1hJywgJzUwMCcsICctaW1hZScsICc8aW5maWxlLm1hZT4nLCAnLW9tYWUnLCAnPG91dGZpbGUubWFlPic=

>  <s_epik_input>  (1) 
W0NIMl0xU1tDSDJdTihbQ0BASF0xMilbQ0gyXVtDQEBIXShbQ0gyXTIpW0NIMl1bQ0gyXVtDQEhdKFtDSDJdW09IXSlbQ0gyXVtDQEBIXShbT0hdKVtOSF1bQ0BASF0oW0NIMl0zKVtDSF09W0NIXVtDSF09QzNG

>  <s_glide_docking_method>  (1) 
confgen

>  <s_i_glide_gridfile>  (1) 
gpcr_5ht2c_6bqh_protein_autoprepared_prepared

>  <s_lp_Force_Field>  (1) 
S-OPLS

>  <s_lp_Variant>  (1) 
DiffSBDD_50_num_sample_100-1

>  <s_m_source_file>  (1) 
generated__ligand_DiffSBDD_2026-05-06_prepared.sdf

>  <GenAI_Model>  (1) 
DiffSBDD

>  <Protein>  (1) 
GPCR_5HT2C

$$$$
DiffSBDD_87_num_sample_100
     RDKit          3D

  0  0  0  0  0  0  0  0  0  0999 V3000
M  V30 BEGIN CTAB
M  V30 COUNTS 53 56 0 0 1
M  V30 BEGIN ATOM
M  V30 1 C 39.892257 27.478513 58.465131 0 CFG=1
M  V30 2 C 41.277854 27.265913 57.810064 0
M  V30 3 C 38.706638 33.119298 55.567133 0
M  V30 4 C 40.436618 29.306590 60.378053 0 CFG=1
M  V30 5 C 36.912746 29.886466 57.646799 0
M  V30 6 C 39.474389 31.852432 55.992896 0
M  V30 7 C 41.107075 28.021548 60.781073 0
M  V30 8 C 39.879681 27.970760 59.920826 0 CFG=2
M  V30 9 C 37.904928 30.019849 54.914847 0 CFG=1
M  V30 10 N 39.658151 29.922169 61.469721 0 CHG=1
M  V30 11 O 36.852528 30.913663 54.653622 0
M  V30 12 C 37.467298 28.214067 54.477491 0
M  V30 13 C 39.643856 29.472924 56.811304 0
M  V30 14 C 40.022009 29.977732 51.746689 0
M  V30 15 C 38.948918 28.296255 57.546910 0 CFG=2
M  V30 16 C 38.350157 28.593360 53.419298 0
M  V30 17 F 40.128983 28.038058 50.297875 0
M  V30 18 C 39.659302 28.620595 51.420212 0
M  V30 19 C 38.791899 27.905676 52.294088 0
M  V30 20 C 39.495756 30.564674 52.937149 0
M  V30 21 C 38.656471 29.759955 53.703136 0
M  V30 22 C 38.700540 30.518301 56.180060 0 CFG=1
M  V30 23 C 37.632669 28.699007 58.252008 0
M  V30 24 O 37.861378 30.859108 57.269964 0
M  V30 25 F 37.868261 33.509531 56.523016 0
M  V30 26 H 39.458696 26.478919 58.521505 0
M  V30 27 H 41.903680 28.157810 57.849432 0
M  V30 28 H 41.832492 26.445759 58.256199 0
M  V30 29 H 41.164825 26.983299 56.761322 0
M  V30 30 H 39.399525 33.951045 55.452172 0
M  V30 31 H 38.154148 33.013225 54.636498 0
M  V30 32 H 40.940691 30.007422 59.715388 0
M  V30 33 H 36.258758 30.323148 58.399735 0
M  V30 34 H 36.268218 29.621501 56.819090 0
M  V30 35 H 39.867438 32.121986 56.968680 0
M  V30 36 H 40.334996 31.692292 55.348431 0
M  V30 37 H 41.018843 27.689766 61.813140 0
M  V30 38 H 41.984043 27.683493 60.255984 0
M  V30 39 H 38.996810 27.621413 60.451041 0
M  V30 40 H 39.348386 29.208391 62.114342 0
M  V30 41 H 40.226509 30.588994 61.970140 0
M  V30 42 H 36.468569 31.150584 55.499171 0
M  V30 43 H 37.903229 27.365282 54.985473 0
M  V30 44 H 36.473205 28.020435 54.083325 0
M  V30 45 H 40.322064 29.103088 56.040719 0
M  V30 46 H 40.265084 29.982173 57.543659 0
M  V30 47 H 40.673672 30.543609 51.097259 0
M  V30 48 H 38.677099 27.578507 56.791175 0
M  V30 49 H 38.485171 26.890401 52.089588 0
M  V30 50 H 39.719971 31.581930 53.213822 0
M  V30 51 H 37.782099 28.997849 59.283948 0
M  V30 52 H 36.962809 27.845028 58.253405 0
M  V30 53 H 38.856976 30.397886 61.079009 0
M  V30 END ATOM
M  V30 BEGIN BOND
M  V30 1 1 2 1
M  V30 2 1 6 3
M  V30 3 1 7 4
M  V30 4 1 8 1
M  V30 5 1 8 4
M  V30 6 1 8 7
M  V30 7 1 10 4
M  V30 8 1 9 11 CFG=3
M  V30 9 1 12 9
M  V30 10 1 15 1
M  V30 11 1 15 13
M  V30 12 1 16 12
M  V30 13 1 18 14
M  V30 14 1 18 17
M  V30 15 1 19 16
M  V30 16 2 19 18
M  V30 17 2 20 14
M  V30 18 1 21 9
M  V30 19 2 21 16
M  V30 20 1 21 20
M  V30 21 1 22 6 CFG=3
M  V30 22 1 22 9
M  V30 23 1 22 13
M  V30 24 1 23 5
M  V30 25 1 23 15
M  V30 26 1 24 5
M  V30 27 1 24 22
M  V30 28 1 25 3
M  V30 29 1 1 26 CFG=1
M  V30 30 1 27 2
M  V30 31 1 28 2
M  V30 32 1 29 2
M  V30 33 1 30 3
M  V30 34 1 31 3
M  V30 35 1 4 32 CFG=3
M  V30 36 1 33 5
M  V30 37 1 34 5
M  V30 38 1 35 6
M  V30 39 1 36 6
M  V30 40 1 37 7
M  V30 41 1 38 7
M  V30 42 1 8 39 CFG=1
M  V30 43 1 40 10
M  V30 44 1 41 10
M  V30 45 1 42 11
M  V30 46 1 43 12
M  V30 47 1 44 12
M  V30 48 1 45 13
M  V30 49 1 46 13
M  V30 50 1 47 14
M  V30 51 1 15 48 CFG=3
M  V30 52 1 49 19
M  V30 53 1 50 20
M  V30 54 1 51 23
M  V30 55 1 52 23
M  V30 56 1 53 10
M  V30 END BOND
M  V30 END CTAB
M  END
>  <i_epik_Tot_Q>  (1) 
1

>  <i_epik_Tot_abs_Q>  (1) 
1

>  <i_i_glide_confnum>  (1) 
28

>  <i_i_glide_lignum>  (1) 
225

>  <i_i_glide_posenum>  (1) 
222

>  <i_i_glide_rotatable_bonds>  (1) 
6

>  <i_lp_mmshare_version>  (1) 
72125

>  <i_m_source_file_index>  (1) 
88

>  <i_f3d_flags>  (1) 
0

>  <num_sample>  (1) 
100

>  <b_lp_Chiralities_Consistent>  (1) 
1

>  <r_epik_Charging_Adjusted_Penalty>  (1) 
0.053606202930604946

>  <r_epik_Ionization_Penalty>  (1) 
0.026803441766302651

>  <r_epik_Ionization_Penalty_Charging>  (1) 
0.026803101465302424

>  <r_epik_Ionization_Penalty_Neutral>  (1) 
3.4030100022513842e-07

>  <r_epik_State_Penalty>  (1) 
0.026803101465302525

>  <r_glide_ring_energy>  (1) 
0

>  <r_i_docking_score>  (1) 
-6.4679912828975024

>  <r_i_glide_ecoul>  (1) 
-3.3523085867025753

>  <r_i_glide_eff_state_penalty>  (1) 
0.026803101465302525

>  <r_i_glide_einternal>  (1) 
33.059002188533441

>  <r_i_glide_emodel>  (1) 
-25.2670381809546

>  <r_i_glide_emodel_strain>  (1) 
4.883016959243264

>  <r_i_glide_energy>  (1) 
-29.456531451255422

>  <r_i_glide_erotb>  (1) 
0.61455583154011373

>  <r_i_glide_esite>  (1) 
-0.096650394268507744

>  <r_i_glide_evdw>  (1) 
-26.104222864552845

>  <r_i_glide_gscore>  (1) 
-6.4947943843628053

>  <r_i_glide_gscore_strain>  (1) 
0.22075423981081599

>  <r_i_glide_hbond>  (1) 
-0.16

>  <r_i_glide_ligand_efficiency>  (1) 
-0.25871965131590008

>  <r_i_glide_ligand_efficiency_ln>  (1) 
-1.5331077641043309

>  <r_i_glide_ligand_efficiency_sa>  (1) 
-0.75650084967193965

>  <r_i_glide_lipo>  (1) 
-3.2715272368524264

>  <r_i_glide_metal>  (1) 
-0

>  <r_i_glide_rewards>  (1) 
-1.9938693933597722

>  <r_lp_Energy>  (1) 
36.003222999999998

>  <s_epik_cmdline>  (1) 
J2VwaWtfcHl0aG9uJywgJy1waHQnLCAnMS4wJywgJy1waCcsICc3LjQnLCAnLXRuJywgJzgnLCAnLW1hJywgJzUwMCcsICctaW1hZScsICc8aW5maWxlLm1hZT4nLCAnLW9tYWUnLCAnPG91dGZpbGUubWFlPic=

>  <s_epik_input>  (1) 
W05IMl1bQ0BIXTFbQ0gyXVtDQEBIXTFbQ0BIXShbQ0gzXSlbQ0BASF0oW0NIMl1bQ0gyXU8yKVtDSDJdW0NAQF0yKFtDSDJdW0NIMl1GKVtDQF0oW09IXSkoW0NIMl0zKWMoYzM0KVtjSF1bY0hdYyhGKVtjSF00

>  <s_glide_docking_method>  (1) 
confgen

>  <s_i_glide_gridfile>  (1) 
gpcr_5ht2c_6bqh_protein_autoprepared_prepared

>  <s_lp_Force_Field>  (1) 
S-OPLS

>  <s_lp_Variant>  (1) 
DiffSBDD_87_num_sample_100-1

>  <s_m_source_file>  (1) 
generated__ligand_DiffSBDD_2026-05-06_prepared.sdf

>  <GenAI_Model>  (1) 
DiffSBDD

>  <Protein>  (1) 
GPCR_5HT2C

$$$$
DiffSBDD_53_num_sample_100
     RDKit          3D

  0  0  0  0  0  0  0  0  0  0999 V3000
M  V30 BEGIN CTAB
M  V30 COUNTS 69 72 0 0 1
M  V30 BEGIN ATOM
M  V30 1 C 38.181512 30.774191 61.549524 0
M  V30 2 C 40.495851 31.061681 65.547233 0
M  V30 3 C 40.161093 31.846277 62.795917 0
M  V30 4 O 41.467396 27.020928 64.253521 0
M  V30 5 N 40.667398 28.656417 66.256720 0 CFG=1 CHG=1
M  V30 6 C 39.135392 26.734608 55.006543 0
M  V30 7 C 38.009787 29.036670 54.795514 0
M  V30 8 N 38.323533 25.863617 55.867978 0
M  V30 9 C 38.587715 25.620948 57.169643 0
M  V30 10 C 39.103600 33.062292 60.951932 0
M  V30 11 C 39.539872 27.749158 58.250215 0 CFG=1
M  V30 12 C 41.433827 27.797208 67.141727 0
M  V30 13 C 40.201381 30.006725 66.646038 0
M  V30 14 C 42.092950 28.555232 66.006246 0 CFG=1
M  V30 15 O 38.777394 27.701744 59.453491 0
M  V30 16 C 39.209247 28.673754 60.397215 0 CFG=1
M  V30 17 C 40.752551 28.650712 58.569349 0 CFG=1
M  V30 18 C 40.688456 28.837555 60.077580 0
M  V30 19 C 42.291173 28.123259 64.563761 0 CFG=2
M  V30 20 C 39.176475 31.913887 61.769065 0
M  V30 21 O 37.880049 24.884813 57.853470 0
M  V30 22 C 39.995135 34.133157 61.152716 0
M  V30 23 C 38.630043 27.777699 52.675872 0
M  V30 24 O 39.691890 27.221408 52.327163 0
M  V30 25 S 42.087225 29.555990 63.453512 0
M  V30 26 C 40.969036 34.062815 62.166935 0
M  V30 27 C 38.221628 27.667048 54.158854 0 CFG=1
M  V30 28 C 39.003599 29.876760 55.132084 0
M  V30 29 O 37.867410 28.421431 51.927655 0 CHG=-1
M  V30 30 C 39.824621 26.293941 57.792863 0
M  V30 31 S 40.267524 30.421401 63.852500 0 CHG=1
M  V30 32 C 41.054266 32.921716 62.986664 0
M  V30 33 C 42.122838 28.180330 58.052441 0
M  V30 34 C 38.369200 29.961262 60.249011 0
M  V30 35 H 38.074017 30.115022 62.406964 0
M  V30 36 H 37.210228 31.265923 61.475907 0
M  V30 37 H 41.520737 31.422222 65.636287 0
M  V30 38 H 39.867400 31.936881 65.690211 0
M  V30 39 H 42.012764 26.319093 63.923528 0
M  V30 40 H 39.884265 27.340387 55.508960 0
M  V30 41 H 39.704002 26.038814 54.389362 0
M  V30 42 H 36.986374 29.329035 54.976659 0
M  V30 43 H 37.516152 25.423927 55.451525 0
M  V30 44 H 38.356959 33.123863 60.172476 0
M  V30 45 H 38.929820 28.257196 57.503126 0
M  V30 46 H 41.464100 28.192018 68.155507 0
M  V30 47 H 41.125863 26.761404 67.010906 0
M  V30 48 H 40.646543 30.319306 67.591688 0
M  V30 49 H 39.125946 29.939885 66.815960 0
M  V30 50 H 42.656306 29.435975 66.309823 0
M  V30 51 H 39.072356 28.257529 61.395956 0
M  V30 52 H 40.549556 29.621379 58.115328 0
M  V30 53 H 41.067435 29.805131 60.402463 0
M  V30 54 H 41.260466 28.054193 60.577862 0
M  V30 55 H 43.323669 27.787534 64.459022 0
M  V30 56 H 39.932229 35.011307 60.526141 0
M  V30 57 H 41.650752 34.887553 62.317039 0
M  V30 58 H 37.231671 27.210463 54.113257 0
M  V30 59 H 38.790764 30.836130 55.580576 0
M  V30 60 H 40.037911 29.615430 54.962536 0
M  V30 61 H 40.664743 26.209873 57.106561 0
M  V30 62 H 40.131031 25.702475 58.653533 0
M  V30 63 H 41.802509 32.874485 63.763549 0
M  V30 64 H 42.431423 27.242905 58.516989 0
M  V30 65 H 42.103167 28.031587 56.973187 0
M  V30 66 H 42.895259 28.920858 58.253508 0
M  V30 67 H 37.372675 29.635368 59.947289 0
M  V30 68 H 38.713937 30.586723 59.424745 0
M  V30 69 H 40.142619 28.155881 65.546014 0
M  V30 END ATOM
M  V30 BEGIN BOND
M  V30 1 1 8 6
M  V30 2 1 9 8
M  V30 3 1 12 5
M  V30 4 1 13 2
M  V30 5 1 13 5
M  V30 6 1 14 5
M  V30 7 1 14 12
M  V30 8 1 15 11
M  V30 9 1 16 15
M  V30 10 1 17 11
M  V30 11 1 18 16
M  V30 12 1 18 17
M  V30 13 1 19 4
M  V30 14 1 19 14
M  V30 15 1 20 1
M  V30 16 1 20 3
M  V30 17 2 20 10
M  V30 18 2 21 9
M  V30 19 1 22 10
M  V30 20 2 24 23
M  V30 21 1 25 19
M  V30 22 2 26 22
M  V30 23 1 27 6
M  V30 24 1 27 7
M  V30 25 1 27 23
M  V30 26 2 28 7
M  V30 27 1 29 23
M  V30 28 1 30 9
M  V30 29 1 30 11
M  V30 30 1 31 2
M  V30 31 1 31 3 CFG=3
M  V30 32 1 31 25
M  V30 33 2 32 3
M  V30 34 1 32 26
M  V30 35 1 33 17
M  V30 36 1 34 1
M  V30 37 1 34 16
M  V30 38 1 35 1
M  V30 39 1 36 1
M  V30 40 1 37 2
M  V30 41 1 38 2
M  V30 42 1 39 4
M  V30 43 1 40 6
M  V30 44 1 41 6
M  V30 45 1 42 7
M  V30 46 1 43 8
M  V30 47 1 44 10
M  V30 48 1 11 45 CFG=3
M  V30 49 1 46 12
M  V30 50 1 47 12
M  V30 51 1 48 13
M  V30 52 1 49 13
M  V30 53 1 14 50 CFG=1
M  V30 54 1 16 51 CFG=1
M  V30 55 1 17 52 CFG=3
M  V30 56 1 53 18
M  V30 57 1 54 18
M  V30 58 1 19 55 CFG=1
M  V30 59 1 56 22
M  V30 60 1 57 26
M  V30 61 1 27 58 CFG=3
M  V30 62 1 59 28
M  V30 63 1 60 28
M  V30 64 1 61 30
M  V30 65 1 62 30
M  V30 66 1 63 32
M  V30 67 1 64 33
M  V30 68 1 65 33
M  V30 69 1 66 33
M  V30 70 1 67 34
M  V30 71 1 68 34
M  V30 72 1 5 69 CFG=3
M  V30 END BOND
M  V30 END CTAB
M  END
>  <i_epik_Tot_Q>  (1) 
1

>  <i_epik_Tot_abs_Q>  (1) 
3

>  <i_i_glide_confnum>  (1) 
1515

>  <i_i_glide_lignum>  (1) 
141

>  <i_i_glide_posenum>  (1) 
396

>  <i_i_glide_rotatable_bonds>  (1) 
12

>  <i_lp_mmshare_version>  (1) 
72125

>  <i_m_source_file_index>  (1) 
54

>  <i_f3d_flags>  (1) 
0

>  <num_sample>  (1) 
100

>  <b_lp_Chiralities_Consistent>  (1) 
1

>  <r_epik_Charging_Adjusted_Penalty>  (1) 
0.046453037766825911

>  <r_epik_Ionization_Penalty>  (1) 
0.023481310305084564

>  <r_epik_Ionization_Penalty_Charging>  (1) 
0.023340632071334463

>  <r_epik_Ionization_Penalty_Neutral>  (1) 
0.0001406782337501018

>  <r_epik_State_Penalty>  (1) 
0.023112405695491445

>  <r_glide_ring_energy>  (1) 
0.17236391819081889

>  <r_i_docking_score>  (1) 
-6.4667335877804586

>  <r_i_glide_ecoul>  (1) 
-5.2433373320118202

>  <r_i_glide_eff_state_penalty>  (1) 
0.023112405695491445

>  <r_i_glide_einternal>  (1) 
18.115149703931966

>  <r_i_glide_emodel>  (1) 
-66.795257991442796

>  <r_i_glide_emodel_strain>  (1) 
1.1595332385882244

>  <r_i_glide_energy>  (1) 
-53.40744493859507

>  <r_i_glide_erotb>  (1) 
0.79410111881252765

>  <r_i_glide_esite>  (1) 
-0.01942175504685302

>  <r_i_glide_evdw>  (1) 
-48.164107606583251

>  <r_i_glide_gscore>  (1) 
-6.4898459934759503

>  <r_i_glide_gscore_strain>  (1) 
0

>  <r_i_glide_hbond>  (1) 
0

>  <r_i_glide_ligand_efficiency>  (1) 
-0.19019804669942525

>  <r_i_glide_ligand_efficiency_ln>  (1) 
-1.4286828352738963

>  <r_i_glide_ligand_efficiency_sa>  (1) 
-0.61616783666738406

>  <r_i_glide_lipo>  (1) 
-4.2114873479920583

>  <r_i_glide_metal>  (1) 
-0

>  <r_i_glide_rewards>  (1) 
0.14166797088136929

>  <r_lp_Energy>  (1) 
5.0238719999999999

>  <s_epik_Chemistry_Notes>  (1) 
This compound contains an acetal/aminal-like group ( X-CH(R)-Y where X, Y are N, S, or O) that may be acid/base labile, releasing an aldehyde.

>  <s_epik_cmdline>  (1) 
J2VwaWtfcHl0aG9uJywgJy1waHQnLCAnMS4wJywgJy1waCcsICc3LjQnLCAnLXRuJywgJzgnLCAnLW1hJywgJzUwMCcsICctaW1hZScsICc8aW5maWxlLm1hZT4nLCAnLW9tYWUnLCAnPG91dGZpbGUubWFlPic=

>  <s_epik_input>  (1) 
TjEyW0NAQEhdKFtDSDJdMSlbQ0BASF0oW09IXSlTW1MrXShbQ0gyXVtDSDJdMiljM2MoW2NIXVtjSF1bY0hdW2NIXTMpW0NIMl1bQ0gyXVtDQEhdKFtDSDJdW0NASF00W0NIM10pT1tDQEBIXTRbQ0gyXUMoPU8pW05IXVtDSDJdW0NAQEhdKFtDSF09W0NIMl0pQyg9TylbT0hd

>  <s_glide_docking_method>  (1) 
confgen

>  <s_i_glide_gridfile>  (1) 
gpcr_5ht2c_6bqh_protein_autoprepared_prepared

>  <s_lp_Force_Field>  (1) 
S-OPLS

>  <s_lp_Variant>  (1) 
DiffSBDD_53_num_sample_100-2

>  <s_m_source_file>  (1) 
generated__ligand_DiffSBDD_2026-05-06_prepared.sdf

>  <GenAI_Model>  (1) 
DiffSBDD

>  <Protein>  (1) 
GPCR_5HT2C

$$$$
DiffSBDD_90_num_sample_100
     RDKit          3D

  0  0  0  0  0  0  0  0  0  0999 V3000
M  V30 BEGIN CTAB
M  V30 COUNTS 85 88 0 0 1
M  V30 BEGIN ATOM
M  V30 1 C 35.308680 31.609068 59.882175 0
M  V30 2 O 39.810951 36.454056 64.789687 0
M  V30 3 F 39.186570 25.189097 55.102918 0
M  V30 4 C 39.909833 29.611292 60.498341 0 CFG=1
M  V30 5 C 38.288310 37.860425 61.665447 0 CFG=2
M  V30 6 C 39.346478 35.723619 60.884973 0 CFG=1
M  V30 7 C 41.591279 31.774112 62.068445 0
M  V30 8 C 37.929272 33.605795 60.990938 0
M  V30 9 C 40.211618 29.725006 62.042463 0
M  V30 10 N 38.758770 36.664917 63.814558 0
M  V30 11 C 37.558819 26.225269 56.450963 0
M  V30 12 C 39.165843 30.508258 62.869243 0
M  V30 13 C 38.220149 36.748731 60.597559 0
M  V30 14 C 40.279963 36.453243 61.866494 0
M  V30 15 O 39.867367 39.621448 61.294000 0
M  V30 16 N 36.704123 31.319522 59.450666 0 CFG=1 CHG=1
M  V30 17 C 38.823981 34.450171 61.538720 0
M  V30 18 F 39.247118 24.796091 57.224080 0
M  V30 19 C 39.746714 27.650315 57.789765 0 CFG=2
M  V30 20 N 36.759917 30.021328 58.678855 0
M  V30 21 C 37.370672 27.068264 57.730718 0
M  V30 22 C 37.418229 32.466403 58.805509 0
M  V30 23 O 41.467392 30.363603 62.253656 0
M  V30 24 C 40.399743 28.344543 62.687500 0
M  V30 25 C 35.072351 32.994127 60.506536 0
M  V30 26 C 40.044509 26.875534 56.492424 0
M  V30 27 C 37.288238 33.767888 59.615918 0 CFG=1
M  V30 28 C 39.356556 37.369956 62.691609 0 CFG=1
M  V30 29 C 40.936839 28.756840 59.728742 0
M  V30 30 O 37.867420 39.830129 60.377950 0 CHG=-1
M  V30 31 C 38.092165 29.420723 58.726023 0 CFG=1
M  V30 32 C 35.791580 34.094823 59.730940 0
M  V30 33 O 36.976436 38.021278 62.189276 0
M  V30 34 C 38.511346 29.097220 60.171961 0
M  V30 35 C 38.332619 28.268788 57.706387 0 CFG=1
M  V30 36 C 40.830286 28.650137 58.197021 0
M  V30 37 C 39.017386 25.737718 56.306072 0
M  V30 38 C 38.712777 39.221457 61.053463 0
M  V30 39 H 35.067435 30.856447 60.631044 0
M  V30 40 H 34.620380 31.475145 59.053478 0
M  V30 41 H 39.820211 35.513334 64.875622 0
M  V30 42 H 39.951219 30.625975 60.109485 0
M  V30 43 H 39.893140 35.441974 59.984986 0
M  V30 44 H 42.645030 32.043310 62.132056 0
M  V30 45 H 41.229466 32.112501 61.099578 0
M  V30 46 H 41.082098 32.332767 62.852532 0
M  V30 47 H 37.626316 32.739979 61.552228 0
M  V30 48 H 38.087844 37.234613 64.311935 0
M  V30 49 H 37.292014 26.821258 55.577898 0
M  V30 50 H 36.879933 25.372334 56.453906 0
M  V30 51 H 38.199246 30.021410 62.902997 0
M  V30 52 H 39.491876 30.609504 63.905331 0
M  V30 53 H 39.012484 31.508998 62.487489 0
M  V30 54 H 38.267371 37.144552 59.583543 0
M  V30 55 H 37.249981 36.273781 60.650500 0
M  V30 56 H 40.984919 37.070277 61.308489 0
M  V30 57 H 40.891895 35.785577 62.474445 0
M  V30 58 H 39.212608 34.227932 62.521559 0
M  V30 59 H 39.746591 26.891093 58.573146 0
M  V30 60 H 36.536728 30.373956 57.753238 0
M  V30 61 H 36.342615 27.395411 57.853490 0
M  V30 62 H 37.585617 26.424068 58.582736 0
M  V30 63 H 37.067428 32.634256 57.792211 0
M  V30 64 H 38.479874 32.243058 58.712492 0
M  V30 65 H 39.543721 27.700823 62.494528 0
M  V30 66 H 41.296215 27.847162 62.325157 0
M  V30 67 H 40.519756 28.426369 63.768215 0
M  V30 68 H 35.386832 32.996601 61.550487 0
M  V30 69 H 34.005736 33.221384 60.527503 0
M  V30 70 H 40.019923 27.555553 55.640174 0
M  V30 71 H 41.049994 26.452854 56.522247 0
M  V30 72 H 37.781474 34.560387 59.055377 0
M  V30 73 H 39.923085 38.192925 63.129299 0
M  V30 74 H 41.867393 29.221408 59.897854 0
M  V30 75 H 41.027881 27.758093 60.152107 0
M  V30 76 H 38.730385 30.221058 58.366100 0
M  V30 77 H 35.617046 35.043060 60.230071 0
M  V30 78 H 35.358465 34.194922 58.734638 0
M  V30 79 H 36.530435 38.573103 61.557438 0
M  V30 80 H 37.867457 29.624589 60.846131 0
M  V30 81 H 38.405518 28.033208 60.387958 0
M  V30 82 H 38.229332 28.745077 56.729653 0
M  V30 83 H 40.667319 29.621197 57.735806 0
M  V30 84 H 41.794329 28.297013 57.827196 0
M  V30 85 H 37.222127 31.130185 60.294315 0
M  V30 END ATOM
M  V30 BEGIN BOND
M  V30 1 1 9 4
M  V30 2 1 10 2
M  V30 3 1 12 9
M  V30 4 1 13 5
M  V30 5 1 13 6
M  V30 6 1 14 6
M  V30 7 1 16 1
M  V30 8 1 17 6
M  V30 9 2 17 8
M  V30 10 1 20 16
M  V30 11 1 21 11
M  V30 12 1 22 16
M  V30 13 1 23 7
M  V30 14 1 23 9
M  V30 15 1 24 9
M  V30 16 1 25 1
M  V30 17 1 26 19
M  V30 18 1 27 8
M  V30 19 1 27 22
M  V30 20 1 28 5
M  V30 21 1 28 10
M  V30 22 1 28 14
M  V30 23 1 29 4
M  V30 24 1 31 20
M  V30 25 1 32 25
M  V30 26 1 32 27
M  V30 27 1 5 33 CFG=1
M  V30 28 1 34 4
M  V30 29 1 34 31
M  V30 30 1 35 19
M  V30 31 1 35 21
M  V30 32 1 35 31
M  V30 33 1 36 19
M  V30 34 1 36 29
M  V30 35 1 37 3
M  V30 36 1 37 11
M  V30 37 1 37 18
M  V30 38 1 37 26
M  V30 39 1 38 5
M  V30 40 2 38 15
M  V30 41 1 38 30
M  V30 42 1 39 1
M  V30 43 1 40 1
M  V30 44 1 41 2
M  V30 45 1 4 42 CFG=3
M  V30 46 1 6 43 CFG=3
M  V30 47 1 44 7
M  V30 48 1 45 7
M  V30 49 1 46 7
M  V30 50 1 47 8
M  V30 51 1 48 10
M  V30 52 1 49 11
M  V30 53 1 50 11
M  V30 54 1 51 12
M  V30 55 1 52 12
M  V30 56 1 53 12
M  V30 57 1 54 13
M  V30 58 1 55 13
M  V30 59 1 56 14
M  V30 60 1 57 14
M  V30 61 1 58 17
M  V30 62 1 19 59 CFG=1
M  V30 63 1 60 20
M  V30 64 1 61 21
M  V30 65 1 62 21
M  V30 66 1 63 22
M  V30 67 1 64 22
M  V30 68 1 65 24
M  V30 69 1 66 24
M  V30 70 1 67 24
M  V30 71 1 68 25
M  V30 72 1 69 25
M  V30 73 1 70 26
M  V30 74 1 71 26
M  V30 75 1 27 72 CFG=3
M  V30 76 1 28 73 CFG=1
M  V30 77 1 74 29
M  V30 78 1 75 29
M  V30 79 1 31 76 CFG=3
M  V30 80 1 77 32
M  V30 81 1 78 32
M  V30 82 1 79 33
M  V30 83 1 80 34
M  V30 84 1 81 34
M  V30 85 1 35 82 CFG=3
M  V30 86 1 83 36
M  V30 87 1 84 36
M  V30 88 1 16 85 CFG=1
M  V30 END BOND
M  V30 END CTAB
M  END
>  <i_epik_Tot_Q>  (1) 
0

>  <i_epik_Tot_abs_Q>  (1) 
2

>  <i_i_glide_confnum>  (1) 
316

>  <i_i_glide_lignum>  (1) 
237

>  <i_i_glide_posenum>  (1) 
344

>  <i_i_glide_rotatable_bonds>  (1) 
10

>  <i_lp_mmshare_version>  (1) 
72125

>  <i_m_source_file_index>  (1) 
91

>  <i_f3d_flags>  (1) 
0

>  <num_sample>  (1) 
100

>  <b_lp_Chiralities_Consistent>  (1) 
1

>  <r_epik_Charging_Adjusted_Penalty>  (1) 
1.5083745474312953

>  <r_epik_Ionization_Penalty>  (1) 
0.65750586125956467

>  <r_epik_Ionization_Penalty_Charging>  (1) 
0.6544614066189578

>  <r_epik_Ionization_Penalty_Neutral>  (1) 
0.0030444546406068235

>  <r_epik_State_Penalty>  (1) 
0.8539131408123376

>  <r_glide_ring_energy>  (1) 
2.1449054143447501

>  <r_i_docking_score>  (1) 
-6.4654811134056436

>  <r_i_glide_ecoul>  (1) 
-5.5879149561448189

>  <r_i_glide_eff_state_penalty>  (1) 
0.8539131408123376

>  <r_i_glide_einternal>  (1) 
32.671447844677097

>  <r_i_glide_emodel>  (1) 
-13.959699739686062

>  <r_i_glide_emodel_strain>  (1) 
3.7634569978160357

>  <r_i_glide_energy>  (1) 
-30.434994581802375

>  <r_i_glide_erotb>  (1) 
0.42002339013477186

>  <r_i_glide_esite>  (1) 
-0.12977058941958886

>  <r_i_glide_evdw>  (1) 
-24.847079625657557

>  <r_i_glide_gscore>  (1) 
-7.3193942542179808

>  <r_i_glide_gscore_strain>  (1) 
0

>  <r_i_glide_hbond>  (1) 
-0.65455531962491165

>  <r_i_glide_ligand_efficiency>  (1) 
-0.17014423982646432

>  <r_i_glide_ligand_efficiency_ln>  (1) 
-1.3941479232349405

>  <r_i_glide_ligand_efficiency_sa>  (1) 
-0.57202074990507779

>  <r_i_glide_lipo>  (1) 
-3.3886696498371403

>  <r_i_glide_metal>  (1) 
-0

>  <r_i_glide_rewards>  (1) 
-1.4858808607665117

>  <r_lp_Energy>  (1) 
46.065079999999995

>  <s_epik_Chemistry_Notes>  (1) 
This compound has a N-S or N-O group and may undergo hydrolysis at high or low pH.

>  <s_epik_cmdline>  (1) 
J2VwaWtfcHl0aG9uJywgJy1waHQnLCAnMS4wJywgJy1waCcsICc3LjQnLCAnLXRuJywgJzgnLCAnLW1hJywgJzUwMCcsICctaW1hZScsICc8aW5maWxlLm1hZT4nLCAnLW9tYWUnLCAnPG91dGZpbGUubWFlPic=

>  <s_epik_input>  (1) 
RkMoRikoW0NIMl0xKVtDSDJdW0NIMl1bQ0BIXShbQ0BASF0xMilbQ0BIXShbQ0gyXVtDQEhdKFtDSDJdW0NIMl0yKUMoW0NIM10pKFtDSDNdKU9bQ0gzXSlbTkhdTjNbQ0gyXVtDSDJdW0NIMl1bQ0BIXShbQ0gyXTMpL1tDSF09W0NIXVxbQ0BASF0oW0NIMl1bQ0BdNChbT0hdKUMoPU8pW09IXSlbQ0gyXVtDQEBIXTRbTkhdW09IXQ==

>  <s_glide_docking_method>  (1) 
confgen

>  <s_i_glide_gridfile>  (1) 
gpcr_5ht2c_6bqh_protein_autoprepared_prepared

>  <s_lp_Force_Field>  (1) 
S-OPLS

>  <s_lp_Variant>  (1) 
DiffSBDD_90_num_sample_100-9

>  <s_m_source_file>  (1) 
generated__ligand_DiffSBDD_2026-05-06_prepared.sdf

>  <GenAI_Model>  (1) 
DiffSBDD

>  <Protein>  (1) 
GPCR_5HT2C

$$$$
DiffSBDD_84_num_sample_100
     RDKit          3D

  0  0  0  0  0  0  0  0  0  0999 V3000
M  V30 BEGIN CTAB
M  V30 COUNTS 48 50 0 0 1
M  V30 BEGIN ATOM
M  V30 1 C 38.700691 34.917211 61.126809 0
M  V30 2 C 38.854846 27.711948 53.447123 0
M  V30 3 C 38.726083 29.072080 52.737432 0 CFG=2
M  V30 4 C 38.667349 32.688128 58.858372 0
M  V30 5 C 39.002744 29.514834 55.128338 0 CFG=1
M  V30 6 C 39.566497 33.788912 61.367650 0
M  V30 7 C 37.709472 37.104265 61.096778 0
M  V30 8 N 38.267401 31.643693 58.256112 0
M  V30 9 Cl 40.029328 36.821362 62.555414 0
M  V30 10 C 38.984178 27.989749 54.952954 0
M  V30 11 C 35.674717 34.522977 59.035646 0
M  V30 12 O 39.867419 30.421447 51.014661 0
M  V30 13 C 38.212276 33.065360 60.255103 0 CFG=1
M  V30 14 C 37.816351 34.446362 60.404409 0
M  V30 15 C 38.756110 36.243878 61.546199 0
M  V30 16 C 36.734356 35.170920 59.903091 0
M  V30 17 C 40.052315 29.519108 52.081431 0
M  V30 18 C 36.673951 36.555333 60.253496 0
M  V30 19 C 38.666657 31.434796 56.873642 0 CFG=1
M  V30 20 C 38.287832 30.024351 53.864387 0
M  V30 21 C 38.403166 29.964306 56.483735 0
M  V30 22 N 37.867403 32.335173 56.029559 0 CHG=1
M  V30 23 H 37.957185 27.117970 53.267433 0
M  V30 24 H 39.691130 27.119967 53.073984 0
M  V30 25 H 37.957704 28.996069 51.966369 0
M  V30 26 H 39.366533 33.391233 58.395884 0
M  V30 27 H 40.045098 29.835036 55.087198 0
M  V30 28 H 39.555317 33.456637 62.406341 0
M  V30 29 H 40.554887 33.901218 60.924431 0
M  V30 30 H 37.691915 38.145559 61.382365 0
M  V30 31 H 38.127833 27.554658 55.470656 0
M  V30 32 H 39.879237 27.530321 55.374629 0
M  V30 33 H 35.115401 33.783741 59.609498 0
M  V30 34 H 34.968635 35.260881 58.655619 0
M  V30 35 H 36.127552 34.021432 58.181734 0
M  V30 36 H 39.402520 29.984873 50.315170 0
M  V30 37 H 37.530177 32.362218 60.735150 0
M  V30 38 H 40.615770 28.669404 51.694387 0
M  V30 39 H 40.667400 30.021434 52.823179 0
M  V30 40 H 35.867408 37.179147 59.898360 0
M  V30 41 H 39.724309 31.663525 56.725361 0
M  V30 42 H 38.524891 31.063014 53.632878 0
M  V30 43 H 37.207916 29.950808 54.001072 0
M  V30 44 H 37.332366 29.752908 56.511474 0
M  V30 45 H 38.843384 29.333809 57.258290 0
M  V30 46 H 38.022411 32.141008 55.052855 0
M  V30 47 H 36.877786 32.175500 56.250135 0
M  V30 48 H 38.079331 33.300137 56.228111 0
M  V30 END ATOM
M  V30 BEGIN BOND
M  V30 1 1 3 2
M  V30 2 1 6 1
M  V30 3 2 8 4
M  V30 4 1 10 2
M  V30 5 1 10 5
M  V30 6 1 13 4
M  V30 7 1 13 6
M  V30 8 1 14 1
M  V30 9 1 14 13
M  V30 10 2 15 1
M  V30 11 1 15 7
M  V30 12 1 15 9
M  V30 13 1 16 11
M  V30 14 2 16 14
M  V30 15 1 17 3
M  V30 16 1 17 12
M  V30 17 2 18 7
M  V30 18 1 18 16
M  V30 19 1 19 8
M  V30 20 1 20 3
M  V30 21 1 20 5
M  V30 22 1 21 5
M  V30 23 1 21 19
M  V30 24 1 22 19
M  V30 25 1 23 2
M  V30 26 1 24 2
M  V30 27 1 3 25 CFG=3
M  V30 28 1 26 4
M  V30 29 1 5 27 CFG=3
M  V30 30 1 28 6
M  V30 31 1 29 6
M  V30 32 1 30 7
M  V30 33 1 31 10
M  V30 34 1 32 10
M  V30 35 1 33 11
M  V30 36 1 34 11
M  V30 37 1 35 11
M  V30 38 1 36 12
M  V30 39 1 13 37 CFG=1
M  V30 40 1 38 17
M  V30 41 1 39 17
M  V30 42 1 40 18
M  V30 43 1 19 41 CFG=1
M  V30 44 1 42 20
M  V30 45 1 43 20
M  V30 46 1 44 21
M  V30 47 1 45 21
M  V30 48 1 46 22
M  V30 49 1 47 22
M  V30 50 1 48 22
M  V30 END BOND
M  V30 END CTAB
M  END
>  <i_epik_Tot_Q>  (1) 
1

>  <i_epik_Tot_abs_Q>  (1) 
1

>  <i_i_glide_confnum>  (1) 
88

>  <i_i_glide_lignum>  (1) 
218

>  <i_i_glide_posenum>  (1) 
262

>  <i_i_glide_rotatable_bonds>  (1) 
6

>  <i_lp_mmshare_version>  (1) 
72125

>  <i_m_source_file_index>  (1) 
85

>  <i_f3d_flags>  (1) 
0

>  <num_sample>  (1) 
100

>  <b_lp_Chiralities_Consistent>  (1) 
1

>  <r_epik_Charging_Adjusted_Penalty>  (1) 
0.46451758934955678

>  <r_epik_Ionization_Penalty>  (1) 
0.053840736014893024

>  <r_epik_Ionization_Penalty_Charging>  (1) 
0.053837750396952835

>  <r_epik_Ionization_Penalty_Neutral>  (1) 
2.9856179401856363e-06

>  <r_epik_State_Penalty>  (1) 
0.41067983895260396

>  <r_glide_ring_energy>  (1) 
0.7268266284921937

>  <r_i_docking_score>  (1) 
-6.4645992752476813

>  <r_i_glide_ecoul>  (1) 
-3.4508922813925853

>  <r_i_glide_eff_state_penalty>  (1) 
0.41067983895260396

>  <r_i_glide_einternal>  (1) 
1.6851997854095035

>  <r_i_glide_emodel>  (1) 
-52.09813995856306

>  <r_i_glide_emodel_strain>  (1) 
0.39159426172179224

>  <r_i_glide_energy>  (1) 
-36.155820660857458

>  <r_i_glide_erotb>  (1) 
0.90212786361762021

>  <r_i_glide_esite>  (1) 
-0.16878137594375195

>  <r_i_glide_evdw>  (1) 
-32.704928379464874

>  <r_i_glide_gscore>  (1) 
-6.8752791142002856

>  <r_i_glide_gscore_strain>  (1) 
0

>  <r_i_glide_hbond>  (1) 
-0.25044369513270481

>  <r_i_glide_ligand_efficiency>  (1) 
-0.29384542160216731

>  <r_i_glide_ligand_efficiency_ln>  (1) 
-1.5801838648584359

>  <r_i_glide_ligand_efficiency_sa>  (1) 
-0.82336642846228703

>  <r_i_glide_lipo>  (1) 
-3.0908042819229529

>  <r_i_glide_metal>  (1) 
-0

>  <r_i_glide_rewards>  (1) 
-2.1144973636363642

>  <r_lp_Energy>  (1) 
11.505056

>  <r_lp_tautomer_probability>  (1) 
0.49999300000000002

>  <s_epik_Chemistry_Notes>  (1) 
This compound has an imine and may undergo hydrolysis. This compound contains an acetal/aminal-like group ( X-CH(R)-Y where X, Y are N, S, or O) that may be acid/base labile, releasing an aldehyde.

>  <s_epik_cmdline>  (1) 
J2VwaWtfcHl0aG9uJywgJy1waHQnLCAnMS4wJywgJy1waCcsICc3LjQnLCAnLXRuJywgJzgnLCAnLW1hJywgJzUwMCcsICctaW1hZScsICc8aW5maWxlLm1hZT4nLCAnLW9tYWUnLCAnPG91dGZpbGUubWFlPic=

>  <s_epik_input>  (1) 
Q2xjMVtjSF1bY0hdYyhbQ0gzXSljKGMxMilbQ0BIXShbQ0gyXTIpL1tDSF09Ti9bQ0BIXShbTkgyXSlbQ0gyXVtDQEhdKFtDSDJdMylbQ0gyXVtDSDJdW0NAQEhdM1tDSDJdW09IXQ==

>  <s_glide_docking_method>  (1) 
confgen

>  <s_i_glide_gridfile>  (1) 
gpcr_5ht2c_6bqh_protein_autoprepared_prepared

>  <s_lp_Force_Field>  (1) 
S-OPLS

>  <s_lp_Variant>  (1) 
DiffSBDD_84_num_sample_100-1

>  <s_m_source_file>  (1) 
generated__ligand_DiffSBDD_2026-05-06_prepared.sdf

>  <GenAI_Model>  (1) 
DiffSBDD

>  <Protein>  (1) 
GPCR_5HT2C

$$$$
DiffSBDD_59_num_sample_100
     RDKit          3D

  0  0  0  0  0  0  0  0  0  0999 V3000
M  V30 BEGIN CTAB
M  V30 COUNTS 54 55 0 0 1
M  V30 BEGIN ATOM
M  V30 1 O 36.667406 37.621071 61.581366 0
M  V30 2 N 38.571125 29.673614 55.681186 0 CFG=1 CHG=1
M  V30 3 C 39.867406 30.265165 52.409635 0
M  V30 4 C 37.995196 30.358378 56.870708 0
M  V30 5 C 37.443530 35.344924 61.232789 0
M  V30 6 C 38.845665 27.774251 51.584095 0
M  V30 7 C 38.324904 28.394010 52.736018 0
M  V30 8 C 38.830607 29.648024 53.154209 0
M  V30 9 C 37.533533 32.436838 59.677092 0
M  V30 10 C 36.745821 30.031245 59.108897 0
M  V30 11 Cl 37.068024 27.621486 53.628601 0
M  V30 12 C 37.654141 29.402569 58.029406 0
M  V30 13 O 37.067408 33.172200 58.629661 0
M  V30 14 N 38.242686 33.030784 60.685955 0
M  V30 15 N 38.596394 32.128126 61.628822 0
M  V30 16 C 37.797114 36.843669 61.250859 0
M  V30 17 C 37.422856 31.104878 59.924336 0
M  V30 18 C 38.236505 30.352313 54.391007 0 CFG=2
M  V30 19 C 40.005412 29.334802 55.827415 0
M  V30 20 C 38.634705 34.438989 60.836649 0 CFG=2
M  V30 21 C 40.376681 29.640458 51.257715 0
M  V30 22 C 38.117479 30.962676 61.171343 0
M  V30 23 C 39.859032 34.608815 61.767067 0
M  V30 24 C 38.509153 31.877348 54.428281 0
M  V30 25 C 39.867146 28.398529 50.845834 0
M  V30 26 H 36.398477 37.404790 62.461543 0
M  V30 27 H 40.263272 31.221403 52.713415 0
M  V30 28 H 37.067459 30.821268 56.556115 0
M  V30 29 H 38.650437 31.165041 57.203427 0
M  V30 30 H 36.629096 35.190111 60.523823 0
M  V30 31 H 37.046113 35.057556 62.203760 0
M  V30 32 H 38.455606 26.821450 51.262278 0
M  V30 33 H 36.411996 29.227665 59.766136 0
M  V30 34 H 35.832949 30.414691 58.653437 0
M  V30 35 H 38.562978 29.015129 58.490568 0
M  V30 36 H 37.127935 28.538636 57.622676 0
M  V30 37 H 38.572462 37.060006 61.985554 0
M  V30 38 H 38.171434 37.158512 60.277173 0
M  V30 39 H 36.471908 32.633206 58.108573 0
M  V30 40 H 37.153850 30.270347 54.281300 0
M  V30 41 H 40.641198 30.138944 55.453679 0
M  V30 42 H 40.268524 29.128771 56.864845 0
M  V30 43 H 40.235991 28.437397 55.254676 0
M  V30 44 H 38.966247 34.758464 59.853441 0
M  V30 45 H 41.161759 30.117456 50.687965 0
M  V30 46 H 38.283586 30.067285 61.752158 0
M  V30 47 H 40.281184 35.611321 61.707388 0
M  V30 48 H 39.599609 34.415514 62.808647 0
M  V30 49 H 40.660745 33.923637 61.490226 0
M  V30 50 H 38.267458 32.343007 53.472057 0
M  V30 51 H 37.899574 32.395306 55.169230 0
M  V30 52 H 39.550492 32.096523 54.657233 0
M  V30 53 H 40.260517 27.922880 49.961304 0
M  V30 54 H 38.090636 28.785658 55.631235 0
M  V30 END ATOM
M  V30 BEGIN BOND
M  V30 1 1 4 2
M  V30 2 2 7 6
M  V30 3 2 8 3
M  V30 4 1 8 7
M  V30 5 1 11 7
M  V30 6 1 12 4
M  V30 7 1 12 10
M  V30 8 1 13 9
M  V30 9 1 14 9
M  V30 10 1 15 14
M  V30 11 1 16 1
M  V30 12 1 16 5
M  V30 13 2 17 9
M  V30 14 1 17 10
M  V30 15 1 18 2
M  V30 16 1 18 8
M  V30 17 1 19 2
M  V30 18 1 20 5
M  V30 19 1 20 14
M  V30 20 1 21 3
M  V30 21 2 22 15
M  V30 22 1 22 17
M  V30 23 1 23 20
M  V30 24 1 24 18
M  V30 25 1 25 6
M  V30 26 2 25 21
M  V30 27 1 26 1
M  V30 28 1 27 3
M  V30 29 1 28 4
M  V30 30 1 29 4
M  V30 31 1 30 5
M  V30 32 1 31 5
M  V30 33 1 32 6
M  V30 34 1 33 10
M  V30 35 1 34 10
M  V30 36 1 35 12
M  V30 37 1 36 12
M  V30 38 1 37 16
M  V30 39 1 38 16
M  V30 40 1 39 13
M  V30 41 1 18 40 CFG=3
M  V30 42 1 41 19
M  V30 43 1 42 19
M  V30 44 1 43 19
M  V30 45 1 20 44 CFG=3
M  V30 46 1 45 21
M  V30 47 1 46 22
M  V30 48 1 47 23
M  V30 49 1 48 23
M  V30 50 1 49 23
M  V30 51 1 50 24
M  V30 52 1 51 24
M  V30 53 1 52 24
M  V30 54 1 53 25
M  V30 55 1 2 54 CFG=3
M  V30 END BOND
M  V30 END CTAB
M  END
>  <i_epik_Tot_Q>  (1) 
1

>  <i_epik_Tot_abs_Q>  (1) 
1

>  <i_i_glide_confnum>  (1) 
295

>  <i_i_glide_lignum>  (1) 
148

>  <i_i_glide_posenum>  (1) 
316

>  <i_i_glide_rotatable_bonds>  (1) 
11

>  <i_lp_mmshare_version>  (1) 
72125

>  <i_m_source_file_index>  (1) 
60

>  <i_f3d_flags>  (1) 
0

>  <num_sample>  (1) 
100

>  <b_lp_Chiralities_Consistent>  (1) 
1

>  <r_epik_Charging_Adjusted_Penalty>  (1) 
0.34288875783321848

>  <r_epik_Ionization_Penalty>  (1) 
0.16299728195075516

>  <r_epik_Ionization_Penalty_Charging>  (1) 
0.10603582337888565

>  <r_epik_Ionization_Penalty_Neutral>  (1) 
0.05696145857186951

>  <r_epik_State_Penalty>  (1) 
0.23685293445433284

>  <r_glide_ring_energy>  (1) 
0

>  <r_i_docking_score>  (1) 
-6.4633737088663201

>  <r_i_glide_ecoul>  (1) 
-5.3365404179117855

>  <r_i_glide_eff_state_penalty>  (1) 
0.23685293445433284

>  <r_i_glide_einternal>  (1) 
7.5750864379538889

>  <r_i_glide_emodel>  (1) 
-61.034201663811274

>  <r_i_glide_emodel_strain>  (1) 
0.91077681301737101

>  <r_i_glide_energy>  (1) 
-43.172510761983794

>  <r_i_glide_erotb>  (1) 
1.1440711446639862

>  <r_i_glide_esite>  (1) 
0

>  <r_i_glide_evdw>  (1) 
-37.83597034407201

>  <r_i_glide_gscore>  (1) 
-6.7002266433206525

>  <r_i_glide_gscore_strain>  (1) 
0

>  <r_i_glide_hbond>  (1) 
-0.16

>  <r_i_glide_ligand_efficiency>  (1) 
-0.25853494835465279

>  <r_i_glide_ligand_efficiency_ln>  (1) 
-1.5320132606814134

>  <r_i_glide_ligand_efficiency_sa>  (1) 
-0.75596077493695213

>  <r_i_glide_lipo>  (1) 
-3.3268715139857057

>  <r_i_glide_metal>  (1) 
-0

>  <r_i_glide_rewards>  (1) 
-1.6651466941085635

>  <r_lp_Energy>  (1) 
25.902715000000001

>  <r_lp_tautomer_probability>  (1) 
0.67048000943507491

>  <s_epik_cmdline>  (1) 
J2VwaWtfcHl0aG9uJywgJy1waHQnLCAnMS4wJywgJy1waCcsICc3LjQnLCAnLXRuJywgJzgnLCAnLW1hJywgJzUwMCcsICctaW1hZScsICc8aW5maWxlLm1hZT4nLCAnLW9tYWUnLCAnPG91dGZpbGUubWFlPic=

>  <s_epik_input>  (1) 
W09IXVtDSDJdW0NIMl1bQ0BASF0oW0NIM10pTihDMT1PKU49W0NIXVtDQEBIXTFbQ0gyXVtDSDJdW0NIMl1OKFtDSDNdKVtDQEBIXShbQ0gzXSljMltjSF1bY0hdW2NIXVtjSF1jMkNs

>  <s_glide_docking_method>  (1) 
confgen

>  <s_i_glide_gridfile>  (1) 
gpcr_5ht2c_6bqh_protein_autoprepared_prepared

>  <s_lp_Force_Field>  (1) 
S-OPLS

>  <s_lp_Variant>  (1) 
DiffSBDD_59_num_sample_100-1

>  <s_m_source_file>  (1) 
generated__ligand_DiffSBDD_2026-05-06_prepared.sdf

>  <GenAI_Model>  (1) 
DiffSBDD

>  <Protein>  (1) 
GPCR_5HT2C

$$$$
DiffSBDD_64_num_sample_100
     RDKit          3D

  0  0  0  0  0  0  0  0  0  0999 V3000
M  V30 BEGIN CTAB
M  V30 COUNTS 66 68 0 0 1
M  V30 BEGIN ATOM
M  V30 1 C 38.620853 29.244813 53.292721 0
M  V30 2 C 39.514225 26.795294 53.898017 0
M  V30 3 C 41.067440 31.796297 66.351624 0
M  V30 4 C 40.913152 27.872455 57.992879 0
M  V30 5 C 40.832572 28.219574 60.460498 0
M  V30 6 O 42.068762 27.621415 63.841969 0
M  V30 7 N 39.080903 27.607699 54.941966 0
M  V30 8 C 41.022578 29.155998 65.304542 0
M  V30 9 O 39.067202 28.811061 51.051874 0 CHG=-1
M  V30 10 C 41.046215 29.390553 66.710244 0
M  V30 11 C 40.977407 30.294889 64.404541 0
M  V30 12 C 40.563436 30.816617 60.815762 0
M  V30 13 O 38.222332 29.591970 55.617740 0
M  V30 14 C 41.023372 31.607003 64.961684 0
M  V30 15 C 38.608706 28.856461 54.708589 0
M  V30 16 C 40.610058 27.527766 56.766264 0
M  V30 17 C 39.510926 27.165841 52.613430 0
M  V30 18 C 37.384270 25.339278 56.215646 0
M  V30 19 C 37.112827 23.942318 55.655528 0
M  V30 20 C 40.928945 31.347722 62.203333 0
M  V30 21 C 38.870293 25.611128 56.548637 0
M  V30 22 N 40.897299 30.130625 62.974077 0
M  V30 23 C 39.857483 29.223934 62.508216 0
M  V30 24 C 41.067178 30.698065 67.218462 0
M  V30 25 C 41.237582 26.779838 65.821786 0
M  V30 26 C 41.485799 28.297508 59.090531 0
M  V30 27 C 39.216391 27.110742 56.335591 0 CFG=2
M  V30 28 C 38.592080 29.341547 60.252013 0
M  V30 29 C 36.519922 25.569356 57.453455 0
M  V30 30 C 39.065541 28.429591 52.239039 0
M  V30 31 N 41.067465 27.815372 64.806278 0
M  V30 32 C 39.950830 29.395238 60.970511 0 CFG=2
M  V30 33 H 38.268480 30.234462 53.056988 0
M  V30 34 H 39.869123 25.832088 54.213481 0
M  V30 35 H 41.093352 32.798240 66.755454 0
M  V30 36 H 41.656891 28.065861 61.155556 0
M  V30 37 H 40.265525 27.290502 60.511134 0
M  V30 38 H 42.825829 28.098563 64.146347 0
M  V30 39 H 41.064728 28.566287 67.403026 0
M  V30 40 H 39.908453 31.507876 60.278809 0
M  V30 41 H 41.467602 30.747876 60.253498 0
M  V30 42 H 41.012859 32.473677 64.324006 0
M  V30 43 H 41.360608 27.545708 55.993267 0
M  V30 44 H 39.867075 26.477223 51.862876 0
M  V30 45 H 37.059755 26.034877 55.441461 0
M  V30 46 H 37.067396 23.221443 56.466255 0
M  V30 47 H 36.147753 23.911180 55.148736 0
M  V30 48 H 37.866490 23.634402 54.931621 0
M  V30 49 H 40.147725 32.041741 62.515649 0
M  V30 50 H 41.901380 31.842053 62.217644 0
M  V30 51 H 39.532880 24.947792 55.995443 0
M  V30 52 H 39.061509 25.341640 57.588914 0
M  V30 53 H 39.901071 28.173666 62.775313 0
M  V30 54 H 38.905293 29.621524 62.857085 0
M  V30 55 H 41.093671 30.858001 68.286494 0
M  V30 56 H 40.387550 26.744352 66.501907 0
M  V30 57 H 41.292163 25.801789 65.343035 0
M  V30 58 H 42.155597 26.915184 66.394709 0
M  V30 59 H 42.475286 28.716095 59.053650 0
M  V30 60 H 38.524602 27.644701 56.990357 0
M  V30 61 H 37.867952 30.021258 60.701726 0
M  V30 62 H 38.693914 29.630288 59.205155 0
M  V30 63 H 38.179902 28.335288 60.253512 0
M  V30 64 H 36.802297 24.885852 58.253300 0
M  V30 65 H 36.617121 26.586592 57.832614 0
M  V30 66 H 35.476371 25.376117 57.222569 0
M  V30 END ATOM
M  V30 BEGIN BOND
M  V30 1 1 7 2
M  V30 2 2 10 8
M  V30 3 1 11 8
M  V30 4 1 14 3
M  V30 5 2 14 11
M  V30 6 1 15 1
M  V30 7 1 15 7
M  V30 8 2 15 13
M  V30 9 2 16 4
M  V30 10 2 17 2
M  V30 11 1 19 18
M  V30 12 1 20 12
M  V30 13 1 21 18
M  V30 14 1 22 11
M  V30 15 1 22 20
M  V30 16 1 23 22
M  V30 17 2 24 3
M  V30 18 1 24 10
M  V30 19 2 26 4
M  V30 20 1 26 5
M  V30 21 1 27 7
M  V30 22 1 27 16
M  V30 23 1 27 21
M  V30 24 1 29 18
M  V30 25 2 30 1
M  V30 26 1 30 9
M  V30 27 1 30 17
M  V30 28 1 31 6
M  V30 29 1 31 8
M  V30 30 1 31 25
M  V30 31 1 32 5 CFG=3
M  V30 32 1 32 12
M  V30 33 1 32 23
M  V30 34 1 32 28
M  V30 35 1 33 1
M  V30 36 1 34 2
M  V30 37 1 35 3
M  V30 38 1 36 5
M  V30 39 1 37 5
M  V30 40 1 38 6
M  V30 41 1 39 10
M  V30 42 1 40 12
M  V30 43 1 41 12
M  V30 44 1 42 14
M  V30 45 1 43 16
M  V30 46 1 44 17
M  V30 47 1 45 18
M  V30 48 1 46 19
M  V30 49 1 47 19
M  V30 50 1 48 19
M  V30 51 1 49 20
M  V30 52 1 50 20
M  V30 53 1 51 21
M  V30 54 1 52 21
M  V30 55 1 53 23
M  V30 56 1 54 23
M  V30 57 1 55 24
M  V30 58 1 56 25
M  V30 59 1 57 25
M  V30 60 1 58 25
M  V30 61 1 59 26
M  V30 62 1 27 60 CFG=1
M  V30 63 1 61 28
M  V30 64 1 62 28
M  V30 65 1 63 28
M  V30 66 1 64 29
M  V30 67 1 65 29
M  V30 68 1 66 29
M  V30 END BOND
M  V30 END CTAB
M  END
>  <i_epik_Tot_Q>  (1) 
-1

>  <i_epik_Tot_abs_Q>  (1) 
1

>  <i_i_glide_confnum>  (1) 
206

>  <i_i_glide_lignum>  (1) 
161

>  <i_i_glide_posenum>  (1) 
95

>  <i_i_glide_rotatable_bonds>  (1) 
9

>  <i_lp_mmshare_version>  (1) 
72125

>  <i_m_source_file_index>  (1) 
65

>  <i_f3d_flags>  (1) 
0

>  <num_sample>  (1) 
100

>  <b_lp_Chiralities_Consistent>  (1) 
1

>  <r_epik_Charging_Adjusted_Penalty>  (1) 
0.52418754829992387

>  <r_epik_Ionization_Penalty>  (1) 
0.2719134954630722

>  <r_epik_Ionization_Penalty_Charging>  (1) 
0.27149649770889844

>  <r_epik_Ionization_Penalty_Neutral>  (1) 
0.00041699775417375828

>  <r_epik_State_Penalty>  (1) 
0.25269105059102542

>  <r_glide_ring_energy>  (1) 
0

>  <r_i_docking_score>  (1) 
-6.4627920728729773

>  <r_i_glide_ecoul>  (1) 
-0.43625752881834878

>  <r_i_glide_eff_state_penalty>  (1) 
0.25269105059102542

>  <r_i_glide_einternal>  (1) 
6.5886131891716886

>  <r_i_glide_emodel>  (1) 
-48.15779810801493

>  <r_i_glide_emodel_strain>  (1) 
4.1469872881895924

>  <r_i_glide_energy>  (1) 
-39.184901665315415

>  <r_i_glide_erotb>  (1) 
0.62750977655133311

>  <r_i_glide_esite>  (1) 
-0.038001934945067692

>  <r_i_glide_evdw>  (1) 
-38.748644136497063

>  <r_i_glide_gscore>  (1) 
-6.7154831234640024

>  <r_i_glide_gscore_strain>  (1) 
0.036746822047398098

>  <r_i_glide_hbond>  (1) 
0

>  <r_i_glide_ligand_efficiency>  (1) 
-0.20196225227728054

>  <r_i_glide_ligand_efficiency_ln>  (1) 
-1.4471953141745855

>  <r_i_glide_ligand_efficiency_sa>  (1) 
-0.64119018344564416

>  <r_i_glide_lipo>  (1) 
-4.3614259493997363

>  <r_i_glide_metal>  (1) 
-0

>  <r_i_glide_rewards>  (1) 
-0.9774410015703241

>  <r_lp_Energy>  (1) 
24.016719999999999

>  <r_lp_tautomer_probability>  (1) 
1

>  <s_epik_Chemistry_Notes>  (1) 
This compound has a N-S or N-O group and may undergo hydrolysis at high or low pH.

>  <s_epik_cmdline>  (1) 
J2VwaWtfcHl0aG9uJywgJy1waHQnLCAnMS4wJywgJy1waCcsICc3LjQnLCAnLXRuJywgJzgnLCAnLW1hJywgJzUwMCcsICctaW1hZScsICc8aW5maWxlLm1hZT4nLCAnLW9tYWUnLCAnPG91dGZpbGUubWFlPic=

>  <s_epik_input>  (1) 
Tz1DMVtDSDJdQyg9TylbQ0hdPVtDSF1OMVtDQEBIXShbQ0gyXVtDSF0oW0NIM10pW0NIM10pW0NIXT1DPVtDSF1bQ0gyXVtDQF0yKFtDSDNdKVtDSDJdW0NIMl1OKFtDSDJdMiljM1tjSF1bY0hdW2NIXVtjSF1jM04oW09IXSlbQ0gzXQ==

>  <s_glide_docking_method>  (1) 
confgen

>  <s_i_glide_gridfile>  (1) 
gpcr_5ht2c_6bqh_protein_autoprepared_prepared

>  <s_lp_Force_Field>  (1) 
S-OPLS

>  <s_lp_Variant>  (1) 
DiffSBDD_64_num_sample_100-1

>  <s_m_source_file>  (1) 
generated__ligand_DiffSBDD_2026-05-06_prepared.sdf

>  <GenAI_Model>  (1) 
DiffSBDD

>  <Protein>  (1) 
GPCR_5HT2C

$$$$
DiffSBDD_90_num_sample_100
     RDKit          3D

  0  0  0  0  0  0  0  0  0  0999 V3000
M  V30 BEGIN CTAB
M  V30 COUNTS 84 87 0 0 1
M  V30 BEGIN ATOM
M  V30 1 C 40.118304 28.914966 62.585686 0
M  V30 2 O 37.867422 31.773425 56.177248 0
M  V30 3 F 42.776108 33.264002 68.323267 0
M  V30 4 C 40.137581 34.500397 61.946497 0 CFG=1
M  V30 5 C 38.334831 29.399437 54.292175 0 CFG=2
M  V30 6 C 40.052155 29.075712 55.909194 0 CFG=1
M  V30 7 C 36.851392 36.424791 61.849224 0
M  V30 8 C 39.842158 29.602004 58.350222 0
M  V30 9 C 38.892473 35.175313 61.282706 0
M  V30 10 N 38.264242 31.922384 54.778850 0
M  V30 11 C 41.766501 31.710345 66.898507 0
M  V30 12 C 39.415149 36.386767 60.653606 0
M  V30 13 C 38.612770 28.696615 55.624482 0
M  V30 14 C 40.256117 30.493212 55.323336 0
M  V30 15 O 38.796052 27.312593 53.190868 0
M  V30 16 N 40.229096 30.241641 62.101697 0
M  V30 17 C 40.448103 28.957050 57.348234 0
M  V30 18 F 40.740186 33.658964 67.722046 0
M  V30 19 C 41.524298 33.909140 64.910049 0 CFG=2
M  V30 20 N 39.825282 31.062615 63.104110 0
M  V30 21 C 40.894671 31.551851 65.643150 0
M  V30 22 C 39.603518 30.427633 60.776485 0
M  V30 23 O 37.955682 35.621359 62.253460 0
M  V30 24 C 38.204378 34.308838 60.189564 0
M  V30 25 C 40.808488 28.020712 61.641492 0
M  V30 26 C 42.441740 34.020829 66.138851 0
M  V30 27 C 40.272741 29.472763 59.776286 0 CFG=1
M  V30 28 C 39.081343 30.757637 54.377643 0 CFG=1
M  V30 29 C 40.938499 35.422475 62.913002 0
M  V30 30 O 39.012329 29.180971 51.998521 0 CHG=-1
M  V30 31 C 40.614444 32.254545 63.130500 0 CFG=1
M  V30 32 C 40.155448 28.032815 60.266925 0
M  V30 33 O 36.979935 29.652370 54.253562 0
M  V30 34 C 39.627446 33.294581 62.656991 0
M  V30 35 C 41.381165 32.438512 64.474966 0 CFG=1
M  V30 36 C 42.043667 34.752539 63.742611 0
M  V30 37 C 41.916016 33.180894 67.309019 0
M  V30 38 C 38.750302 28.556318 53.051817 0
M  V30 39 H 40.572466 28.827617 63.574506 0
M  V30 40 H 39.067291 28.656789 62.653501 0
M  V30 41 H 36.922361 31.959961 56.192566 0
M  V30 42 H 40.810482 34.155363 61.161203 0
M  V30 43 H 40.667587 28.344314 55.404636 0
M  V30 44 H 36.207598 36.581142 62.712975 0
M  V30 45 H 37.156719 37.411180 61.499763 0
M  V30 46 H 36.267554 35.935873 61.070956 0
M  V30 47 H 39.004524 30.256315 58.146005 0
M  V30 48 H 38.810263 32.771788 54.802710 0
M  V30 49 H 42.753815 31.291506 66.694099 0
M  V30 50 H 41.346250 31.127533 67.718593 0
M  V30 51 H 40.266368 36.021539 60.069790 0
M  V30 52 H 38.667237 36.821126 59.990984 0
M  V30 53 H 39.716714 37.141292 61.384722 0
M  V30 54 H 38.458314 27.617813 55.606991 0
M  V30 55 H 37.952313 29.086591 56.398590 0
M  V30 56 H 41.200895 30.569375 54.784796 0
M  V30 57 H 40.267399 31.248234 56.107943 0
M  V30 58 H 41.284533 28.306614 57.563800 0
M  V30 59 H 40.559286 34.299919 65.221103 0
M  V30 60 H 39.890345 30.561950 63.987521 0
M  V30 61 H 40.911998 30.498111 65.361720 0
M  V30 62 H 39.863041 31.805754 65.855656 0
M  V30 63 H 39.738767 31.458731 60.450668 0
M  V30 64 H 38.529949 30.233610 60.844574 0
M  V30 65 H 38.937952 33.766117 59.591414 0
M  V30 66 H 37.512654 33.580804 60.610276 0
M  V30 67 H 37.613094 34.907025 59.494113 0
M  V30 68 H 41.867587 28.232955 61.594673 0
M  V30 69 H 40.667386 27.128563 62.168881 0
M  V30 70 H 43.441834 33.677891 65.873970 0
M  V30 71 H 42.532456 35.062729 66.445031 0
M  V30 72 H 41.332041 29.723528 59.760474 0
M  V30 73 H 39.476989 31.040058 53.403136 0
M  V30 74 H 41.438813 36.202189 62.340562 0
M  V30 75 H 40.254988 35.939475 63.587380 0
M  V30 76 H 41.380351 32.188821 62.354451 0
M  V30 77 H 39.107179 27.735824 60.324188 0
M  V30 78 H 40.654656 27.333383 59.596541 0
M  V30 79 H 36.849875 30.403613 54.817398 0
M  V30 80 H 38.887799 32.809579 62.021675 0
M  V30 81 H 39.067294 33.665368 63.453831 0
M  V30 82 H 42.390453 32.080945 64.266089 0
M  V30 83 H 42.662286 34.109853 63.114976 0
M  V30 84 H 42.674190 35.550549 64.130523 0
M  V30 END ATOM
M  V30 BEGIN BOND
M  V30 1 1 9 4
M  V30 2 1 10 2
M  V30 3 1 12 9
M  V30 4 1 13 5
M  V30 5 1 13 6
M  V30 6 1 14 6
M  V30 7 1 16 1
M  V30 8 1 17 6
M  V30 9 2 17 8
M  V30 10 1 20 16
M  V30 11 1 21 11
M  V30 12 1 22 16
M  V30 13 1 23 7
M  V30 14 1 23 9
M  V30 15 1 24 9
M  V30 16 1 25 1
M  V30 17 1 26 19
M  V30 18 1 27 8
M  V30 19 1 27 22
M  V30 20 1 28 5
M  V30 21 1 28 10
M  V30 22 1 28 14
M  V30 23 1 29 4
M  V30 24 1 31 20
M  V30 25 1 32 25
M  V30 26 1 32 27
M  V30 27 1 5 33 CFG=3
M  V30 28 1 34 4
M  V30 29 1 34 31
M  V30 30 1 35 19
M  V30 31 1 35 21
M  V30 32 1 35 31
M  V30 33 1 36 19
M  V30 34 1 36 29
M  V30 35 1 37 3
M  V30 36 1 37 11
M  V30 37 1 37 18
M  V30 38 1 37 26
M  V30 39 1 38 5
M  V30 40 2 38 15
M  V30 41 1 38 30
M  V30 42 1 39 1
M  V30 43 1 40 1
M  V30 44 1 41 2
M  V30 45 1 4 42 CFG=3
M  V30 46 1 6 43 CFG=3
M  V30 47 1 44 7
M  V30 48 1 45 7
M  V30 49 1 46 7
M  V30 50 1 47 8
M  V30 51 1 48 10
M  V30 52 1 49 11
M  V30 53 1 50 11
M  V30 54 1 51 12
M  V30 55 1 52 12
M  V30 56 1 53 12
M  V30 57 1 54 13
M  V30 58 1 55 13
M  V30 59 1 56 14
M  V30 60 1 57 14
M  V30 61 1 58 17
M  V30 62 1 19 59 CFG=1
M  V30 63 1 60 20
M  V30 64 1 61 21
M  V30 65 1 62 21
M  V30 66 1 63 22
M  V30 67 1 64 22
M  V30 68 1 65 24
M  V30 69 1 66 24
M  V30 70 1 67 24
M  V30 71 1 68 25
M  V30 72 1 69 25
M  V30 73 1 70 26
M  V30 74 1 71 26
M  V30 75 1 27 72 CFG=3
M  V30 76 1 28 73 CFG=3
M  V30 77 1 74 29
M  V30 78 1 75 29
M  V30 79 1 31 76 CFG=3
M  V30 80 1 77 32
M  V30 81 1 78 32
M  V30 82 1 79 33
M  V30 83 1 80 34
M  V30 84 1 81 34
M  V30 85 1 35 82 CFG=3
M  V30 86 1 83 36
M  V30 87 1 84 36
M  V30 END BOND
M  V30 END CTAB
M  END
>  <i_epik_Tot_Q>  (1) 
-1

>  <i_epik_Tot_abs_Q>  (1) 
1

>  <i_i_glide_confnum>  (1) 
1489

>  <i_i_glide_lignum>  (1) 
230

>  <i_i_glide_posenum>  (1) 
267

>  <i_i_glide_rotatable_bonds>  (1) 
10

>  <i_lp_mmshare_version>  (1) 
72125

>  <i_m_source_file_index>  (1) 
91

>  <i_f3d_flags>  (1) 
0

>  <num_sample>  (1) 
100

>  <b_lp_Chiralities_Consistent>  (1) 
1

>  <r_epik_Charging_Adjusted_Penalty>  (1) 
0.43821527866000726

>  <r_epik_Ionization_Penalty>  (1) 
0.52002734918543769

>  <r_epik_Ionization_Penalty_Charging>  (1) 
0.00012691742049533285

>  <r_epik_Ionization_Penalty_Neutral>  (1) 
0.51990043176494238

>  <r_epik_State_Penalty>  (1) 
0.43808836123951195

>  <r_glide_ring_energy>  (1) 
0.69230642483633709

>  <r_i_docking_score>  (1) 
-6.4596170891175477

>  <r_i_glide_ecoul>  (1) 
-6.9173487334679225

>  <r_i_glide_eff_state_penalty>  (1) 
0.43808836123951195

>  <r_i_glide_einternal>  (1) 
18.51574535618348

>  <r_i_glide_emodel>  (1) 
-8.6992552325324475

>  <r_i_glide_emodel_strain>  (1) 
4.7604293348432662

>  <r_i_glide_energy>  (1) 
-20.655231189705141

>  <r_i_glide_erotb>  (1) 
0.42146348941000378

>  <r_i_glide_esite>  (1) 
-0.12647276447978992

>  <r_i_glide_evdw>  (1) 
-13.737882456237219

>  <r_i_glide_gscore>  (1) 
-6.8977054503570594

>  <r_i_glide_gscore_strain>  (1) 
0.19010733371081656

>  <r_i_glide_hbond>  (1) 
-0.19280959155262709

>  <r_i_glide_ligand_efficiency>  (1) 
-0.1699899233978302

>  <r_i_glide_ligand_efficiency_ln>  (1) 
-1.3928834670963095

>  <r_i_glide_ligand_efficiency_sa>  (1) 
-0.57150194186714498

>  <r_i_glide_lipo>  (1) 
-4.4116120128023608

>  <r_i_glide_metal>  (1) 
-0

>  <r_i_glide_rewards>  (1) 
-1.0538854718110526

>  <r_lp_Energy>  (1) 
50.567886999999999

>  <s_epik_Chemistry_Notes>  (1) 
This compound has a N-S or N-O group and may undergo hydrolysis at high or low pH.

>  <s_epik_cmdline>  (1) 
J2VwaWtfcHl0aG9uJywgJy1waHQnLCAnMS4wJywgJy1waCcsICc3LjQnLCAnLXRuJywgJzgnLCAnLW1hJywgJzUwMCcsICctaW1hZScsICc8aW5maWxlLm1hZT4nLCAnLW9tYWUnLCAnPG91dGZpbGUubWFlPic=

>  <s_epik_input>  (1) 
RkMoRikoW0NIMl0xKVtDSDJdW0NIMl1bQ0BIXShbQ0BASF0xMilbQ0BIXShbQ0gyXVtDQEhdKFtDSDJdW0NIMl0yKUMoW0NIM10pKFtDSDNdKU9bQ0gzXSlbTkhdTjNbQ0gyXVtDSDJdW0NIMl1bQ0BIXShbQ0gyXTMpL1tDSF09W0NIXS9bQ0BASF0oW0NIMl1bQ0BdNChbT0hdKUMoPU8pW09IXSlbQ0gyXVtDQEBIXTRbTkhdW09IXQ==

>  <s_glide_docking_method>  (1) 
confgen

>  <s_i_glide_gridfile>  (1) 
gpcr_5ht2c_6bqh_protein_autoprepared_prepared

>  <s_lp_Force_Field>  (1) 
S-OPLS

>  <s_lp_Variant>  (1) 
DiffSBDD_90_num_sample_100-2

>  <s_m_source_file>  (1) 
generated__ligand_DiffSBDD_2026-05-06_prepared.sdf

>  <GenAI_Model>  (1) 
DiffSBDD

>  <Protein>  (1) 
GPCR_5HT2C

$$$$
DiffSBDD_66_num_sample_100
     RDKit          3D

  0  0  0  0  0  0  0  0  0  0999 V3000
M  V30 BEGIN CTAB
M  V30 COUNTS 111 115 0 0 1
M  V30 BEGIN ATOM
M  V30 1 C 36.430283 34.423598 61.030124 0
M  V30 2 C 39.867474 30.421548 64.093578 0
M  V30 3 C 39.208495 26.416487 56.658778 0
M  V30 4 C 45.396358 28.448318 65.343845 0
M  V30 5 C 40.103711 37.008906 69.055213 0
M  V30 6 C 40.352401 39.615924 69.210349 0
M  V30 7 C 40.673324 28.164261 57.525212 0
M  V30 8 S 41.680445 27.989346 63.669672 0
M  V30 9 C 39.916950 29.910234 62.670363 0 CFG=1
M  V30 10 C 36.111596 32.983171 61.094687 0
M  V30 11 C 37.881693 33.205249 58.586783 0
M  V30 12 C 37.683138 32.081126 59.307214 0
M  V30 13 C 40.136991 35.814538 66.739848 0
M  V30 14 C 36.695710 36.461819 61.607197 0
M  V30 15 C 42.190872 31.966987 66.653778 0 CFG=2
M  V30 16 C 37.051732 34.444901 58.653699 0
M  V30 17 C 38.564444 30.862817 59.031192 0
M  V30 18 O 39.867427 36.821471 64.615348 0
M  V30 19 C 40.336818 29.151734 59.852272 0 CFG=1
M  V30 20 N 36.267885 35.221285 62.078757 0
M  V30 21 C 40.305915 27.279262 56.491600 0
M  V30 22 C 39.939192 28.190309 58.727320 0
M  V30 23 C 40.007357 37.124487 67.518908 0
M  V30 24 C 37.424125 37.444592 59.316315 0
M  V30 25 C 36.641630 31.975805 60.343355 0
M  V30 26 C 43.453448 31.049958 66.613281 0
M  V30 27 C 39.848072 38.307844 69.849168 0 CFG=1
M  V30 28 C 42.470452 33.385587 66.004319 0
M  V30 29 C 39.155919 30.094123 60.265889 0 CFG=1
M  V30 30 C 39.494931 30.912025 61.556716 0 CFG=2
M  V30 31 C 43.161962 28.034031 66.348135 0
M  V30 32 C 41.742170 33.658950 64.690545 0
M  V30 33 N 36.864850 35.030074 59.934566 0
M  V30 34 C 38.837615 27.322319 58.890547 0
M  V30 35 C 37.023989 36.377918 60.275970 0
M  V30 36 C 41.947296 32.181080 68.171229 0
M  V30 37 O 38.470598 38.423391 70.072635 0
M  V30 38 C 40.924718 31.213549 66.129553 0
M  V30 39 C 43.847940 30.374262 65.275179 0
M  V30 40 C 43.916897 28.799168 65.227512 0
M  V30 41 C 41.199590 29.137334 62.335837 0 CFG=2
M  V30 42 N 40.923852 30.820684 64.710999 0 CHG=1
M  V30 43 C 40.979356 34.743960 64.407389 0
M  V30 44 C 43.471052 28.259969 63.843109 0
M  V30 45 C 38.476337 26.436000 57.857605 0
M  V30 46 C 40.492582 32.053941 61.297945 0
M  V30 47 C 39.766541 34.639861 67.254410 0
M  V30 48 C 40.713041 35.943627 65.331262 0 CFG=2
M  V30 49 C 40.950499 28.350721 61.030470 0
M  V30 50 H 38.936185 30.421531 64.641835 0
M  V30 51 H 38.927927 25.737851 55.867104 0
M  V30 52 H 45.867340 28.873739 64.463905 0
M  V30 53 H 45.589072 27.374676 65.345553 0
M  V30 54 H 45.847270 28.877202 66.238404 0
M  V30 55 H 39.467523 36.231627 69.448159 0
M  V30 56 H 41.075967 36.626664 69.304474 0
M  V30 57 H 41.423472 39.589441 69.013998 0
M  V30 58 H 40.171480 40.458974 69.878692 0
M  V30 59 H 39.847872 39.821753 68.267062 0
M  V30 60 H 41.516971 28.820323 57.395279 0
M  V30 61 H 35.404878 32.709103 61.853778 0
M  V30 62 H 38.662255 33.212507 57.841103 0
M  V30 63 H 36.683531 37.330458 62.250264 0
M  V30 64 H 37.467499 35.176631 57.971301 0
M  V30 65 H 36.066146 34.206717 58.253736 0
M  V30 66 H 37.951947 30.174123 58.448714 0
M  V30 67 H 39.359530 31.142981 58.344196 0
M  V30 68 H 40.377210 37.617228 64.495124 0
M  V30 69 H 41.141085 29.779350 59.468738 0
M  V30 70 H 40.869007 27.262188 55.569975 0
M  V30 71 H 39.073653 37.602174 67.221760 0
M  V30 72 H 40.808356 37.785770 67.189680 0
M  V30 73 H 37.640730 38.374691 59.845048 0
M  V30 74 H 36.581918 37.621140 58.653576 0
M  V30 75 H 38.267350 37.221378 58.687689 0
M  V30 76 H 36.309602 30.978477 60.584946 0
M  V30 77 H 44.307016 31.636572 66.955681 0
M  V30 78 H 43.362715 30.293643 67.388983 0
M  V30 79 H 40.271602 38.203708 70.845922 0
M  V30 80 H 42.305057 34.190400 66.714748 0
M  V30 81 H 43.533669 33.462534 65.778804 0
M  V30 82 H 38.334949 29.449175 60.577521 0
M  V30 83 H 38.578388 31.379386 61.909069 0
M  V30 84 H 42.126142 28.356316 66.445685 0
M  V30 85 H 43.643805 28.141426 67.322498 0
M  V30 86 H 43.143137 26.961066 66.137476 0
M  V30 87 H 41.861631 32.908694 63.930475 0
M  V30 88 H 38.269498 27.335227 59.809870 0
M  V30 89 H 41.022357 32.709138 68.381120 0
M  V30 90 H 41.867748 31.236210 68.712164 0
M  V30 91 H 42.763908 32.740916 68.628647 0
M  V30 92 H 38.016345 38.226553 69.265661 0
M  V30 93 H 40.802470 30.283169 66.688098 0
M  V30 94 H 40.013402 31.779867 66.275878 0
M  V30 95 H 43.307796 30.782143 64.431294 0
M  V30 96 H 44.834435 30.778077 65.042908 0
M  V30 97 H 42.006468 29.856320 62.253656 0
M  V30 98 H 40.512113 34.800188 63.432694 0
M  V30 99 H 43.848761 28.903808 63.053665 0
M  V30 100 H 43.924149 27.284722 63.657708 0
M  V30 101 H 37.636671 25.770265 57.984999 0
M  V30 102 H 41.479006 31.695404 61.013411 0
M  V30 103 H 40.594563 32.680636 62.178098 0
M  V30 104 H 40.146297 32.708626 60.498753 0
M  V30 105 H 39.868396 33.745105 66.682821 0
M  V30 106 H 39.358723 34.557607 68.246586 0
M  V30 107 H 41.683257 36.420917 65.456772 0
M  V30 108 H 41.867049 27.857485 60.705301 0
M  V30 109 H 40.259687 27.548530 61.274758 0
M  V30 110 H 39.132572 29.154268 62.653389 0
M  V30 111 H 41.816828 30.801653 64.231370 0
M  V30 END ATOM
M  V30 BEGIN BOND
M  V30 1 1 9 2
M  V30 2 1 10 1
M  V30 3 2 12 11
M  V30 4 1 16 11
M  V30 5 1 17 12
M  V30 6 2 20 1
M  V30 7 1 20 14
M  V30 8 2 21 3
M  V30 9 1 21 7
M  V30 10 2 22 7
M  V30 11 1 22 19
M  V30 12 1 23 5
M  V30 13 1 23 13
M  V30 14 2 25 10
M  V30 15 1 25 12
M  V30 16 1 26 15
M  V30 17 1 27 5
M  V30 18 1 27 6
M  V30 19 1 15 28 CFG=3
M  V30 20 1 29 17
M  V30 21 1 29 19
M  V30 22 1 30 9
M  V30 23 1 30 29
M  V30 24 1 32 28
M  V30 25 1 33 1
M  V30 26 1 33 16
M  V30 27 1 34 22
M  V30 28 2 35 14
M  V30 29 1 35 24
M  V30 30 1 35 33
M  V30 31 1 36 15
M  V30 32 1 37 27
M  V30 33 1 38 15
M  V30 34 1 39 26
M  V30 35 1 40 4
M  V30 36 1 40 31
M  V30 37 1 40 39
M  V30 38 1 41 8
M  V30 39 1 41 9
M  V30 40 2 42 2
M  V30 41 1 42 38
M  V30 42 2 43 32
M  V30 43 1 44 8
M  V30 44 1 44 40
M  V30 45 1 45 3
M  V30 46 2 45 34
M  V30 47 1 46 30
M  V30 48 2 47 13
M  V30 49 1 48 13
M  V30 50 1 48 18
M  V30 51 1 48 43
M  V30 52 1 49 19
M  V30 53 1 49 41
M  V30 54 1 50 2
M  V30 55 1 51 3
M  V30 56 1 52 4
M  V30 57 1 53 4
M  V30 58 1 54 4
M  V30 59 1 55 5
M  V30 60 1 56 5
M  V30 61 1 57 6
M  V30 62 1 58 6
M  V30 63 1 59 6
M  V30 64 1 60 7
M  V30 65 1 61 10
M  V30 66 1 62 11
M  V30 67 1 63 14
M  V30 68 1 64 16
M  V30 69 1 65 16
M  V30 70 1 66 17
M  V30 71 1 67 17
M  V30 72 1 68 18
M  V30 73 1 19 69 CFG=3
M  V30 74 1 70 21
M  V30 75 1 71 23
M  V30 76 1 72 23
M  V30 77 1 73 24
M  V30 78 1 74 24
M  V30 79 1 75 24
M  V30 80 1 76 25
M  V30 81 1 77 26
M  V30 82 1 78 26
M  V30 83 1 27 79 CFG=1
M  V30 84 1 80 28
M  V30 85 1 81 28
M  V30 86 1 29 82 CFG=1
M  V30 87 1 30 83 CFG=1
M  V30 88 1 84 31
M  V30 89 1 85 31
M  V30 90 1 86 31
M  V30 91 1 87 32
M  V30 92 1 88 34
M  V30 93 1 89 36
M  V30 94 1 90 36
M  V30 95 1 91 36
M  V30 96 1 92 37
M  V30 97 1 93 38
M  V30 98 1 94 38
M  V30 99 1 95 39
M  V30 100 1 96 39
M  V30 101 1 41 97 CFG=3
M  V30 102 1 98 43
M  V30 103 1 99 44
M  V30 104 1 100 44
M  V30 105 1 101 45
M  V30 106 1 102 46
M  V30 107 1 103 46
M  V30 108 1 104 46
M  V30 109 1 105 47
M  V30 110 1 106 47
M  V30 111 1 48 107 CFG=1
M  V30 112 1 108 49
M  V30 113 1 109 49
M  V30 114 1 9 110 CFG=1
M  V30 115 1 111 42
M  V30 END BOND
M  V30 END CTAB
M  END
>  <i_epik_Tot_Q>  (1) 
1

>  <i_epik_Tot_abs_Q>  (1) 
1

>  <i_i_glide_confnum>  (1) 
2381

>  <i_i_glide_lignum>  (1) 
171

>  <i_i_glide_posenum>  (1) 
103

>  <i_i_glide_rotatable_bonds>  (1) 
12

>  <i_lp_mmshare_version>  (1) 
72125

>  <i_m_source_file_index>  (1) 
67

>  <i_f3d_flags>  (1) 
0

>  <num_sample>  (1) 
100

>  <b_lp_Chiralities_Consistent>  (1) 
1

>  <r_epik_Charging_Adjusted_Penalty>  (1) 
1.5687136755604401

>  <r_epik_Ionization_Penalty>  (1) 
3.7043048325211916

>  <r_epik_Ionization_Penalty_Charging>  (1) 
0.78327048387713172

>  <r_epik_Ionization_Penalty_Neutral>  (1) 
2.92103434864406

>  <r_epik_State_Penalty>  (1) 
0.78544319168330834

>  <r_glide_ring_energy>  (1) 
0

>  <r_i_docking_score>  (1) 
-6.4481609488128324

>  <r_i_glide_ecoul>  (1) 
-4.3298037071619673

>  <r_i_glide_eff_state_penalty>  (1) 
0.78544319168330834

>  <r_i_glide_einternal>  (1) 
17.38113713874499

>  <r_i_glide_emodel>  (1) 
-51.21513031046063

>  <r_i_glide_emodel_strain>  (1) 
7.6675834215217549

>  <r_i_glide_energy>  (1) 
-38.838100166041968

>  <r_i_glide_erotb>  (1) 
0.28694684240539414

>  <r_i_glide_esite>  (1) 
-0.034259332043513245

>  <r_i_glide_evdw>  (1) 
-34.508296458880004

>  <r_i_glide_gscore>  (1) 
-7.2336041404961406

>  <r_i_glide_gscore_strain>  (1) 
0.91689585538043872

>  <r_i_glide_hbond>  (1) 
-0.33571194396307136

>  <r_i_glide_ligand_efficiency>  (1) 
-0.13159512140434351

>  <r_i_glide_ligand_efficiency_ln>  (1) 
-1.3181516400558118

>  <r_i_glide_ligand_efficiency_sa>  (1) 
-0.48154677916608046

>  <r_i_glide_lipo>  (1) 
-4.9441777213508917

>  <r_i_glide_metal>  (1) 
-0

>  <r_i_glide_rewards>  (1) 
-0.74841246190620203

>  <r_lp_Energy>  (1) 
62.958435999999999

>  <s_epik_Chemistry_Notes>  (1) 
This compound has an imine and may undergo hydrolysis.

>  <s_epik_cmdline>  (1) 
J2VwaWtfcHl0aG9uJywgJy1waHQnLCAnMS4wJywgJy1waCcsICc3LjQnLCAnLXRuJywgJzgnLCAnLW1hJywgJzUwMCcsICctaW1hZScsICc8aW5maWxlLm1hZT4nLCAnLW9tYWUnLCAnPG91dGZpbGUubWFlPic=

>  <s_epik_input>  (1) 
bjFbY0hdYyhbQ0gzXSluKGMxMilbQ0gyXVtDSF09QyhbQ0hdPVtDSF0yKVtDSDJdW0NASF0oW0NAQEhdM1tDSDNdKVtDQEhdKGM0W2NIXVtjSF1bY0hdW2NIXVtjSF00KVtDSDJdW0NAQEhdKFtDQEhdMzUpU1tDSDJdQyhbQ0gzXSkoW0NIM10pW0NIMl1bQ0gyXVtDQF0oW0NIM10pKFtDSDJdXE49W0NIXVw1KVtDSDJdL1tDSF09W0NIXVxbQ0BASF0oW09IXSlDKD1bQ0gyXSlbQ0gyXVtDSDJdW0NAQEhdKFtDSDNdKVtPSF0=

>  <s_glide_docking_method>  (1) 
confgen

>  <s_i_glide_gridfile>  (1) 
gpcr_5ht2c_6bqh_protein_autoprepared_prepared

>  <s_lp_Force_Field>  (1) 
S-OPLS

>  <s_lp_Variant>  (1) 
DiffSBDD_66_num_sample_100-8

>  <s_m_source_file>  (1) 
generated__ligand_DiffSBDD_2026-05-06_prepared.sdf

>  <GenAI_Model>  (1) 
DiffSBDD

>  <Protein>  (1) 
GPCR_5HT2C

$$$$
DiffSBDD_27_num_sample_100
     RDKit          3D

  0  0  0  0  0  0  0  0  0  0999 V3000
M  V30 BEGIN CTAB
M  V30 COUNTS 52 54 0 0 1
M  V30 BEGIN ATOM
M  V30 1 C 37.586587 30.173104 57.730177 0 CFG=1
M  V30 2 C 37.456052 25.993246 54.635433 0
M  V30 3 C 39.108900 29.057633 53.290302 0
M  V30 4 C 38.643700 28.363061 54.453077 0 CHG=-1
M  V30 5 C 39.202631 28.754769 50.993467 0
M  V30 6 C 37.384443 31.513296 60.523753 0
M  V30 7 C 35.378942 33.076659 60.490334 0
M  V30 8 N 38.225231 27.193057 52.528665 0 CHG=1
M  V30 9 F 41.544077 30.024172 49.227238 0
M  V30 10 C 37.518334 33.873040 59.354818 0
M  V30 11 C 37.688879 29.856725 56.223720 0
M  V30 12 C 38.665669 32.496641 57.639513 0
M  V30 13 O 37.498728 28.967668 58.457452 0
M  V30 14 C 40.148682 30.755109 51.999210 0
M  V30 15 C 39.755513 30.282613 53.260638 0
M  V30 16 C 36.912140 32.985230 60.463681 0 CFG=2
M  V30 17 C 38.724998 31.169993 59.840618 0
M  V30 18 N 37.467353 33.280492 58.000042 0 CHG=1
M  V30 19 C 38.082433 27.148644 53.929243 0
M  V30 20 C 38.722190 28.766249 55.884761 0
M  V30 21 C 38.826599 28.300390 52.249625 0
M  V30 22 C 39.867417 29.990030 50.858404 0
M  V30 23 O 40.226321 30.441008 49.629079 0
M  V30 24 C 38.685791 31.091101 58.287215 0 CFG=1
M  V30 25 H 36.667096 30.688937 57.912265 0
M  V30 26 H 36.673991 26.330663 55.314662 0
M  V30 27 H 37.021237 25.279993 53.935325 0
M  V30 28 H 38.202001 25.460378 55.226423 0
M  V30 29 H 38.986268 28.163018 50.115837 0
M  V30 30 H 36.601249 30.855264 60.149388 0
M  V30 31 H 37.469312 31.242998 61.576825 0
M  V30 32 H 34.936067 32.680807 59.575814 0
M  V30 33 H 34.966304 32.518868 61.331006 0
M  V30 34 H 35.052627 34.110119 60.597455 0
M  V30 35 H 36.981238 34.822476 59.320933 0
M  V30 36 H 38.546443 34.135194 59.610640 0
M  V30 37 H 36.695016 29.594638 55.870772 0
M  V30 38 H 37.909712 30.741429 55.633614 0
M  V30 39 H 39.550334 33.064775 57.914841 0
M  V30 40 H 38.710202 32.437164 56.554553 0
M  V30 41 H 36.820160 28.441845 58.062916 0
M  V30 42 H 40.660172 31.694495 51.905925 0
M  V30 43 H 39.962731 30.847632 54.157279 0
M  V30 44 H 37.246203 33.440779 61.396950 0
M  V30 45 H 39.045069 30.196949 60.218160 0
M  V30 46 H 39.492451 31.867051 60.175282 0
M  V30 47 H 36.622820 32.724898 57.853527 0
M  V30 48 H 39.726412 29.123555 56.112642 0
M  V30 49 H 38.583222 27.884427 56.510025 0
M  V30 50 H 39.604182 30.601743 57.970705 0
M  V30 51 H 37.418741 34.052121 57.349461 0
M  V30 52 H 37.920537 26.484346 51.876972 0
M  V30 END ATOM
M  V30 BEGIN BOND
M  V30 1 1 4 3
M  V30 2 1 11 1
M  V30 3 1 13 1
M  V30 4 1 15 3
M  V30 5 2 15 14
M  V30 6 1 16 6
M  V30 7 1 16 7
M  V30 8 1 16 10
M  V30 9 1 17 6
M  V30 10 1 18 10
M  V30 11 1 18 12
M  V30 12 1 19 2
M  V30 13 1 19 4
M  V30 14 2 19 8
M  V30 15 1 20 4
M  V30 16 1 20 11
M  V30 17 2 21 3
M  V30 18 1 21 5
M  V30 19 1 21 8
M  V30 20 2 22 5
M  V30 21 1 22 14
M  V30 22 1 23 9
M  V30 23 1 23 22
M  V30 24 1 24 1
M  V30 25 1 24 12
M  V30 26 1 24 17
M  V30 27 1 1 25 CFG=3
M  V30 28 1 26 2
M  V30 29 1 27 2
M  V30 30 1 28 2
M  V30 31 1 29 5
M  V30 32 1 30 6
M  V30 33 1 31 6
M  V30 34 1 32 7
M  V30 35 1 33 7
M  V30 36 1 34 7
M  V30 37 1 35 10
M  V30 38 1 36 10
M  V30 39 1 37 11
M  V30 40 1 38 11
M  V30 41 1 39 12
M  V30 42 1 40 12
M  V30 43 1 41 13
M  V30 44 1 42 14
M  V30 45 1 43 15
M  V30 46 1 16 44 CFG=1
M  V30 47 1 45 17
M  V30 48 1 46 17
M  V30 49 1 47 18
M  V30 50 1 48 20
M  V30 51 1 49 20
M  V30 52 1 24 50 CFG=3
M  V30 53 1 51 18
M  V30 54 1 52 8
M  V30 END BOND
M  V30 END CTAB
M  END
>  <i_epik_Tot_Q>  (1) 
1

>  <i_epik_Tot_abs_Q>  (1) 
3

>  <i_i_glide_confnum>  (1) 
360

>  <i_i_glide_lignum>  (1) 
68

>  <i_i_glide_posenum>  (1) 
194

>  <i_i_glide_rotatable_bonds>  (1) 
6

>  <i_lp_mmshare_version>  (1) 
72125

>  <i_m_source_file_index>  (1) 
28

>  <i_f3d_flags>  (1) 
2

>  <num_sample>  (1) 
100

>  <b_lp_Chiralities_Consistent>  (1) 
0

>  <r_epik_Charging_Adjusted_Penalty>  (1) 
0.00098671700734174138

>  <r_epik_Ionization_Penalty>  (1) 
0.00098676197071069244

>  <r_epik_Ionization_Penalty_Charging>  (1) 
0.00098671700734174138

>  <r_epik_Ionization_Penalty_Neutral>  (1) 
4.4963368951131644e-08

>  <r_epik_State_Penalty>  (1) 
-0

>  <r_glide_ring_energy>  (1) 
1.078711513536265

>  <r_i_docking_score>  (1) 
-6.4436394439211275

>  <r_i_glide_ecoul>  (1) 
-7.8152786380406853

>  <r_i_glide_eff_state_penalty>  (1) 
-0

>  <r_i_glide_einternal>  (1) 
3.4139071480661656

>  <r_i_glide_emodel>  (1) 
-52.002097618940411

>  <r_i_glide_emodel_strain>  (1) 
0.39661071752431099

>  <r_i_glide_energy>  (1) 
-34.623465004241694

>  <r_i_glide_erotb>  (1) 
0.67091893137299763

>  <r_i_glide_esite>  (1) 
-0.089749599887356993

>  <r_i_glide_evdw>  (1) 
-26.80818636620101

>  <r_i_glide_gscore>  (1) 
-6.4436394439211275

>  <r_i_glide_gscore_strain>  (1) 
0

>  <r_i_glide_hbond>  (1) 
-0.20000000000000001

>  <r_i_glide_ligand_efficiency>  (1) 
-0.26848497683004696

>  <r_i_glide_ligand_efficiency_ln>  (1) 
-1.5422585982776833

>  <r_i_glide_ligand_efficiency_sa>  (1) 
-0.77444468493425955

>  <r_i_glide_lipo>  (1) 
-2.6916967530929896

>  <r_i_glide_metal>  (1) 
-0

>  <r_i_glide_rewards>  (1) 
-1.6204109082976246

>  <r_lp_Energy>  (1) 
34.541933999999998

>  <r_lp_tautomer_probability>  (1) 
1

>  <s_epik_cmdline>  (1) 
J2VwaWtfcHl0aG9uJywgJy1waHQnLCAnMS4wJywgJy1waCcsICc3LjQnLCAnLXRuJywgJzgnLCAnLW1hJywgJzUwMCcsICctaW1hZScsICc8aW5maWxlLm1hZT4nLCAnLW9tYWUnLCAnPG91dGZpbGUubWFlPic=

>  <s_epik_input>  (1) 
W0NIM11bQ0BIXTFbQ0gyXVtDSDJdW0NASF0oW0NIMl1bTkhdW0NIMl0xKVtDQEhdKFtPSF0pW0NIMl1bQ0gyXVtDQEBIXTJDKFtDSDNdKT1OYyhjMjMpW2NIXWMoT0YpW2NIXVtjSF0z

>  <s_glide_docking_method>  (1) 
confgen

>  <s_i_glide_gridfile>  (1) 
gpcr_5ht2c_6bqh_protein_autoprepared_prepared

>  <s_lp_Force_Field>  (1) 
S-OPLS

>  <s_lp_Variant>  (1) 
DiffSBDD_27_num_sample_100-1

>  <s_m_source_file>  (1) 
generated__ligand_DiffSBDD_2026-05-06_prepared.sdf

>  <GenAI_Model>  (1) 
DiffSBDD

>  <Protein>  (1) 
GPCR_5HT2C

$$$$
DiffSBDD_23_num_sample_100
     RDKit          3D

  0  0  0  0  0  0  0  0  0  0999 V3000
M  V30 BEGIN CTAB
M  V30 COUNTS 83 87 0 0 1
M  V30 BEGIN ATOM
M  V30 1 C 37.715891 26.193086 53.907383 0
M  V30 2 C 38.326227 32.481737 59.086727 0
M  V30 3 C 40.583182 32.594028 61.080458 0
M  V30 4 O 40.281858 30.102564 64.445666 0
M  V30 5 N 34.669519 32.385263 60.080971 0
M  V30 6 C 39.357470 30.628959 57.807564 0
M  V30 7 C 39.481777 29.565836 54.265905 0
M  V30 8 N 38.155030 32.322092 60.565874 0
M  V30 9 C 39.252749 31.162684 62.544606 0
M  V30 10 C 41.716489 32.351184 61.873963 0
M  V30 11 C 37.111032 35.172398 59.847824 0
M  V30 12 C 35.911320 34.230619 59.683903 0
M  V30 13 C 39.308629 28.038309 54.305207 0 CFG=2
M  V30 14 C 34.828730 34.429378 59.053406 0
M  V30 15 N 37.883375 27.646566 54.078914 0 CFG=1 CHG=1
M  V30 16 C 37.208744 30.059908 58.995867 0
M  V30 17 C 41.379913 29.978764 65.340941 0
M  V30 18 C 40.392376 30.920872 63.341077 0
M  V30 19 C 38.030883 31.164939 58.294361 0 CFG=1
M  V30 20 C 37.620822 26.547599 57.492967 0
M  V30 21 C 35.807275 32.960205 60.282585 0
M  V30 22 C 39.928055 28.451744 56.865711 0
M  V30 23 C 36.942955 23.621507 56.475641 0
M  V30 24 O 40.460997 28.090772 57.915509 0
M  V30 25 C 38.243458 24.191661 56.997772 0
M  V30 26 C 39.341456 32.014806 61.399537 0
M  V30 27 C 36.907042 32.383056 61.142515 0
M  V30 28 C 37.229855 28.389153 52.975538 0
M  V30 29 C 33.831358 33.317172 59.185522 0
M  V30 30 C 39.677965 26.026205 56.028734 0
M  V30 31 C 37.252333 25.560022 55.211131 0 CFG=2
M  V30 32 C 41.627334 31.519962 62.999626 0
M  V30 33 C 38.744469 30.129313 55.467650 0
M  V30 34 C 38.233790 25.623370 56.420352 0 CFG=2
M  V30 35 C 36.857356 24.102657 55.051857 0
M  V30 36 O 36.667515 32.021400 62.253434 0
M  V30 37 N 39.333712 29.665522 56.728521 0
M  V30 38 C 39.934871 27.506876 55.638943 0 CFG=1
M  V30 39 H 36.984431 25.967860 53.132701 0
M  V30 40 H 38.641000 25.752392 53.569022 0
M  V30 41 H 39.294968 32.893723 58.831166 0
M  V30 42 H 37.695328 33.159031 58.543882 0
M  V30 43 H 40.666928 33.245430 60.253596 0
M  V30 44 H 39.867392 30.270457 58.699091 0
M  V30 45 H 39.867402 31.470413 57.356830 0
M  V30 46 H 40.528127 29.861517 54.351781 0
M  V30 47 H 39.155421 30.023405 53.331315 0
M  V30 48 H 38.327512 30.686096 62.811087 0
M  V30 49 H 42.660584 32.811626 61.617703 0
M  V30 50 H 37.863268 35.113812 59.066988 0
M  V30 51 H 37.593836 35.046398 60.816166 0
M  V30 52 H 36.744650 36.198734 59.830744 0
M  V30 53 H 39.867361 27.616455 53.468157 0
M  V30 54 H 34.601134 35.327257 58.499063 0
M  V30 55 H 37.679607 29.705897 59.912773 0
M  V30 56 H 37.087749 29.200270 58.347845 0
M  V30 57 H 36.197029 30.378638 59.226307 0
M  V30 58 H 41.072263 29.396667 66.208844 0
M  V30 59 H 41.721210 30.949267 65.705664 0
M  V30 60 H 42.214545 29.455145 64.873372 0
M  V30 61 H 37.467435 31.457212 57.409037 0
M  V30 62 H 37.438614 27.534950 57.079713 0
M  V30 63 H 38.266740 26.644634 58.366792 0
M  V30 64 H 36.654425 26.196738 57.853432 0
M  V30 65 H 36.267397 24.203642 57.053517 0
M  V30 66 H 36.667368 22.575493 56.630731 0
M  V30 67 H 39.094596 23.621606 56.646266 0
M  V30 68 H 38.267799 24.172538 58.087388 0
M  V30 69 H 37.828831 28.382073 52.064135 0
M  V30 70 H 37.067744 29.412120 53.297413 0
M  V30 71 H 36.248349 27.997863 52.735832 0
M  V30 72 H 33.597786 32.845990 58.254260 0
M  V30 73 H 32.914171 33.635634 59.682580 0
M  V30 74 H 40.325046 25.773493 56.869371 0
M  V30 75 H 40.040944 25.377354 55.232499 0
M  V30 76 H 36.329516 26.065850 55.492484 0
M  V30 77 H 42.505313 31.343558 63.597706 0
M  V30 78 H 38.791466 31.217540 55.408853 0
M  V30 79 H 37.682828 29.883171 55.468065 0
M  V30 80 H 37.561588 23.556832 54.426538 0
M  V30 81 H 35.858486 24.001116 54.634561 0
M  V30 82 H 41.006612 27.509280 55.453538 0
M  V30 83 H 37.370741 27.893230 54.914047 0
M  V30 END ATOM
M  V30 BEGIN BOND
M  V30 1 1 8 2
M  V30 2 1 10 3
M  V30 3 1 12 11
M  V30 4 1 13 7
M  V30 5 2 14 12
M  V30 6 1 15 1
M  V30 7 1 15 13
M  V30 8 1 17 4
M  V30 9 1 18 4
M  V30 10 2 18 9
M  V30 11 1 19 2
M  V30 12 1 19 6
M  V30 13 1 19 16
M  V30 14 2 21 5
M  V30 15 1 21 12
M  V30 16 2 24 22
M  V30 17 1 25 23
M  V30 18 2 26 3
M  V30 19 1 26 8
M  V30 20 1 26 9
M  V30 21 1 27 8
M  V30 22 1 27 21
M  V30 23 1 28 15
M  V30 24 1 29 5
M  V30 25 1 29 14
M  V30 26 1 31 1
M  V30 27 2 32 10
M  V30 28 1 32 18
M  V30 29 1 33 7
M  V30 30 1 34 20 CFG=1
M  V30 31 1 34 25
M  V30 32 1 34 30
M  V30 33 1 34 31
M  V30 34 1 35 23
M  V30 35 1 35 31
M  V30 36 2 36 27
M  V30 37 1 37 6
M  V30 38 1 37 22
M  V30 39 1 37 33
M  V30 40 1 38 13
M  V30 41 1 38 22
M  V30 42 1 38 30
M  V30 43 1 39 1
M  V30 44 1 40 1
M  V30 45 1 41 2
M  V30 46 1 42 2
M  V30 47 1 43 3
M  V30 48 1 44 6
M  V30 49 1 45 6
M  V30 50 1 46 7
M  V30 51 1 47 7
M  V30 52 1 48 9
M  V30 53 1 49 10
M  V30 54 1 50 11
M  V30 55 1 51 11
M  V30 56 1 52 11
M  V30 57 1 13 53 CFG=3
M  V30 58 1 54 14
M  V30 59 1 55 16
M  V30 60 1 56 16
M  V30 61 1 57 16
M  V30 62 1 58 17
M  V30 63 1 59 17
M  V30 64 1 60 17
M  V30 65 1 19 61 CFG=3
M  V30 66 1 62 20
M  V30 67 1 63 20
M  V30 68 1 64 20
M  V30 69 1 65 23
M  V30 70 1 66 23
M  V30 71 1 67 25
M  V30 72 1 68 25
M  V30 73 1 69 28
M  V30 74 1 70 28
M  V30 75 1 71 28
M  V30 76 1 72 29
M  V30 77 1 73 29
M  V30 78 1 74 30
M  V30 79 1 75 30
M  V30 80 1 31 76 CFG=1
M  V30 81 1 77 32
M  V30 82 1 78 33
M  V30 83 1 79 33
M  V30 84 1 80 35
M  V30 85 1 81 35
M  V30 86 1 38 82 CFG=3
M  V30 87 1 15 83 CFG=1
M  V30 END BOND
M  V30 END CTAB
M  END
>  <i_epik_Tot_Q>  (1) 
1

>  <i_epik_Tot_abs_Q>  (1) 
1

>  <i_i_glide_confnum>  (1) 
548

>  <i_i_glide_lignum>  (1) 
60

>  <i_i_glide_posenum>  (1) 
302

>  <i_i_glide_rotatable_bonds>  (1) 
8

>  <i_lp_mmshare_version>  (1) 
72125

>  <i_m_source_file_index>  (1) 
24

>  <i_f3d_flags>  (1) 
0

>  <num_sample>  (1) 
100

>  <b_lp_Chiralities_Consistent>  (1) 
1

>  <r_epik_Charging_Adjusted_Penalty>  (1) 
0.0029773975431382485

>  <r_epik_Ionization_Penalty>  (1) 
0.013183626931022738

>  <r_epik_Ionization_Penalty_Charging>  (1) 
0.0029773975431382485

>  <r_epik_Ionization_Penalty_Neutral>  (1) 
0.010206229387884489

>  <r_epik_State_Penalty>  (1) 
-0

>  <r_glide_ring_energy>  (1) 
0

>  <r_i_docking_score>  (1) 
-6.4432304788704196

>  <r_i_glide_ecoul>  (1) 
-3.3864403873946851

>  <r_i_glide_eff_state_penalty>  (1) 
-0

>  <r_i_glide_einternal>  (1) 
28.90120995117811

>  <r_i_glide_emodel>  (1) 
-18.678139385522631

>  <r_i_glide_emodel_strain>  (1) 
3.5819572940334297

>  <r_i_glide_energy>  (1) 
-25.398418354595702

>  <r_i_glide_erotb>  (1) 
0.5287100460970352

>  <r_i_glide_esite>  (1) 
-0.03193603390254527

>  <r_i_glide_evdw>  (1) 
-22.011977967201016

>  <r_i_glide_gscore>  (1) 
-6.4432304788704196

>  <r_i_glide_gscore_strain>  (1) 
0

>  <r_i_glide_hbond>  (1) 
-0.31295124715000855

>  <r_i_glide_ligand_efficiency>  (1) 
-0.16955869681237945

>  <r_i_glide_ligand_efficiency_ln>  (1) 
-1.3893500318817937

>  <r_i_glide_ligand_efficiency_sa>  (1) 
-0.57005216869210162

>  <r_i_glide_lipo>  (1) 
-4.0555357938716954

>  <r_i_glide_metal>  (1) 
-0

>  <r_i_glide_rewards>  (1) 
-0.96295249357395063

>  <r_lp_Energy>  (1) 
93.987067999999994

>  <r_lp_tautomer_probability>  (1) 
1

>  <s_epik_Chemistry_Notes>  (1) 
This compound has an imine and may undergo hydrolysis.

>  <s_epik_cmdline>  (1) 
J2VwaWtfcHl0aG9uJywgJy1waHQnLCAnMS4wJywgJy1waCcsICc3LjQnLCAnLXRuJywgJzgnLCAnLW1hJywgJzUwMCcsICctaW1hZScsICc8aW5maWxlLm1hZT4nLCAnLW9tYWUnLCAnPG91dGZpbGUubWFlPic=

>  <s_epik_input>  (1) 
W0NIMl0xW0NIMl1bQ0gyXVtDQEBIXShbQ0BAXTEyW0NIM10pW0NIMl1OKFtDSDNdKVtDQEhdM1tDQEhdKFtDSDJdMilDKD1PKU4oW0NIMl1bQ0gyXTMpW0NIMl1bQ0BASF0oW0NIM10pW0NIMl1OKGMoW2NIXVtjSF1bY0hdNClbY0hdYzRPW0NIM10pQyg9TylDNT1OW0NIMl1bQ0hdPUM1W0NIM10=

>  <s_glide_docking_method>  (1) 
confgen

>  <s_i_glide_gridfile>  (1) 
gpcr_5ht2c_6bqh_protein_autoprepared_prepared

>  <s_lp_Force_Field>  (1) 
S-OPLS

>  <s_lp_Variant>  (1) 
DiffSBDD_23_num_sample_100-3

>  <s_m_source_file>  (1) 
generated__ligand_DiffSBDD_2026-05-06_prepared.sdf

>  <GenAI_Model>  (1) 
DiffSBDD

>  <Protein>  (1) 
GPCR_5HT2C

$$$$
DiffSBDD_15_num_sample_100
     RDKit          3D

  0  0  0  0  0  0  0  0  0  0999 V3000
M  V30 BEGIN CTAB
M  V30 COUNTS 74 79 0 0 1
M  V30 BEGIN ATOM
M  V30 1 C 38.802533 31.247508 59.972016 0
M  V30 2 S 38.267405 31.686391 55.896996 0
M  V30 3 N 42.705002 31.313994 66.487280 0
M  V30 4 C 40.187096 28.507153 50.646827 0
M  V30 5 C 43.829039 30.373797 69.199373 0
M  V30 6 C 40.593007 33.204511 63.831847 0
M  V30 7 S 41.069131 29.320814 63.652336 0
M  V30 8 S 42.485198 29.375018 68.488874 0
M  V30 9 O 40.667407 27.959149 64.034192 0
M  V30 10 C 38.883711 28.965548 53.258694 0
M  V30 11 C 39.503389 30.038326 52.726573 0
M  V30 12 C 38.783202 30.903612 57.464807 0 CFG=1
M  V30 13 C 41.262571 32.883676 65.154404 0 CFG=1
M  V30 14 N 38.398560 29.272101 54.515481 0
M  V30 15 C 43.315729 31.674388 69.837495 0
M  V30 16 C 44.449578 32.543214 70.392896 0
M  V30 17 C 41.955024 31.508204 65.205307 0 CFG=2
M  V30 18 C 40.184208 28.429080 59.039261 0
M  V30 19 S 40.267378 30.245656 51.179459 0
M  V30 20 C 38.698006 27.625906 52.629850 0
M  V30 21 N 41.191254 29.691557 66.214210 0
M  V30 22 C 38.542778 29.742784 60.210799 0 CFG=2
M  V30 23 N 42.186270 33.961315 65.480690 0
M  V30 24 O 38.667392 33.106907 58.498560 0
M  V30 25 C 38.908463 27.744404 51.096635 0
M  V30 26 C 39.789273 30.021316 62.514649 0
M  V30 27 C 38.261761 31.761673 58.635946 0 CFG=2
M  V30 28 N 40.971590 30.340458 65.062345 0
M  V30 29 C 39.497319 29.137808 61.272796 0 CFG=2
M  V30 30 C 41.056515 33.753450 66.370056 0
M  V30 31 C 42.151147 30.260516 66.939199 0
M  V30 32 C 40.726749 28.789027 60.427692 0
M  V30 33 O 42.391227 29.521665 63.053502 0
M  V30 34 C 38.738320 30.565994 54.631502 0
M  V30 35 N 38.783098 28.911362 59.001413 0 CFG=1 CHG=1
M  V30 36 O 39.463025 31.082865 53.592491 0
M  V30 37 C 38.304738 29.456613 57.698836 0
M  V30 38 H 39.867398 31.451170 60.028287 0
M  V30 39 H 38.357641 31.824548 60.784270 0
M  V30 40 H 40.267405 28.493308 49.561797 0
M  V30 41 H 41.067342 28.021443 51.053649 0
M  V30 42 H 44.333298 29.771785 69.955430 0
M  V30 43 H 44.569349 30.584982 68.426488 0
M  V30 44 H 39.684684 32.615231 63.726695 0
M  V30 45 H 40.307783 34.255974 63.776162 0
M  V30 46 H 41.262288 32.986447 62.998412 0
M  V30 47 H 39.867387 30.895876 57.444201 0
M  V30 48 H 42.758535 32.255308 69.102982 0
M  V30 49 H 42.612691 31.436775 70.636350 0
M  V30 50 H 44.057896 33.463192 70.827611 0
M  V30 51 H 45.006916 32.017908 71.168349 0
M  V30 52 H 45.149206 32.821399 69.604532 0
M  V30 53 H 42.676471 31.490597 64.389153 0
M  V30 54 H 40.801116 28.882308 58.261566 0
M  V30 55 H 40.197019 27.349775 58.881383 0
M  V30 56 H 39.415267 26.917951 53.045092 0
M  V30 57 H 37.704318 27.228253 52.839660 0
M  V30 58 H 40.701296 28.839527 66.454369 0
M  V30 59 H 37.494934 29.635223 60.477963 0
M  V30 60 H 42.163638 34.796803 64.912459 0
M  V30 61 H 38.276181 33.446600 57.704259 0
M  V30 62 H 38.053442 28.267490 50.676376 0
M  V30 63 H 38.897991 26.749057 50.653448 0
M  V30 64 H 40.153338 31.002537 62.228091 0
M  V30 65 H 38.880142 30.158429 63.098662 0
M  V30 66 H 37.169581 31.741166 58.651022 0
M  V30 67 H 39.067416 28.198114 61.625356 0
M  V30 68 H 40.267418 34.500684 66.346310 0
M  V30 69 H 41.260688 33.337066 67.353952 0
M  V30 70 H 41.362686 29.666105 60.329944 0
M  V30 71 H 41.332531 27.994647 60.863725 0
M  V30 72 H 38.659395 28.779405 56.927018 0
M  V30 73 H 37.214215 29.419876 57.674935 0
M  V30 74 H 38.239989 28.072672 59.151375 0
M  V30 END ATOM
M  V30 BEGIN BOND
M  V30 1 1 8 5
M  V30 2 2 9 7
M  V30 3 2 11 10
M  V30 4 1 12 2
M  V30 5 1 13 6 CFG=3
M  V30 6 1 14 10
M  V30 7 1 15 5
M  V30 8 1 16 15
M  V30 9 1 17 3
M  V30 10 1 17 13
M  V30 11 1 19 4
M  V30 12 1 19 11
M  V30 13 1 20 10
M  V30 14 1 22 1
M  V30 15 1 23 13
M  V30 16 1 25 4
M  V30 17 1 25 20
M  V30 18 1 26 7
M  V30 19 1 27 1
M  V30 20 1 27 12
M  V30 21 1 27 24
M  V30 22 1 28 7
M  V30 23 1 28 17
M  V30 24 1 28 21
M  V30 25 1 29 22
M  V30 26 1 29 26
M  V30 27 1 30 13
M  V30 28 1 30 23
M  V30 29 2 31 3
M  V30 30 1 31 8
M  V30 31 1 31 21
M  V30 32 1 32 18
M  V30 33 1 32 29
M  V30 34 2 33 7
M  V30 35 1 34 2
M  V30 36 2 34 14
M  V30 37 1 35 18
M  V30 38 1 35 22
M  V30 39 1 36 11
M  V30 40 1 36 34
M  V30 41 1 37 12
M  V30 42 1 37 35
M  V30 43 1 38 1
M  V30 44 1 39 1
M  V30 45 1 40 4
M  V30 46 1 41 4
M  V30 47 1 42 5
M  V30 48 1 43 5
M  V30 49 1 44 6
M  V30 50 1 45 6
M  V30 51 1 46 6
M  V30 52 1 12 47 CFG=3
M  V30 53 1 48 15
M  V30 54 1 49 15
M  V30 55 1 50 16
M  V30 56 1 51 16
M  V30 57 1 52 16
M  V30 58 1 17 53 CFG=3
M  V30 59 1 54 18
M  V30 60 1 55 18
M  V30 61 1 56 20
M  V30 62 1 57 20
M  V30 63 1 58 21
M  V30 64 1 22 59 CFG=1
M  V30 65 1 60 23
M  V30 66 1 61 24
M  V30 67 1 62 25
M  V30 68 1 63 25
M  V30 69 1 64 26
M  V30 70 1 65 26
M  V30 71 1 27 66 CFG=1
M  V30 72 1 29 67 CFG=1
M  V30 73 1 68 30
M  V30 74 1 69 30
M  V30 75 1 70 32
M  V30 76 1 71 32
M  V30 77 1 72 37
M  V30 78 1 73 37
M  V30 79 1 35 74 CFG=1
M  V30 END BOND
M  V30 END CTAB
M  END
>  <i_epik_Tot_Q>  (1) 
1

>  <i_epik_Tot_abs_Q>  (1) 
1

>  <i_i_glide_confnum>  (1) 
223

>  <i_i_glide_lignum>  (1) 
34

>  <i_i_glide_posenum>  (1) 
34

>  <i_i_glide_rotatable_bonds>  (1) 
10

>  <i_lp_mmshare_version>  (1) 
72125

>  <i_m_source_file_index>  (1) 
16

>  <i_f3d_flags>  (1) 
0

>  <num_sample>  (1) 
100

>  <b_lp_Chiralities_Consistent>  (1) 
1

>  <r_epik_Charging_Adjusted_Penalty>  (1) 
0.0082019649409003706

>  <r_epik_Ionization_Penalty>  (1) 
0.015626865898487191

>  <r_epik_Ionization_Penalty_Charging>  (1) 
0.0082019649409003706

>  <r_epik_Ionization_Penalty_Neutral>  (1) 
0.0074249009575868222

>  <r_epik_State_Penalty>  (1) 
-0

>  <r_glide_ring_energy>  (1) 
0

>  <r_i_docking_score>  (1) 
-6.4424721474089939

>  <r_i_glide_ecoul>  (1) 
-0.5510991320469496

>  <r_i_glide_eff_state_penalty>  (1) 
-0

>  <r_i_glide_einternal>  (1) 
13.720021877309822

>  <r_i_glide_emodel>  (1) 
-55.705053574763227

>  <r_i_glide_emodel_strain>  (1) 
1.5838525236533201

>  <r_i_glide_energy>  (1) 
-48.616915890337459

>  <r_i_glide_erotb>  (1) 
0.37349522713264072

>  <r_i_glide_esite>  (1) 
-0.077023991073664907

>  <r_i_glide_evdw>  (1) 
-48.065816758290509

>  <r_i_glide_gscore>  (1) 
-6.4424721474089939

>  <r_i_glide_gscore_strain>  (1) 
0

>  <r_i_glide_hbond>  (1) 
0

>  <r_i_glide_ligand_efficiency>  (1) 
-0.17412086884889172

>  <r_i_glide_ligand_efficiency_ln>  (1) 
-1.3972211757971698

>  <r_i_glide_ligand_efficiency_sa>  (1) 
-0.58020936400585621

>  <r_i_glide_lipo>  (1) 
-3.4961530412687409

>  <r_i_glide_metal>  (1) 
-0

>  <r_i_glide_rewards>  (1) 
-0.75683463447766175

>  <r_lp_Energy>  (1) 
9.9370189999999994

>  <r_lp_tautomer_probability>  (1) 
1

>  <s_epik_Chemistry_Notes>  (1) 
This compound has an imine and may undergo hydrolysis. This compound contains an acetal/aminal-like group ( X-CH(R)-Y where X, Y are N, S, or O) that may be acid/base labile, releasing an aldehyde.

>  <s_epik_cmdline>  (1) 
J2VwaWtfcHl0aG9uJywgJy1waHQnLCAnMS4wJywgJy1waCcsICc3LjQnLCAnLXRuJywgJzgnLCAnLW1hJywgJzUwMCcsICctaW1hZScsICc8aW5maWxlLm1hZT4nLCAnLW9tYWUnLCAnPG91dGZpbGUubWFlPic=

>  <s_epik_input>  (1) 
W0NIMl0xW0NIMl1bQ0gyXVNjKGMxMilvYyhuMilTW0NAQEhdKFtDQEBIXShbQ0gyXTMpW09IXSlbQ0gyXU4oW0NASF0zNClbQ0gyXVtDSDJdW0NASF00W0NIMl1TKD1PKSg9TylONVtOSF1DKFNbQ0gyXVtDSDJdW0NIM10pPU5bQ0BASF01W0NAXTYoW0NIM10pW05IXVtDSDJdNg==

>  <s_glide_docking_method>  (1) 
confgen

>  <s_i_glide_gridfile>  (1) 
gpcr_5ht2c_6bqh_protein_autoprepared_prepared

>  <s_lp_Force_Field>  (1) 
S-OPLS

>  <s_lp_Variant>  (1) 
DiffSBDD_15_num_sample_100-1

>  <s_m_source_file>  (1) 
generated__ligand_DiffSBDD_2026-05-06_prepared.sdf

>  <GenAI_Model>  (1) 
DiffSBDD

>  <Protein>  (1) 
GPCR_5HT2C

$$$$
DiffSBDD_44_num_sample_100
     RDKit          3D

  0  0  0  0  0  0  0  0  0  0999 V3000
M  V30 BEGIN CTAB
M  V30 COUNTS 58 59 0 0 1
M  V30 BEGIN ATOM
M  V30 1 C 38.394320 35.324425 61.493397 0
M  V30 2 O 37.467469 31.326679 61.853503 0 CHG=-1
M  V30 3 C 38.267400 27.198539 56.777715 0
M  V30 4 C 39.850041 33.367223 61.601036 0 CFG=1
M  V30 5 N 38.585371 33.036145 60.877278 0 CFG=2 CHG=1
M  V30 6 C 39.513043 28.858297 55.452150 0
M  V30 7 N 38.667407 30.648801 57.571349 0
M  V30 8 C 38.867357 28.360774 56.747000 0
M  V30 9 O 40.208673 29.221427 58.607781 0
M  V30 10 C 39.666367 34.797415 62.158332 0 CFG=1
M  V30 11 C 40.885945 35.713926 61.968668 0
M  V30 12 C 37.267497 31.291999 59.539011 0 CFG=1
M  V30 13 C 38.015321 31.547918 58.203148 0
M  V30 14 C 37.576107 34.065940 61.222384 0
M  V30 15 C 40.499442 28.012679 59.292129 0
M  V30 16 C 38.030504 25.756163 54.784929 0
M  V30 17 C 38.159879 31.602783 60.777139 0 CFG=2
M  V30 18 C 38.931026 29.274965 57.979279 0 CFG=1
M  V30 19 F 40.291019 26.244387 54.353501 0
M  V30 20 C 39.065038 26.644310 54.030766 0 CFG=2
M  V30 21 C 37.821682 26.086965 56.255471 0
M  V30 22 C 35.829976 31.884859 59.569857 0
M  V30 23 C 37.939062 32.977748 57.673753 0
M  V30 24 C 40.260812 32.383455 62.715197 0
M  V30 25 C 38.949216 28.190103 54.160580 0
M  V30 26 H 38.635365 35.812805 60.547849 0
M  V30 27 H 37.860260 36.044206 62.115144 0
M  V30 28 H 40.636875 33.361548 60.848230 0
M  V30 29 H 39.381828 29.931935 55.328525 0
M  V30 30 H 40.587652 28.695266 55.531593 0
M  V30 31 H 39.467410 34.729840 63.227782 0
M  V30 32 H 41.153635 35.818095 60.916768 0
M  V30 33 H 40.688479 36.712479 62.360376 0
M  V30 34 H 41.755605 35.324618 62.498381 0
M  V30 35 H 37.045404 30.233222 59.622593 0
M  V30 36 H 36.861569 34.241754 60.422631 0
M  V30 37 H 37.003066 33.772170 62.099931 0
M  V30 38 H 41.466582 28.099245 59.787831 0
M  V30 39 H 39.751169 27.798836 60.056256 0
M  V30 40 H 40.555622 27.166061 58.607996 0
M  V30 41 H 38.324455 24.709126 54.703590 0
M  V30 42 H 37.067411 25.840161 54.286590 0
M  V30 43 H 39.081728 31.056139 60.570211 0
M  V30 44 H 38.197588 28.897895 58.687378 0
M  V30 45 H 38.972708 26.421418 52.967844 0
M  V30 46 H 37.254367 25.378734 56.840807 0
M  V30 47 H 35.139940 31.221477 59.053501 0
M  V30 48 H 35.427848 31.970179 60.578357 0
M  V30 49 H 35.740052 32.864738 59.105463 0
M  V30 50 H 37.895146 33.719478 58.463597 0
M  V30 51 H 38.819336 33.198837 57.069451 0
M  V30 52 H 37.067566 33.124331 57.039888 0
M  V30 53 H 41.150250 32.738702 63.236143 0
M  V30 54 H 39.467419 32.272796 63.453669 0
M  V30 55 H 40.494004 31.392658 62.327156 0
M  V30 56 H 37.904095 28.476129 54.034168 0
M  V30 57 H 39.467388 28.637422 53.312095 0
M  V30 58 H 38.820167 33.262784 59.923558 0
M  V30 END ATOM
M  V30 BEGIN BOND
M  V30 1 1 5 4
M  V30 2 2 8 3
M  V30 3 1 8 6
M  V30 4 1 10 1
M  V30 5 1 10 4
M  V30 6 1 11 10
M  V30 7 2 13 7
M  V30 8 1 13 12
M  V30 9 1 14 1
M  V30 10 1 14 5
M  V30 11 1 15 9
M  V30 12 1 17 2
M  V30 13 1 17 5
M  V30 14 1 17 12
M  V30 15 1 18 7
M  V30 16 1 18 8
M  V30 17 1 18 9
M  V30 18 1 20 16
M  V30 19 1 20 19
M  V30 20 2 21 3
M  V30 21 1 21 16
M  V30 22 1 22 12
M  V30 23 1 23 13
M  V30 24 1 24 4
M  V30 25 1 25 6
M  V30 26 1 25 20
M  V30 27 1 26 1
M  V30 28 1 27 1
M  V30 29 1 4 28 CFG=3
M  V30 30 1 29 6
M  V30 31 1 30 6
M  V30 32 1 10 31 CFG=1
M  V30 33 1 32 11
M  V30 34 1 33 11
M  V30 35 1 34 11
M  V30 36 1 12 35 CFG=1
M  V30 37 1 36 14
M  V30 38 1 37 14
M  V30 39 1 38 15
M  V30 40 1 39 15
M  V30 41 1 40 15
M  V30 42 1 41 16
M  V30 43 1 42 16
M  V30 44 1 17 43 CFG=3
M  V30 45 1 18 44 CFG=1
M  V30 46 1 20 45 CFG=3
M  V30 47 1 46 21
M  V30 48 1 47 22
M  V30 49 1 48 22
M  V30 50 1 49 22
M  V30 51 1 50 23
M  V30 52 1 51 23
M  V30 53 1 52 23
M  V30 54 1 53 24
M  V30 55 1 54 24
M  V30 56 1 55 24
M  V30 57 1 56 25
M  V30 58 1 57 25
M  V30 59 1 5 58 CFG=3
M  V30 END BOND
M  V30 END CTAB
M  END
>  <i_epik_Tot_Q>  (1) 
0

>  <i_epik_Tot_abs_Q>  (1) 
2

>  <i_i_glide_confnum>  (1) 
3

>  <i_i_glide_lignum>  (1) 
123

>  <i_i_glide_posenum>  (1) 
238

>  <i_i_glide_rotatable_bonds>  (1) 
6

>  <i_lp_mmshare_version>  (1) 
72125

>  <i_m_source_file_index>  (1) 
45

>  <i_f3d_flags>  (1) 
0

>  <num_sample>  (1) 
100

>  <b_lp_Chiralities_Consistent>  (1) 
1

>  <r_epik_Charging_Adjusted_Penalty>  (1) 
0.41733257654759531

>  <r_epik_Ionization_Penalty>  (1) 
0.0069177268181324029

>  <r_epik_Ionization_Penalty_Charging>  (1) 
0.0066527375949913311

>  <r_epik_Ionization_Penalty_Neutral>  (1) 
0.00026498922314107146

>  <r_epik_State_Penalty>  (1) 
0.41067983895260396

>  <r_glide_ring_energy>  (1) 
0

>  <r_i_docking_score>  (1) 
-6.4413694464870472

>  <r_i_glide_ecoul>  (1) 
-4.8379674130334802

>  <r_i_glide_eff_state_penalty>  (1) 
0.41067983895260396

>  <r_i_glide_einternal>  (1) 
5.7657118941592991

>  <r_i_glide_emodel>  (1) 
-48.360094944756611

>  <r_i_glide_emodel_strain>  (1) 
1.8461188530337296

>  <r_i_glide_energy>  (1) 
-35.266305370166023

>  <r_i_glide_erotb>  (1) 
0.61440649929112812

>  <r_i_glide_esite>  (1) 
-0.087768945175999272

>  <r_i_glide_evdw>  (1) 
-30.428337957132541

>  <r_i_glide_gscore>  (1) 
-6.8520492854396515

>  <r_i_glide_gscore_strain>  (1) 
0

>  <r_i_glide_hbond>  (1) 
-0.16

>  <r_i_glide_ligand_efficiency>  (1) 
-0.25765477785948188

>  <r_i_glide_ligand_efficiency_ln>  (1) 
-1.5267975910829936

>  <r_i_glide_ligand_efficiency_sa>  (1) 
-0.75338714079642077

>  <r_i_glide_lipo>  (1) 
-2.8900683949070056

>  <r_i_glide_metal>  (1) 
-0

>  <r_i_glide_rewards>  (1) 
-2.0815064348361259

>  <r_lp_Energy>  (1) 
19.622211999999998

>  <r_lp_tautomer_probability>  (1) 
0.49999399997599986

>  <s_epik_Chemistry_Notes>  (1) 
This compound has an imine and may undergo hydrolysis. This compound contains an acetal/aminal-like group ( X-CH(R)-Y where X, Y are N, S, or O) that may be acid/base labile, releasing an aldehyde.

>  <s_epik_cmdline>  (1) 
J2VwaWtfcHl0aG9uJywgJy1waHQnLCAnMS4wJywgJy1waCcsICc3LjQnLCAnLXRuJywgJzgnLCAnLW1hJywgJzUwMCcsICctaW1hZScsICc8aW5maWxlLm1hZT4nLCAnLW9tYWUnLCAnPG91dGZpbGUubWFlPic=

>  <s_epik_input>  (1) 
W0NIM11bQ0BIXTFbQ0gyXVtDSDJdTihbQ0BASF0xW0NIM10pW0NAQEhdKFtPSF0pW0NAQEhdKFtDSDNdKS9DKFtDSDNdKT1OXFtDQEBIXShPW0NIM10pQzI9Qz1bQ0hdW0NIMl1bQ0BASF0oRilbQ0gyXVtDSDJdMg==

>  <s_glide_docking_method>  (1) 
confgen

>  <s_i_glide_gridfile>  (1) 
gpcr_5ht2c_6bqh_protein_autoprepared_prepared

>  <s_lp_Force_Field>  (1) 
S-OPLS

>  <s_lp_Variant>  (1) 
DiffSBDD_44_num_sample_100-16

>  <s_m_source_file>  (1) 
generated__ligand_DiffSBDD_2026-05-06_prepared.sdf

>  <GenAI_Model>  (1) 
DiffSBDD

>  <Protein>  (1) 
GPCR_5HT2C

$$$$
DiffSBDD_39_num_sample_100
     RDKit          3D

  0  0  0  0  0  0  0  0  0  0999 V3000
M  V30 BEGIN CTAB
M  V30 COUNTS 60 63 0 0 1
M  V30 BEGIN ATOM
M  V30 1 C 39.216739 34.189438 60.057410 0
M  V30 2 C 38.544735 28.345981 58.535746 0
M  V30 3 C 36.212641 32.412713 61.351557 0
M  V30 4 C 37.975232 29.540636 59.305228 0
M  V30 5 C 37.925097 32.500831 58.749091 0
M  V30 6 C 38.388456 27.918311 56.062414 0
M  V30 7 N 38.484146 27.221559 52.321662 0
M  V30 8 O 37.015815 31.600602 61.853499 0 CHG=-1
M  V30 9 C 38.630313 28.151734 54.588646 0
M  V30 10 C 36.914774 34.730123 59.429226 0
M  V30 11 O 35.842048 33.492845 61.853500 0
M  V30 12 C 37.037432 35.976274 60.070116 0
M  V30 13 C 38.240110 36.324870 60.707502 0
M  V30 14 N 36.833627 31.742495 59.053499 0
M  V30 15 C 40.638299 35.784143 61.406240 0
M  V30 16 C 34.822080 33.218947 59.373833 0
M  V30 17 C 39.495604 28.392060 50.437002 0
M  V30 18 C 36.873538 30.352251 58.573998 0
M  V30 19 C 39.777012 36.967463 63.476289 0
M  V30 20 C 39.250402 29.331566 54.049931 0
M  V30 21 C 35.706951 32.090402 59.951815 0 CFG=2
M  V30 22 C 40.105966 29.829409 50.257350 0
M  V30 23 O 39.867397 38.021479 62.814485 0 CHG=-1
M  V30 24 C 38.016211 33.831691 59.423860 0
M  V30 25 S 40.267381 30.699368 51.883504 0
M  V30 26 C 39.473553 29.372105 52.664512 0
M  V30 27 O 39.639838 30.377438 54.834173 0 CHG=-1
M  V30 28 C 39.333256 35.424901 60.706528 0
M  V30 29 Cl 37.468406 25.703583 54.253516 0
M  V30 30 C 40.537533 35.756520 62.946952 0
M  V30 31 C 38.247398 27.133074 53.660429 0
M  V30 32 C 38.838975 28.668495 57.085209 0
M  V30 33 C 35.612433 34.362403 58.729845 0
M  V30 34 O 38.832882 32.117455 58.014176 0
M  V30 35 C 39.113568 28.324820 51.880825 0
M  V30 36 O 39.124682 36.821169 64.532335 0
M  V30 37 H 40.047697 33.501511 60.055425 0
M  V30 38 H 37.867738 27.497460 58.582522 0
M  V30 39 H 39.468112 28.015527 59.013729 0
M  V30 40 H 37.573284 29.217315 60.253484 0
M  V30 41 H 38.827119 30.160709 59.578299 0
M  V30 42 H 37.798934 27.052466 56.309692 0
M  V30 43 H 36.208214 36.665447 60.073272 0
M  V30 44 H 38.323241 37.280149 61.194452 0
M  V30 45 H 41.406432 35.075342 61.098213 0
M  V30 46 H 41.003352 36.748647 61.053470 0
M  V30 47 H 34.163635 33.621696 60.145446 0
M  V30 48 H 34.124610 32.803093 58.653517 0
M  V30 49 H 40.248326 27.626134 50.253379 0
M  V30 50 H 38.667403 28.220612 49.773544 0
M  V30 51 H 37.050468 30.394249 57.497518 0
M  V30 52 H 35.910205 29.851908 58.669369 0
M  V30 53 H 35.067409 31.222716 60.095926 0
M  V30 54 H 39.467403 30.437924 49.619945 0
M  V30 55 H 41.073122 29.776507 49.763008 0
M  V30 56 H 40.070517 34.833508 63.291352 0
M  V30 57 H 41.537089 35.794573 63.379240 0
M  V30 58 H 39.438627 29.537323 56.913326 0
M  V30 59 H 34.978533 35.239944 58.612365 0
M  V30 60 H 35.886722 34.021464 57.736567 0
M  V30 END ATOM
M  V30 BEGIN BOND
M  V30 1 1 4 2
M  V30 2 1 8 3
M  V30 3 1 9 6
M  V30 4 2 11 3
M  V30 5 1 12 10
M  V30 6 2 13 12
M  V30 7 1 14 5
M  V30 8 1 18 4
M  V30 9 1 18 14
M  V30 10 2 20 9
M  V30 11 1 21 3
M  V30 12 1 21 14
M  V30 13 1 21 16
M  V30 14 1 22 17
M  V30 15 1 23 19
M  V30 16 1 24 1
M  V30 17 1 24 5
M  V30 18 2 24 10
M  V30 19 1 25 22
M  V30 20 1 26 20
M  V30 21 1 26 25
M  V30 22 1 27 20
M  V30 23 2 28 1
M  V30 24 1 28 13
M  V30 25 1 28 15
M  V30 26 1 30 15
M  V30 27 1 30 19
M  V30 28 2 31 7
M  V30 29 1 31 9
M  V30 30 1 31 29
M  V30 31 1 32 2
M  V30 32 2 32 6
M  V30 33 1 33 10
M  V30 34 1 33 16
M  V30 35 2 34 5
M  V30 36 1 35 7
M  V30 37 1 35 17
M  V30 38 2 35 26
M  V30 39 2 36 19
M  V30 40 1 37 1
M  V30 41 1 38 2
M  V30 42 1 39 2
M  V30 43 1 40 4
M  V30 44 1 41 4
M  V30 45 1 42 6
M  V30 46 1 43 12
M  V30 47 1 44 13
M  V30 48 1 45 15
M  V30 49 1 46 15
M  V30 50 1 47 16
M  V30 51 1 48 16
M  V30 52 1 49 17
M  V30 53 1 50 17
M  V30 54 1 51 18
M  V30 55 1 52 18
M  V30 56 1 21 53 CFG=1
M  V30 57 1 54 22
M  V30 58 1 55 22
M  V30 59 1 56 30
M  V30 60 1 57 30
M  V30 61 1 58 32
M  V30 62 1 59 33
M  V30 63 1 60 33
M  V30 END BOND
M  V30 END CTAB
M  END
>  <i_epik_Tot_Q>  (1) 
-3

>  <i_epik_Tot_abs_Q>  (1) 
3

>  <i_i_glide_confnum>  (1) 
237

>  <i_i_glide_lignum>  (1) 
94

>  <i_i_glide_posenum>  (1) 
20

>  <i_i_glide_rotatable_bonds>  (1) 
9

>  <i_lp_mmshare_version>  (1) 
72125

>  <i_m_source_file_index>  (1) 
40

>  <i_f3d_flags>  (1) 
0

>  <num_sample>  (1) 
100

>  <b_lp_Chiralities_Consistent>  (1) 
1

>  <r_epik_Charging_Adjusted_Penalty>  (1) 
0.2804944600534911

>  <r_epik_Ionization_Penalty>  (1) 
0.1893944324441556

>  <r_epik_Ionization_Penalty_Charging>  (1) 
0.1048911762492778

>  <r_epik_Ionization_Penalty_Neutral>  (1) 
0.084503256194877821

>  <r_epik_State_Penalty>  (1) 
0.17560328380421328

>  <r_glide_ring_energy>  (1) 
0

>  <r_i_docking_score>  (1) 
-6.4353034085651366

>  <r_i_glide_ecoul>  (1) 
-1.6921268755045644

>  <r_i_glide_eff_state_penalty>  (1) 
0.17560328380421328

>  <r_i_glide_einternal>  (1) 
2.4992011855952754

>  <r_i_glide_emodel>  (1) 
-48.051949616567853

>  <r_i_glide_emodel_strain>  (1) 
4.4983140032384341

>  <r_i_glide_energy>  (1) 
-38.969450359184513

>  <r_i_glide_erotb>  (1) 
0.44331424450836554

>  <r_i_glide_esite>  (1) 
-0.18701073074865465

>  <r_i_glide_evdw>  (1) 
-37.27732348367995

>  <r_i_glide_gscore>  (1) 
-6.6109066923693502

>  <r_i_glide_gscore_strain>  (1) 
0.12457850080960853

>  <r_i_glide_hbond>  (1) 
-0.16

>  <r_i_glide_ligand_efficiency>  (1) 
-0.17875842801569825

>  <r_i_glide_ligand_efficiency_ln>  (1) 
-1.4040093419430208

>  <r_i_glide_ligand_efficiency_sa>  (1) 
-0.59024732443460282

>  <r_i_glide_lipo>  (1) 
-3.8545524897207448

>  <r_i_glide_metal>  (1) 
-0

>  <r_i_glide_rewards>  (1) 
-0.85955101170824255

>  <r_lp_Energy>  (1) 
58.368376999999995

>  <s_epik_cmdline>  (1) 
J2VwaWtfcHl0aG9uJywgJy1waHQnLCAnMS4wJywgJy1waCcsICc3LjQnLCAnLXRuJywgJzgnLCAnLW1hJywgJzUwMCcsICctaW1hZScsICc8aW5maWxlLm1hZT4nLCAnLW9tYWUnLCAnPG91dGZpbGUubWFlPic=

>  <s_epik_input>  (1) 
W09IXUMoPU8pW0NIMl1bQ0gyXWMoW2NIXVtjSF0xKVtjSF1jKGMxMilDKD1PKU4oW0NAQEhdKEMoPU8pW09IXSlbQ0gyXVtDSDJdMilbQ0gyXVtDSDJdW0NIMl1cW0NIXT1bQ0hdXGMoYzNbT0hdKWMoQ2wpbmMoYzM0KVtDSDJdW0NIMl1TNA==

>  <s_glide_docking_method>  (1) 
confgen

>  <s_i_glide_gridfile>  (1) 
gpcr_5ht2c_6bqh_protein_autoprepared_prepared

>  <s_lp_Force_Field>  (1) 
S-OPLS

>  <s_lp_Variant>  (1) 
DiffSBDD_39_num_sample_100-1

>  <s_m_source_file>  (1) 
generated__ligand_DiffSBDD_2026-05-06_prepared.sdf

>  <GenAI_Model>  (1) 
DiffSBDD

>  <Protein>  (1) 
GPCR_5HT2C

$$$$
DiffSBDD_90_num_sample_100
     RDKit          3D

  0  0  0  0  0  0  0  0  0  0999 V3000
M  V30 BEGIN CTAB
M  V30 COUNTS 85 88 0 0 1
M  V30 BEGIN ATOM
M  V30 1 C 39.953615 28.306034 59.840616 0
M  V30 2 O 40.341383 36.421401 64.319373 0
M  V30 3 F 38.257248 23.621580 55.767891 0
M  V30 4 C 38.387682 29.698482 54.749705 0 CFG=1
M  V30 5 C 37.544544 36.711069 61.825832 0 CFG=2
M  V30 6 C 38.581246 34.647452 60.982442 0 CFG=1
M  V30 7 C 40.116490 31.048436 52.392581 0
M  V30 8 C 38.254170 32.228163 60.336999 0
M  V30 9 C 38.776516 31.207388 54.523737 0
M  V30 10 N 38.981349 36.574674 63.853291 0
M  V30 11 C 37.677998 24.953457 57.530055 0
M  V30 12 C 37.555140 32.111636 54.739929 0
M  V30 13 C 37.238075 35.247250 61.420316 0
M  V30 14 C 39.671921 35.440616 61.721613 0
M  V30 15 O 37.066951 37.221425 59.531528 0
M  V30 16 N 38.732391 28.632855 59.063672 0 CFG=2 CHG=1
M  V30 17 C 38.702077 33.149435 61.205509 0
M  V30 18 F 39.612518 23.707830 57.453478 0
M  V30 19 C 38.651942 26.356062 55.079966 0 CFG=1
M  V30 20 N 38.879770 28.084440 57.671794 0
M  V30 21 C 36.739175 25.739780 56.629485 0
M  V30 22 C 38.408363 30.084449 59.121705 0
M  V30 23 O 39.067386 31.580760 53.173463 0
M  V30 24 C 39.904826 31.693042 55.445736 0
M  V30 25 C 39.860226 28.791737 61.293845 0
M  V30 26 C 39.595965 25.503578 55.930455 0
M  V30 27 C 38.387855 30.718455 60.528047 0 CFG=1
M  V30 28 C 38.998781 36.664875 62.390388 0 CFG=1
M  V30 29 C 39.596488 28.760822 54.718512 0
M  V30 30 O 37.867378 38.856399 60.819917 0 CHG=-1
M  V30 31 C 37.681727 28.155012 56.826543 0 CFG=1
M  V30 32 C 39.626165 30.306682 61.353741 0
M  V30 33 O 36.606282 37.146632 62.800840 0
M  V30 34 C 37.573143 29.499896 56.047446 0
M  V30 35 C 37.467472 26.903667 55.890640 0 CFG=1
M  V30 36 C 39.334706 27.357822 54.136347 0
M  V30 37 C 38.809448 24.421446 56.677685 0
M  V30 38 C 37.484443 37.679766 60.621148 0
M  V30 39 H 40.817783 28.767758 59.359301 0
M  V30 40 H 40.120835 27.226795 59.820975 0
M  V30 41 H 40.725554 37.293571 64.253575 0
M  V30 42 H 37.736566 29.423879 53.918444 0
M  V30 43 H 38.689835 34.831928 59.912254 0
M  V30 44 H 40.141658 31.586689 51.445496 0
M  V30 45 H 41.067350 31.221344 52.880318 0
M  V30 46 H 39.974063 29.997057 52.146454 0
M  V30 47 H 37.764943 32.557136 59.428169 0
M  V30 48 H 38.692631 37.449531 64.271149 0
M  V30 49 H 37.140339 24.123731 57.988296 0
M  V30 50 H 38.056902 25.566924 58.345939 0
M  V30 51 H 37.348047 32.256901 55.796963 0
M  V30 52 H 37.705530 33.110957 54.327361 0
M  V30 53 H 36.667578 31.695293 54.265953 0
M  V30 54 H 36.488630 35.151125 60.632953 0
M  V30 55 H 36.817528 34.697272 62.253404 0
M  V30 56 H 40.429605 35.773878 61.010164 0
M  V30 57 H 40.194592 34.811050 62.441206 0
M  V30 58 H 39.183257 32.835872 62.119277 0
M  V30 59 H 38.207589 25.638637 54.385866 0
M  V30 60 H 39.069166 27.117384 57.896819 0
M  V30 61 H 36.302159 25.074032 55.885496 0
M  V30 62 H 35.906879 26.021442 57.257042 0
M  V30 63 H 37.407732 30.235904 58.717419 0
M  V30 64 H 39.120799 30.623422 58.498215 0
M  V30 65 H 39.825278 31.278580 56.447249 0
M  V30 66 H 40.884129 31.421289 55.053677 0
M  V30 67 H 39.867373 32.778096 55.547983 0
M  V30 68 H 40.785675 28.546436 61.818005 0
M  V30 69 H 39.067414 28.262868 61.819272 0
M  V30 70 H 40.267391 25.000260 55.250607 0
M  V30 71 H 40.208008 26.101333 56.602899 0
M  V30 72 H 37.487214 30.389571 61.047318 0
M  V30 73 H 39.557413 37.566440 62.133352 0
M  V30 74 H 40.267431 29.277427 54.077263 0
M  V30 75 H 40.154327 28.725928 55.650588 0
M  V30 76 H 36.850909 28.156759 57.531562 0
M  V30 77 H 40.510048 30.822515 60.977974 0
M  V30 78 H 39.509630 30.608096 62.395911 0
M  V30 79 H 36.678591 36.565512 63.542103 0
M  V30 80 H 36.530250 29.672500 55.790162 0
M  V30 81 H 37.802079 30.324102 56.701596 0
M  V30 82 H 36.816287 27.204932 55.053530 0
M  V30 83 H 38.729913 27.465373 53.233871 0
M  V30 84 H 40.259929 26.890545 53.792050 0
M  V30 85 H 37.960589 28.132585 59.480436 0
M  V30 END ATOM
M  V30 BEGIN BOND
M  V30 1 1 9 4
M  V30 2 1 10 2
M  V30 3 1 12 9
M  V30 4 1 13 5
M  V30 5 1 13 6
M  V30 6 1 14 6
M  V30 7 1 16 1
M  V30 8 1 17 6
M  V30 9 2 17 8
M  V30 10 1 20 16
M  V30 11 1 21 11
M  V30 12 1 22 16
M  V30 13 1 23 7
M  V30 14 1 23 9
M  V30 15 1 24 9
M  V30 16 1 25 1
M  V30 17 1 26 19
M  V30 18 1 27 8
M  V30 19 1 27 22
M  V30 20 1 28 5
M  V30 21 1 28 10
M  V30 22 1 28 14
M  V30 23 1 29 4
M  V30 24 1 31 20
M  V30 25 1 32 25
M  V30 26 1 32 27
M  V30 27 1 5 33 CFG=1
M  V30 28 1 34 4
M  V30 29 1 34 31
M  V30 30 1 35 19
M  V30 31 1 35 21
M  V30 32 1 35 31
M  V30 33 1 36 19
M  V30 34 1 36 29
M  V30 35 1 37 3
M  V30 36 1 37 11
M  V30 37 1 37 18
M  V30 38 1 37 26
M  V30 39 1 38 5
M  V30 40 2 38 15
M  V30 41 1 38 30
M  V30 42 1 39 1
M  V30 43 1 40 1
M  V30 44 1 41 2
M  V30 45 1 4 42 CFG=3
M  V30 46 1 6 43 CFG=3
M  V30 47 1 44 7
M  V30 48 1 45 7
M  V30 49 1 46 7
M  V30 50 1 47 8
M  V30 51 1 48 10
M  V30 52 1 49 11
M  V30 53 1 50 11
M  V30 54 1 51 12
M  V30 55 1 52 12
M  V30 56 1 53 12
M  V30 57 1 54 13
M  V30 58 1 55 13
M  V30 59 1 56 14
M  V30 60 1 57 14
M  V30 61 1 58 17
M  V30 62 1 19 59 CFG=3
M  V30 63 1 60 20
M  V30 64 1 61 21
M  V30 65 1 62 21
M  V30 66 1 63 22
M  V30 67 1 64 22
M  V30 68 1 65 24
M  V30 69 1 66 24
M  V30 70 1 67 24
M  V30 71 1 68 25
M  V30 72 1 69 25
M  V30 73 1 70 26
M  V30 74 1 71 26
M  V30 75 1 27 72 CFG=1
M  V30 76 1 28 73 CFG=1
M  V30 77 1 74 29
M  V30 78 1 75 29
M  V30 79 1 31 76 CFG=1
M  V30 80 1 77 32
M  V30 81 1 78 32
M  V30 82 1 79 33
M  V30 83 1 80 34
M  V30 84 1 81 34
M  V30 85 1 35 82 CFG=3
M  V30 86 1 83 36
M  V30 87 1 84 36
M  V30 88 1 16 85 CFG=1
M  V30 END BOND
M  V30 END CTAB
M  END
>  <i_epik_Tot_Q>  (1) 
0

>  <i_epik_Tot_abs_Q>  (1) 
2

>  <i_i_glide_confnum>  (1) 
250

>  <i_i_glide_lignum>  (1) 
244

>  <i_i_glide_posenum>  (1) 
341

>  <i_i_glide_rotatable_bonds>  (1) 
10

>  <i_lp_mmshare_version>  (1) 
72125

>  <i_m_source_file_index>  (1) 
91

>  <i_f3d_flags>  (1) 
0

>  <num_sample>  (1) 
100

>  <b_lp_Chiralities_Consistent>  (1) 
1

>  <r_epik_Charging_Adjusted_Penalty>  (1) 
1.5083745474312953

>  <r_epik_Ionization_Penalty>  (1) 
0.65750586125956467

>  <r_epik_Ionization_Penalty_Charging>  (1) 
0.6544614066189578

>  <r_epik_Ionization_Penalty_Neutral>  (1) 
0.0030444546406068235

>  <r_epik_State_Penalty>  (1) 
0.8539131408123376

>  <r_glide_ring_energy>  (1) 
0.35261698705859396

>  <r_i_docking_score>  (1) 
-6.4280105878873188

>  <r_i_glide_ecoul>  (1) 
-5.8677323167339468

>  <r_i_glide_eff_state_penalty>  (1) 
0.8539131408123376

>  <r_i_glide_einternal>  (1) 
30.000887574955772

>  <r_i_glide_emodel>  (1) 
-96.673304391421112

>  <r_i_glide_emodel_strain>  (1) 
5.2910902598605958

>  <r_i_glide_energy>  (1) 
-29.048178863153087

>  <r_i_glide_erotb>  (1) 
0.42002339013477186

>  <r_i_glide_esite>  (1) 
-0.023369337625085019

>  <r_i_glide_evdw>  (1) 
-23.180446546419141

>  <r_i_glide_gscore>  (1) 
-7.2819237286996561

>  <r_i_glide_gscore_strain>  (1) 
0.32277256496514894

>  <r_i_glide_hbond>  (1) 
-0.31146679658607951

>  <r_i_glide_ligand_efficiency>  (1) 
-0.16915817336545577

>  <r_i_glide_ligand_efficiency_ln>  (1) 
-1.3860681756620059

>  <r_i_glide_ligand_efficiency_sa>  (1) 
-0.56870561871369785

>  <r_i_glide_lipo>  (1) 
-4.5620327292731417

>  <r_i_glide_metal>  (1) 
-0

>  <r_i_glide_rewards>  (1) 
-1.088668645484222

>  <r_lp_Energy>  (1) 
53.976785999999997

>  <s_epik_Chemistry_Notes>  (1) 
This compound has a N-S or N-O group and may undergo hydrolysis at high or low pH.

>  <s_epik_cmdline>  (1) 
J2VwaWtfcHl0aG9uJywgJy1waHQnLCAnMS4wJywgJy1waCcsICc3LjQnLCAnLXRuJywgJzgnLCAnLW1hJywgJzUwMCcsICctaW1hZScsICc8aW5maWxlLm1hZT4nLCAnLW9tYWUnLCAnPG91dGZpbGUubWFlPic=

>  <s_epik_input>  (1) 
RkMoRikoW0NIMl0xKVtDSDJdW0NIMl1bQ0BIXShbQ0BASF0xMilbQ0BIXShbQ0gyXVtDQEhdKFtDSDJdW0NIMl0yKUMoW0NIM10pKFtDSDNdKU9bQ0gzXSlbTkhdTjNbQ0gyXVtDSDJdW0NIMl1bQ0BIXShbQ0gyXTMpL1tDSF09W0NIXS9bQ0BASF0oW0NIMl1bQ0BdNChbT0hdKUMoPU8pW09IXSlbQ0gyXVtDQEBIXTRbTkhdW09IXQ==

>  <s_glide_docking_method>  (1) 
confgen

>  <s_i_glide_gridfile>  (1) 
gpcr_5ht2c_6bqh_protein_autoprepared_prepared

>  <s_lp_Force_Field>  (1) 
S-OPLS

>  <s_lp_Variant>  (1) 
DiffSBDD_90_num_sample_100-16

>  <s_m_source_file>  (1) 
generated__ligand_DiffSBDD_2026-05-06_prepared.sdf

>  <GenAI_Model>  (1) 
DiffSBDD

>  <Protein>  (1) 
GPCR_5HT2C

$$$$
DiffSBDD_2_num_sample_100
     RDKit          3D

  0  0  0  0  0  0  0  0  0  0999 V3000
M  V30 BEGIN CTAB
M  V30 COUNTS 52 52 0 0 1
M  V30 BEGIN ATOM
M  V30 1 C 38.084289 31.217814 55.750605 0
M  V30 2 C 38.856528 30.228058 59.737292 0
M  V30 3 O 36.991789 33.142814 61.187996 0
M  V30 4 O 35.867402 30.421427 59.053502 0
M  V30 5 C 38.231283 31.180195 60.770104 0
M  V30 6 F 39.180061 27.621361 50.641982 0
M  V30 7 C 39.067405 28.405664 51.735278 0
M  V30 8 C 39.274698 25.926568 57.009374 0
M  V30 9 O 39.450982 25.312047 55.959596 0
M  V30 10 C 39.772265 28.306795 56.258820 0
M  V30 11 C 38.508884 29.447927 53.898428 0
M  V30 12 S 37.981847 28.026298 53.008522 0
M  V30 13 C 40.682715 28.548191 59.206964 0
M  V30 14 O 34.869479 32.467993 59.453501 0
M  V30 15 O 39.412045 31.540661 56.109466 0
M  V30 16 N 38.357745 28.774576 56.289903 0 CHG=1
M  V30 17 C 37.159551 32.143105 60.200043 0 CFG=1
M  V30 18 C 38.267377 25.443142 58.047247 0
M  V30 19 C 40.054153 27.217779 57.320115 0 CFG=1
M  V30 20 O 39.701776 27.711754 58.606148 0
M  V30 21 C 35.770562 31.502600 59.948765 0
M  V30 22 C 39.785554 29.542332 51.928425 0
M  V30 23 C 40.005792 29.380244 60.302197 0
M  V30 24 C 39.467403 30.155177 53.183877 0
M  V30 25 C 37.942462 29.760629 55.256807 0 CFG=1
M  V30 26 H 37.715856 31.925539 55.005956 0
M  V30 27 H 37.468678 31.359557 56.638958 0
M  V30 28 H 38.106081 29.540042 59.357519 0
M  V30 29 H 39.202159 30.805849 58.880864 0
M  V30 30 H 37.754595 33.700085 61.187481 0
M  V30 31 H 35.762614 30.779590 58.169702 0
M  V30 32 H 39.043041 31.773161 61.194360 0
M  V30 33 H 37.817099 30.606944 61.600642 0
M  V30 34 H 40.439594 29.155193 56.388851 0
M  V30 35 H 40.013735 27.889789 55.281548 0
M  V30 36 H 41.143323 29.221388 58.484655 0
M  V30 37 H 41.483119 27.936370 59.624259 0
M  V30 38 H 35.067398 32.587870 58.526741 0
M  V30 39 H 39.903545 31.743949 55.328327 0
M  V30 40 H 37.770394 27.961851 56.172089 0
M  V30 41 H 37.527563 32.617466 59.288400 0
M  V30 42 H 37.324513 25.977575 57.934656 0
M  V30 43 H 38.075914 24.376833 57.923799 0
M  V30 44 H 38.644375 25.612271 59.053504 0
M  V30 45 H 41.113378 26.955982 57.311978 0
M  V30 46 H 35.375638 31.122825 60.891942 0
M  V30 47 H 40.514122 29.948737 51.241939 0
M  V30 48 H 40.745381 30.028503 60.772088 0
M  V30 49 H 39.627182 28.720750 61.084931 0
M  V30 50 H 39.943281 31.065110 53.515903 0
M  V30 51 H 36.863876 29.621415 55.170549 0
M  V30 52 H 38.168500 29.172495 57.200164 0
M  V30 END ATOM
M  V30 BEGIN BOND
M  V30 1 1 5 2
M  V30 2 1 7 6
M  V30 3 2 9 8
M  V30 4 1 12 7
M  V30 5 1 12 11
M  V30 6 1 15 1
M  V30 7 1 16 10
M  V30 8 1 17 3
M  V30 9 1 17 5
M  V30 10 1 18 8
M  V30 11 1 19 8
M  V30 12 1 19 10
M  V30 13 1 20 13
M  V30 14 1 20 19
M  V30 15 1 21 4
M  V30 16 1 21 14
M  V30 17 1 21 17
M  V30 18 2 22 7
M  V30 19 1 23 2
M  V30 20 1 23 13
M  V30 21 2 24 11
M  V30 22 1 24 22
M  V30 23 1 25 1
M  V30 24 1 25 11
M  V30 25 1 25 16
M  V30 26 1 26 1
M  V30 27 1 27 1
M  V30 28 1 28 2
M  V30 29 1 29 2
M  V30 30 1 30 3
M  V30 31 1 31 4
M  V30 32 1 32 5
M  V30 33 1 33 5
M  V30 34 1 34 10
M  V30 35 1 35 10
M  V30 36 1 36 13
M  V30 37 1 37 13
M  V30 38 1 38 14
M  V30 39 1 39 15
M  V30 40 1 40 16
M  V30 41 1 17 41 CFG=3
M  V30 42 1 42 18
M  V30 43 1 43 18
M  V30 44 1 44 18
M  V30 45 1 19 45 CFG=1
M  V30 46 1 46 21
M  V30 47 1 47 22
M  V30 48 1 48 23
M  V30 49 1 49 23
M  V30 50 1 50 24
M  V30 51 1 25 51 CFG=3
M  V30 52 1 52 16
M  V30 END BOND
M  V30 END CTAB
M  END
>  <i_epik_Tot_Q>  (1) 
1

>  <i_epik_Tot_abs_Q>  (1) 
1

>  <i_i_glide_confnum>  (1) 
1110

>  <i_i_glide_lignum>  (1) 
20

>  <i_i_glide_posenum>  (1) 
232

>  <i_i_glide_rotatable_bonds>  (1) 
17

>  <i_lp_mmshare_version>  (1) 
72125

>  <i_m_source_file_index>  (1) 
3

>  <i_f3d_flags>  (1) 
0

>  <num_sample>  (1) 
100

>  <b_lp_Chiralities_Consistent>  (1) 
1

>  <r_epik_Charging_Adjusted_Penalty>  (1) 
1.2755826654989224

>  <r_epik_Ionization_Penalty>  (1) 
0.63780895661999681

>  <r_epik_Ionization_Penalty_Charging>  (1) 
0.6377913327494612

>  <r_epik_Ionization_Penalty_Neutral>  (1) 
1.7623870535632096e-05

>  <r_epik_State_Penalty>  (1) 
0.6377913327494612

>  <r_glide_ring_energy>  (1) 
0

>  <r_i_docking_score>  (1) 
-6.4270658602468815

>  <r_i_glide_ecoul>  (1) 
-9.0445800627347275

>  <r_i_glide_eff_state_penalty>  (1) 
0.6377913327494612

>  <r_i_glide_einternal>  (1) 
9.6761963029601201

>  <r_i_glide_emodel>  (1) 
-68.953936563125666

>  <r_i_glide_emodel_strain>  (1) 
1.9709414206156453

>  <r_i_glide_energy>  (1) 
-49.4141083767596

>  <r_i_glide_erotb>  (1) 
1.4743289393995902

>  <r_i_glide_esite>  (1) 
-0.088091045172249652

>  <r_i_glide_evdw>  (1) 
-40.369528314024876

>  <r_i_glide_gscore>  (1) 
-7.0648571929963424

>  <r_i_glide_gscore_strain>  (1) 
0

>  <r_i_glide_hbond>  (1) 
-0.29985758954517694

>  <r_i_glide_ligand_efficiency>  (1) 
-0.25708263440987528

>  <r_i_glide_ligand_efficiency_ln>  (1) 
-1.5234072125001843

>  <r_i_glide_ligand_efficiency_sa>  (1) 
-0.75171418320096861

>  <r_i_glide_lipo>  (1) 
-2.8652911899339752

>  <r_i_glide_metal>  (1) 
-0

>  <r_i_glide_rewards>  (1) 
-1.9107828826330779

>  <r_lp_Energy>  (1) 
15.151610999999999

>  <r_lp_tautomer_probability>  (1) 
0.9999999700000004

>  <s_epik_Chemistry_Notes>  (1) 
This compound contains an acetal/aminal-like group ( X-CH(R)-Y where X, Y are N, S, or O) that may be acid/base labile, releasing an aldehyde.

>  <s_epik_cmdline>  (1) 
J2VwaWtfcHl0aG9uJywgJy1waHQnLCAnMS4wJywgJy1waCcsICc3LjQnLCAnLXRuJywgJzgnLCAnLW1hJywgJzUwMCcsICctaW1hZScsICc8aW5maWxlLm1hZT4nLCAnLW9tYWUnLCAnPG91dGZpbGUubWFlPic=

>  <s_epik_input>  (1) 
RmMxc2MoW2NIXVtjSF0xKVtDQEhdKFtDSDJdW09IXSlbTkhdW0NIMl1bQ0BIXShDKD1PKVtDSDNdKU9bQ0gyXVtDSDJdW0NIMl1bQ0gyXVtDQEhdKFtPSF0pW0NIXShbT0hdKVtPSF0=

>  <s_glide_docking_method>  (1) 
confgen

>  <s_i_glide_gridfile>  (1) 
gpcr_5ht2c_6bqh_protein_autoprepared_prepared

>  <s_lp_Force_Field>  (1) 
S-OPLS

>  <s_lp_Variant>  (1) 
DiffSBDD_2_num_sample_100-2

>  <s_m_source_file>  (1) 
generated__ligand_DiffSBDD_2026-05-06_prepared.sdf

>  <GenAI_Model>  (1) 
DiffSBDD

>  <Protein>  (1) 
GPCR_5HT2C

$$$$
DiffSBDD_90_num_sample_100
     RDKit          3D

  0  0  0  0  0  0  0  0  0  0999 V3000
M  V30 BEGIN CTAB
M  V30 COUNTS 85 88 0 0 1
M  V30 BEGIN ATOM
M  V30 1 C 40.020174 28.103448 59.974771 0
M  V30 2 O 39.860513 37.221373 64.052251 0
M  V30 3 F 38.194045 23.626026 55.747211 0
M  V30 4 C 38.460551 29.703036 55.079784 0 CFG=1
M  V30 5 C 37.995824 36.292840 61.728346 0 CFG=2
M  V30 6 C 38.912762 34.367611 60.502532 0 CFG=1
M  V30 7 C 40.173787 30.911475 52.728397 0
M  V30 8 C 38.278388 31.940198 60.868181 0
M  V30 9 C 38.769175 31.206181 54.768306 0
M  V30 10 N 39.930755 35.977156 63.332090 0
M  V30 11 C 37.611805 24.867989 57.587957 0
M  V30 12 C 37.510236 32.066911 54.893808 0
M  V30 13 C 37.679786 34.851279 61.276604 0
M  V30 14 C 40.098752 35.171915 61.060623 0
M  V30 15 O 37.784043 38.568425 61.048800 0
M  V30 16 N 38.742146 28.457648 59.310879 0 CFG=2 CHG=1
M  V30 17 C 39.185099 32.873306 60.530553 0
M  V30 18 F 39.505463 23.582875 57.453313 0
M  V30 19 C 38.681102 26.393561 55.269732 0 CFG=1
M  V30 20 N 38.803176 27.931815 57.916986 0
M  V30 21 C 36.698530 25.727286 56.726308 0
M  V30 22 C 38.440833 29.906931 59.439438 0
M  V30 23 O 39.048873 31.444042 53.392581 0
M  V30 24 C 39.848216 31.827040 55.666793 0
M  V30 25 C 40.057152 28.533936 61.445710 0
M  V30 26 C 39.583011 25.471409 56.088866 0
M  V30 27 C 38.558257 30.450363 60.878909 0 CFG=1
M  V30 28 C 39.535918 36.281764 61.962978 0 CFG=1
M  V30 29 C 39.703271 28.792017 55.099219 0
M  V30 30 O 37.304532 36.995045 59.544977 0 CHG=-1
M  V30 31 C 37.631264 28.116272 57.057316 0 CFG=1
M  V30 32 C 39.888611 30.053944 61.540131 0
M  V30 33 O 37.251592 36.624072 62.883902 0
M  V30 34 C 37.606325 29.506820 56.349738 0
M  V30 35 C 37.467424 26.904342 56.061218 0 CFG=1
M  V30 36 C 39.404582 27.437086 54.411750 0
M  V30 37 C 38.738163 24.364098 56.716806 0
M  V30 38 C 37.664413 37.376750 60.680246 0
M  V30 39 H 40.848548 28.568725 59.437528 0
M  V30 40 H 40.167808 27.031800 59.887824 0
M  V30 41 H 40.770838 37.399693 64.288216 0
M  V30 42 H 37.824781 29.385684 54.252483 0
M  V30 43 H 38.758503 34.615876 59.453546 0
M  V30 44 H 40.230190 31.341856 51.728738 0
M  V30 45 H 41.067407 31.211409 53.258688 0
M  V30 46 H 40.125156 29.830616 52.604895 0
M  V30 47 H 37.279719 32.240728 61.147145 0
M  V30 48 H 39.246432 35.411719 63.816326 0
M  V30 49 H 37.067242 24.020191 57.998043 0
M  V30 50 H 38.002076 25.424622 58.436997 0
M  V30 51 H 37.280498 32.257367 55.937727 0
M  V30 52 H 37.638033 33.047370 54.432986 0
M  V30 53 H 36.649331 31.599526 54.418148 0
M  V30 54 H 36.757646 34.765266 60.699160 0
M  V30 55 H 37.560655 34.226552 62.154864 0
M  V30 56 H 40.667457 35.621579 60.253448 0
M  V30 57 H 40.803579 34.529377 61.593358 0
M  V30 58 H 40.180287 32.568291 60.253589 0
M  V30 59 H 38.258921 25.723965 54.516451 0
M  V30 60 H 38.907340 26.947980 58.119668 0
M  V30 61 H 36.254805 25.108861 55.945837 0
M  V30 62 H 35.872682 26.021419 57.361770 0
M  V30 63 H 37.421314 30.091800 59.101659 0
M  V30 64 H 39.125232 30.460583 58.795015 0
M  V30 65 H 39.668652 31.612280 56.716591 0
M  V30 66 H 40.832262 31.459443 55.411504 0
M  V30 67 H 39.866331 32.909900 55.565728 0
M  V30 68 H 41.001956 28.232051 61.899135 0
M  V30 69 H 39.270948 28.025244 62.006188 0
M  V30 70 H 40.288617 24.999805 55.420345 0
M  V30 71 H 40.168473 26.006704 56.834385 0
M  V30 72 H 37.776096 30.021629 61.492080 0
M  V30 73 H 40.001963 37.226893 61.676076 0
M  V30 74 H 40.506422 29.343072 54.653711 0
M  V30 75 H 40.144125 28.661309 56.079292 0
M  V30 76 H 36.774225 28.103563 57.732684 0
M  V30 77 H 40.730976 30.543208 61.051606 0
M  V30 78 H 39.901148 30.367486 62.585695 0
M  V30 79 H 37.442103 37.537699 63.046359 0
M  V30 80 H 36.576711 29.722943 56.071752 0
M  V30 81 H 37.841356 30.306331 57.036006 0
M  V30 82 H 36.893471 27.221439 55.187288 0
M  V30 83 H 38.822561 27.615624 53.506536 0
M  V30 84 H 40.278720 26.932390 54.035288 0
M  V30 85 H 38.001333 27.945874 59.767988 0
M  V30 END ATOM
M  V30 BEGIN BOND
M  V30 1 1 9 4
M  V30 2 1 10 2
M  V30 3 1 12 9
M  V30 4 1 13 5
M  V30 5 1 13 6
M  V30 6 1 14 6
M  V30 7 1 16 1
M  V30 8 1 17 6
M  V30 9 2 17 8
M  V30 10 1 20 16
M  V30 11 1 21 11
M  V30 12 1 22 16
M  V30 13 1 23 7
M  V30 14 1 23 9
M  V30 15 1 24 9
M  V30 16 1 25 1
M  V30 17 1 26 19
M  V30 18 1 27 8
M  V30 19 1 27 22
M  V30 20 1 28 5
M  V30 21 1 28 10
M  V30 22 1 28 14
M  V30 23 1 29 4
M  V30 24 1 31 20
M  V30 25 1 32 25
M  V30 26 1 32 27
M  V30 27 1 5 33 CFG=1
M  V30 28 1 34 4
M  V30 29 1 34 31
M  V30 30 1 35 19
M  V30 31 1 35 21
M  V30 32 1 35 31
M  V30 33 1 36 19
M  V30 34 1 36 29
M  V30 35 1 37 3
M  V30 36 1 37 11
M  V30 37 1 37 18
M  V30 38 1 37 26
M  V30 39 1 38 5
M  V30 40 2 38 15
M  V30 41 1 38 30
M  V30 42 1 39 1
M  V30 43 1 40 1
M  V30 44 1 41 2
M  V30 45 1 4 42 CFG=3
M  V30 46 1 6 43 CFG=3
M  V30 47 1 44 7
M  V30 48 1 45 7
M  V30 49 1 46 7
M  V30 50 1 47 8
M  V30 51 1 48 10
M  V30 52 1 49 11
M  V30 53 1 50 11
M  V30 54 1 51 12
M  V30 55 1 52 12
M  V30 56 1 53 12
M  V30 57 1 54 13
M  V30 58 1 55 13
M  V30 59 1 56 14
M  V30 60 1 57 14
M  V30 61 1 58 17
M  V30 62 1 19 59 CFG=3
M  V30 63 1 60 20
M  V30 64 1 61 21
M  V30 65 1 62 21
M  V30 66 1 63 22
M  V30 67 1 64 22
M  V30 68 1 65 24
M  V30 69 1 66 24
M  V30 70 1 67 24
M  V30 71 1 68 25
M  V30 72 1 69 25
M  V30 73 1 70 26
M  V30 74 1 71 26
M  V30 75 1 27 72 CFG=1
M  V30 76 1 28 73 CFG=3
M  V30 77 1 74 29
M  V30 78 1 75 29
M  V30 79 1 31 76 CFG=1
M  V30 80 1 77 32
M  V30 81 1 78 32
M  V30 82 1 79 33
M  V30 83 1 80 34
M  V30 84 1 81 34
M  V30 85 1 35 82 CFG=3
M  V30 86 1 83 36
M  V30 87 1 84 36
M  V30 88 1 16 85 CFG=1
M  V30 END BOND
M  V30 END CTAB
M  END
>  <i_epik_Tot_Q>  (1) 
0

>  <i_epik_Tot_abs_Q>  (1) 
2

>  <i_i_glide_confnum>  (1) 
250

>  <i_i_glide_lignum>  (1) 
244

>  <i_i_glide_posenum>  (1) 
341

>  <i_i_glide_rotatable_bonds>  (1) 
10

>  <i_lp_mmshare_version>  (1) 
72125

>  <i_m_source_file_index>  (1) 
91

>  <i_f3d_flags>  (1) 
0

>  <num_sample>  (1) 
100

>  <b_lp_Chiralities_Consistent>  (1) 
1

>  <r_epik_Charging_Adjusted_Penalty>  (1) 
1.5083745474312953

>  <r_epik_Ionization_Penalty>  (1) 
0.65750586125956467

>  <r_epik_Ionization_Penalty_Charging>  (1) 
0.6544614066189578

>  <r_epik_Ionization_Penalty_Neutral>  (1) 
0.0030444546406068235

>  <r_epik_State_Penalty>  (1) 
0.8539131408123376

>  <r_glide_ring_energy>  (1) 
0.35261698705859396

>  <r_i_docking_score>  (1) 
-6.4185179939062778

>  <r_i_glide_ecoul>  (1) 
-4.3992151192339559

>  <r_i_glide_eff_state_penalty>  (1) 
0.8539131408123376

>  <r_i_glide_einternal>  (1) 
29.017842638662696

>  <r_i_glide_emodel>  (1) 
-95.683951804752155

>  <r_i_glide_emodel_strain>  (1) 
2.5329725121048483

>  <r_i_glide_energy>  (1) 
-24.923792747580137

>  <r_i_glide_erotb>  (1) 
0.42002339013477186

>  <r_i_glide_esite>  (1) 
-0.054460510966472545

>  <r_i_glide_evdw>  (1) 
-20.524577628346183

>  <r_i_glide_gscore>  (1) 
-7.272431134718615

>  <r_i_glide_gscore_strain>  (1) 
0

>  <r_i_glide_hbond>  (1) 
-0.32000000000000001

>  <r_i_glide_ligand_efficiency>  (1) 
-0.16890836826069153

>  <r_i_glide_ligand_efficiency_ln>  (1) 
-1.3840212931558702

>  <r_i_glide_ligand_efficiency_sa>  (1) 
-0.56786578009498756

>  <r_i_glide_lipo>  (1) 
-4.5681219815676517

>  <r_i_glide_metal>  (1) 
-0

>  <r_i_glide_rewards>  (1) 
-1.0637608830168603

>  <r_lp_Energy>  (1) 
53.976785999999997

>  <s_epik_Chemistry_Notes>  (1) 
This compound has a N-S or N-O group and may undergo hydrolysis at high or low pH.

>  <s_epik_cmdline>  (1) 
J2VwaWtfcHl0aG9uJywgJy1waHQnLCAnMS4wJywgJy1waCcsICc3LjQnLCAnLXRuJywgJzgnLCAnLW1hJywgJzUwMCcsICctaW1hZScsICc8aW5maWxlLm1hZT4nLCAnLW9tYWUnLCAnPG91dGZpbGUubWFlPic=

>  <s_epik_input>  (1) 
RkMoRikoW0NIMl0xKVtDSDJdW0NIMl1bQ0BIXShbQ0BASF0xMilbQ0BIXShbQ0gyXVtDQEhdKFtDSDJdW0NIMl0yKUMoW0NIM10pKFtDSDNdKU9bQ0gzXSlbTkhdTjNbQ0gyXVtDSDJdW0NIMl1bQ0BIXShbQ0gyXTMpL1tDSF09W0NIXS9bQ0BASF0oW0NIMl1bQ0BdNChbT0hdKUMoPU8pW09IXSlbQ0gyXVtDQEBIXTRbTkhdW09IXQ==

>  <s_glide_docking_method>  (1) 
confgen

>  <s_i_glide_gridfile>  (1) 
gpcr_5ht2c_6bqh_protein_autoprepared_prepared

>  <s_lp_Force_Field>  (1) 
S-OPLS

>  <s_lp_Variant>  (1) 
DiffSBDD_90_num_sample_100-16

>  <s_m_source_file>  (1) 
generated__ligand_DiffSBDD_2026-05-06_prepared.sdf

>  <GenAI_Model>  (1) 
DiffSBDD

>  <Protein>  (1) 
GPCR_5HT2C

$$$$
DiffSBDD_42_num_sample_100
     RDKit          3D

  0  0  0  0  0  0  0  0  0  0999 V3000
M  V30 BEGIN CTAB
M  V30 COUNTS 69 73 0 0 1
M  V30 BEGIN ATOM
M  V30 1 O 38.641127 28.246262 52.744902 0
M  V30 2 C 40.587916 30.817570 50.953879 0
M  V30 3 C 36.675647 34.544235 61.096348 0
M  V30 4 C 39.806949 27.099923 59.303592 0
M  V30 5 O 37.439073 31.619460 61.847373 0
M  V30 6 C 39.867620 29.627714 51.497643 0
M  V30 7 C 37.244297 30.137498 59.812621 0
M  V30 8 C 40.930776 30.335292 61.179490 0
M  V30 9 C 38.787345 30.492544 53.737955 0
M  V30 10 C 40.013183 28.370541 58.529872 0 CFG=2
M  V30 11 C 39.109751 27.654685 51.609985 0
M  V30 12 C 39.136801 29.519924 52.650276 0
M  V30 13 O 39.346980 29.598785 58.816673 0
M  V30 14 C 37.301798 36.317096 62.582655 0
M  V30 15 C 38.680422 29.694192 60.080237 0 CFG=1
M  V30 16 C 38.235660 37.120597 63.101654 0
M  V30 17 C 39.834650 29.659206 55.735624 0
M  V30 18 Cl 39.424242 34.116108 59.853306 0
M  V30 19 C 35.837544 33.601121 60.745421 0
M  V30 20 O 36.578147 29.621401 58.919134 0
M  V30 21 N 38.573801 29.852050 55.026117 0
M  V30 22 C 38.992252 35.266475 61.076695 0
M  V30 23 C 39.421998 30.545073 61.098586 0
M  V30 24 C 41.591782 31.069292 62.380432 0
M  V30 25 C 37.606948 35.344809 61.554364 0
M  V30 26 P 39.887090 28.118935 56.748128 0 CFG=2
M  V30 27 C 39.687925 37.117149 62.662619 0
M  V30 28 C 39.495292 32.271229 62.945225 0
M  V30 29 C 39.943519 36.075888 61.582016 0
M  V30 30 O 39.865621 26.766681 56.120212 0
M  V30 31 C 36.650013 31.226429 60.707272 0 CFG=2
M  V30 32 C 40.978948 32.443082 62.634782 0
M  V30 33 C 38.796551 31.418915 61.902757 0
M  V30 34 C 36.252936 32.451616 59.861645 0
M  V30 35 C 37.661434 30.650981 55.832298 0
M  V30 36 N 39.865661 28.420240 50.821952 0
M  V30 37 O 41.177305 28.421386 57.695858 0
M  V30 38 H 40.665737 31.607880 51.699479 0
M  V30 39 H 40.067152 31.226474 50.088355 0
M  V30 40 H 41.599144 30.556781 50.640738 0
M  V30 41 H 40.266984 27.221415 60.285002 0
M  V30 42 H 40.266995 26.261599 58.779120 0
M  V30 43 H 38.743349 26.883834 59.412148 0
M  V30 44 H 41.359534 30.703628 60.253819 0
M  V30 45 H 41.143899 29.267132 61.233013 0
M  V30 46 H 39.544390 31.273501 53.824444 0
M  V30 47 H 37.870054 31.002012 53.453763 0
M  V30 48 H 38.885342 26.620614 51.397337 0
M  V30 49 H 36.290154 36.383884 62.957638 0
M  V30 50 H 38.583712 28.722366 60.555043 0
M  V30 51 H 37.964140 37.809314 63.878646 0
M  V30 52 H 40.046431 30.516837 56.372769 0
M  V30 53 H 40.666600 29.589232 55.037721 0
M  V30 54 H 34.812753 33.606315 61.087469 0
M  V30 55 H 41.482776 30.460427 63.279802 0
M  V30 56 H 42.662771 31.221619 62.253990 0
M  V30 57 H 39.938040 38.105194 62.279165 0
M  V30 58 H 40.328559 36.913036 63.520356 0
M  V30 59 H 39.003964 33.234614 63.054120 0
M  V30 60 H 39.467472 31.742751 63.894187 0
M  V30 61 H 40.957392 35.999801 61.217058 0
M  V30 62 H 35.729355 30.819222 61.123440 0
M  V30 63 H 41.132505 33.091090 61.773097 0
M  V30 64 H 41.477961 32.921288 63.479246 0
M  V30 65 H 35.425902 32.207695 59.193314 0
M  V30 66 H 37.081340 32.755767 59.220527 0
M  V30 67 H 37.502562 30.175672 56.793694 0
M  V30 68 H 36.687158 30.728164 55.346604 0
M  V30 69 H 38.038620 31.658446 56.012425 0
M  V30 END ATOM
M  V30 BEGIN BOND
M  V30 1 1 6 2
M  V30 2 1 10 4
M  V30 3 1 11 1
M  V30 4 1 12 1
M  V30 5 2 12 6
M  V30 6 1 12 9
M  V30 7 1 10 13 CFG=1
M  V30 8 1 15 7
M  V30 9 1 15 13
M  V30 10 2 16 14
M  V30 11 2 19 3
M  V30 12 2 20 7
M  V30 13 1 21 9
M  V30 14 1 21 17
M  V30 15 1 22 18
M  V30 16 1 23 8
M  V30 17 1 23 15
M  V30 18 1 24 8
M  V30 19 2 25 3
M  V30 20 1 25 14
M  V30 21 1 25 22
M  V30 22 1 26 10
M  V30 23 1 26 17 CFG=1
M  V30 24 1 27 16
M  V30 25 2 29 22
M  V30 26 1 29 27
M  V30 27 2 30 26
M  V30 28 1 31 5
M  V30 29 1 31 7
M  V30 30 1 32 24
M  V30 31 1 32 28
M  V30 32 1 33 5
M  V30 33 2 33 23
M  V30 34 1 33 28
M  V30 35 1 34 19
M  V30 36 1 34 31
M  V30 37 1 35 21
M  V30 38 1 36 6
M  V30 39 2 36 11
M  V30 40 1 37 10
M  V30 41 1 37 26
M  V30 42 1 38 2
M  V30 43 1 39 2
M  V30 44 1 40 2
M  V30 45 1 41 4
M  V30 46 1 42 4
M  V30 47 1 43 4
M  V30 48 1 44 8
M  V30 49 1 45 8
M  V30 50 1 46 9
M  V30 51 1 47 9
M  V30 52 1 48 11
M  V30 53 1 49 14
M  V30 54 1 15 50 CFG=1
M  V30 55 1 51 16
M  V30 56 1 52 17
M  V30 57 1 53 17
M  V30 58 1 54 19
M  V30 59 1 55 24
M  V30 60 1 56 24
M  V30 61 1 57 27
M  V30 62 1 58 27
M  V30 63 1 59 28
M  V30 64 1 60 28
M  V30 65 1 61 29
M  V30 66 1 31 62 CFG=1
M  V30 67 1 63 32
M  V30 68 1 64 32
M  V30 69 1 65 34
M  V30 70 1 66 34
M  V30 71 1 67 35
M  V30 72 1 68 35
M  V30 73 1 69 35
M  V30 END BOND
M  V30 END CTAB
M  END
>  <i_epik_Tot_Q>  (1) 
0

>  <i_epik_Tot_abs_Q>  (1) 
0

>  <i_i_glide_confnum>  (1) 
1082

>  <i_i_glide_lignum>  (1) 
106

>  <i_i_glide_posenum>  (1) 
92

>  <i_i_glide_rotatable_bonds>  (1) 
8

>  <i_lp_mmshare_version>  (1) 
72125

>  <i_m_source_file_index>  (1) 
43

>  <i_f3d_flags>  (1) 
0

>  <num_sample>  (1) 
100

>  <b_lp_Chiralities_Consistent>  (1) 
1

>  <r_epik_Charging_Adjusted_Penalty>  (1) 
1.0635715053523389

>  <r_epik_Ionization_Penalty>  (1) 
1.0635723392520104

>  <r_epik_Ionization_Penalty_Charging>  (1) 
0

>  <r_epik_Ionization_Penalty_Neutral>  (1) 
1.0635723392520104

>  <r_epik_State_Penalty>  (1) 
1.0635715053523389

>  <r_glide_ring_energy>  (1) 
0

>  <r_i_docking_score>  (1) 
-6.4101750729246803

>  <r_i_glide_ecoul>  (1) 
-1.7840690684340581

>  <r_i_glide_eff_state_penalty>  (1) 
1.0635715053523389

>  <r_i_glide_einternal>  (1) 
10.236349655090535

>  <r_i_glide_emodel>  (1) 
-60.562781312813669

>  <r_i_glide_emodel_strain>  (1) 
2.2862125094730388

>  <r_i_glide_energy>  (1) 
-48.274649723425895

>  <r_i_glide_erotb>  (1) 
0.55382833966271061

>  <r_i_glide_esite>  (1) 
-0.018644274699948421

>  <r_i_glide_evdw>  (1) 
-46.490580654991838

>  <r_i_glide_gscore>  (1) 
-7.4737465782770194

>  <r_i_glide_gscore_strain>  (1) 
0

>  <r_i_glide_hbond>  (1) 
-0.32000000000000001

>  <r_i_glide_ligand_efficiency>  (1) 
-0.17324797494391028

>  <r_i_glide_ligand_efficiency_ln>  (1) 
-1.3902166974923733

>  <r_i_glide_ligand_efficiency_sa>  (1) 
-0.57730068786150845

>  <r_i_glide_lipo>  (1) 
-4.1637776112462683

>  <r_i_glide_metal>  (1) 
-0

>  <r_i_glide_rewards>  (1) 
-0.93301363897881329

>  <r_lp_Energy>  (1) 
8.4432150000000004

>  <r_lp_tautomer_probability>  (1) 
0.99995000000000001

>  <s_epik_cmdline>  (1) 
J2VwaWtfcHl0aG9uJywgJy1waHQnLCAnMS4wJywgJy1waCcsICc3LjQnLCAnLXRuJywgJzgnLCAnLW1hJywgJzUwMCcsICctaW1hZScsICc8aW5maWxlLm1hZT4nLCAnLW9tYWUnLCAnPG91dGZpbGUubWFlPic=

>  <s_epik_input>  (1) 
bjFbY0hdb2MoYzFbQ0gzXSlbQ0gyXU4oW0NIM10pW0NIMl1bUEBAXSg9TykoTzIpW0NAXTIoW0NIM10pT1tDQEBIXTNDKD1PKVtDQEBIXShPQyg9QzM0KVtDSDJdW0NIMl1bQ0gyXVtDSDJdNClbQ0gyXVtDSF09Qz1DNVtDSF09W0NIXVtDSDJdW0NIXT1DNUNs

>  <s_glide_docking_method>  (1) 
confgen

>  <s_i_glide_gridfile>  (1) 
gpcr_5ht2c_6bqh_protein_autoprepared_prepared

>  <s_lp_Force_Field>  (1) 
S-OPLS

>  <s_lp_Variant>  (1) 
DiffSBDD_42_num_sample_100-3

>  <s_m_source_file>  (1) 
generated__ligand_DiffSBDD_2026-05-06_prepared.sdf

>  <GenAI_Model>  (1) 
DiffSBDD

>  <Protein>  (1) 
GPCR_5HT2C

$$$$
DiffSBDD_44_num_sample_100
     RDKit          3D

  0  0  0  0  0  0  0  0  0  0999 V3000
M  V30 BEGIN CTAB
M  V30 COUNTS 58 59 0 0 1
M  V30 BEGIN ATOM
M  V30 1 C 37.313485 34.112124 57.926301 0
M  V30 2 O 36.883302 31.221488 61.453466 0 CHG=-1
M  V30 3 C 38.761208 28.765886 55.646960 0
M  V30 4 C 36.285964 33.592873 60.050118 0 CFG=1
M  V30 5 N 37.195336 32.494905 59.618666 0 CFG=1 CHG=1
M  V30 6 C 37.772717 26.539326 55.289193 0
M  V30 7 N 38.711839 28.513322 58.555129 0
M  V30 8 C 38.267648 27.675464 56.178991 0
M  V30 9 O 38.790289 26.208706 58.049866 0
M  V30 10 C 36.496874 34.749019 59.053460 0 CFG=1
M  V30 11 C 37.195187 35.962766 59.689235 0
M  V30 12 C 38.644049 30.453711 60.088449 0 CFG=1
M  V30 13 C 38.018329 29.463875 59.054628 0
M  V30 14 C 38.127437 33.045360 58.614458 0
M  V30 15 C 40.200544 26.138864 57.852681 0
M  V30 16 C 38.940275 29.058580 53.198337 0
M  V30 17 C 37.842512 31.667970 60.676391 0 CFG=2
M  V30 18 C 38.185123 27.450461 57.695036 0 CFG=1
M  V30 19 F 39.757651 26.821441 53.183176 0
M  V30 20 C 38.651508 27.540410 52.993360 0 CFG=1
M  V30 21 C 39.115582 29.518412 54.639679 0
M  V30 22 C 39.372983 29.696871 61.223154 0
M  V30 23 C 36.548169 29.706719 58.664397 0
M  V30 24 C 34.824817 33.117449 60.028492 0
M  V30 25 C 37.479220 26.931852 53.810947 0
M  V30 26 H 37.867412 34.821394 57.328799 0
M  V30 27 H 36.667390 33.621441 57.213627 0
M  V30 28 H 36.543754 33.916853 61.060128 0
M  V30 29 H 38.508650 25.735128 55.319363 0
M  V30 30 H 36.861777 26.128966 55.726121 0
M  V30 31 H 35.542903 35.096450 58.653456 0
M  V30 32 H 38.159404 35.692728 60.120519 0
M  V30 33 H 37.365509 36.746667 58.950371 0
M  V30 34 H 36.586258 36.392880 60.484218 0
M  V30 35 H 39.461725 30.904921 59.529602 0
M  V30 36 H 39.000936 33.488493 59.095457 0
M  V30 37 H 38.466373 32.285766 57.909452 0
M  V30 38 H 40.558650 25.169620 58.188208 0
M  V30 39 H 40.473573 26.246420 56.802539 0
M  V30 40 H 40.737564 26.892705 58.429358 0
M  V30 41 H 38.113273 29.621435 52.774429 0
M  V30 42 H 39.829911 29.339720 52.633972 0
M  V30 43 H 38.600791 32.325267 61.106363 0
M  V30 44 H 37.125743 27.283207 57.872880 0
M  V30 45 H 38.421075 27.403471 51.935341 0
M  V30 46 H 39.545883 30.497196 54.792481 0
M  V30 47 H 40.047195 28.927055 60.846936 0
M  V30 48 H 39.971080 30.380764 61.825501 0
M  V30 49 H 38.667490 29.220081 61.900835 0
M  V30 50 H 36.004107 30.412121 59.275624 0
M  V30 51 H 36.493800 30.021418 57.623274 0
M  V30 52 H 35.940004 28.821267 58.753988 0
M  V30 53 H 34.139693 33.932212 60.253546 0
M  V30 54 H 34.547204 32.716298 59.053785 0
M  V30 55 H 34.667402 32.335042 60.767424 0
M  V30 56 H 37.139336 26.030501 53.300910 0
M  V30 57 H 36.634446 27.619769 53.774605 0
M  V30 58 H 36.590140 31.866861 59.108813 0
M  V30 END ATOM
M  V30 BEGIN BOND
M  V30 1 1 5 4
M  V30 2 2 8 3
M  V30 3 1 8 6
M  V30 4 1 10 1
M  V30 5 1 10 4
M  V30 6 1 11 10
M  V30 7 2 13 7
M  V30 8 1 13 12
M  V30 9 1 14 1
M  V30 10 1 14 5
M  V30 11 1 15 9
M  V30 12 1 17 2
M  V30 13 1 17 5
M  V30 14 1 17 12
M  V30 15 1 18 7
M  V30 16 1 18 8
M  V30 17 1 18 9
M  V30 18 1 20 16
M  V30 19 1 20 19
M  V30 20 2 21 3
M  V30 21 1 21 16
M  V30 22 1 22 12
M  V30 23 1 23 13
M  V30 24 1 24 4
M  V30 25 1 25 6
M  V30 26 1 25 20
M  V30 27 1 26 1
M  V30 28 1 27 1
M  V30 29 1 4 28 CFG=1
M  V30 30 1 29 6
M  V30 31 1 30 6
M  V30 32 1 10 31 CFG=3
M  V30 33 1 32 11
M  V30 34 1 33 11
M  V30 35 1 34 11
M  V30 36 1 12 35 CFG=3
M  V30 37 1 36 14
M  V30 38 1 37 14
M  V30 39 1 38 15
M  V30 40 1 39 15
M  V30 41 1 40 15
M  V30 42 1 41 16
M  V30 43 1 42 16
M  V30 44 1 17 43 CFG=1
M  V30 45 1 18 44 CFG=1
M  V30 46 1 20 45 CFG=3
M  V30 47 1 46 21
M  V30 48 1 47 22
M  V30 49 1 48 22
M  V30 50 1 49 22
M  V30 51 1 50 23
M  V30 52 1 51 23
M  V30 53 1 52 23
M  V30 54 1 53 24
M  V30 55 1 54 24
M  V30 56 1 55 24
M  V30 57 1 56 25
M  V30 58 1 57 25
M  V30 59 1 5 58 CFG=3
M  V30 END BOND
M  V30 END CTAB
M  END
>  <i_epik_Tot_Q>  (1) 
0

>  <i_epik_Tot_abs_Q>  (1) 
2

>  <i_i_glide_confnum>  (1) 
17

>  <i_i_glide_lignum>  (1) 
112

>  <i_i_glide_posenum>  (1) 
302

>  <i_i_glide_rotatable_bonds>  (1) 
6

>  <i_lp_mmshare_version>  (1) 
72125

>  <i_m_source_file_index>  (1) 
45

>  <i_f3d_flags>  (1) 
0

>  <num_sample>  (1) 
100

>  <b_lp_Chiralities_Consistent>  (1) 
1

>  <r_epik_Charging_Adjusted_Penalty>  (1) 
0.41733257654759531

>  <r_epik_Ionization_Penalty>  (1) 
0.0069177268181324029

>  <r_epik_Ionization_Penalty_Charging>  (1) 
0.0066527375949913311

>  <r_epik_Ionization_Penalty_Neutral>  (1) 
0.00026498922314107146

>  <r_epik_State_Penalty>  (1) 
0.41067983895260396

>  <r_glide_ring_energy>  (1) 
0

>  <r_i_docking_score>  (1) 
-6.4059772045133796

>  <r_i_glide_ecoul>  (1) 
-7.1710817752559404

>  <r_i_glide_eff_state_penalty>  (1) 
0.41067983895260396

>  <r_i_glide_einternal>  (1) 
3.1579031775873592

>  <r_i_glide_emodel>  (1) 
-52.608998570992199

>  <r_i_glide_emodel_strain>  (1) 
0.49039747608580342

>  <r_i_glide_energy>  (1) 
-39.570706312323146

>  <r_i_glide_erotb>  (1) 
0.61440649929112812

>  <r_i_glide_esite>  (1) 
-0.05773069511715654

>  <r_i_glide_evdw>  (1) 
-32.399624537067204

>  <r_i_glide_gscore>  (1) 
-6.8166570434659839

>  <r_i_glide_gscore_strain>  (1) 
0

>  <r_i_glide_hbond>  (1) 
-0.16

>  <r_i_glide_ligand_efficiency>  (1) 
-0.2562390881805352

>  <r_i_glide_ligand_efficiency_ln>  (1) 
-1.5184085691153293

>  <r_i_glide_ligand_efficiency_sa>  (1) 
-0.74924763906337566

>  <r_i_glide_lipo>  (1) 
-2.08062126377789

>  <r_i_glide_metal>  (1) 
-0

>  <r_i_glide_rewards>  (1) 
-2.4370680907203139

>  <r_lp_Energy>  (1) 
11.823086999999999

>  <r_lp_tautomer_probability>  (1) 
0.49999399997599986

>  <s_epik_Chemistry_Notes>  (1) 
This compound has an imine and may undergo hydrolysis. This compound contains an acetal/aminal-like group ( X-CH(R)-Y where X, Y are N, S, or O) that may be acid/base labile, releasing an aldehyde.

>  <s_epik_cmdline>  (1) 
J2VwaWtfcHl0aG9uJywgJy1waHQnLCAnMS4wJywgJy1waCcsICc3LjQnLCAnLXRuJywgJzgnLCAnLW1hJywgJzUwMCcsICctaW1hZScsICc8aW5maWxlLm1hZT4nLCAnLW9tYWUnLCAnPG91dGZpbGUubWFlPic=

>  <s_epik_input>  (1) 
W0NIM11bQ0BIXTFbQ0gyXVtDSDJdTihbQ0BASF0xW0NIM10pW0NAQEhdKFtPSF0pW0NAQEhdKFtDSDNdKVxDKFtDSDNdKT1OXFtDQEBIXShPW0NIM10pQzI9Qz1bQ0hdW0NIMl1bQ0BASF0oRilbQ0gyXVtDSDJdMg==

>  <s_glide_docking_method>  (1) 
confgen

>  <s_i_glide_gridfile>  (1) 
gpcr_5ht2c_6bqh_protein_autoprepared_prepared

>  <s_lp_Force_Field>  (1) 
S-OPLS

>  <s_lp_Variant>  (1) 
DiffSBDD_44_num_sample_100-5

>  <s_m_source_file>  (1) 
generated__ligand_DiffSBDD_2026-05-06_prepared.sdf

>  <GenAI_Model>  (1) 
DiffSBDD

>  <Protein>  (1) 
GPCR_5HT2C

$$$$
DiffSBDD_1_num_sample_100
     RDKit          3D

  0  0  0  0  0  0  0  0  0  0999 V3000
M  V30 BEGIN CTAB
M  V30 COUNTS 62 65 0 0 1
M  V30 BEGIN ATOM
M  V30 1 C 38.162552 24.943240 55.951097 0
M  V30 2 C 38.069654 33.172498 59.509699 0
M  V30 3 O 36.540677 24.121088 54.657330 0
M  V30 4 C 37.620609 30.886211 58.509439 0 CFG=1
M  V30 5 C 39.422010 25.663983 56.180433 0
M  V30 6 C 38.531312 28.795205 59.524923 0
M  V30 7 C 35.602609 33.021239 61.432178 0
M  V30 8 C 37.981659 35.349577 60.409826 0
M  V30 9 N 36.859268 35.153184 59.455340 0 CHG=1
M  V30 10 C 40.106029 29.120433 56.241934 0
M  V30 11 C 39.864453 25.939986 57.640725 0
M  V30 12 C 35.492158 33.074989 59.889248 0 CFG=2
M  V30 13 C 36.705235 33.711796 59.141895 0 CFG=2
M  V30 14 C 38.975988 28.383138 58.116222 0 CFG=2
M  V30 15 C 41.071006 28.170002 56.951417 0
M  V30 16 C 37.666459 24.822419 54.769666 0
M  V30 17 N 37.386811 29.722229 59.395074 0
M  V30 18 C 38.473134 31.917385 59.227162 0
M  V30 19 O 40.129107 26.047878 55.248768 0
M  V30 20 C 34.196577 33.738900 59.400986 0
M  V30 21 C 36.301192 23.776102 56.063108 0
M  V30 22 C 38.243093 30.491382 57.153065 0
M  V30 23 C 38.942981 34.168445 60.213944 0
M  V30 24 N 39.346375 29.573288 57.367878 0
M  V30 25 O 37.823508 27.827700 57.508265 0
M  V30 26 C 37.437213 24.329200 57.058880 0
M  V30 27 C 40.191989 27.429186 57.987742 0 CFG=2
M  V30 28 O 36.637955 32.140592 61.853279 0
M  V30 29 H 36.667954 31.317523 58.254099 0
M  V30 30 H 39.358179 29.277870 60.047403 0
M  V30 31 H 38.267130 27.917716 60.114188 0
M  V30 32 H 34.670162 32.644252 61.853005 0
M  V30 33 H 35.746844 34.012737 61.859261 0
M  V30 34 H 37.583314 35.335317 61.425531 0
M  V30 35 H 38.468285 36.316473 60.271512 0
M  V30 36 H 37.087227 35.612826 58.582416 0
M  V30 37 H 39.470484 28.593651 55.527135 0
M  V30 38 H 40.593793 29.936028 55.711649 0
M  V30 39 H 40.736487 25.323926 57.833860 0
M  V30 40 H 39.119467 25.591735 58.351504 0
M  V30 41 H 35.375671 32.035942 59.592764 0
M  V30 42 H 36.567060 33.622593 58.062831 0
M  V30 43 H 41.586911 27.522014 56.264638 0
M  V30 44 H 41.833190 28.740302 57.482823 0
M  V30 45 H 38.043942 25.216767 53.853190 0
M  V30 46 H 37.061677 30.036161 60.304590 0
M  V30 47 H 39.463647 31.599510 59.518334 0
M  V30 48 H 34.265281 34.820165 59.457327 0
M  V30 49 H 34.013009 33.517244 58.350618 0
M  V30 50 H 33.320955 33.409966 59.961545 0
M  V30 51 H 35.372150 24.290711 56.253321 0
M  V30 52 H 36.150110 22.702637 56.181921 0
M  V30 53 H 37.486178 30.044341 56.507960 0
M  V30 54 H 38.587246 31.382203 56.624123 0
M  V30 55 H 39.338098 33.796441 61.160381 0
M  V30 56 H 39.778886 34.422721 59.562977 0
M  V30 57 H 37.093753 28.276636 57.918119 0
M  V30 58 H 38.009687 23.550684 57.559765 0
M  V30 59 H 37.043351 25.055984 57.769659 0
M  V30 60 H 40.737511 27.428397 58.932339 0
M  V30 61 H 37.456258 32.432729 61.479452 0
M  V30 62 H 35.989776 35.538871 59.797725 0
M  V30 END ATOM
M  V30 BEGIN BOND
M  V30 1 1 5 1
M  V30 2 1 9 8
M  V30 3 1 11 5
M  V30 4 1 12 7
M  V30 5 1 13 2
M  V30 6 1 13 9
M  V30 7 1 13 12
M  V30 8 1 14 6
M  V30 9 1 15 10
M  V30 10 2 16 1
M  V30 11 1 16 3
M  V30 12 1 17 4
M  V30 13 1 17 6
M  V30 14 2 18 2
M  V30 15 1 18 4
M  V30 16 2 19 5
M  V30 17 1 20 12
M  V30 18 1 21 3
M  V30 19 1 22 4
M  V30 20 1 23 2
M  V30 21 1 23 8
M  V30 22 1 24 10
M  V30 23 1 24 14
M  V30 24 1 24 22
M  V30 25 1 14 25 CFG=3
M  V30 26 1 26 1
M  V30 27 1 26 21
M  V30 28 1 27 11
M  V30 29 1 27 14
M  V30 30 1 27 15
M  V30 31 1 28 7
M  V30 32 1 4 29 CFG=3
M  V30 33 1 30 6
M  V30 34 1 31 6
M  V30 35 1 32 7
M  V30 36 1 33 7
M  V30 37 1 34 8
M  V30 38 1 35 8
M  V30 39 1 36 9
M  V30 40 1 37 10
M  V30 41 1 38 10
M  V30 42 1 39 11
M  V30 43 1 40 11
M  V30 44 1 12 41 CFG=3
M  V30 45 1 13 42 CFG=3
M  V30 46 1 43 15
M  V30 47 1 44 15
M  V30 48 1 45 16
M  V30 49 1 46 17
M  V30 50 1 47 18
M  V30 51 1 48 20
M  V30 52 1 49 20
M  V30 53 1 50 20
M  V30 54 1 51 21
M  V30 55 1 52 21
M  V30 56 1 53 22
M  V30 57 1 54 22
M  V30 58 1 55 23
M  V30 59 1 56 23
M  V30 60 1 57 25
M  V30 61 1 58 26
M  V30 62 1 59 26
M  V30 63 1 27 60 CFG=1
M  V30 64 1 61 28
M  V30 65 1 62 9
M  V30 END BOND
M  V30 END CTAB
M  END
>  <i_epik_Tot_Q>  (1) 
1

>  <i_epik_Tot_abs_Q>  (1) 
1

>  <i_i_glide_confnum>  (1) 
137

>  <i_i_glide_lignum>  (1) 
10

>  <i_i_glide_posenum>  (1) 
158

>  <i_i_glide_rotatable_bonds>  (1) 
8

>  <i_lp_mmshare_version>  (1) 
72125

>  <i_m_source_file_index>  (1) 
2

>  <i_f3d_flags>  (1) 
0

>  <num_sample>  (1) 
100

>  <b_lp_Chiralities_Consistent>  (1) 
1

>  <r_epik_Charging_Adjusted_Penalty>  (1) 
0.089223518210420474

>  <r_epik_Ionization_Penalty>  (1) 
0.15303808439063821

>  <r_epik_Ionization_Penalty_Charging>  (1) 
0.0017986555257548985

>  <r_epik_Ionization_Penalty_Neutral>  (1) 
0.15123942886488331

>  <r_epik_State_Penalty>  (1) 
0.08742486268466558

>  <r_glide_ring_energy>  (1) 
0

>  <r_i_docking_score>  (1) 
-6.4002305802969941

>  <r_i_glide_ecoul>  (1) 
-5.442332209308816

>  <r_i_glide_eff_state_penalty>  (1) 
0.08742486268466558

>  <r_i_glide_einternal>  (1) 
9.316023156340929

>  <r_i_glide_emodel>  (1) 
-39.524504844441644

>  <r_i_glide_emodel_strain>  (1) 
3.9874544496223763

>  <r_i_glide_energy>  (1) 
-35.032308160471189

>  <r_i_glide_erotb>  (1) 
0.76037187950223806

>  <r_i_glide_esite>  (1) 
0

>  <r_i_glide_evdw>  (1) 
-29.589975951162376

>  <r_i_glide_gscore>  (1) 
-6.4876554429816595

>  <r_i_glide_gscore_strain>  (1) 
0

>  <r_i_glide_hbond>  (1) 
-0.32000000000000001

>  <r_i_glide_ligand_efficiency>  (1) 
-0.22857966358203549

>  <r_i_glide_ligand_efficiency_ln>  (1) 
-1.4773611368679718

>  <r_i_glide_ligand_efficiency_sa>  (1) 
-0.69410248562825816

>  <r_i_glide_lipo>  (1) 
-2.6962868492846015

>  <r_i_glide_metal>  (1) 
-0

>  <r_i_glide_rewards>  (1) 
-1.9358918442448549

>  <r_lp_Energy>  (1) 
14.952356

>  <s_epik_cmdline>  (1) 
J2VwaWtfcHl0aG9uJywgJy1waHQnLCAnMS4wJywgJy1waCcsICc3LjQnLCAnLXRuJywgJzgnLCAnLW1hJywgJzUwMCcsICctaW1hZScsICc8aW5maWxlLm1hZT4nLCAnLW9tYWUnLCAnPG91dGZpbGUubWFlPic=

>  <s_epik_input>  (1) 
W0NIMl0xW0NIMl1PW0NIXT1DMUMoPU8pW0NIMl1bQ0BIXTJbQ0gyXVtDSDJdTihbQ0BAXTIzW09IXSlbQ0gyXVtDQEBIXShbTkhdW0NIMl0zKS9bQ0hdPUM0XFtDQEBIXShbTkhdW0NIMl1bQ0gyXTQpW0NASF0oW0NIM10pW0NIMl1bT0hd

>  <s_glide_docking_method>  (1) 
confgen

>  <s_i_glide_gridfile>  (1) 
gpcr_5ht2c_6bqh_protein_autoprepared_prepared

>  <s_lp_Force_Field>  (1) 
S-OPLS

>  <s_lp_Variant>  (1) 
DiffSBDD_1_num_sample_100-4

>  <s_m_source_file>  (1) 
generated__ligand_DiffSBDD_2026-05-06_prepared.sdf

>  <GenAI_Model>  (1) 
DiffSBDD

>  <Protein>  (1) 
GPCR_5HT2C

$$$$
DiffSBDD_5_num_sample_100
     RDKit          3D

  0  0  0  0  0  0  0  0  0  0999 V3000
M  V30 BEGIN CTAB
M  V30 COUNTS 50 52 0 0 1
M  V30 BEGIN ATOM
M  V30 1 C 35.082370 33.843601 59.243986 0
M  V30 2 O 36.057376 30.895572 59.138869 0
M  V30 3 C 40.603643 33.516212 62.294244 0
M  V30 4 C 39.344337 37.662208 62.074999 0
M  V30 5 C 39.243642 33.820897 61.612359 0 CFG=1
M  V30 6 C 37.901976 39.476222 61.030470 0
M  V30 7 C 37.855004 35.827612 60.686443 0
M  V30 8 C 33.596088 33.572149 59.053507 0
M  V30 9 C 37.896945 31.000070 61.646171 0
M  V30 10 C 38.868559 33.373707 59.139070 0
M  V30 11 N 37.524992 37.128974 60.559853 0
M  V30 12 N 36.633765 31.133814 61.453502 0
M  V30 13 S 40.734329 31.811789 62.871119 0
M  V30 14 C 35.650955 33.084422 60.444058 0
M  V30 15 C 38.923872 35.353955 61.495347 0
M  V30 16 C 39.677972 36.309945 62.209323 0
M  V30 17 C 39.011646 31.364524 60.652982 0 CFG=1
M  V30 18 C 38.667403 31.199637 58.072248 0
M  V30 19 C 35.799194 31.565536 60.356420 0 CFG=1
M  V30 20 C 38.654807 32.532082 57.985614 0
M  V30 21 C 39.032503 32.887389 60.375885 0
M  V30 22 C 40.369157 30.973818 61.311995 0
M  V30 23 C 38.267405 38.021410 61.237144 0
M  V30 24 C 38.926076 30.454594 59.366846 0
M  V30 25 H 35.197474 34.912524 59.415979 0
M  V30 26 H 35.650723 33.621767 58.340613 0
M  V30 27 H 35.819059 31.415516 58.361976 0
M  V30 28 H 41.440518 33.758926 61.639481 0
M  V30 29 H 40.731580 34.069395 63.220064 0
M  V30 30 H 39.907867 38.418334 62.599742 0
M  V30 31 H 38.483184 33.511986 62.325741 0
M  V30 32 H 38.647146 40.145824 61.453495 0
M  V30 33 H 36.923650 39.703016 61.454524 0
M  V30 34 H 37.867404 39.685129 59.962077 0
M  V30 35 H 37.261509 35.156928 60.115040 0
M  V30 36 H 33.155639 34.294270 58.365592 0
M  V30 37 H 33.049113 33.621430 59.992097 0
M  V30 38 H 33.467415 32.572050 58.653511 0
M  V30 39 H 38.266699 30.591987 62.590913 0
M  V30 40 H 38.887307 34.421429 59.009036 0
M  V30 41 H 36.610852 33.460306 60.727102 0
M  V30 42 H 35.040310 33.322000 61.317344 0
M  V30 43 H 40.497030 36.021702 62.842678 0
M  V30 44 H 38.500328 30.600601 57.188751 0
M  V30 45 H 34.796771 31.221438 60.595895 0
M  V30 46 H 38.474260 32.993763 57.025812 0
M  V30 47 H 40.413992 29.899372 61.499636 0
M  V30 48 H 41.200042 31.210201 60.653499 0
M  V30 49 H 39.860377 29.918784 59.199756 0
M  V30 50 H 38.193127 29.656013 59.482002 0
M  V30 END ATOM
M  V30 BEGIN BOND
M  V30 1 1 5 3
M  V30 2 1 8 1
M  V30 3 1 11 7
M  V30 4 2 12 9
M  V30 5 1 13 3
M  V30 6 1 14 1
M  V30 7 1 15 5
M  V30 8 2 15 7
M  V30 9 2 16 4
M  V30 10 1 16 15
M  V30 11 1 17 9 CFG=1
M  V30 12 1 19 2
M  V30 13 1 19 12
M  V30 14 1 19 14
M  V30 15 1 20 10
M  V30 16 2 20 18
M  V30 17 1 21 5
M  V30 18 2 21 10
M  V30 19 1 21 17
M  V30 20 1 22 13
M  V30 21 1 22 17
M  V30 22 1 23 4
M  V30 23 1 23 6
M  V30 24 2 23 11
M  V30 25 1 24 17
M  V30 26 1 24 18
M  V30 27 1 25 1
M  V30 28 1 26 1
M  V30 29 1 27 2
M  V30 30 1 28 3
M  V30 31 1 29 3
M  V30 32 1 30 4
M  V30 33 1 5 31 CFG=1
M  V30 34 1 32 6
M  V30 35 1 33 6
M  V30 36 1 34 6
M  V30 37 1 35 7
M  V30 38 1 36 8
M  V30 39 1 37 8
M  V30 40 1 38 8
M  V30 41 1 39 9
M  V30 42 1 40 10
M  V30 43 1 41 14
M  V30 44 1 42 14
M  V30 45 1 43 16
M  V30 46 1 44 18
M  V30 47 1 19 45 CFG=1
M  V30 48 1 46 20
M  V30 49 1 47 22
M  V30 50 1 48 22
M  V30 51 1 49 24
M  V30 52 1 50 24
M  V30 END BOND
M  V30 END CTAB
M  END
>  <i_epik_Tot_Q>  (1) 
0

>  <i_epik_Tot_abs_Q>  (1) 
0

>  <i_i_glide_confnum>  (1) 
6

>  <i_i_glide_lignum>  (1) 
24

>  <i_i_glide_posenum>  (1) 
338

>  <i_i_glide_rotatable_bonds>  (1) 
6

>  <i_lp_mmshare_version>  (1) 
72125

>  <i_m_source_file_index>  (1) 
6

>  <i_f3d_flags>  (1) 
0

>  <num_sample>  (1) 
100

>  <b_lp_Chiralities_Consistent>  (1) 
1

>  <r_epik_Charging_Adjusted_Penalty>  (1) 
0.0081103479682914613

>  <r_epik_Ionization_Penalty>  (1) 
0.0085425111303935736

>  <r_epik_Ionization_Penalty_Charging>  (1) 
0

>  <r_epik_Ionization_Penalty_Neutral>  (1) 
0.0085425111303935736

>  <r_epik_State_Penalty>  (1) 
0.0081103479682914613

>  <r_glide_ring_energy>  (1) 
0

>  <r_i_docking_score>  (1) 
-6.398386076137581

>  <r_i_glide_ecoul>  (1) 
-9.3064259173140798

>  <r_i_glide_eff_state_penalty>  (1) 
0.0081103479682914613

>  <r_i_glide_einternal>  (1) 
4.936022924778781

>  <r_i_glide_emodel>  (1) 
-29.755394484353431

>  <r_i_glide_emodel_strain>  (1) 
3.6290923322299875

>  <r_i_glide_energy>  (1) 
-28.949563404407883

>  <r_i_glide_erotb>  (1) 
0.64660109196089122

>  <r_i_glide_esite>  (1) 
-0.076401870817828302

>  <r_i_glide_evdw>  (1) 
-19.643137487093803

>  <r_i_glide_gscore>  (1) 
-6.4064964241058728

>  <r_i_glide_gscore_strain>  (1) 
0

>  <r_i_glide_hbond>  (1) 
-0.45599999999999996

>  <r_i_glide_ligand_efficiency>  (1) 
-0.26659941983906588

>  <r_i_glide_ligand_efficiency_ln>  (1) 
-1.5314273908253422

>  <r_i_glide_ligand_efficiency_sa>  (1) 
-0.76900579741419428

>  <r_i_glide_lipo>  (1) 
-2.2147281717699583

>  <r_i_glide_metal>  (1) 
-0

>  <r_i_glide_rewards>  (1) 
-1.9278467115271751

>  <r_lp_Energy>  (1) 
34.052436999999998

>  <s_epik_Chemistry_Notes>  (1) 
This compound has an imine and may undergo hydrolysis. This compound contains an acetal/aminal-like group ( X-CH(R)-Y where X, Y are N, S, or O) that may be acid/base labile, releasing an aldehyde.

>  <s_epik_cmdline>  (1) 
J2VwaWtfcHl0aG9uJywgJy1waHQnLCAnMS4wJywgJy1waCcsICc3LjQnLCAnLXRuJywgJzgnLCAnLW1hJywgJzUwMCcsICctaW1hZScsICc8aW5maWxlLm1hZT4nLCAnLW9tYWUnLCAnPG91dGZpbGUubWFlPic=

>  <s_epik_input>  (1) 
W0NIM11bQ0gyXVtDSDJdW0NAQEhdKFtPSF0pL049W0NIXVxbQ0BAXTEyQyg9W0NIXVtDSF09W0NIXVtDSDJdMilbQ0BASF0oW0NIMl1TW0NIMl0xKWMzW2NIXW5jKFtDSDNdKVtjSF1bY0hdMw==

>  <s_glide_docking_method>  (1) 
confgen

>  <s_i_glide_gridfile>  (1) 
gpcr_5ht2c_6bqh_protein_autoprepared_prepared

>  <s_lp_Force_Field>  (1) 
S-OPLS

>  <s_lp_Variant>  (1) 
DiffSBDD_5_num_sample_100-2

>  <s_m_source_file>  (1) 
generated__ligand_DiffSBDD_2026-05-06_prepared.sdf

>  <GenAI_Model>  (1) 
DiffSBDD

>  <Protein>  (1) 
GPCR_5HT2C

$$$$
DiffSBDD_66_num_sample_100
     RDKit          3D

  0  0  0  0  0  0  0  0  0  0999 V3000
M  V30 BEGIN CTAB
M  V30 COUNTS 112 116 0 0 1
M  V30 BEGIN ATOM
M  V30 1 C 42.108080 27.388040 67.270608 0
M  V30 2 C 39.467819 28.632233 61.827098 0
M  V30 3 C 42.032195 35.640572 65.791474 0
M  V30 4 C 37.597249 32.806083 57.722702 0
M  V30 5 C 38.686229 28.975412 51.171188 0
M  V30 6 C 40.389326 30.364732 49.859426 0
M  V30 7 C 41.885992 34.514206 63.654799 0
M  V30 8 S 37.979814 31.395591 61.569323 0
M  V30 9 C 39.888696 29.784084 62.695340 0 CFG=1
M  V30 10 C 42.235173 28.762436 67.768332 0
M  V30 11 C 44.036285 28.523540 65.324361 0
M  V30 12 C 43.411431 29.641082 65.726350 0
M  V30 13 C 39.049766 26.999743 52.682790 0
M  V30 14 C 41.198811 25.480475 66.734375 0
M  V30 15 C 38.828269 27.944423 58.219345 0 CFG=2
M  V30 16 C 44.247118 27.335671 66.159942 0
M  V30 17 C 43.248069 30.759769 64.754735 0
M  V30 18 O 37.702529 25.815178 54.252052 0
M  V30 19 C 41.511478 32.072305 63.472207 0 CFG=1
M  V30 20 N 41.067137 26.621408 67.468194 0 CHG=1
M  V30 21 C 42.073956 35.669139 64.383384 0
M  V30 22 C 41.682867 33.307478 64.303238 0
M  V30 23 C 38.286608 28.276766 52.463050 0
M  V30 24 C 43.090786 24.661236 65.126131 0
M  V30 25 C 42.820955 29.771062 67.077672 0
M  V30 26 C 37.912801 29.178587 58.185516 0
M  V30 27 C 40.033447 29.724438 51.205312 0 CFG=1
M  V30 28 C 40.137580 28.107084 57.352745 0
M  V30 29 C 41.767015 30.765007 64.220947 0 CFG=1
M  V30 30 C 41.227556 29.513992 63.453940 0 CFG=2
M  V30 31 C 36.105770 31.180963 59.067159 0
M  V30 32 C 40.050517 27.183693 56.171697 0
M  V30 33 N 42.959401 26.770482 66.486356 0
M  V30 34 C 41.623041 33.262358 65.724916 0
M  V30 35 C 42.417292 25.569879 66.079395 0
M  V30 36 C 37.913105 26.741587 57.765083 0
M  V30 37 O 39.982818 30.744465 52.178660 0
M  V30 38 C 39.179127 27.588781 59.669503 0
M  V30 39 C 38.538260 30.582442 58.375514 0
M  V30 40 C 37.557827 31.713379 58.816777 0
M  V30 41 C 39.731853 31.118271 61.958515 0 CFG=2
M  V30 42 N 39.662227 28.644699 60.548935 0 CHG=1
M  V30 43 C 39.169767 27.355681 55.181928 0
M  V30 44 C 38.051860 32.435343 60.093645 0
M  V30 45 C 41.799950 34.434668 66.461521 0
M  V30 46 C 42.267563 28.729788 62.655463 0
M  V30 47 C 39.748318 26.421570 51.715780 0
M  V30 48 C 38.976038 26.395010 54.058882 0 CFG=2
M  V30 49 C 40.119878 32.225927 62.898438 0
M  V30 50 H 38.979407 27.765129 62.253556 0
M  V30 51 H 42.176102 36.552298 66.352681 0
M  V30 52 H 38.560290 33.317651 57.703418 0
M  V30 53 H 36.828835 33.565755 57.878834 0
M  V30 54 H 37.467496 32.391539 56.722481 0
M  V30 55 H 38.604836 28.351402 50.284417 0
M  V30 56 H 37.867495 29.621422 51.053602 0
M  V30 57 H 40.453600 29.613571 49.071677 0
M  V30 58 H 41.355326 30.867681 49.909893 0
M  V30 59 H 39.643902 31.101605 49.556428 0
M  V30 60 H 41.910454 34.550807 62.577071 0
M  V30 61 H 41.753071 28.983904 68.712381 0
M  V30 62 H 44.430826 28.468538 64.319960 0
M  V30 63 H 40.439664 24.714750 66.718236 0
M  V30 64 H 44.903624 26.617075 65.685169 0
M  V30 65 H 44.742766 27.633578 67.084486 0
M  V30 66 H 43.528717 31.673303 65.268958 0
M  V30 67 H 43.975719 30.687187 63.949991 0
M  V30 68 H 37.231550 25.845248 53.429116 0
M  V30 69 H 42.224848 32.124792 62.646942 0
M  V30 70 H 42.254220 36.590202 63.856816 0
M  V30 71 H 38.396092 28.983192 53.281614 0
M  V30 72 H 37.228219 28.016890 52.426784 0
M  V30 73 H 43.542527 23.824283 65.656608 0
M  V30 74 H 43.844368 25.219342 64.561291 0
M  V30 75 H 42.373991 24.283620 64.398602 0
M  V30 76 H 42.777566 30.758309 67.512222 0
M  V30 77 H 37.350047 29.189985 57.249728 0
M  V30 78 H 37.183357 28.982183 58.968027 0
M  V30 79 H 40.833459 29.034618 51.476281 0
M  V30 80 H 40.281323 29.123392 56.991738 0
M  V30 81 H 41.034106 27.850286 57.917459 0
M  V30 82 H 41.092392 30.762418 65.076243 0
M  V30 83 H 40.951423 28.813401 64.245033 0
M  V30 84 H 35.985404 30.681751 60.024123 0
M  V30 85 H 35.759186 30.421345 58.350057 0
M  V30 86 H 35.380396 31.994994 59.066509 0
M  V30 87 H 40.714967 26.331138 56.163906 0
M  V30 88 H 41.447883 32.337741 66.243751 0
M  V30 89 H 36.964890 26.646062 58.253461 0
M  V30 90 H 38.423466 25.779140 57.836490 0
M  V30 91 H 37.497006 26.845372 56.770488 0
M  V30 92 H 39.805782 30.356772 53.022031 0
M  V30 93 H 38.272066 27.221719 60.149821 0
M  V30 94 H 39.934933 26.815828 59.686513 0
M  V30 95 H 39.383296 30.560917 59.049001 0
M  V30 96 H 38.998433 30.851156 57.425664 0
M  V30 97 H 40.354813 31.165549 61.063058 0
M  V30 98 H 38.521892 28.217500 55.200363 0
M  V30 99 H 39.060992 32.828279 59.966199 0
M  V30 100 H 37.415865 33.298618 60.291893 0
M  V30 101 H 41.760554 34.409496 67.540242 0
M  V30 102 H 41.987744 28.574802 61.620397 0
M  V30 103 H 42.410385 27.732906 63.071534 0
M  V30 104 H 43.231084 29.221551 62.653972 0
M  V30 105 H 40.267300 25.517025 51.900847 0
M  V30 106 H 39.812725 26.832137 50.727660 0
M  V30 107 H 39.725724 25.609771 54.153398 0
M  V30 108 H 39.996901 33.176878 62.375448 0
M  V30 109 H 39.466682 32.262550 63.761447 0
M  V30 110 H 40.255818 26.869103 68.043997 0
M  V30 111 H 39.130784 29.894943 63.460226 0
M  V30 112 H 40.130950 29.435575 60.119453 0
M  V30 END ATOM
M  V30 BEGIN BOND
M  V30 1 1 9 2
M  V30 2 1 10 1
M  V30 3 2 12 11
M  V30 4 1 16 11
M  V30 5 1 17 12
M  V30 6 2 20 1
M  V30 7 1 20 14
M  V30 8 2 21 3
M  V30 9 1 21 7
M  V30 10 2 22 7
M  V30 11 1 22 19
M  V30 12 1 23 5
M  V30 13 1 23 13
M  V30 14 2 25 10
M  V30 15 1 25 12
M  V30 16 1 26 15
M  V30 17 1 27 5
M  V30 18 1 27 6
M  V30 19 1 15 28 CFG=3
M  V30 20 1 29 17
M  V30 21 1 29 19
M  V30 22 1 30 9
M  V30 23 1 30 29
M  V30 24 1 32 28
M  V30 25 1 33 1
M  V30 26 1 33 16
M  V30 27 1 34 22
M  V30 28 2 35 14
M  V30 29 1 35 24
M  V30 30 1 35 33
M  V30 31 1 36 15
M  V30 32 1 37 27
M  V30 33 1 38 15
M  V30 34 1 39 26
M  V30 35 1 40 4
M  V30 36 1 40 31
M  V30 37 1 40 39
M  V30 38 1 41 8
M  V30 39 1 41 9
M  V30 40 2 42 2
M  V30 41 1 42 38
M  V30 42 2 43 32
M  V30 43 1 44 8
M  V30 44 1 44 40
M  V30 45 1 45 3
M  V30 46 2 45 34
M  V30 47 1 46 30
M  V30 48 2 47 13
M  V30 49 1 48 13
M  V30 50 1 48 18
M  V30 51 1 48 43
M  V30 52 1 49 19
M  V30 53 1 49 41
M  V30 54 1 50 2
M  V30 55 1 51 3
M  V30 56 1 52 4
M  V30 57 1 53 4
M  V30 58 1 54 4
M  V30 59 1 55 5
M  V30 60 1 56 5
M  V30 61 1 57 6
M  V30 62 1 58 6
M  V30 63 1 59 6
M  V30 64 1 60 7
M  V30 65 1 61 10
M  V30 66 1 62 11
M  V30 67 1 63 14
M  V30 68 1 64 16
M  V30 69 1 65 16
M  V30 70 1 66 17
M  V30 71 1 67 17
M  V30 72 1 68 18
M  V30 73 1 19 69 CFG=3
M  V30 74 1 70 21
M  V30 75 1 71 23
M  V30 76 1 72 23
M  V30 77 1 73 24
M  V30 78 1 74 24
M  V30 79 1 75 24
M  V30 80 1 76 25
M  V30 81 1 77 26
M  V30 82 1 78 26
M  V30 83 1 27 79 CFG=1
M  V30 84 1 80 28
M  V30 85 1 81 28
M  V30 86 1 29 82 CFG=1
M  V30 87 1 30 83 CFG=1
M  V30 88 1 84 31
M  V30 89 1 85 31
M  V30 90 1 86 31
M  V30 91 1 87 32
M  V30 92 1 88 34
M  V30 93 1 89 36
M  V30 94 1 90 36
M  V30 95 1 91 36
M  V30 96 1 92 37
M  V30 97 1 93 38
M  V30 98 1 94 38
M  V30 99 1 95 39
M  V30 100 1 96 39
M  V30 101 1 41 97 CFG=3
M  V30 102 1 98 43
M  V30 103 1 99 44
M  V30 104 1 100 44
M  V30 105 1 101 45
M  V30 106 1 102 46
M  V30 107 1 103 46
M  V30 108 1 104 46
M  V30 109 1 105 47
M  V30 110 1 106 47
M  V30 111 1 48 107 CFG=3
M  V30 112 1 108 49
M  V30 113 1 109 49
M  V30 114 1 110 20
M  V30 115 1 9 111 CFG=1
M  V30 116 1 112 42
M  V30 END BOND
M  V30 END CTAB
M  END
>  <i_epik_Tot_Q>  (1) 
2

>  <i_epik_Tot_abs_Q>  (1) 
2

>  <i_i_glide_confnum>  (1) 
2220

>  <i_i_glide_lignum>  (1) 
166

>  <i_i_glide_posenum>  (1) 
77

>  <i_i_glide_rotatable_bonds>  (1) 
12

>  <i_lp_mmshare_version>  (1) 
72125

>  <i_m_source_file_index>  (1) 
67

>  <i_f3d_flags>  (1) 
0

>  <num_sample>  (1) 
100

>  <b_lp_Chiralities_Consistent>  (1) 
1

>  <r_epik_Charging_Adjusted_Penalty>  (1) 
0.52025287817150023

>  <r_epik_Ionization_Penalty>  (1) 
3.4472135568412989

>  <r_epik_Ionization_Penalty_Charging>  (1) 
0.14055655438482481

>  <r_epik_Ionization_Penalty_Neutral>  (1) 
3.3066570024564741

>  <r_epik_State_Penalty>  (1) 
0.37969632378667539

>  <r_glide_ring_energy>  (1) 
0

>  <r_i_docking_score>  (1) 
-6.3981359606873776

>  <r_i_glide_ecoul>  (1) 
-9.5440074127155299

>  <r_i_glide_eff_state_penalty>  (1) 
0.37969632378667539

>  <r_i_glide_einternal>  (1) 
16.839854818904591

>  <r_i_glide_emodel>  (1) 
-47.789308622027505

>  <r_i_glide_emodel_strain>  (1) 
12.064869687647871

>  <r_i_glide_energy>  (1) 
-35.057737031069344

>  <r_i_glide_erotb>  (1) 
0.28524200512041686

>  <r_i_glide_esite>  (1) 
-0.027356562185448477

>  <r_i_glide_evdw>  (1) 
-25.513729618353814

>  <r_i_glide_gscore>  (1) 
-6.7778322844740533

>  <r_i_glide_gscore_strain>  (1) 
2.0162174219119677

>  <r_i_glide_hbond>  (1) 
0

>  <r_i_glide_ligand_efficiency>  (1) 
-0.13057420327933422

>  <r_i_glide_ligand_efficiency_ln>  (1) 
-1.307925387847656

>  <r_i_glide_ligand_efficiency_sa>  (1) 
-0.47781092764176802

>  <r_i_glide_lipo>  (1) 
-5.5648623202990839

>  <r_i_glide_metal>  (1) 
-0

>  <r_i_glide_rewards>  (1) 
-0.77978523619688433

>  <r_lp_Energy>  (1) 
64.638955999999993

>  <s_epik_Chemistry_Notes>  (1) 
This compound has an imine and may undergo hydrolysis.

>  <s_epik_cmdline>  (1) 
J2VwaWtfcHl0aG9uJywgJy1waHQnLCAnMS4wJywgJy1waCcsICc3LjQnLCAnLXRuJywgJzgnLCAnLW1hJywgJzUwMCcsICctaW1hZScsICc8aW5maWxlLm1hZT4nLCAnLW9tYWUnLCAnPG91dGZpbGUubWFlPic=

>  <s_epik_input>  (1) 
bjFbY0hdYyhbQ0gzXSluKGMxMilbQ0gyXVtDSF09QyhbQ0hdPVtDSF0yKVtDSDJdW0NASF0oW0NAQEhdM1tDSDNdKVtDQEhdKGM0W2NIXVtjSF1bY0hdW2NIXVtjSF00KVtDSDJdW0NAQEhdKFtDQEhdMzUpU1tDSDJdQyhbQ0gzXSkoW0NIM10pW0NIMl1bQ0gyXVtDQF0oW0NIM10pKFtDSDJdXE49W0NIXVw1KVtDSDJdL1tDSF09W0NIXS9bQ0BASF0oW09IXSlDKD1bQ0gyXSlbQ0gyXVtDSDJdW0NAQEhdKFtDSDNdKVtPSF0=

>  <s_glide_docking_method>  (1) 
confgen

>  <s_i_glide_gridfile>  (1) 
gpcr_5ht2c_6bqh_protein_autoprepared_prepared

>  <s_lp_Force_Field>  (1) 
S-OPLS

>  <s_lp_Variant>  (1) 
DiffSBDD_66_num_sample_100-3

>  <s_m_source_file>  (1) 
generated__ligand_DiffSBDD_2026-05-06_prepared.sdf

>  <GenAI_Model>  (1) 
DiffSBDD

>  <Protein>  (1) 
GPCR_5HT2C

$$$$
DiffSBDD_4_num_sample_100
     RDKit          3D

  0  0  0  0  0  0  0  0  0  0999 V3000
M  V30 BEGIN CTAB
M  V30 COUNTS 37 37 0 0 1
M  V30 BEGIN ATOM
M  V30 1 C 40.220704 30.910021 51.250657 0
M  V30 2 C 38.810739 27.034808 52.689651 0
M  V30 3 C 39.656224 28.463120 50.779647 0
M  V30 4 C 38.741327 27.981037 54.953341 0
M  V30 5 C 37.840922 29.727933 56.663323 0 CFG=1
M  V30 6 O 37.067404 30.421367 55.693953 0
M  V30 7 C 39.070909 29.125711 55.941839 0
M  V30 8 C 39.409846 29.417015 53.084854 0
M  V30 9 C 38.216582 30.661238 57.861104 0
M  V30 10 N 38.968562 28.172609 53.611251 0
M  V30 11 O 37.067403 30.860311 58.653404 0
M  V30 12 C 38.719117 32.050876 57.423445 0
M  V30 13 O 38.318180 26.912097 55.397899 0
M  V30 14 C 39.737976 29.586238 51.786682 0
M  V30 15 C 39.196776 29.996002 58.848485 0
M  V30 16 C 38.628663 27.430936 51.222585 0
M  V30 17 H 39.525351 31.306808 50.509613 0
M  V30 18 H 40.302740 31.621404 52.067840 0
M  V30 19 H 41.203377 30.805928 50.789380 0
M  V30 20 H 39.705503 26.420592 52.785648 0
M  V30 21 H 37.959164 26.421355 52.985135 0
M  V30 22 H 39.374054 28.858682 49.804039 0
M  V30 23 H 40.645770 28.020739 50.676838 0
M  V30 24 H 37.234822 28.908463 57.053503 0
M  V30 25 H 36.403907 30.958669 56.143195 0
M  V30 26 H 39.803343 29.871846 55.653792 0
M  V30 27 H 39.633910 28.576856 56.694329 0
M  V30 28 H 39.463330 30.216060 53.795105 0
M  V30 29 H 36.380080 31.223559 58.091425 0
M  V30 30 H 39.588158 31.973581 56.772091 0
M  V30 31 H 37.954553 32.605257 56.877759 0
M  V30 32 H 39.003706 32.659199 58.282920 0
M  V30 33 H 40.183707 29.847037 58.412672 0
M  V30 34 H 39.331531 30.603131 59.745521 0
M  V30 35 H 38.829194 29.020007 59.170022 0
M  V30 36 H 37.635512 27.858221 51.103609 0
M  V30 37 H 38.667550 26.551791 50.580865 0
M  V30 END ATOM
M  V30 BEGIN BOND
M  V30 1 1 6 5
M  V30 2 1 7 4
M  V30 3 1 7 5
M  V30 4 1 9 5
M  V30 5 1 10 2
M  V30 6 1 10 4
M  V30 7 1 10 8
M  V30 8 1 11 9
M  V30 9 1 12 9
M  V30 10 2 13 4
M  V30 11 1 14 1
M  V30 12 1 14 3
M  V30 13 2 14 8
M  V30 14 1 15 9
M  V30 15 1 16 2
M  V30 16 1 16 3
M  V30 17 1 17 1
M  V30 18 1 18 1
M  V30 19 1 19 1
M  V30 20 1 20 2
M  V30 21 1 21 2
M  V30 22 1 22 3
M  V30 23 1 23 3
M  V30 24 1 5 24 CFG=1
M  V30 25 1 25 6
M  V30 26 1 26 7
M  V30 27 1 27 7
M  V30 28 1 28 8
M  V30 29 1 29 11
M  V30 30 1 30 12
M  V30 31 1 31 12
M  V30 32 1 32 12
M  V30 33 1 33 15
M  V30 34 1 34 15
M  V30 35 1 35 15
M  V30 36 1 36 16
M  V30 37 1 37 16
M  V30 END BOND
M  V30 END CTAB
M  END
>  <i_epik_Tot_Q>  (1) 
0

>  <i_epik_Tot_abs_Q>  (1) 
0

>  <i_i_glide_confnum>  (1) 
29

>  <i_i_glide_lignum>  (1) 
22

>  <i_i_glide_posenum>  (1) 
183

>  <i_i_glide_rotatable_bonds>  (1) 
6

>  <i_lp_mmshare_version>  (1) 
72125

>  <i_m_source_file_index>  (1) 
5

>  <i_f3d_flags>  (1) 
0

>  <num_sample>  (1) 
100

>  <b_lp_Chiralities_Consistent>  (1) 
1

>  <r_epik_Charging_Adjusted_Penalty>  (1) 
0

>  <r_epik_Ionization_Penalty>  (1) 
1.0105412208656501e-07

>  <r_epik_Ionization_Penalty_Charging>  (1) 
0

>  <r_epik_Ionization_Penalty_Neutral>  (1) 
1.0105412208656501e-07

>  <r_epik_State_Penalty>  (1) 
-0

>  <r_glide_ring_energy>  (1) 
0

>  <r_i_docking_score>  (1) 
-6.3980584206073541

>  <r_i_glide_ecoul>  (1) 
-10.681874813772783

>  <r_i_glide_eff_state_penalty>  (1) 
-0

>  <r_i_glide_einternal>  (1) 
7.5609262213991109

>  <r_i_glide_emodel>  (1) 
-42.356809467236445

>  <r_i_glide_emodel_strain>  (1) 
0.27316707147546637

>  <r_i_glide_energy>  (1) 
-32.683086075081683

>  <r_i_glide_erotb>  (1) 
1.3172280880396094

>  <r_i_glide_esite>  (1) 
0

>  <r_i_glide_evdw>  (1) 
-22.001211261308899

>  <r_i_glide_gscore>  (1) 
-6.3980584206073541

>  <r_i_glide_gscore_strain>  (1) 
0

>  <r_i_glide_hbond>  (1) 
-0.30399999999999999

>  <r_i_glide_ligand_efficiency>  (1) 
-0.39987865128795963

>  <r_i_glide_ligand_efficiency_ln>  (1) 
-1.6959331885000268

>  <r_i_glide_ligand_efficiency_sa>  (1) 
-1.007631060322544

>  <r_i_glide_lipo>  (1) 
-1.9771439882689918

>  <r_i_glide_metal>  (1) 
-0

>  <r_i_glide_rewards>  (1) 
-2.7318007352466087

>  <r_lp_Energy>  (1) 
15.980511999999999

>  <r_lp_tautomer_probability>  (1) 
1

>  <s_epik_cmdline>  (1) 
J2VwaWtfcHl0aG9uJywgJy1waHQnLCAnMS4wJywgJy1waCcsICc3LjQnLCAnLXRuJywgJzgnLCAnLW1hJywgJzUwMCcsICctaW1hZScsICc8aW5maWxlLm1hZT4nLCAnLW9tYWUnLCAnPG91dGZpbGUubWFlPic=

>  <s_epik_input>  (1) 
W0NIM11DKD1bQ0hdMSlbQ0gyXVtDSDJdW0NIMl1OMUMoPU8pW0NIMl1bQ0BIXShbT0hdKUMoW09IXSkoW0NIM10pW0NIM10=

>  <s_glide_docking_method>  (1) 
confgen

>  <s_i_glide_gridfile>  (1) 
gpcr_5ht2c_6bqh_protein_autoprepared_prepared

>  <s_lp_Force_Field>  (1) 
S-OPLS

>  <s_lp_Variant>  (1) 
DiffSBDD_4_num_sample_100-1

>  <s_m_source_file>  (1) 
generated__ligand_DiffSBDD_2026-05-06_prepared.sdf

>  <GenAI_Model>  (1) 
DiffSBDD

>  <Protein>  (1) 
GPCR_5HT2C

$$$$
DiffSBDD_90_num_sample_100
     RDKit          3D

  0  0  0  0  0  0  0  0  0  0999 V3000
M  V30 BEGIN CTAB
M  V30 COUNTS 85 88 0 0 1
M  V30 BEGIN ATOM
M  V30 1 C 38.157805 31.836428 55.419935 0
M  V30 2 O 40.267155 36.421286 64.208626 0
M  V30 3 F 39.848807 25.770625 59.053636 0
M  V30 4 C 38.575991 27.682219 53.444255 0 CFG=1
M  V30 5 C 37.680362 36.797498 61.539026 0 CFG=2
M  V30 6 C 38.656187 34.833245 60.475923 0 CFG=1
M  V30 7 C 40.173908 30.775364 52.052181 0
M  V30 8 C 37.641798 32.681619 59.554447 0
M  V30 9 C 39.119603 28.592547 52.329390 0
M  V30 10 N 38.991407 36.815493 63.651312 0
M  V30 11 C 38.703262 27.806789 58.973780 0
M  V30 12 C 40.163419 27.973737 51.397207 0
M  V30 13 C 37.798711 36.089723 60.191769 0
M  V30 14 C 39.364606 35.087564 61.828730 0
M  V30 15 O 38.135849 39.046771 60.891746 0
M  V30 16 N 38.962802 31.060476 56.360885 0
M  V30 17 C 37.751499 33.609705 60.527407 0
M  V30 18 F 41.007608 27.612752 59.268521 0
M  V30 19 C 39.031278 26.368930 56.460116 0 CFG=1
M  V30 20 N 39.108463 29.603830 55.973724 0 CHG=1
M  V30 21 C 37.518349 27.513246 58.034690 0
M  V30 22 C 38.475167 31.225275 57.730506 0
M  V30 23 O 39.613610 29.796669 52.924250 0
M  V30 24 C 37.938950 28.821122 51.453458 0
M  V30 25 C 38.281821 33.326778 55.788158 0
M  V30 26 C 40.295125 26.863552 57.170525 0
M  V30 27 C 38.409543 32.688471 58.233499 0 CFG=1
M  V30 28 C 39.040502 36.543337 62.214007 0 CFG=1
M  V30 29 C 39.692984 26.903164 54.130450 0
M  V30 30 O 36.179015 38.613641 61.874185 0 CHG=-1
M  V30 31 C 37.906368 28.734987 55.810251 0 CFG=1
M  V30 32 C 37.741709 33.611519 57.198365 0
M  V30 33 O 36.667470 36.135359 62.254707 0
M  V30 34 C 37.580218 28.492167 54.338803 0
M  V30 35 C 37.889644 27.382066 56.576742 0 CFG=1
M  V30 36 C 39.235720 25.815936 55.066112 0
M  V30 37 C 39.983029 27.023160 58.647612 0
M  V30 38 C 37.298282 38.279474 61.419180 0
M  V30 39 H 38.525565 31.683345 54.405454 0
M  V30 40 H 37.111090 31.526261 55.443604 0
M  V30 41 H 40.801206 37.208399 64.154616 0
M  V30 42 H 37.979193 26.900808 52.969182 0
M  V30 43 H 39.429028 34.710307 59.728390 0
M  V30 44 H 40.467354 31.621203 52.661186 0
M  V30 45 H 41.060604 30.420379 51.525338 0
M  V30 46 H 39.470277 31.145328 51.308653 0
M  V30 47 H 36.958558 31.857755 59.699654 0
M  V30 48 H 38.957882 37.809260 63.834892 0
M  V30 49 H 38.419955 27.620445 60.009241 0
M  V30 50 H 38.930280 28.858594 58.948705 0
M  V30 51 H 39.867408 26.945319 51.169994 0
M  V30 52 H 40.249651 28.482070 50.434994 0
M  V30 53 H 41.145668 28.021528 51.853495 0
M  V30 54 H 38.267377 36.747281 59.462339 0
M  V30 55 H 36.821503 35.844347 59.769192 0
M  V30 56 H 40.440822 34.925914 61.758726 0
M  V30 57 H 38.997021 34.404723 62.597571 0
M  V30 58 H 37.155065 33.500735 61.421756 0
M  V30 59 H 38.702171 25.481654 57.003150 0
M  V30 60 H 39.603175 29.611208 55.089757 0
M  V30 61 H 37.089227 26.536329 58.253494 0
M  V30 62 H 36.726813 28.250307 58.181788 0
M  V30 63 H 39.170025 30.721305 58.390523 0
M  V30 64 H 37.494449 30.758093 57.826236 0
M  V30 65 H 37.610910 27.867706 51.052814 0
M  V30 66 H 37.067611 29.220940 51.931042 0
M  V30 67 H 38.267385 29.468820 50.653568 0
M  V30 68 H 39.330862 33.620289 55.738501 0
M  V30 69 H 37.754751 33.936725 55.057369 0
M  V30 70 H 41.067241 26.112148 57.051921 0
M  V30 71 H 40.705564 27.784551 56.769081 0
M  V30 72 H 39.432790 33.029280 58.390982 0
M  V30 73 H 39.789193 37.196564 61.762935 0
M  V30 74 H 40.350814 26.425974 53.405549 0
M  V30 75 H 40.267431 27.621441 54.676289 0
M  V30 76 H 37.067497 29.313256 56.197118 0
M  V30 77 H 36.667529 33.491993 57.238376 0
M  V30 78 H 37.867297 34.658142 57.454133 0
M  V30 79 H 36.125673 36.846498 62.582208 0
M  V30 80 H 36.616261 27.995579 54.255723 0
M  V30 81 H 37.384329 29.489322 53.948388 0
M  V30 82 H 37.067410 26.820994 56.142980 0
M  V30 83 H 38.330132 25.333661 54.694875 0
M  V30 84 H 39.989854 25.033683 55.114178 0
M  V30 85 H 39.699285 29.199516 56.684476 0
M  V30 END ATOM
M  V30 BEGIN BOND
M  V30 1 1 9 4
M  V30 2 1 10 2
M  V30 3 1 12 9
M  V30 4 1 13 5
M  V30 5 1 13 6
M  V30 6 1 14 6
M  V30 7 1 16 1
M  V30 8 1 17 6
M  V30 9 2 17 8
M  V30 10 1 20 16
M  V30 11 1 21 11
M  V30 12 1 22 16
M  V30 13 1 23 7
M  V30 14 1 23 9
M  V30 15 1 24 9
M  V30 16 1 25 1
M  V30 17 1 26 19
M  V30 18 1 27 8
M  V30 19 1 27 22
M  V30 20 1 28 5
M  V30 21 1 28 10
M  V30 22 1 28 14
M  V30 23 1 29 4
M  V30 24 1 31 20
M  V30 25 1 32 25
M  V30 26 1 32 27
M  V30 27 1 5 33 CFG=1
M  V30 28 1 34 4
M  V30 29 1 34 31
M  V30 30 1 35 19
M  V30 31 1 35 21
M  V30 32 1 35 31
M  V30 33 1 36 19
M  V30 34 1 36 29
M  V30 35 1 37 3
M  V30 36 1 37 11
M  V30 37 1 37 18
M  V30 38 1 37 26
M  V30 39 1 38 5
M  V30 40 2 38 15
M  V30 41 1 38 30
M  V30 42 1 39 1
M  V30 43 1 40 1
M  V30 44 1 41 2
M  V30 45 1 4 42 CFG=3
M  V30 46 1 6 43 CFG=3
M  V30 47 1 44 7
M  V30 48 1 45 7
M  V30 49 1 46 7
M  V30 50 1 47 8
M  V30 51 1 48 10
M  V30 52 1 49 11
M  V30 53 1 50 11
M  V30 54 1 51 12
M  V30 55 1 52 12
M  V30 56 1 53 12
M  V30 57 1 54 13
M  V30 58 1 55 13
M  V30 59 1 56 14
M  V30 60 1 57 14
M  V30 61 1 58 17
M  V30 62 1 19 59 CFG=1
M  V30 63 1 60 20
M  V30 64 1 61 21
M  V30 65 1 62 21
M  V30 66 1 63 22
M  V30 67 1 64 22
M  V30 68 1 65 24
M  V30 69 1 66 24
M  V30 70 1 67 24
M  V30 71 1 68 25
M  V30 72 1 69 25
M  V30 73 1 70 26
M  V30 74 1 71 26
M  V30 75 1 27 72 CFG=1
M  V30 76 1 28 73 CFG=3
M  V30 77 1 74 29
M  V30 78 1 75 29
M  V30 79 1 31 76 CFG=1
M  V30 80 1 77 32
M  V30 81 1 78 32
M  V30 82 1 79 33
M  V30 83 1 80 34
M  V30 84 1 81 34
M  V30 85 1 35 82 CFG=3
M  V30 86 1 83 36
M  V30 87 1 84 36
M  V30 88 1 85 20
M  V30 END BOND
M  V30 END CTAB
M  END
>  <i_epik_Tot_Q>  (1) 
0

>  <i_epik_Tot_abs_Q>  (1) 
2

>  <i_i_glide_confnum>  (1) 
414

>  <i_i_glide_lignum>  (1) 
235

>  <i_i_glide_posenum>  (1) 
16

>  <i_i_glide_rotatable_bonds>  (1) 
10

>  <i_lp_mmshare_version>  (1) 
72125

>  <i_m_source_file_index>  (1) 
91

>  <i_f3d_flags>  (1) 
0

>  <num_sample>  (1) 
100

>  <b_lp_Chiralities_Consistent>  (1) 
1

>  <r_epik_Charging_Adjusted_Penalty>  (1) 
1.3235823108087639

>  <r_epik_Ionization_Penalty>  (1) 
0.58520961668590687

>  <r_epik_Ionization_Penalty_Charging>  (1) 
0.5818654171532841

>  <r_epik_Ionization_Penalty_Neutral>  (1) 
0.0033441995326227757

>  <r_epik_State_Penalty>  (1) 
0.74171689365547977

>  <r_glide_ring_energy>  (1) 
0.16952212376529802

>  <r_i_docking_score>  (1) 
-6.3822653232764308

>  <r_i_glide_ecoul>  (1) 
-4.8982050594096318

>  <r_i_glide_eff_state_penalty>  (1) 
0.74171689365547977

>  <r_i_glide_einternal>  (1) 
39.904696987456873

>  <r_i_glide_emodel>  (1) 
-10.541546448438098

>  <r_i_glide_emodel_strain>  (1) 
3.9783399878838992

>  <r_i_glide_energy>  (1) 
-29.635941885777108

>  <r_i_glide_erotb>  (1) 
0.42002339013477186

>  <r_i_glide_esite>  (1) 
-0.018765177308555731

>  <r_i_glide_evdw>  (1) 
-24.737736826367474

>  <r_i_glide_gscore>  (1) 
-7.1239822169319105

>  <r_i_glide_gscore_strain>  (1) 
0

>  <r_i_glide_hbond>  (1) 
-0.32000000000000001

>  <r_i_glide_ligand_efficiency>  (1) 
-0.16795435061253766

>  <r_i_glide_ligand_efficiency_ln>  (1) 
-1.3762041509225524

>  <r_i_glide_ligand_efficiency_sa>  (1) 
-0.56465839622424208

>  <r_i_glide_lipo>  (1) 
-4.1992944135542505

>  <r_i_glide_metal>  (1) 
-0

>  <r_i_glide_rewards>  (1) 
-1.0343284159740587

>  <r_lp_Energy>  (1) 
57.103046999999997

>  <s_epik_Chemistry_Notes>  (1) 
This compound has a N-S or N-O group and may undergo hydrolysis at high or low pH.

>  <s_epik_cmdline>  (1) 
J2VwaWtfcHl0aG9uJywgJy1waHQnLCAnMS4wJywgJy1waCcsICc3LjQnLCAnLXRuJywgJzgnLCAnLW1hJywgJzUwMCcsICctaW1hZScsICc8aW5maWxlLm1hZT4nLCAnLW9tYWUnLCAnPG91dGZpbGUubWFlPic=

>  <s_epik_input>  (1) 
RkMoRikoW0NIMl0xKVtDSDJdW0NIMl1bQ0BIXShbQ0BASF0xMilbQ0BIXShbQ0gyXVtDQEhdKFtDSDJdW0NIMl0yKUMoW0NIM10pKFtDSDNdKU9bQ0gzXSlbTkhdTjNbQ0gyXVtDSDJdW0NIMl1bQ0BIXShbQ0gyXTMpL1tDSF09W0NIXVxbQ0BASF0oW0NIMl1bQ0BdNChbT0hdKUMoPU8pW09IXSlbQ0gyXVtDQEBIXTRbTkhdW09IXQ==

>  <s_glide_docking_method>  (1) 
confgen

>  <s_i_glide_gridfile>  (1) 
gpcr_5ht2c_6bqh_protein_autoprepared_prepared

>  <s_lp_Force_Field>  (1) 
S-OPLS

>  <s_lp_Variant>  (1) 
DiffSBDD_90_num_sample_100-7

>  <s_m_source_file>  (1) 
generated__ligand_DiffSBDD_2026-05-06_prepared.sdf

>  <GenAI_Model>  (1) 
DiffSBDD

>  <Protein>  (1) 
GPCR_5HT2C

$$$$
DiffSBDD_44_num_sample_100
     RDKit          3D

  0  0  0  0  0  0  0  0  0  0999 V3000
M  V30 BEGIN CTAB
M  V30 COUNTS 58 59 0 0 1
M  V30 BEGIN ATOM
M  V30 1 C 35.117336 33.198680 60.110810 0
M  V30 2 O 37.577763 29.869836 59.853502 0 CHG=-1
M  V30 3 C 39.067408 27.368533 52.999921 0
M  V30 4 C 37.561578 33.086329 60.361840 0 CFG=1
M  V30 5 N 37.056439 32.021483 59.471089 0 CFG=2 CHG=1
M  V30 6 C 38.874503 29.662061 53.868057 0
M  V30 7 N 37.867437 28.591251 56.212288 0
M  V30 8 C 38.844185 28.136924 54.028069 0
M  V30 9 O 37.627404 26.438837 55.326635 0
M  V30 10 C 36.349803 34.026675 60.537047 0 CFG=1
M  V30 11 C 36.506844 35.311488 59.707821 0
M  V30 12 C 37.823233 30.576458 57.634607 0 CFG=1
M  V30 13 C 38.464532 29.300617 57.086420 0
M  V30 14 C 35.644775 31.786417 59.842607 0
M  V30 15 C 38.271853 25.175147 55.418681 0
M  V30 16 C 39.930806 28.272574 50.887419 0
M  V30 17 C 37.975410 30.890902 59.141636 0 CFG=2
M  V30 18 C 38.501502 27.563300 55.415299 0 CFG=2
M  V30 19 F 39.852361 30.503828 50.339088 0
M  V30 20 C 39.334150 29.649485 51.224098 0 CFG=2
M  V30 21 C 39.467396 27.147431 51.781932 0
M  V30 22 C 38.266569 31.777278 56.762546 0
M  V30 23 C 39.854608 28.962595 57.624726 0
M  V30 24 C 38.069284 32.541591 61.713579 0
M  V30 25 C 39.621744 30.222135 52.632860 0
M  V30 26 H 34.683065 33.598185 59.192897 0
M  V30 27 H 34.332938 33.212936 60.868074 0
M  V30 28 H 38.387360 33.596988 59.863353 0
M  V30 29 H 37.849387 30.034479 53.881845 0
M  V30 30 H 39.395018 30.096260 54.718291 0
M  V30 31 H 36.243640 34.309729 61.585690 0
M  V30 32 H 36.671297 35.086604 58.653293 0
M  V30 33 H 35.619586 35.938153 59.771442 0
M  V30 34 H 37.354948 35.901644 60.055694 0
M  V30 35 H 36.756779 30.421423 57.471109 0
M  V30 36 H 35.093845 31.272608 59.053562 0
M  V30 37 H 35.575426 31.185378 60.750141 0
M  V30 38 H 37.537660 24.380482 55.288556 0
M  V30 39 H 39.038663 25.049735 54.654822 0
M  V30 40 H 38.736777 25.044753 56.396999 0
M  V30 41 H 41.011539 28.343518 50.999489 0
M  V30 42 H 39.704089 28.021407 49.853575 0
M  V30 43 H 38.982036 31.295021 59.252676 0
M  V30 44 H 39.443565 27.235616 55.856693 0
M  V30 45 H 38.267424 29.620357 51.053501 0
M  V30 46 H 39.575260 26.144692 51.401113 0
M  V30 47 H 37.993159 31.627642 55.718482 0
M  V30 48 H 37.784018 32.708177 57.057681 0
M  V30 49 H 39.344062 31.936123 56.811133 0
M  V30 50 H 40.203500 29.665414 58.374598 0
M  V30 51 H 39.840821 27.975857 58.088247 0
M  V30 52 H 40.585610 28.956029 56.816801 0
M  V30 53 H 38.459507 33.349315 62.330185 0
M  V30 54 H 37.276181 32.047619 62.274697 0
M  V30 55 H 38.876681 31.820303 61.586047 0
M  V30 56 H 39.467416 31.301742 52.614102 0
M  V30 57 H 40.667410 30.100972 52.827556 0
M  V30 58 H 36.950872 32.471495 58.571540 0
M  V30 END ATOM
M  V30 BEGIN BOND
M  V30 1 1 5 4
M  V30 2 2 8 3
M  V30 3 1 8 6
M  V30 4 1 10 1
M  V30 5 1 10 4
M  V30 6 1 11 10
M  V30 7 2 13 7
M  V30 8 1 13 12
M  V30 9 1 14 1
M  V30 10 1 14 5
M  V30 11 1 15 9
M  V30 12 1 17 2
M  V30 13 1 17 5
M  V30 14 1 17 12
M  V30 15 1 18 7
M  V30 16 1 18 8
M  V30 17 1 18 9
M  V30 18 1 20 16
M  V30 19 1 20 19
M  V30 20 2 21 3
M  V30 21 1 21 16
M  V30 22 1 22 12
M  V30 23 1 23 13
M  V30 24 1 24 4
M  V30 25 1 25 6
M  V30 26 1 25 20
M  V30 27 1 26 1
M  V30 28 1 27 1
M  V30 29 1 4 28 CFG=3
M  V30 30 1 29 6
M  V30 31 1 30 6
M  V30 32 1 10 31 CFG=1
M  V30 33 1 32 11
M  V30 34 1 33 11
M  V30 35 1 34 11
M  V30 36 1 12 35 CFG=1
M  V30 37 1 36 14
M  V30 38 1 37 14
M  V30 39 1 38 15
M  V30 40 1 39 15
M  V30 41 1 40 15
M  V30 42 1 41 16
M  V30 43 1 42 16
M  V30 44 1 17 43 CFG=3
M  V30 45 1 18 44 CFG=1
M  V30 46 1 20 45 CFG=3
M  V30 47 1 46 21
M  V30 48 1 47 22
M  V30 49 1 48 22
M  V30 50 1 49 22
M  V30 51 1 50 23
M  V30 52 1 51 23
M  V30 53 1 52 23
M  V30 54 1 53 24
M  V30 55 1 54 24
M  V30 56 1 55 24
M  V30 57 1 56 25
M  V30 58 1 57 25
M  V30 59 1 5 58 CFG=3
M  V30 END BOND
M  V30 END CTAB
M  END
>  <i_epik_Tot_Q>  (1) 
0

>  <i_epik_Tot_abs_Q>  (1) 
2

>  <i_i_glide_confnum>  (1) 
9

>  <i_i_glide_lignum>  (1) 
117

>  <i_i_glide_posenum>  (1) 
144

>  <i_i_glide_rotatable_bonds>  (1) 
6

>  <i_lp_mmshare_version>  (1) 
72125

>  <i_m_source_file_index>  (1) 
45

>  <i_f3d_flags>  (1) 
0

>  <num_sample>  (1) 
100

>  <b_lp_Chiralities_Consistent>  (1) 
1

>  <r_epik_Charging_Adjusted_Penalty>  (1) 
0.41733257654759531

>  <r_epik_Ionization_Penalty>  (1) 
0.0069177268181324029

>  <r_epik_Ionization_Penalty_Charging>  (1) 
0.0066527375949913311

>  <r_epik_Ionization_Penalty_Neutral>  (1) 
0.00026498922314107146

>  <r_epik_State_Penalty>  (1) 
0.41067983895260396

>  <r_glide_ring_energy>  (1) 
0

>  <r_i_docking_score>  (1) 
-6.381782111734708

>  <r_i_glide_ecoul>  (1) 
-1.6849557141235021

>  <r_i_glide_eff_state_penalty>  (1) 
0.41067983895260396

>  <r_i_glide_einternal>  (1) 
56.736358492196906

>  <r_i_glide_emodel>  (1) 
-20.373155000635197

>  <r_i_glide_emodel_strain>  (1) 
1.8858809130153276

>  <r_i_glide_energy>  (1) 
-33.415459090374128

>  <r_i_glide_erotb>  (1) 
0.61440649929112812

>  <r_i_glide_esite>  (1) 
-0.13578070131950479

>  <r_i_glide_evdw>  (1) 
-31.730503376250624

>  <r_i_glide_gscore>  (1) 
-6.7924619506873123

>  <r_i_glide_gscore_strain>  (1) 
0

>  <r_i_glide_hbond>  (1) 
-0.01020316252677813

>  <r_i_glide_ligand_efficiency>  (1) 
-0.25527128446938829

>  <r_i_glide_ligand_efficiency_ln>  (1) 
-1.5126736070583631

>  <r_i_glide_ligand_efficiency_sa>  (1) 
-0.74641776384487402

>  <r_i_glide_lipo>  (1) 
-2.8095963449272952

>  <r_i_glide_metal>  (1) 
-0

>  <r_i_glide_rewards>  (1) 
-2.6120197152738052

>  <r_lp_Energy>  (1) 
9.8008069999999989

>  <r_lp_tautomer_probability>  (1) 
0.49999399997599986

>  <s_epik_Chemistry_Notes>  (1) 
This compound has an imine and may undergo hydrolysis. This compound contains an acetal/aminal-like group ( X-CH(R)-Y where X, Y are N, S, or O) that may be acid/base labile, releasing an aldehyde.

>  <s_epik_cmdline>  (1) 
J2VwaWtfcHl0aG9uJywgJy1waHQnLCAnMS4wJywgJy1waCcsICc3LjQnLCAnLXRuJywgJzgnLCAnLW1hJywgJzUwMCcsICctaW1hZScsICc8aW5maWxlLm1hZT4nLCAnLW9tYWUnLCAnPG91dGZpbGUubWFlPic=

>  <s_epik_input>  (1) 
W0NIM11bQ0BIXTFbQ0gyXVtDSDJdTihbQ0BASF0xW0NIM10pW0NAQEhdKFtPSF0pW0NAQEhdKFtDSDNdKVxDKFtDSDNdKT1OXFtDQEBIXShPW0NIM10pQzI9Qz1bQ0hdW0NIMl1bQ0BASF0oRilbQ0gyXVtDSDJdMg==

>  <s_glide_docking_method>  (1) 
confgen

>  <s_i_glide_gridfile>  (1) 
gpcr_5ht2c_6bqh_protein_autoprepared_prepared

>  <s_lp_Force_Field>  (1) 
S-OPLS

>  <s_lp_Variant>  (1) 
DiffSBDD_44_num_sample_100-10

>  <s_m_source_file>  (1) 
generated__ligand_DiffSBDD_2026-05-06_prepared.sdf

>  <GenAI_Model>  (1) 
DiffSBDD

>  <Protein>  (1) 
GPCR_5HT2C

$$$$
DiffSBDD_0_num_sample_100
     RDKit          3D

  0  0  0  0  0  0  0  0  0  0999 V3000
M  V30 BEGIN CTAB
M  V30 COUNTS 60 62 0 0 1
M  V30 BEGIN ATOM
M  V30 1 C 38.752779 26.640709 57.137321 0
M  V30 2 C 39.107188 29.551502 54.122160 0 CFG=1
M  V30 3 C 36.806509 34.724657 59.622458 0
M  V30 4 C 38.688529 32.239886 58.439290 0
M  V30 5 C 39.006837 25.375968 56.514760 0
M  V30 6 C 38.450510 26.491657 54.245506 0
M  V30 7 C 38.786033 34.577223 61.046381 0
M  V30 8 C 36.666284 36.082892 59.962221 0
M  V30 9 C 37.868993 33.969153 60.160777 0
M  V30 10 C 39.928612 29.187866 51.748969 0 CFG=2
M  V30 11 N 39.467386 31.441267 55.697656 0 CHG=1
M  V30 12 C 39.357873 32.856804 56.071949 0
M  V30 13 C 38.665291 33.097690 57.400150 0
M  V30 14 C 37.579664 36.686696 60.846648 0
M  V30 15 F 39.518780 36.517375 62.236670 0
M  V30 16 C 38.639044 35.933835 61.388887 0
M  V30 17 C 38.030053 32.502979 59.784942 0 CFG=1
M  V30 18 C 38.867206 25.275651 55.157783 0
M  V30 19 N 35.867111 31.082331 60.198161 0
M  V30 20 C 39.236592 31.088319 54.281792 0
M  V30 21 C 38.234455 27.601753 56.416617 0
M  V30 22 C 37.893029 28.976787 54.882292 0 CFG=1
M  V30 23 N 38.837770 29.221476 52.717566 0
M  V30 24 O 37.440763 38.001507 61.177411 0
M  V30 25 C 39.929790 30.437065 50.852211 0
M  V30 26 C 39.734575 27.897473 50.929935 0
M  V30 27 C 41.121596 30.473398 49.894350 0
M  V30 28 N 37.865812 27.512587 55.124422 0
M  V30 29 S 37.867281 29.222195 56.742527 0
M  V30 30 C 36.815776 31.709537 60.007053 0
M  V30 31 Cl 39.467439 24.021212 57.453462 0
M  V30 32 H 39.006379 26.806516 58.174461 0
M  V30 33 H 40.012751 29.076728 54.483669 0
M  V30 34 H 36.102987 34.262514 58.942685 0
M  V30 35 H 39.208540 31.300044 58.342181 0
M  V30 36 H 37.717366 26.174323 53.503830 0
M  V30 37 H 39.340166 26.855244 53.736823 0
M  V30 38 H 39.601943 34.004032 61.460809 0
M  V30 39 H 35.856977 36.660847 59.544994 0
M  V30 40 H 40.884820 29.156736 52.253297 0
M  V30 41 H 40.371620 31.097413 55.988180 0
M  V30 42 H 38.868610 33.440899 55.292383 0
M  V30 43 H 40.369264 33.221406 56.234116 0
M  V30 44 H 38.138067 34.031622 57.494294 0
M  V30 45 H 38.733780 32.091843 60.509758 0
M  V30 46 H 39.053137 24.338353 54.664567 0
M  V30 47 H 38.335067 31.584174 53.915273 0
M  V30 48 H 40.076891 31.467512 53.701591 0
M  V30 49 H 36.937657 29.310815 54.476244 0
M  V30 50 H 37.999171 29.643420 52.349201 0
M  V30 51 H 38.089218 38.268763 61.810392 0
M  V30 52 H 39.023686 30.481473 50.254626 0
M  V30 53 H 39.943434 31.342820 51.457465 0
M  V30 54 H 40.566069 27.703696 50.253872 0
M  V30 55 H 39.654321 27.022585 51.572028 0
M  V30 56 H 38.825438 27.938513 50.330082 0
M  V30 57 H 41.123897 31.413927 49.354668 0
M  V30 58 H 42.069460 30.402503 50.427402 0
M  V30 59 H 41.068013 29.676024 49.151558 0
M  V30 60 H 38.757259 30.949298 56.226320 0
M  V30 END ATOM
M  V30 BEGIN BOND
M  V30 1 1 5 1
M  V30 2 2 8 3
M  V30 3 1 9 3
M  V30 4 2 9 7
M  V30 5 1 12 11
M  V30 6 2 13 4
M  V30 7 1 13 12
M  V30 8 1 14 8
M  V30 9 1 16 7
M  V30 10 2 16 14
M  V30 11 1 16 15
M  V30 12 1 17 4
M  V30 13 1 17 9
M  V30 14 2 18 5
M  V30 15 1 18 6
M  V30 16 1 20 2
M  V30 17 1 20 11
M  V30 18 2 21 1
M  V30 19 1 22 2
M  V30 20 1 23 2
M  V30 21 1 23 10
M  V30 22 1 24 14
M  V30 23 1 25 10
M  V30 24 1 26 10
M  V30 25 1 27 25
M  V30 26 1 28 6
M  V30 27 1 28 21
M  V30 28 1 28 22
M  V30 29 1 29 21
M  V30 30 1 29 22
M  V30 31 1 30 17
M  V30 32 3 30 19
M  V30 33 1 31 5
M  V30 34 1 32 1
M  V30 35 1 2 33 CFG=1
M  V30 36 1 34 3
M  V30 37 1 35 4
M  V30 38 1 36 6
M  V30 39 1 37 6
M  V30 40 1 38 7
M  V30 41 1 39 8
M  V30 42 1 10 40 CFG=1
M  V30 43 1 41 11
M  V30 44 1 42 12
M  V30 45 1 43 12
M  V30 46 1 44 13
M  V30 47 1 17 45 CFG=1
M  V30 48 1 46 18
M  V30 49 1 47 20
M  V30 50 1 48 20
M  V30 51 1 22 49 CFG=3
M  V30 52 1 50 23
M  V30 53 1 51 24
M  V30 54 1 52 25
M  V30 55 1 53 25
M  V30 56 1 54 26
M  V30 57 1 55 26
M  V30 58 1 56 26
M  V30 59 1 57 27
M  V30 60 1 58 27
M  V30 61 1 59 27
M  V30 62 1 60 11
M  V30 END BOND
M  V30 END CTAB
M  END
>  <i_epik_Tot_Q>  (1) 
1

>  <i_epik_Tot_abs_Q>  (1) 
1

>  <i_i_glide_confnum>  (1) 
627

>  <i_i_glide_lignum>  (1) 
5

>  <i_i_glide_posenum>  (1) 
127

>  <i_i_glide_rotatable_bonds>  (1) 
11

>  <i_lp_mmshare_version>  (1) 
72125

>  <i_m_source_file_index>  (1) 
1

>  <i_f3d_flags>  (1) 
0

>  <num_sample>  (1) 
100

>  <b_lp_Chiralities_Consistent>  (1) 
1

>  <r_epik_Charging_Adjusted_Penalty>  (1) 
1.8065071523224812

>  <r_epik_Ionization_Penalty>  (1) 
0.92614417087394063

>  <r_epik_Ionization_Penalty_Charging>  (1) 
0.760298405215594

>  <r_epik_Ionization_Penalty_Neutral>  (1) 
0.16584576565834661

>  <r_epik_State_Penalty>  (1) 
1.0462087471068873

>  <r_glide_ring_energy>  (1) 
0

>  <r_i_docking_score>  (1) 
-6.3810503855049312

>  <r_i_glide_ecoul>  (1) 
0.63429491177042863

>  <r_i_glide_eff_state_penalty>  (1) 
1.0462087471068873

>  <r_i_glide_einternal>  (1) 
11.657320250696745

>  <r_i_glide_emodel>  (1) 
-60.539012119654551

>  <r_i_glide_emodel_strain>  (1) 
1.2407936077160002

>  <r_i_glide_energy>  (1) 
-42.856009630654071

>  <r_i_glide_erotb>  (1) 
0.74887478347211667

>  <r_i_glide_esite>  (1) 
-0.058936436157141642

>  <r_i_glide_evdw>  (1) 
-43.490304542424504

>  <r_i_glide_gscore>  (1) 
-7.4272591326118187

>  <r_i_glide_gscore_strain>  (1) 
0

>  <r_i_glide_hbond>  (1) 
0

>  <r_i_glide_ligand_efficiency>  (1) 
-0.2058403350162881

>  <r_i_glide_ligand_efficiency_ln>  (1) 
-1.4391224176403252

>  <r_i_glide_ligand_efficiency_sa>  (1) 
-0.64662284590193009

>  <r_i_glide_lipo>  (1) 
-4.3347317964130889

>  <r_i_glide_metal>  (1) 
-0

>  <r_i_glide_rewards>  (1) 
-1.7030946931580435

>  <r_lp_Energy>  (1) 
41.265557999999999

>  <s_epik_Chemistry_Notes>  (1) 
This compound contains an acetal/aminal-like group ( X-CH(R)-Y where X, Y are N, S, or O) that may be acid/base labile, releasing an aldehyde.

>  <s_epik_cmdline>  (1) 
J2VwaWtfcHl0aG9uJywgJy1waHQnLCAnMS4wJywgJy1waCcsICc3LjQnLCAnLXRuJywgJzgnLCAnLW1hJywgJzUwMCcsICctaW1hZScsICc8aW5maWxlLm1hZT4nLCAnLW9tYWUnLCAnPG91dGZpbGUubWFlPic=

>  <s_epik_input>  (1) 
W0NIXT0xQyhDbCk9W0NIXVtDSDJdTihDMTIpW0NAQEhdKFMyKVtDQEBIXShbTkhdW0NAQEhdKFtDSDNdKVtDSDJdW0NIM10pW0NIMl1bTkhdW0NIMl1cW0NIXT1bQ0hdXFtDQEhdKEMjTiljM1tjSF1bY0hdYyhbT0hdKWMoRilbY0hdMw==

>  <s_glide_docking_method>  (1) 
confgen

>  <s_i_glide_gridfile>  (1) 
gpcr_5ht2c_6bqh_protein_autoprepared_prepared

>  <s_lp_Force_Field>  (1) 
S-OPLS

>  <s_lp_Variant>  (1) 
DiffSBDD_0_num_sample_100-5

>  <s_m_source_file>  (1) 
generated__ligand_DiffSBDD_2026-05-06_prepared.sdf

>  <GenAI_Model>  (1) 
DiffSBDD

>  <Protein>  (1) 
GPCR_5HT2C

$$$$
DiffSBDD_30_num_sample_100
     RDKit          3D

  0  0  0  0  0  0  0  0  0  0999 V3000
M  V30 BEGIN CTAB
M  V30 COUNTS 69 72 0 0 1
M  V30 BEGIN ATOM
M  V30 1 C 36.282084 32.025835 61.106271 0
M  V30 2 C 37.987029 36.116804 61.301430 0 CFG=2
M  V30 3 O 34.649456 33.072663 59.635312 0
M  V30 4 C 37.502491 24.219937 56.960192 0
M  V30 5 C 36.997956 24.021368 55.666396 0
M  V30 6 N 37.701141 33.921601 59.452488 0
M  V30 7 C 37.638405 26.294595 55.065542 0
M  V30 8 C 36.598490 34.439100 60.266682 0 CFG=1
M  V30 9 O 40.716726 36.252092 62.467440 0
M  V30 10 O 37.096334 37.220684 59.332153 0
M  V30 11 C 40.453524 28.853384 58.248753 0
M  V30 12 C 37.403143 37.313923 60.518968 0
M  V30 13 C 37.246474 38.629811 61.268379 0
M  V30 14 C 41.034333 28.907576 59.635518 0
M  V30 15 C 37.987210 28.773300 57.667853 0 CFG=2
M  V30 16 C 38.485275 32.997842 55.928594 0
M  V30 17 N 38.535295 33.194993 57.390732 0 CHG=1
M  V30 18 C 41.711616 28.081613 58.568416 0
M  V30 19 C 38.458145 30.395195 55.864783 0 CFG=1
M  V30 20 C 37.068139 25.053536 54.720182 0
M  V30 21 C 38.060499 30.242604 57.344187 0
M  V30 22 N 39.210423 28.110347 58.115151 0
M  V30 23 C 38.078261 25.450749 57.314522 0
M  V30 24 C 37.467413 33.992689 58.016929 0
M  V30 25 C 38.148917 26.511659 56.368225 0
M  V30 26 C 39.219511 31.700241 55.529188 0
M  V30 27 C 39.490785 35.890336 63.070079 0
M  V30 28 C 35.594062 33.326383 60.659461 0 CFG=2
M  V30 29 C 38.746747 27.861230 56.746630 0 CFG=1
M  V30 30 O 38.563348 25.621336 58.573716 0
M  V30 31 S 39.419368 28.915777 55.413887 0
M  V30 32 O 37.057423 35.058256 61.446052 0
M  V30 33 O 38.404119 36.586035 62.547563 0
M  V30 34 H 37.004549 32.218100 61.900938 0
M  V30 35 H 35.542873 31.321091 61.485609 0
M  V30 36 H 36.804980 31.534553 60.284586 0
M  V30 37 H 38.863508 35.764036 60.760530 0
M  V30 38 H 35.067779 32.654794 58.890439 0
M  V30 39 H 37.449264 23.422494 57.687523 0
M  V30 40 H 36.555557 23.073218 55.399360 0
M  V30 41 H 38.538487 34.445842 59.672924 0
M  V30 42 H 37.680017 27.083356 54.330835 0
M  V30 43 H 36.032848 35.180453 59.704775 0
M  V30 44 H 40.778109 35.847538 61.618409 0
M  V30 45 H 40.606490 29.740018 57.650475 0
M  V30 46 H 36.731328 38.472166 62.215585 0
M  V30 47 H 38.228768 39.063964 61.452379 0
M  V30 48 H 36.668036 39.337089 60.680736 0
M  V30 49 H 41.466750 29.859493 59.920686 0
M  V30 50 H 40.521537 28.369006 60.430330 0
M  V30 51 H 37.053416 28.420440 58.101421 0
M  V30 52 H 38.953048 33.860459 55.454771 0
M  V30 53 H 37.467182 32.963200 55.564528 0
M  V30 54 H 38.442440 32.277780 57.803347 0
M  V30 55 H 41.635189 26.998293 58.634153 0
M  V30 56 H 42.649996 28.455067 58.163952 0
M  V30 57 H 37.545927 30.358516 55.267437 0
M  V30 58 H 36.676887 24.897592 53.724127 0
M  V30 59 H 38.738008 30.729622 58.041342 0
M  V30 60 H 37.077712 30.682187 57.511696 0
M  V30 61 H 37.467403 35.024398 57.685186 0
M  V30 62 H 36.489207 33.599019 57.762908 0
M  V30 63 H 40.212742 31.689269 55.977974 0
M  V30 64 H 39.392976 31.722329 54.451757 0
M  V30 65 H 39.570106 36.155551 64.124764 0
M  V30 66 H 39.360473 34.808718 62.994352 0
M  V30 67 H 35.016102 33.714028 61.500010 0
M  V30 68 H 38.908662 26.509031 58.661336 0
M  V30 69 H 39.439696 33.572068 57.633625 0
M  V30 END ATOM
M  V30 BEGIN BOND
M  V30 1 1 5 4
M  V30 2 1 8 6
M  V30 3 1 12 2
M  V30 4 2 12 10
M  V30 5 1 13 12
M  V30 6 1 14 11
M  V30 7 1 17 16
M  V30 8 1 18 11
M  V30 9 1 18 14
M  V30 10 2 20 5
M  V30 11 1 20 7
M  V30 12 1 21 15
M  V30 13 1 21 19
M  V30 14 1 22 11
M  V30 15 1 22 15
M  V30 16 2 23 4
M  V30 17 1 24 6
M  V30 18 1 24 17
M  V30 19 2 25 7
M  V30 20 1 25 23
M  V30 21 1 26 16
M  V30 22 1 26 19
M  V30 23 1 27 9
M  V30 24 1 28 1
M  V30 25 1 28 3
M  V30 26 1 28 8
M  V30 27 1 29 15
M  V30 28 1 29 22
M  V30 29 1 29 25 CFG=3
M  V30 30 1 30 23
M  V30 31 1 31 19
M  V30 32 1 31 29
M  V30 33 1 32 2
M  V30 34 1 32 8
M  V30 35 1 33 2
M  V30 36 1 33 27
M  V30 37 1 34 1
M  V30 38 1 35 1
M  V30 39 1 36 1
M  V30 40 1 2 37 CFG=3
M  V30 41 1 38 3
M  V30 42 1 39 4
M  V30 43 1 40 5
M  V30 44 1 41 6
M  V30 45 1 42 7
M  V30 46 1 8 43 CFG=3
M  V30 47 1 44 9
M  V30 48 1 45 11
M  V30 49 1 46 13
M  V30 50 1 47 13
M  V30 51 1 48 13
M  V30 52 1 49 14
M  V30 53 1 50 14
M  V30 54 1 15 51 CFG=1
M  V30 55 1 52 16
M  V30 56 1 53 16
M  V30 57 1 54 17
M  V30 58 1 55 18
M  V30 59 1 56 18
M  V30 60 1 19 57 CFG=3
M  V30 61 1 58 20
M  V30 62 1 59 21
M  V30 63 1 60 21
M  V30 64 1 61 24
M  V30 65 1 62 24
M  V30 66 1 63 26
M  V30 67 1 64 26
M  V30 68 1 65 27
M  V30 69 1 66 27
M  V30 70 1 28 67 CFG=1
M  V30 71 1 68 30
M  V30 72 1 69 17
M  V30 END BOND
M  V30 END CTAB
M  END
>  <i_epik_Tot_Q>  (1) 
1

>  <i_epik_Tot_abs_Q>  (1) 
1

>  <i_i_glide_confnum>  (1) 
2827

>  <i_i_glide_lignum>  (1) 
80

>  <i_i_glide_posenum>  (1) 
154

>  <i_i_glide_rotatable_bonds>  (1) 
17

>  <i_lp_mmshare_version>  (1) 
72125

>  <i_m_source_file_index>  (1) 
31

>  <i_f3d_flags>  (1) 
0

>  <num_sample>  (1) 
100

>  <b_lp_Chiralities_Consistent>  (1) 
1

>  <r_epik_Charging_Adjusted_Penalty>  (1) 
0.074635642036716146

>  <r_epik_Ionization_Penalty>  (1) 
0.2367700207343624

>  <r_epik_Ionization_Penalty_Charging>  (1) 
0.00051329390614008978

>  <r_epik_Ionization_Penalty_Neutral>  (1) 
0.23625672682822232

>  <r_epik_State_Penalty>  (1) 
0.074122348130576055

>  <r_glide_ring_energy>  (1) 
0

>  <r_i_docking_score>  (1) 
-6.3808886116048544

>  <r_i_glide_ecoul>  (1) 
-4.2765176857888871

>  <r_i_glide_eff_state_penalty>  (1) 
0.074122348130576055

>  <r_i_glide_einternal>  (1) 
16.494326173428902

>  <r_i_glide_emodel>  (1) 
-64.608507807175769

>  <r_i_glide_emodel_strain>  (1) 
2.6970564565223469

>  <r_i_glide_energy>  (1) 
-49.465124914074607

>  <r_i_glide_erotb>  (1) 
1.1326933877215775

>  <r_i_glide_esite>  (1) 
-0.082523447878790013

>  <r_i_glide_evdw>  (1) 
-45.188607228285719

>  <r_i_glide_gscore>  (1) 
-6.4550109597354304

>  <r_i_glide_gscore_strain>  (1) 
0

>  <r_i_glide_hbond>  (1) 
-0.15929035516270471

>  <r_i_glide_ligand_efficiency>  (1) 
-0.19336026095772285

>  <r_i_glide_ligand_efficiency_ln>  (1) 
-1.4190765887478698

>  <r_i_glide_ligand_efficiency_sa>  (1) 
-0.62020967507884783

>  <r_i_glide_lipo>  (1) 
-2.9086443442540149

>  <r_i_glide_metal>  (1) 
-0

>  <r_i_glide_rewards>  (1) 
-1.5363381858788778

>  <r_lp_Energy>  (1) 
27.490511999999999

>  <r_lp_tautomer_probability>  (1) 
0.99999996999736518

>  <s_epik_Chemistry_Notes>  (1) 
This compound contains an acetal/aminal-like group ( X-CH(R)-Y where X, Y are N, S, or O) that may be acid/base labile, releasing an aldehyde.

>  <s_epik_cmdline>  (1) 
J2VwaWtfcHl0aG9uJywgJy1waHQnLCAnMS4wJywgJy1waCcsICc3LjQnLCAnLXRuJywgJzgnLCAnLW1hJywgJzUwMCcsICctaW1hZScsICc8aW5maWxlLm1hZT4nLCAnLW9tYWUnLCAnPG91dGZpbGUubWFlPic=

>  <s_epik_input>  (1) 
W09IXVtDSDJdT1tDQEBIXShDKD1PKVtDSDNdKU9bQ0BIXShbQ0BIXShbQ0gzXSlbT0hdKVtOSF1bQ0gyXVtOSF1bQ0gyXVtDSDJdW0NAQEhdKFMxKVtDSDJdW0NASF0oTjJbQ0hdM1tDSDJdW0NIMl0zKVtDQEBdMTJjNFtjSF1bY0hdW2NIXVtjSF1jNFtPSF0=

>  <s_glide_docking_method>  (1) 
confgen

>  <s_i_glide_gridfile>  (1) 
gpcr_5ht2c_6bqh_protein_autoprepared_prepared

>  <s_lp_Force_Field>  (1) 
S-OPLS

>  <s_lp_Variant>  (1) 
DiffSBDD_30_num_sample_100-2

>  <s_m_source_file>  (1) 
generated__ligand_DiffSBDD_2026-05-06_prepared.sdf

>  <GenAI_Model>  (1) 
DiffSBDD

>  <Protein>  (1) 
GPCR_5HT2C

$$$$
DiffSBDD_17_num_sample_100
     RDKit          3D

  0  0  0  0  0  0  0  0  0  0999 V3000
M  V30 BEGIN CTAB
M  V30 COUNTS 106 113 0 0 1
M  V30 BEGIN ATOM
M  V30 1 C 38.437069 29.160047 53.907929 0
M  V30 2 O 38.599852 26.785029 56.934627 0
M  V30 3 C 38.716547 34.021445 59.453512 0
M  V30 4 C 38.152475 36.421336 62.653537 0
M  V30 5 C 39.214670 36.458564 63.484862 0
M  V30 6 C 35.589782 32.138130 61.028330 0 CFG=2
M  V30 7 C 38.335106 28.815104 55.407694 0 CFG=1
M  V30 8 O 35.327091 30.821436 60.930849 0
M  V30 9 C 42.887002 33.298358 70.284648 0
M  V30 10 O 35.108967 34.021454 62.203636 0
M  V30 11 C 41.770064 34.821385 61.150295 0 CFG=1
M  V30 12 O 39.467397 33.304911 58.814076 0
M  V30 13 C 40.149515 30.352649 64.782900 0
M  V30 14 C 40.466015 35.633828 63.325357 0
M  V30 15 C 39.070297 34.490752 60.896899 0 CFG=2
M  V30 16 C 42.627097 31.393294 68.814355 0 CFG=2
M  V30 17 C 38.790628 27.325625 55.634674 0 CFG=1
M  V30 18 N 42.356642 34.421412 70.714228 0
M  V30 19 C 40.369382 35.271318 60.771184 0 CFG=1
M  V30 20 C 37.770702 31.630958 60.632291 0 CFG=2
M  V30 21 C 39.224562 31.010272 62.557645 0
M  V30 22 C 41.247303 34.421265 69.874683 0
M  V30 23 S 44.300512 31.132178 69.683198 0
M  V30 24 N 41.289281 30.467774 65.674319 0
M  V30 25 C 39.107236 31.942977 61.332195 0 CFG=2
M  V30 26 C 38.151282 28.330763 58.600205 0 CFG=2
M  V30 27 C 40.203332 26.945040 55.170488 0
M  V30 28 C 44.098970 32.651450 70.654874 0
M  V30 29 C 36.000021 30.176417 59.853475 0
M  V30 30 N 41.131030 33.348948 69.053481 0
M  V30 31 N 44.659230 30.453219 66.016906 0
M  V30 32 C 37.390191 34.494343 58.846794 0
M  V30 33 O 36.844404 32.193878 61.542518 0
M  V30 34 C 39.235443 27.519952 57.954361 0 CFG=1
M  V30 35 O 45.210550 29.228268 65.469409 0
M  V30 36 C 38.125371 30.490132 57.477669 0
M  V30 37 C 38.372514 29.791331 58.844298 0 CFG=1
M  V30 38 C 38.810977 27.221452 59.358882 0
M  V30 39 O 34.667420 32.710542 61.853476 0
M  V30 40 C 41.061812 35.860606 61.966894 0 CFG=2
M  V30 41 C 38.970822 29.964577 56.269837 0
M  V30 42 C 37.524531 30.237684 60.090722 0 CFG=1
M  V30 43 O 39.149594 33.334474 61.784287 0
M  V30 44 O 42.453913 28.659893 64.894110 0
M  V30 45 C 42.119842 33.450659 61.725708 0
M  V30 46 C 42.326728 29.642851 65.625831 0
M  V30 47 C 38.014504 35.537230 61.400379 0
M  V30 48 C 42.702708 31.393094 67.273948 0 CFG=1
M  V30 49 C 43.365497 30.117993 66.645209 0 CFG=2
M  V30 50 C 40.283477 31.324809 63.604468 0
M  V30 51 C 41.283504 31.503931 66.662998 0
M  V30 52 N 42.241393 32.671268 69.394085 0
M  V30 53 O 44.887574 33.072831 71.501207 0
M  V30 54 H 39.474453 29.254020 53.587135 0
M  V30 55 H 37.966228 28.395970 53.287824 0
M  V30 56 H 37.939842 30.105484 53.687716 0
M  V30 57 H 37.306574 37.059915 62.867695 0
M  V30 58 H 39.189521 37.122429 64.337681 0
M  V30 59 H 35.490771 32.632532 60.060695 0
M  V30 60 H 37.269478 28.837787 55.612603 0
M  V30 61 H 35.435032 33.886936 63.081348 0
M  V30 62 H 42.551559 35.221417 60.505214 0
M  V30 63 H 36.560749 34.399916 59.543634 0
M  V30 64 H 39.223861 30.505868 65.338787 0
M  V30 65 H 40.096852 29.333486 64.396943 0
M  V30 66 H 41.194265 35.934701 64.078213 0
M  V30 67 H 40.240869 34.586283 63.512723 0
M  V30 68 H 41.939370 30.624232 69.173680 0
M  V30 69 H 38.122727 26.716141 55.024694 0
M  V30 70 H 40.267477 36.002800 59.978716 0
M  V30 71 H 37.553366 32.065940 59.682688 0
M  V30 72 H 38.260640 30.959811 63.053669 0
M  V30 73 H 39.428209 29.997431 62.215470 0
M  V30 74 H 40.520180 35.219637 69.870755 0
M  V30 75 H 39.907243 31.694156 60.642805 0
M  V30 76 H 37.142249 28.116866 58.253456 0
M  V30 77 H 40.265421 26.908299 54.083715 0
M  V30 78 H 40.952504 27.637227 55.552881 0
M  V30 79 H 40.468369 25.945901 55.520236 0
M  V30 80 H 35.644529 29.156105 59.769238 0
M  V30 81 H 35.708962 30.663662 58.924208 0
M  V30 82 H 45.384615 30.748305 66.658921 0
M  V30 83 H 37.454764 35.533081 58.527557 0
M  V30 84 H 37.154475 33.883358 57.975170 0
M  V30 85 H 40.247331 27.879797 57.786268 0
M  V30 86 H 45.453754 28.734215 66.240677 0
M  V30 87 H 37.072555 30.421708 57.209744 0
M  V30 88 H 38.323469 31.552011 57.573690 0
M  V30 89 H 39.423875 29.928349 59.098111 0
M  V30 90 H 38.267867 26.287088 59.453485 0
M  V30 91 H 39.486279 27.507553 60.164694 0
M  V30 92 H 41.436918 36.870064 61.831480 0
M  V30 93 H 39.102630 30.829498 55.616908 0
M  V30 94 H 39.988973 29.720373 56.570513 0
M  V30 95 H 37.867367 29.621429 60.894290 0
M  V30 96 H 42.059034 33.442423 62.811977 0
M  V30 97 H 41.520038 32.671014 61.297529 0
M  V30 98 H 43.128906 33.166442 61.453759 0
M  V30 99 H 37.849697 36.275600 60.616685 0
M  V30 100 H 37.078890 35.023680 61.518995 0
M  V30 101 H 43.264629 32.276518 66.963390 0
M  V30 102 H 43.496909 29.330095 67.389539 0
M  V30 103 H 41.274942 31.226669 63.163776 0
M  V30 104 H 40.177782 32.350245 63.958559 0
M  V30 105 H 41.098852 32.485812 66.227541 0
M  V30 106 H 40.493037 31.289442 67.385452 0
M  V30 END ATOM
M  V30 BEGIN BOND
M  V30 1 2 5 4
M  V30 2 1 7 1
M  V30 3 1 8 6
M  V30 4 2 12 3
M  V30 5 1 14 5
M  V30 6 1 15 3
M  V30 7 1 17 2
M  V30 8 1 17 7
M  V30 9 2 18 9
M  V30 10 1 19 11
M  V30 11 1 19 15
M  V30 12 1 22 18
M  V30 13 1 23 16
M  V30 14 1 24 13
M  V30 15 1 25 20
M  V30 16 1 25 21
M  V30 17 1 27 17
M  V30 18 1 28 9
M  V30 19 1 28 23
M  V30 20 1 29 8
M  V30 21 2 30 22
M  V30 22 1 32 3
M  V30 23 1 33 6
M  V30 24 1 33 20
M  V30 25 1 34 2
M  V30 26 1 34 26
M  V30 27 1 35 31
M  V30 28 1 37 26
M  V30 29 1 37 36
M  V30 30 1 38 26
M  V30 31 1 38 34
M  V30 32 1 39 6
M  V30 33 1 39 10
M  V30 34 1 40 11
M  V30 35 1 40 14
M  V30 36 1 40 19
M  V30 37 1 41 7
M  V30 38 1 41 36
M  V30 39 1 42 20
M  V30 40 1 42 29
M  V30 41 1 42 37
M  V30 42 1 15 43 CFG=1
M  V30 43 1 43 25
M  V30 44 1 45 11
M  V30 45 1 46 24
M  V30 46 2 46 44
M  V30 47 1 47 4
M  V30 48 1 47 15
M  V30 49 1 48 16
M  V30 50 1 49 31
M  V30 51 1 49 46
M  V30 52 1 49 48
M  V30 53 1 50 13
M  V30 54 1 50 21
M  V30 55 1 51 24
M  V30 56 1 51 48
M  V30 57 1 52 9
M  V30 58 1 52 16
M  V30 59 1 52 30
M  V30 60 2 53 28
M  V30 61 1 54 1
M  V30 62 1 55 1
M  V30 63 1 56 1
M  V30 64 1 57 4
M  V30 65 1 58 5
M  V30 66 1 6 59 CFG=3
M  V30 67 1 7 60 CFG=1
M  V30 68 1 61 10
M  V30 69 1 11 62 CFG=3
M  V30 70 1 63 32
M  V30 71 1 64 13
M  V30 72 1 65 13
M  V30 73 1 66 14
M  V30 74 1 67 14
M  V30 75 1 16 68 CFG=3
M  V30 76 1 17 69 CFG=3
M  V30 77 1 19 70 CFG=3
M  V30 78 1 20 71 CFG=3
M  V30 79 1 72 21
M  V30 80 1 73 21
M  V30 81 1 74 22
M  V30 82 1 25 75 CFG=3
M  V30 83 1 26 76 CFG=3
M  V30 84 1 77 27
M  V30 85 1 78 27
M  V30 86 1 79 27
M  V30 87 1 80 29
M  V30 88 1 81 29
M  V30 89 1 82 31
M  V30 90 1 83 32
M  V30 91 1 84 32
M  V30 92 1 34 85 CFG=1
M  V30 93 1 86 35
M  V30 94 1 87 36
M  V30 95 1 88 36
M  V30 96 1 37 89 CFG=1
M  V30 97 1 90 38
M  V30 98 1 91 38
M  V30 99 1 40 92 CFG=3
M  V30 100 1 93 41
M  V30 101 1 94 41
M  V30 102 1 42 95 CFG=1
M  V30 103 1 96 45
M  V30 104 1 97 45
M  V30 105 1 98 45
M  V30 106 1 99 47
M  V30 107 1 100 47
M  V30 108 1 48 101 CFG=1
M  V30 109 1 49 102 CFG=1
M  V30 110 1 103 50
M  V30 111 1 104 50
M  V30 112 1 105 51
M  V30 113 1 106 51
M  V30 END BOND
M  V30 END CTAB
M  END
>  <i_epik_Tot_Q>  (1) 
0

>  <i_epik_Tot_abs_Q>  (1) 
0

>  <i_i_glide_confnum>  (1) 
3204

>  <i_i_glide_lignum>  (1) 
40

>  <i_i_glide_posenum>  (1) 
37

>  <i_i_glide_rotatable_bonds>  (1) 
14

>  <i_lp_mmshare_version>  (1) 
72125

>  <i_m_source_file_index>  (1) 
18

>  <i_f3d_flags>  (1) 
0

>  <num_sample>  (1) 
100

>  <b_lp_Chiralities_Consistent>  (1) 
1

>  <r_epik_Charging_Adjusted_Penalty>  (1) 
0

>  <r_epik_Ionization_Penalty>  (1) 
0.00082092263498994861

>  <r_epik_Ionization_Penalty_Charging>  (1) 
0

>  <r_epik_Ionization_Penalty_Neutral>  (1) 
0.00082092263498994861

>  <r_epik_State_Penalty>  (1) 
-0

>  <r_glide_ring_energy>  (1) 
0

>  <r_i_docking_score>  (1) 
-6.380632852619649

>  <r_i_glide_ecoul>  (1) 
-6.5515462296036295

>  <r_i_glide_eff_state_penalty>  (1) 
-0

>  <r_i_glide_einternal>  (1) 
24.280207586627327

>  <r_i_glide_emodel>  (1) 
-11.954475885377455

>  <r_i_glide_emodel_strain>  (1) 
7.929181128578719

>  <r_i_glide_energy>  (1) 
-25.625566287343485

>  <r_i_glide_erotb>  (1) 
0.21750603727348183

>  <r_i_glide_esite>  (1) 
-0.038708651320590474

>  <r_i_glide_evdw>  (1) 
-19.074020057739855

>  <r_i_glide_gscore>  (1) 
-6.380632852619649

>  <r_i_glide_gscore_strain>  (1) 
0.98229528214467976

>  <r_i_glide_hbond>  (1) 
-0.40131983462722082

>  <r_i_glide_ligand_efficiency>  (1) 
-0.12038929910603111

>  <r_i_glide_ligand_efficiency_ln>  (1) 
-1.2837541463554798

>  <r_i_glide_ligand_efficiency_sa>  (1) 
-0.45221660919264439

>  <r_i_glide_lipo>  (1) 
-3.5295959317829606

>  <r_i_glide_metal>  (1) 
-0

>  <r_i_glide_rewards>  (1) 
-1.6743768169795024

>  <r_lp_Energy>  (1) 
23.254508999999999

>  <r_lp_tautomer_probability>  (1) 
1

>  <s_epik_Chemistry_Notes>  (1) 
This compound contains an acetal/aminal-like group ( X-CH(R)-Y where X, Y are N, S, or O) that may be acid/base labile, releasing an aldehyde. This compound has a N-S or N-O group and may undergo hydrolysis at high or low pH.

>  <s_epik_cmdline>  (1) 
J2VwaWtfcHl0aG9uJywgJy1waHQnLCAnMS4wJywgJy1waCcsICc3LjQnLCAnLXRuJywgJzgnLCAnLW1hJywgJzUwMCcsICctaW1hZScsICc8aW5maWxlLm1hZT4nLCAnLW9tYWUnLCAnPG91dGZpbGUubWFlPic=

>  <s_epik_input>  (1) 
W0NAQEhdMTJbQ0BASF0oW0NIMl0yKU9bQ0BIXShbQ0gzXSlbQ0BIXShbQ0gzXSlbQ0gyXVtDSDJdW0NASF0xW0NASF0oW0NIMl1PW0NAQEhdM09bT0hdKVtDQEBIXShPMylbQ0BASF0oT1tDQEBdNChDKFtPSF0pPVtDSDJdKVtDSDJdW0NIXT1bQ0hdW0NIMl1bQ0BIXShbQ0BIXTQ1KVtDSF01W0NIM10pW0NIMl1bQ0gyXVtDSDJdTjZDKD1PKVtDQEBIXShbTkhdW09IXSlbQ0BASF0oW0NIMl02KVtDQEBIXShTQzc9TyluKGM3OCluW2NIXW44

>  <s_glide_docking_method>  (1) 
confgen

>  <s_i_glide_gridfile>  (1) 
gpcr_5ht2c_6bqh_protein_autoprepared_prepared

>  <s_lp_Force_Field>  (1) 
S-OPLS

>  <s_lp_Variant>  (1) 
DiffSBDD_17_num_sample_100-2

>  <s_m_source_file>  (1) 
generated__ligand_DiffSBDD_2026-05-06_prepared.sdf

>  <GenAI_Model>  (1) 
DiffSBDD

>  <Protein>  (1) 
GPCR_5HT2C

$$$$
DiffSBDD_44_num_sample_100
     RDKit          3D

  0  0  0  0  0  0  0  0  0  0999 V3000
M  V30 BEGIN CTAB
M  V30 COUNTS 58 59 0 0 1
M  V30 BEGIN ATOM
M  V30 1 C 36.757159 35.789792 61.750584 0
M  V30 2 O 37.353228 31.758886 61.515497 0 CHG=-1
M  V30 3 C 38.266756 26.991850 56.966451 0
M  V30 4 C 38.898984 34.636014 61.416598 0 CFG=1
M  V30 5 N 37.785402 33.860143 60.798074 0 CFG=2 CHG=1
M  V30 6 C 39.515434 28.962957 56.170050 0
M  V30 7 N 38.769722 30.008647 58.880445 0
M  V30 8 C 38.886728 28.103513 57.268292 0
M  V30 9 O 40.324868 28.260101 59.184406 0
M  V30 10 C 38.244339 35.857044 62.099932 0 CFG=1
M  V30 11 C 38.856816 37.201827 61.704666 0
M  V30 12 C 37.362810 32.004599 59.171330 0 CFG=1
M  V30 13 C 37.600184 30.525975 58.848252 0
M  V30 14 C 36.499874 34.338419 61.363161 0
M  V30 15 C 40.489322 28.412958 60.588897 0
M  V30 16 C 38.015781 26.202726 54.643049 0
M  V30 17 C 37.979217 32.396184 60.546282 0 CFG=2
M  V30 18 C 39.021856 28.582860 58.715110 0 CFG=1
M  V30 19 F 39.151221 27.221894 52.888210 0
M  V30 20 C 39.138519 27.198290 54.221066 0 CFG=1
M  V30 21 C 37.808195 26.087156 56.143620 0
M  V30 22 C 37.913848 32.867332 58.012540 0
M  V30 23 C 36.351538 29.737274 58.482482 0
M  V30 24 C 39.778641 33.838988 62.404461 0
M  V30 25 C 38.995471 28.663153 54.728827 0
M  V30 26 H 36.536558 36.434363 60.898289 0
M  V30 27 H 36.144912 36.111398 62.594922 0
M  V30 28 H 39.536466 34.973672 60.598101 0
M  V30 29 H 39.334396 30.018114 56.371334 0
M  V30 30 H 40.596224 28.822765 56.213914 0
M  V30 31 H 38.350328 35.758254 63.178066 0
M  V30 32 H 38.667441 37.395358 60.653532 0
M  V30 33 H 38.399611 38.021315 62.253860 0
M  V30 34 H 39.932526 37.229862 61.883028 0
M  V30 35 H 36.289330 32.192290 59.215407 0
M  V30 36 H 35.688492 34.238047 60.641815 0
M  V30 37 H 36.210931 33.784900 62.253456 0
M  V30 38 H 41.467616 28.037950 60.883595 0
M  V30 39 H 40.427678 29.459307 60.889920 0
M  V30 40 H 39.741327 27.849053 61.145920 0
M  V30 41 H 38.251274 25.213364 54.253575 0
M  V30 42 H 37.067997 26.496076 54.189915 0
M  V30 43 H 39.049627 32.263417 60.388205 0
M  V30 44 H 38.328419 28.005527 59.330927 0
M  V30 45 H 40.113263 26.805226 54.513249 0
M  V30 46 H 37.245562 25.236090 56.498033 0
M  V30 47 H 37.509046 32.539549 57.053818 0
M  V30 48 H 37.639646 33.916735 58.114580 0
M  V30 49 H 39.000586 32.808241 57.945591 0
M  V30 50 H 35.441017 30.304485 58.668923 0
M  V30 51 H 36.370200 29.505132 57.420862 0
M  V30 52 H 36.276062 28.821439 59.052227 0
M  V30 53 H 40.428026 34.504506 62.974770 0
M  V30 54 H 39.169530 33.276182 63.111245 0
M  V30 55 H 40.431378 33.130557 61.895176 0
M  V30 56 H 37.952244 28.971338 54.644647 0
M  V30 57 H 39.540328 29.319388 54.049572 0
M  V30 58 H 37.764905 34.231657 59.860544 0
M  V30 END ATOM
M  V30 BEGIN BOND
M  V30 1 1 5 4
M  V30 2 2 8 3
M  V30 3 1 8 6
M  V30 4 1 10 1
M  V30 5 1 10 4
M  V30 6 1 11 10
M  V30 7 2 13 7
M  V30 8 1 13 12
M  V30 9 1 14 1
M  V30 10 1 14 5
M  V30 11 1 15 9
M  V30 12 1 17 2
M  V30 13 1 17 5
M  V30 14 1 17 12
M  V30 15 1 18 7
M  V30 16 1 18 8
M  V30 17 1 18 9
M  V30 18 1 20 16
M  V30 19 1 20 19
M  V30 20 2 21 3
M  V30 21 1 21 16
M  V30 22 1 22 12
M  V30 23 1 23 13
M  V30 24 1 24 4
M  V30 25 1 25 6
M  V30 26 1 25 20
M  V30 27 1 26 1
M  V30 28 1 27 1
M  V30 29 1 4 28 CFG=3
M  V30 30 1 29 6
M  V30 31 1 30 6
M  V30 32 1 10 31 CFG=1
M  V30 33 1 32 11
M  V30 34 1 33 11
M  V30 35 1 34 11
M  V30 36 1 12 35 CFG=1
M  V30 37 1 36 14
M  V30 38 1 37 14
M  V30 39 1 38 15
M  V30 40 1 39 15
M  V30 41 1 40 15
M  V30 42 1 41 16
M  V30 43 1 42 16
M  V30 44 1 17 43 CFG=3
M  V30 45 1 18 44 CFG=1
M  V30 46 1 20 45 CFG=1
M  V30 47 1 46 21
M  V30 48 1 47 22
M  V30 49 1 48 22
M  V30 50 1 49 22
M  V30 51 1 50 23
M  V30 52 1 51 23
M  V30 53 1 52 23
M  V30 54 1 53 24
M  V30 55 1 54 24
M  V30 56 1 55 24
M  V30 57 1 56 25
M  V30 58 1 57 25
M  V30 59 1 5 58 CFG=3
M  V30 END BOND
M  V30 END CTAB
M  END
>  <i_epik_Tot_Q>  (1) 
0

>  <i_epik_Tot_abs_Q>  (1) 
2

>  <i_i_glide_confnum>  (1) 
29

>  <i_i_glide_lignum>  (1) 
113

>  <i_i_glide_posenum>  (1) 
212

>  <i_i_glide_rotatable_bonds>  (1) 
6

>  <i_lp_mmshare_version>  (1) 
72125

>  <i_m_source_file_index>  (1) 
45

>  <i_f3d_flags>  (1) 
0

>  <num_sample>  (1) 
100

>  <b_lp_Chiralities_Consistent>  (1) 
1

>  <r_epik_Charging_Adjusted_Penalty>  (1) 
0.41733257654759531

>  <r_epik_Ionization_Penalty>  (1) 
0.0069177268181324029

>  <r_epik_Ionization_Penalty_Charging>  (1) 
0.0066527375949913311

>  <r_epik_Ionization_Penalty_Neutral>  (1) 
0.00026498922314107146

>  <r_epik_State_Penalty>  (1) 
0.41067983895260396

>  <r_glide_ring_energy>  (1) 
0

>  <r_i_docking_score>  (1) 
-6.3795788001942428

>  <r_i_glide_ecoul>  (1) 
-3.4775957575184293

>  <r_i_glide_eff_state_penalty>  (1) 
0.41067983895260396

>  <r_i_glide_einternal>  (1) 
6.2933903927409993

>  <r_i_glide_emodel>  (1) 
-48.311030154007845

>  <r_i_glide_emodel_strain>  (1) 
0.42956624959087009

>  <r_i_glide_energy>  (1) 
-33.373891595289557

>  <r_i_glide_erotb>  (1) 
0.61440649929112812

>  <r_i_glide_esite>  (1) 
-0.061127495898491091

>  <r_i_glide_evdw>  (1) 
-29.896295837771127

>  <r_i_glide_gscore>  (1) 
-6.7902586391468471

>  <r_i_glide_gscore_strain>  (1) 
0

>  <r_i_glide_hbond>  (1) 
-0.092036110565874768

>  <r_i_glide_ligand_efficiency>  (1) 
-0.2551831520077697

>  <r_i_glide_ligand_efficiency_ln>  (1) 
-1.5121513561953539

>  <r_i_glide_ligand_efficiency_sa>  (1) 
-0.74616006296378878

>  <r_i_glide_lipo>  (1) 
-2.740917251781207

>  <r_i_glide_metal>  (1) 
-0

>  <r_i_glide_rewards>  (1) 
-2.4941301246760812

>  <r_lp_Energy>  (1) 
18.805842999999999

>  <r_lp_tautomer_probability>  (1) 
0.49999399997599986

>  <s_epik_Chemistry_Notes>  (1) 
This compound has an imine and may undergo hydrolysis. This compound contains an acetal/aminal-like group ( X-CH(R)-Y where X, Y are N, S, or O) that may be acid/base labile, releasing an aldehyde.

>  <s_epik_cmdline>  (1) 
J2VwaWtfcHl0aG9uJywgJy1waHQnLCAnMS4wJywgJy1waCcsICc3LjQnLCAnLXRuJywgJzgnLCAnLW1hJywgJzUwMCcsICctaW1hZScsICc8aW5maWxlLm1hZT4nLCAnLW9tYWUnLCAnPG91dGZpbGUubWFlPic=

>  <s_epik_input>  (1) 
W0NIM11bQ0BIXTFbQ0gyXVtDSDJdTihbQ0BASF0xW0NIM10pW0NAQEhdKFtPSF0pW0NAQEhdKFtDSDNdKVxDKFtDSDNdKT1OXFtDQEBIXShPW0NIM10pQzI9Qz1bQ0hdW0NIMl1bQ0BASF0oRilbQ0gyXVtDSDJdMg==

>  <s_glide_docking_method>  (1) 
confgen

>  <s_i_glide_gridfile>  (1) 
gpcr_5ht2c_6bqh_protein_autoprepared_prepared

>  <s_lp_Force_Field>  (1) 
S-OPLS

>  <s_lp_Variant>  (1) 
DiffSBDD_44_num_sample_100-6

>  <s_m_source_file>  (1) 
generated__ligand_DiffSBDD_2026-05-06_prepared.sdf

>  <GenAI_Model>  (1) 
DiffSBDD

>  <Protein>  (1) 
GPCR_5HT2C

$$$$
DiffSBDD_79_num_sample_100
     RDKit          3D

  0  0  0  0  0  0  0  0  0  0999 V3000
M  V30 BEGIN CTAB
M  V30 COUNTS 84 86 0 0 1
M  V30 BEGIN ATOM
M  V30 1 C 37.509465 35.058445 60.649995 0
M  V30 2 C 39.282788 31.573978 61.360127 0
M  V30 3 C 39.777534 26.653049 56.911779 0
M  V30 4 C 44.841332 27.865019 64.132164 0
M  V30 5 C 36.578789 34.421529 58.511724 0
M  V30 6 C 37.992653 24.983166 56.522671 0
M  V30 7 C 36.839803 33.904538 59.892519 0
M  V30 8 C 38.121811 30.926941 56.597727 0
M  V30 9 F 38.701969 24.210603 57.346244 0
M  V30 10 C 44.109903 26.541666 63.823711 0
M  V30 11 C 37.855986 32.067140 61.531104 0
M  V30 12 C 37.980586 28.652985 55.391754 0
M  V30 13 F 36.779266 25.141578 57.050900 0
M  V30 14 C 38.628762 26.347065 56.286708 0
M  V30 15 C 39.830358 29.166508 56.938675 0
M  V30 16 C 40.471394 29.512231 61.815118 0
M  V30 17 C 44.261609 28.564538 66.447299 0
M  V30 18 N 44.111177 28.705829 65.100723 0
M  V30 19 C 35.721998 33.082486 60.491952 0
M  V30 20 C 38.694847 29.534783 56.334357 0
M  V30 21 C 43.225208 29.741759 64.536690 0
M  V30 22 C 38.784003 29.601473 60.094849 0 CFG=2
M  V30 23 C 37.108349 32.427387 60.246494 0
M  V30 24 C 34.472239 32.672711 59.715140 0
M  V30 25 O 37.497562 30.020238 59.719837 0
M  V30 26 O 43.666316 29.270631 67.260773 0
M  V30 27 C 38.778922 28.077238 59.927742 0
M  V30 28 C 35.215348 33.490285 61.853490 0
M  V30 29 C 45.219786 27.474895 66.946247 0
M  V30 30 N 39.214819 30.118357 61.376800 0
M  V30 31 F 37.845494 24.343697 55.364189 0
M  V30 32 C 37.953857 27.283424 55.369645 0
M  V30 33 C 42.148381 29.122491 63.633309 0
M  V30 34 C 40.555559 27.895870 56.713386 0
M  V30 35 C 41.113152 30.099288 63.088095 0
M  V30 36 C 38.301693 31.655531 57.971483 0
M  V30 37 C 37.300199 31.324038 59.141710 0 CFG=2
M  V30 38 H 36.944778 35.979813 60.503864 0
M  V30 39 H 37.578576 34.911377 61.722049 0
M  V30 40 H 38.519127 35.217926 60.270553 0
M  V30 41 H 39.828748 31.968941 62.212738 0
M  V30 42 H 39.771620 31.974590 60.471848 0
M  V30 43 H 40.224918 25.925369 57.573084 0
M  V30 44 H 44.963955 28.424087 63.203722 0
M  V30 45 H 45.865206 27.660463 64.441724 0
M  V30 46 H 35.777165 35.158264 58.589809 0
M  V30 47 H 37.467162 34.888982 58.090519 0
M  V30 48 H 36.267257 33.637120 57.835903 0
M  V30 49 H 38.543405 31.566979 55.821340 0
M  V30 50 H 37.067447 30.853305 56.362536 0
M  V30 51 H 44.644658 25.983402 63.053531 0
M  V30 52 H 44.007307 25.913631 64.705678 0
M  V30 53 H 43.102326 26.685285 63.451624 0
M  V30 54 H 37.257428 31.349923 62.092825 0
M  V30 55 H 37.931547 32.921820 62.190901 0
M  V30 56 H 37.347480 29.146859 54.668997 0
M  V30 57 H 40.309547 29.858866 57.598336 0
M  V30 58 H 40.267056 28.458916 62.012004 0
M  V30 59 H 41.183763 29.536890 60.992040 0
M  V30 60 H 43.833590 30.443261 63.964484 0
M  V30 61 H 42.731657 30.337478 65.305922 0
M  V30 62 H 39.498077 29.970130 59.381858 0
M  V30 63 H 33.600444 33.250780 60.023872 0
M  V30 64 H 34.547658 32.821704 58.653513 0
M  V30 65 H 34.267496 31.621441 59.881530 0
M  V30 66 H 39.797662 27.691388 59.884570 0
M  V30 67 H 38.267475 27.621475 60.764405 0
M  V30 68 H 38.267929 27.803333 59.005360 0
M  V30 69 H 34.667805 34.420233 61.779884 0
M  V30 70 H 34.549208 32.727831 62.253488 0
M  V30 71 H 36.011215 33.679779 62.555273 0
M  V30 72 H 46.234586 27.621569 66.577090 0
M  V30 73 H 45.276450 27.505721 68.034664 0
M  V30 74 H 44.870765 26.481032 66.672570 0
M  V30 75 H 37.301227 26.836975 54.632553 0
M  V30 76 H 41.629415 28.317471 64.155836 0
M  V30 77 H 42.645248 28.679407 62.772445 0
M  V30 78 H 40.975635 27.894975 55.710794 0
M  V30 79 H 41.403102 27.870514 57.399646 0
M  V30 80 H 41.607904 31.044150 62.859822 0
M  V30 81 H 40.360432 30.299274 63.853393 0
M  V30 82 H 39.328921 31.672874 58.289540 0
M  V30 83 H 38.174101 32.695544 57.706610 0
M  V30 84 H 36.336289 31.213257 58.657699 0
M  V30 END ATOM
M  V30 BEGIN BOND
M  V30 1 1 7 1
M  V30 2 1 7 5
M  V30 3 1 9 6
M  V30 4 1 10 4
M  V30 5 1 11 2
M  V30 6 1 13 6
M  V30 7 2 14 3
M  V30 8 1 14 6
M  V30 9 1 18 4
M  V30 10 1 18 17
M  V30 11 1 19 7
M  V30 12 1 20 8
M  V30 13 1 20 12
M  V30 14 2 20 15
M  V30 15 1 21 18
M  V30 16 1 23 7
M  V30 17 1 23 11
M  V30 18 1 23 19
M  V30 19 1 24 19
M  V30 20 1 25 22
M  V30 21 2 26 17
M  V30 22 1 27 22
M  V30 23 1 28 19
M  V30 24 1 29 17
M  V30 25 1 30 2
M  V30 26 1 30 16
M  V30 27 1 30 22
M  V30 28 1 31 6
M  V30 29 2 32 12
M  V30 30 1 32 14
M  V30 31 1 33 21
M  V30 32 1 34 3
M  V30 33 1 34 15
M  V30 34 1 35 16
M  V30 35 1 35 33
M  V30 36 1 36 8
M  V30 37 1 37 23
M  V30 38 1 37 25
M  V30 39 1 37 36
M  V30 40 1 38 1
M  V30 41 1 39 1
M  V30 42 1 40 1
M  V30 43 1 41 2
M  V30 44 1 42 2
M  V30 45 1 43 3
M  V30 46 1 44 4
M  V30 47 1 45 4
M  V30 48 1 46 5
M  V30 49 1 47 5
M  V30 50 1 48 5
M  V30 51 1 49 8
M  V30 52 1 50 8
M  V30 53 1 51 10
M  V30 54 1 52 10
M  V30 55 1 53 10
M  V30 56 1 54 11
M  V30 57 1 55 11
M  V30 58 1 56 12
M  V30 59 1 57 15
M  V30 60 1 58 16
M  V30 61 1 59 16
M  V30 62 1 60 21
M  V30 63 1 61 21
M  V30 64 1 22 62 CFG=3
M  V30 65 1 63 24
M  V30 66 1 64 24
M  V30 67 1 65 24
M  V30 68 1 66 27
M  V30 69 1 67 27
M  V30 70 1 68 27
M  V30 71 1 69 28
M  V30 72 1 70 28
M  V30 73 1 71 28
M  V30 74 1 72 29
M  V30 75 1 73 29
M  V30 76 1 74 29
M  V30 77 1 75 32
M  V30 78 1 76 33
M  V30 79 1 77 33
M  V30 80 1 78 34
M  V30 81 1 79 34
M  V30 82 1 80 35
M  V30 83 1 81 35
M  V30 84 1 82 36
M  V30 85 1 83 36
M  V30 86 1 37 84 CFG=3
M  V30 END BOND
M  V30 END CTAB
M  END
>  <i_epik_Tot_Q>  (1) 
0

>  <i_epik_Tot_abs_Q>  (1) 
0

>  <i_i_glide_confnum>  (1) 
1354

>  <i_i_glide_lignum>  (1) 
200

>  <i_i_glide_posenum>  (1) 
153

>  <i_i_glide_rotatable_bonds>  (1) 
11

>  <i_lp_mmshare_version>  (1) 
72125

>  <i_m_source_file_index>  (1) 
80

>  <i_f3d_flags>  (1) 
0

>  <num_sample>  (1) 
100

>  <b_lp_Chiralities_Consistent>  (1) 
1

>  <r_epik_Charging_Adjusted_Penalty>  (1) 
0.2050768058510691

>  <r_epik_Ionization_Penalty>  (1) 
0.20507783400789523

>  <r_epik_Ionization_Penalty_Charging>  (1) 
0

>  <r_epik_Ionization_Penalty_Neutral>  (1) 
0.20507783400789523

>  <r_epik_State_Penalty>  (1) 
0.2050768058510691

>  <r_glide_ring_energy>  (1) 
0

>  <r_i_docking_score>  (1) 
-6.375178629849918

>  <r_i_glide_ecoul>  (1) 
-0.65281800981039928

>  <r_i_glide_eff_state_penalty>  (1) 
0.2050768058510691

>  <r_i_glide_einternal>  (1) 
14.774568781585373

>  <r_i_glide_emodel>  (1) 
-38.508957918833588

>  <r_i_glide_emodel_strain>  (1) 
3.7430588590299294

>  <r_i_glide_energy>  (1) 
-36.928849125258509

>  <r_i_glide_erotb>  (1) 
0.59792730839384334

>  <r_i_glide_esite>  (1) 
0

>  <r_i_glide_evdw>  (1) 
-36.276031115448113

>  <r_i_glide_gscore>  (1) 
-6.5802554357009875

>  <r_i_glide_gscore_strain>  (1) 
0

>  <r_i_glide_hbond>  (1) 
0

>  <r_i_glide_ligand_efficiency>  (1) 
-0.17230212513107887

>  <r_i_glide_ligand_efficiency_ln>  (1) 
-1.3826267894224868

>  <r_i_glide_ligand_efficiency_sa>  (1) 
-0.57414890644681649

>  <r_i_glide_lipo>  (1) 
-2.9538017686171698

>  <r_i_glide_metal>  (1) 
-0

>  <r_i_glide_rewards>  (1) 
-2.3126567182336948

>  <r_lp_Energy>  (1) 
53.665700999999999

>  <s_epik_Chemistry_Notes>  (1) 
This compound contains an acetal/aminal-like group ( X-CH(R)-Y where X, Y are N, S, or O) that may be acid/base labile, releasing an aldehyde.

>  <s_epik_cmdline>  (1) 
J2VwaWtfcHl0aG9uJywgJy1waHQnLCAnMS4wJywgJy1waCcsICc3LjQnLCAnLXRuJywgJzgnLCAnLW1hJywgJzUwMCcsICctaW1hZScsICc8aW5maWxlLm1hZT4nLCAnLW9tYWUnLCAnPG91dGZpbGUubWFlPic=

>  <s_epik_input>  (1) 
W0NIM11bQ0gyXU4oQyg9TylbQ0gzXSlbQ0gyXVtDSDJdW0NIMl1bQ0gyXU4oW0NIMl1bQ0gyXUMxMkMoW0NIM10pKFtDSDNdKUMxKFtDSDNdKVtDSDNdKVtDQEBIXShbQ0gzXSlPW0NASF0yW0NIMl1bQ0gyXUMoW0NIXT1bQ0hdMyk9W0NIXVtDSDJdW0NIXT1DM0MoRikoRilG

>  <s_glide_docking_method>  (1) 
confgen

>  <s_i_glide_gridfile>  (1) 
gpcr_5ht2c_6bqh_protein_autoprepared_prepared

>  <s_lp_Force_Field>  (1) 
S-OPLS

>  <s_lp_Variant>  (1) 
DiffSBDD_79_num_sample_100-2

>  <s_m_source_file>  (1) 
generated__ligand_DiffSBDD_2026-05-06_prepared.sdf

>  <GenAI_Model>  (1) 
DiffSBDD

>  <Protein>  (1) 
GPCR_5HT2C

$$$$
DiffSBDD_50_num_sample_100
     RDKit          3D

  0  0  0  0  0  0  0  0  0  0999 V3000
M  V30 BEGIN CTAB
M  V30 COUNTS 54 56 0 0 1
M  V30 BEGIN ATOM
M  V30 1 C 38.703284 27.971475 51.651042 0 CFG=1
M  V30 2 N 38.201356 28.904351 52.649379 0
M  V30 3 C 38.858335 26.715739 56.375114 0
M  V30 4 C 39.212179 28.076194 57.040535 0 CFG=1
M  V30 5 N 36.908317 30.753964 58.653541 0 CHG=1
M  V30 6 C 38.021892 32.862016 59.500931 0
M  V30 7 O 41.598450 27.621425 57.360467 0
M  V30 8 C 36.523633 34.165263 61.045608 0
M  V30 9 C 38.065404 30.244045 57.888738 0 CFG=1
M  V30 10 C 35.891115 31.871152 60.575232 0
M  V30 11 C 37.648023 34.089993 60.320684 0
M  V30 12 C 39.616108 28.713420 50.674061 0
M  V30 13 C 37.790028 28.096925 53.795442 0
M  V30 14 C 38.623627 26.800759 53.764148 0 CFG=1
M  V30 15 C 39.423225 26.917029 52.465522 0
M  V30 16 S 40.267397 30.152058 51.527455 0
M  V30 17 C 35.603438 33.060715 61.121929 0
M  V30 18 F 38.471913 35.149017 60.301452 0
M  V30 19 C 39.261346 29.842767 53.010429 0
M  V30 20 C 37.199208 31.577333 59.845509 0 CFG=1
M  V30 21 C 39.524463 26.523717 54.994652 0
M  V30 22 C 37.992251 28.709705 57.748776 0
M  V30 23 O 37.867410 30.867199 56.628518 0
M  V30 24 C 40.396786 27.940130 58.025143 0
M  V30 25 H 37.867511 27.505964 51.129029 0
M  V30 26 H 39.167121 25.904712 57.036026 0
M  V30 27 H 37.781632 26.585988 56.270673 0
M  V30 28 H 39.510254 28.772658 56.255404 0
M  V30 29 H 36.286571 31.283365 58.033330 0
M  V30 30 H 39.091180 32.672791 59.601292 0
M  V30 31 H 37.854474 33.143044 58.459975 0
M  V30 32 H 41.574932 26.718071 57.072531 0
M  V30 33 H 36.304687 35.072365 61.589366 0
M  V30 34 H 39.014004 30.563354 58.319874 0
M  V30 35 H 35.183134 31.061049 60.655860 0
M  V30 36 H 39.067414 29.058628 49.805651 0
M  V30 37 H 40.415525 28.073949 50.307845 0
M  V30 38 H 36.738983 27.837382 53.661328 0
M  V30 39 H 37.855090 28.654997 54.727559 0
M  V30 40 H 37.914826 25.977546 53.669010 0
M  V30 41 H 40.444509 27.221418 52.653508 0
M  V30 42 H 39.489006 26.021431 51.874104 0
M  V30 43 H 34.664697 33.191641 61.641046 0
M  V30 44 H 38.841185 30.770658 53.400387 0
M  V30 45 H 39.873712 29.415578 53.799718 0
M  V30 46 H 37.785497 30.961321 60.529450 0
M  V30 47 H 40.422817 27.135310 54.953228 0
M  V30 48 H 39.881061 25.495586 54.920197 0
M  V30 49 H 37.074641 28.473167 57.215101 0
M  V30 50 H 37.883032 28.250654 58.730639 0
M  V30 51 H 36.974381 31.204305 56.541274 0
M  V30 52 H 40.194050 27.185104 58.785171 0
M  V30 53 H 40.570878 28.877352 58.552969 0
M  V30 54 H 36.382552 29.948628 58.958041 0
M  V30 END ATOM
M  V30 BEGIN BOND
M  V30 1 1 2 1
M  V30 2 1 4 3
M  V30 3 1 9 5
M  V30 4 1 11 6
M  V30 5 2 11 8
M  V30 6 1 12 1
M  V30 7 1 13 2
M  V30 8 1 14 13
M  V30 9 1 15 1
M  V30 10 1 15 14
M  V30 11 1 16 12
M  V30 12 1 17 8
M  V30 13 2 17 10
M  V30 14 1 18 11
M  V30 15 1 19 2
M  V30 16 1 19 16
M  V30 17 1 20 5
M  V30 18 1 20 6
M  V30 19 1 20 10
M  V30 20 1 21 3
M  V30 21 1 21 14
M  V30 22 1 22 4
M  V30 23 1 22 9
M  V30 24 1 23 9
M  V30 25 1 24 4
M  V30 26 1 24 7
M  V30 27 1 1 25 CFG=3
M  V30 28 1 26 3
M  V30 29 1 27 3
M  V30 30 1 4 28 CFG=3
M  V30 31 1 29 5
M  V30 32 1 30 6
M  V30 33 1 31 6
M  V30 34 1 32 7
M  V30 35 1 33 8
M  V30 36 1 9 34 CFG=1
M  V30 37 1 35 10
M  V30 38 1 36 12
M  V30 39 1 37 12
M  V30 40 1 38 13
M  V30 41 1 39 13
M  V30 42 1 14 40 CFG=3
M  V30 43 1 41 15
M  V30 44 1 42 15
M  V30 45 1 43 17
M  V30 46 1 44 19
M  V30 47 1 45 19
M  V30 48 1 20 46 CFG=1
M  V30 49 1 47 21
M  V30 50 1 48 21
M  V30 51 1 49 22
M  V30 52 1 50 22
M  V30 53 1 51 23
M  V30 54 1 52 24
M  V30 55 1 53 24
M  V30 56 1 54 5
M  V30 END BOND
M  V30 END CTAB
M  END
>  <i_epik_Tot_Q>  (1) 
1

>  <i_epik_Tot_abs_Q>  (1) 
1

>  <i_i_glide_confnum>  (1) 
527

>  <i_i_glide_lignum>  (1) 
135

>  <i_i_glide_posenum>  (1) 
232

>  <i_i_glide_rotatable_bonds>  (1) 
10

>  <i_lp_mmshare_version>  (1) 
72125

>  <i_m_source_file_index>  (1) 
51

>  <i_f3d_flags>  (1) 
0

>  <num_sample>  (1) 
100

>  <b_lp_Chiralities_Consistent>  (1) 
1

>  <r_epik_Charging_Adjusted_Penalty>  (1) 
2.5903076652609913

>  <r_epik_Ionization_Penalty>  (1) 
1.4636165094899594

>  <r_epik_Ionization_Penalty_Charging>  (1) 
1.2951538326304957

>  <r_epik_Ionization_Penalty_Neutral>  (1) 
0.1684626768594637

>  <r_epik_State_Penalty>  (1) 
1.2951538326304957

>  <r_glide_ring_energy>  (1) 
0

>  <r_i_docking_score>  (1) 
-6.372074503560027

>  <r_i_glide_ecoul>  (1) 
-9.501463452041925

>  <r_i_glide_eff_state_penalty>  (1) 
1.2951538326304957

>  <r_i_glide_einternal>  (1) 
10.736786413421537

>  <r_i_glide_emodel>  (1) 
-59.84621646393456

>  <r_i_glide_emodel_strain>  (1) 
0.53026691607442444

>  <r_i_glide_energy>  (1) 
-42.748903870021316

>  <r_i_glide_erotb>  (1) 
0.89870886967847008

>  <r_i_glide_esite>  (1) 
-0.15755640874525181

>  <r_i_glide_evdw>  (1) 
-33.247440417979391

>  <r_i_glide_gscore>  (1) 
-7.6672283361905231

>  <r_i_glide_gscore_strain>  (1) 
0

>  <r_i_glide_hbond>  (1) 
-0.4418567660428897

>  <r_i_glide_ligand_efficiency>  (1) 
-0.26550310431500113

>  <r_i_glide_ligand_efficiency_ln>  (1) 
-1.5251298241481406

>  <r_i_glide_ligand_efficiency_sa>  (1) 
-0.76584347622718685

>  <r_i_glide_lipo>  (1) 
-3.2905871383788581

>  <r_i_glide_metal>  (1) 
-0

>  <r_i_glide_rewards>  (1) 
-1.5883453539967363

>  <r_lp_Energy>  (1) 
5.0849209999999996

>  <s_epik_Chemistry_Notes>  (1) 
This compound contains an acetal/aminal-like group ( X-CH(R)-Y where X, Y are N, S, or O) that may be acid/base labile, releasing an aldehyde.

>  <s_epik_cmdline>  (1) 
J2VwaWtfcHl0aG9uJywgJy1waHQnLCAnMS4wJywgJy1waCcsICc3LjQnLCAnLXRuJywgJzgnLCAnLW1hJywgJzUwMCcsICctaW1hZScsICc8aW5maWxlLm1hZT4nLCAnLW9tYWUnLCAnPG91dGZpbGUubWFlPic=

>  <s_epik_input>  (1) 
W0NIMl0xU1tDSDJdTihbQ0BASF0xMilbQ0gyXVtDQEBIXShbQ0gyXTIpW0NIMl1bQ0gyXVtDQEhdKFtDSDJdW09IXSlbQ0gyXVtDQEBIXShbT0hdKVtOSF1bQ0BASF0oW0NIMl0zKVtDSF09W0NIXVtDSF09QzNG

>  <s_glide_docking_method>  (1) 
confgen

>  <s_i_glide_gridfile>  (1) 
gpcr_5ht2c_6bqh_protein_autoprepared_prepared

>  <s_lp_Force_Field>  (1) 
S-OPLS

>  <s_lp_Variant>  (1) 
DiffSBDD_50_num_sample_100-2

>  <s_m_source_file>  (1) 
generated__ligand_DiffSBDD_2026-05-06_prepared.sdf

>  <GenAI_Model>  (1) 
DiffSBDD

>  <Protein>  (1) 
GPCR_5HT2C

$$$$
DiffSBDD_39_num_sample_100
     RDKit          3D

  0  0  0  0  0  0  0  0  0  0999 V3000
M  V30 BEGIN CTAB
M  V30 COUNTS 61 64 0 0 1
M  V30 BEGIN ATOM
M  V30 1 C 39.058960 34.732401 60.424842 0
M  V30 2 C 38.408924 28.591886 58.303210 0
M  V30 3 C 36.049118 32.510290 61.328809 0
M  V30 4 C 37.989569 29.788694 59.186890 0
M  V30 5 C 38.023271 32.924784 59.023235 0
M  V30 6 C 38.602060 28.619117 55.783320 0
M  V30 7 N 39.900118 30.983537 53.037074 0
M  V30 8 O 36.744991 31.621427 61.853502 0 CHG=-1
M  V30 9 C 39.041587 29.167496 54.451106 0
M  V30 10 C 36.767253 35.075954 59.632193 0
M  V30 11 O 35.680878 33.579057 61.853502 0
M  V30 12 C 36.743451 36.326576 60.285981 0
M  V30 13 C 37.863668 36.767819 61.017667 0
M  V30 14 N 36.922390 32.121011 59.075155 0
M  V30 15 C 40.242760 36.458339 61.858713 0
M  V30 16 C 34.781923 33.430829 59.351246 0
M  V30 17 C 40.319128 30.642329 50.672541 0
M  V30 18 C 37.061652 30.791277 58.445422 0
M  V30 19 C 41.055770 34.456965 63.347982 0
M  V30 20 C 39.004112 28.328308 53.310512 0
M  V30 21 C 35.686758 32.299602 59.874706 0 CFG=2
M  V30 22 C 40.129050 29.412169 49.723945 0
M  V30 23 O 41.135856 33.932675 64.480492 0 CHG=-1
M  V30 24 C 37.936166 34.265283 59.713109 0
M  V30 25 S 39.467407 27.925641 50.653503 0
M  V30 26 C 39.438445 28.851588 52.087822 0
M  V30 27 O 38.571405 27.036170 53.399686 0
M  V30 28 C 39.023508 35.971550 61.084015 0
M  V30 29 Cl 39.467371 31.687164 55.523360 0
M  V30 30 C 40.402945 35.846276 63.272178 0
M  V30 31 C 39.496644 30.531705 54.247167 0
M  V30 32 C 38.925052 29.128358 56.988976 0
M  V30 33 C 35.560853 34.627944 58.820223 0
M  V30 34 O 39.067405 32.586616 58.485086 0
M  V30 35 C 39.867398 30.138257 52.006736 0
M  V30 36 O 41.467403 33.953886 62.281026 0
M  V30 37 H 39.949394 34.126174 60.469236 0
M  V30 38 H 37.560753 27.930566 58.124368 0
M  V30 39 H 39.185967 28.007272 58.796728 0
M  V30 40 H 37.495476 29.438969 60.091524 0
M  V30 41 H 38.896290 30.287341 59.529404 0
M  V30 42 H 37.969396 27.743579 55.748881 0
M  V30 43 H 35.867400 36.949789 60.224995 0
M  V30 44 H 37.835483 37.722616 61.519235 0
M  V30 45 H 41.136605 36.284185 61.258931 0
M  V30 46 H 40.174386 37.541830 61.955587 0
M  V30 47 H 34.081897 33.765596 60.117241 0
M  V30 48 H 34.107889 33.043378 58.598053 0
M  V30 49 H 39.714314 31.493300 50.357303 0
M  V30 50 H 41.363266 30.951478 50.715770 0
M  V30 51 H 37.397671 30.986224 57.428157 0
M  V30 52 H 36.092403 30.312963 58.310332 0
M  V30 53 H 35.091607 31.386436 59.874137 0
M  V30 54 H 39.467404 29.668442 48.908254 0
M  V30 55 H 41.065531 29.221435 49.210314 0
M  V30 56 H 38.508364 26.641975 52.541765 0
M  V30 57 H 41.054176 36.494705 63.853749 0
M  V30 58 H 39.443588 35.827169 63.788204 0
M  V30 59 H 39.580069 29.965155 57.068640 0
M  V30 60 H 34.887511 35.465349 58.649228 0
M  V30 61 H 35.946788 34.338385 57.853499 0
M  V30 END ATOM
M  V30 BEGIN BOND
M  V30 1 1 4 2
M  V30 2 1 8 3
M  V30 3 1 9 6
M  V30 4 2 11 3
M  V30 5 1 12 10
M  V30 6 2 13 12
M  V30 7 1 14 5
M  V30 8 1 18 4
M  V30 9 1 18 14
M  V30 10 2 20 9
M  V30 11 1 21 3
M  V30 12 1 21 14
M  V30 13 1 21 16
M  V30 14 1 22 17
M  V30 15 1 23 19
M  V30 16 1 24 1
M  V30 17 1 24 5
M  V30 18 2 24 10
M  V30 19 1 25 22
M  V30 20 1 26 20
M  V30 21 1 26 25
M  V30 22 1 27 20
M  V30 23 2 28 1
M  V30 24 1 28 13
M  V30 25 1 28 15
M  V30 26 1 30 15
M  V30 27 1 30 19
M  V30 28 2 31 7
M  V30 29 1 31 9
M  V30 30 1 31 29
M  V30 31 1 32 2
M  V30 32 2 32 6
M  V30 33 1 33 10
M  V30 34 1 33 16
M  V30 35 2 34 5
M  V30 36 1 35 7
M  V30 37 1 35 17
M  V30 38 2 35 26
M  V30 39 2 36 19
M  V30 40 1 37 1
M  V30 41 1 38 2
M  V30 42 1 39 2
M  V30 43 1 40 4
M  V30 44 1 41 4
M  V30 45 1 42 6
M  V30 46 1 43 12
M  V30 47 1 44 13
M  V30 48 1 45 15
M  V30 49 1 46 15
M  V30 50 1 47 16
M  V30 51 1 48 16
M  V30 52 1 49 17
M  V30 53 1 50 17
M  V30 54 1 51 18
M  V30 55 1 52 18
M  V30 56 1 21 53 CFG=1
M  V30 57 1 54 22
M  V30 58 1 55 22
M  V30 59 1 56 27
M  V30 60 1 57 30
M  V30 61 1 58 30
M  V30 62 1 59 32
M  V30 63 1 60 33
M  V30 64 1 61 33
M  V30 END BOND
M  V30 END CTAB
M  END
>  <i_epik_Tot_Q>  (1) 
-2

>  <i_epik_Tot_abs_Q>  (1) 
2

>  <i_i_glide_confnum>  (1) 
264

>  <i_i_glide_lignum>  (1) 
96

>  <i_i_glide_posenum>  (1) 
41

>  <i_i_glide_rotatable_bonds>  (1) 
10

>  <i_lp_mmshare_version>  (1) 
72125

>  <i_m_source_file_index>  (1) 
40

>  <i_f3d_flags>  (1) 
0

>  <num_sample>  (1) 
100

>  <b_lp_Chiralities_Consistent>  (1) 
1

>  <r_epik_Charging_Adjusted_Penalty>  (1) 
1.1553041349672681

>  <r_epik_Ionization_Penalty>  (1) 
1.0836065631352982

>  <r_epik_Ionization_Penalty_Charging>  (1) 
0.00098582723969229671

>  <r_epik_Ionization_Penalty_Neutral>  (1) 
1.0826207358956059

>  <r_epik_State_Penalty>  (1) 
1.1543183077275758

>  <r_glide_ring_energy>  (1) 
0

>  <r_i_docking_score>  (1) 
-6.3693727795725552

>  <r_i_glide_ecoul>  (1) 
-4.3414030915952253

>  <r_i_glide_eff_state_penalty>  (1) 
1.1543183077275758

>  <r_i_glide_einternal>  (1) 
6.8295765998131941

>  <r_i_glide_emodel>  (1) 
-54.626380962127676

>  <r_i_glide_emodel_strain>  (1) 
5.1049247568320908

>  <r_i_glide_energy>  (1) 
-45.906652526567093

>  <r_i_glide_erotb>  (1) 
0.51538728504810294

>  <r_i_glide_esite>  (1) 
-0.15589852539398483

>  <r_i_glide_evdw>  (1) 
-41.565249434971868

>  <r_i_glide_gscore>  (1) 
-7.523691087300131

>  <r_i_glide_gscore_strain>  (1) 
0.2762311892080227

>  <r_i_glide_hbond>  (1) 
-0.16

>  <r_i_glide_ligand_efficiency>  (1) 
-0.17692702165479321

>  <r_i_glide_ligand_efficiency_ln>  (1) 
-1.3896250599365874

>  <r_i_glide_ligand_efficiency_sa>  (1) 
-0.5842001538677315

>  <r_i_glide_lipo>  (1) 
-4.104430731703899

>  <r_i_glide_metal>  (1) 
-0

>  <r_i_glide_rewards>  (1) 
-1.1655073689704945

>  <r_lp_Energy>  (1) 
56.584314999999997

>  <s_epik_cmdline>  (1) 
J2VwaWtfcHl0aG9uJywgJy1waHQnLCAnMS4wJywgJy1waCcsICc3LjQnLCAnLXRuJywgJzgnLCAnLW1hJywgJzUwMCcsICctaW1hZScsICc8aW5maWxlLm1hZT4nLCAnLW9tYWUnLCAnPG91dGZpbGUubWFlPic=

>  <s_epik_input>  (1) 
W09IXUMoPU8pW0NIMl1bQ0gyXWMoW2NIXVtjSF0xKVtjSF1jKGMxMilDKD1PKU4oW0NAQEhdKEMoPU8pW09IXSlbQ0gyXVtDSDJdMilbQ0gyXVtDSDJdW0NIMl1cW0NIXT1bQ0hdXGMoYzNbT0hdKWMoQ2wpbmMoYzM0KVtDSDJdW0NIMl1TNA==

>  <s_glide_docking_method>  (1) 
confgen

>  <s_i_glide_gridfile>  (1) 
gpcr_5ht2c_6bqh_protein_autoprepared_prepared

>  <s_lp_Force_Field>  (1) 
S-OPLS

>  <s_lp_Variant>  (1) 
DiffSBDD_39_num_sample_100-3

>  <s_m_source_file>  (1) 
generated__ligand_DiffSBDD_2026-05-06_prepared.sdf

>  <GenAI_Model>  (1) 
DiffSBDD

>  <Protein>  (1) 
GPCR_5HT2C

$$$$
DiffSBDD_30_num_sample_100
     RDKit          3D

  0  0  0  0  0  0  0  0  0  0999 V3000
M  V30 BEGIN CTAB
M  V30 COUNTS 70 73 0 0 1
M  V30 BEGIN ATOM
M  V30 1 C 41.329567 26.785636 66.434559 0
M  V30 2 C 42.497975 31.197156 66.064123 0 CFG=2
M  V30 3 O 41.467511 28.725958 67.793828 0
M  V30 4 C 38.838058 28.392074 51.916362 0
M  V30 5 C 39.467248 29.621499 51.670758 0
M  V30 6 N 41.598457 28.390456 64.117676 0
M  V30 7 C 39.670752 30.003317 54.069970 0
M  V30 8 C 41.636621 29.114358 65.385536 0 CFG=1
M  V30 9 O 40.797575 33.430689 63.877032 0
M  V30 10 O 44.618370 30.528919 67.028216 0
M  V30 11 C 38.132018 26.175036 56.999401 0
M  V30 12 C 43.816500 31.438449 66.819265 0
M  V30 13 C 44.091276 32.856234 67.306551 0
M  V30 14 C 36.930816 25.269604 57.121445 0
M  V30 15 C 37.901065 28.727258 56.722517 0 CFG=2
M  V30 16 C 40.410172 29.093666 60.656221 0
M  V30 17 N 41.067361 28.421431 61.793444 0 CHG=1
M  V30 18 C 38.106880 24.853381 56.266943 0
M  V30 19 C 39.939352 28.893016 58.134734 0 CFG=1
M  V30 20 C 39.867440 30.433794 52.744626 0
M  V30 21 C 38.394535 28.884196 58.152384 0
M  V30 22 N 37.867406 27.368402 56.144548 0 CFG=1 CHG=1
M  V30 23 C 38.634295 27.952264 53.237991 0
M  V30 24 C 41.049508 29.201150 63.037888 0
M  V30 25 C 39.070793 28.747265 54.333423 0
M  V30 26 C 40.598956 28.275780 59.376141 0
M  V30 27 C 40.932958 32.447415 64.872950 0
M  V30 28 C 41.963983 28.180741 66.586379 0 CFG=2
M  V30 29 C 38.945185 28.260965 55.760027 0 CFG=1
M  V30 30 O 38.021191 26.757521 53.456409 0
M  V30 31 S 40.504328 28.021497 56.650784 0
M  V30 32 O 42.667883 30.047390 65.288283 0
M  V30 33 O 42.256129 32.319330 65.268290 0
M  V30 34 H 41.802256 26.212389 65.636168 0
M  V30 35 H 41.433710 26.198934 67.347838 0
M  V30 36 H 40.269273 26.862721 66.202611 0
M  V30 37 H 41.703649 31.081967 66.803153 0
M  V30 38 H 40.617143 28.346795 67.985931 0
M  V30 39 H 38.513877 27.779454 51.087363 0
M  V30 40 H 39.625922 29.953268 50.654485 0
M  V30 41 H 42.551234 28.109409 63.902351 0
M  V30 42 H 40.002666 30.624064 54.889694 0
M  V30 43 H 40.667107 29.592156 65.540103 0
M  V30 44 H 41.048051 34.261232 64.253897 0
M  V30 45 H 38.791315 26.277406 57.857079 0
M  V30 46 H 43.450592 33.091912 68.155598 0
M  V30 47 H 45.131896 32.953249 67.618192 0
M  V30 48 H 43.899193 33.580113 66.515907 0
M  V30 49 H 36.793015 24.756018 58.070388 0
M  V30 50 H 36.013962 25.547501 56.605876 0
M  V30 51 H 37.067575 29.332832 56.376333 0
M  V30 52 H 40.832333 30.090824 60.524645 0
M  V30 53 H 39.348684 29.219893 60.874388 0
M  V30 54 H 40.576434 27.556413 61.972638 0
M  V30 55 H 37.967170 24.847830 55.188479 0
M  V30 56 H 38.743275 24.058903 56.653174 0
M  V30 57 H 40.267259 29.923181 58.008248 0
M  V30 58 H 40.337755 31.387281 52.551644 0
M  V30 59 H 37.982249 28.107093 58.793954 0
M  V30 60 H 38.020732 29.829102 58.550449 0
M  V30 61 H 41.632906 30.112586 62.900379 0
M  V30 62 H 40.023185 29.494172 63.265081 0
M  V30 63 H 40.224233 27.261257 59.517892 0
M  V30 64 H 41.669398 28.173962 59.187351 0
M  V30 65 H 40.545066 31.524570 64.450276 0
M  V30 66 H 40.311517 32.735326 65.722782 0
M  V30 67 H 43.047288 28.073931 66.665103 0
M  V30 68 H 37.658672 26.389962 52.659531 0
M  V30 69 H 42.025854 28.192559 61.546635 0
M  V30 70 H 37.258411 27.231956 55.347819 0
M  V30 END ATOM
M  V30 BEGIN BOND
M  V30 1 1 5 4
M  V30 2 1 8 6
M  V30 3 1 12 2
M  V30 4 2 12 10
M  V30 5 1 13 12
M  V30 6 1 14 11
M  V30 7 1 17 16
M  V30 8 1 18 11
M  V30 9 1 18 14
M  V30 10 2 20 5
M  V30 11 1 20 7
M  V30 12 1 21 15
M  V30 13 1 21 19
M  V30 14 1 22 11
M  V30 15 1 22 15
M  V30 16 2 23 4
M  V30 17 1 24 6
M  V30 18 1 24 17
M  V30 19 2 25 7
M  V30 20 1 25 23
M  V30 21 1 26 16
M  V30 22 1 26 19
M  V30 23 1 27 9
M  V30 24 1 28 1
M  V30 25 1 28 3
M  V30 26 1 28 8
M  V30 27 1 29 15
M  V30 28 1 29 22
M  V30 29 1 29 25 CFG=3
M  V30 30 1 30 23
M  V30 31 1 31 19
M  V30 32 1 31 29
M  V30 33 1 32 2
M  V30 34 1 32 8
M  V30 35 1 33 2
M  V30 36 1 33 27
M  V30 37 1 34 1
M  V30 38 1 35 1
M  V30 39 1 36 1
M  V30 40 1 2 37 CFG=1
M  V30 41 1 38 3
M  V30 42 1 39 4
M  V30 43 1 40 5
M  V30 44 1 41 6
M  V30 45 1 42 7
M  V30 46 1 8 43 CFG=1
M  V30 47 1 44 9
M  V30 48 1 45 11
M  V30 49 1 46 13
M  V30 50 1 47 13
M  V30 51 1 48 13
M  V30 52 1 49 14
M  V30 53 1 50 14
M  V30 54 1 15 51 CFG=3
M  V30 55 1 52 16
M  V30 56 1 53 16
M  V30 57 1 54 17
M  V30 58 1 55 18
M  V30 59 1 56 18
M  V30 60 1 19 57 CFG=3
M  V30 61 1 58 20
M  V30 62 1 59 21
M  V30 63 1 60 21
M  V30 64 1 61 24
M  V30 65 1 62 24
M  V30 66 1 63 26
M  V30 67 1 64 26
M  V30 68 1 65 27
M  V30 69 1 66 27
M  V30 70 1 28 67 CFG=1
M  V30 71 1 68 30
M  V30 72 1 69 17
M  V30 73 1 22 70 CFG=3
M  V30 END BOND
M  V30 END CTAB
M  END
>  <i_epik_Tot_Q>  (1) 
2

>  <i_epik_Tot_abs_Q>  (1) 
2

>  <i_i_glide_confnum>  (1) 
6915

>  <i_i_glide_lignum>  (1) 
83

>  <i_i_glide_posenum>  (1) 
393

>  <i_i_glide_rotatable_bonds>  (1) 
17

>  <i_lp_mmshare_version>  (1) 
72125

>  <i_m_source_file_index>  (1) 
31

>  <i_f3d_flags>  (1) 
0

>  <num_sample>  (1) 
100

>  <b_lp_Chiralities_Consistent>  (1) 
1

>  <r_epik_Charging_Adjusted_Penalty>  (1) 
1.979093595035226

>  <r_epik_Ionization_Penalty>  (1) 
0.79989620662071081

>  <r_epik_Ionization_Penalty_Charging>  (1) 
0.66086891892205935

>  <r_epik_Ionization_Penalty_Neutral>  (1) 
0.13902728769865147

>  <r_epik_State_Penalty>  (1) 
1.3182246761131666

>  <r_glide_ring_energy>  (1) 
0

>  <r_i_docking_score>  (1) 
-6.3691000453070306

>  <r_i_glide_ecoul>  (1) 
-6.6591716471829745

>  <r_i_glide_eff_state_penalty>  (1) 
1.3182246761131666

>  <r_i_glide_einternal>  (1) 
13.459109847049334

>  <r_i_glide_emodel>  (1) 
-68.228416904659341

>  <r_i_glide_emodel_strain>  (1) 
2.8626691429455633

>  <r_i_glide_energy>  (1) 
-48.517483223814281

>  <r_i_glide_erotb>  (1) 
1.1283805066766976

>  <r_i_glide_esite>  (1) 
-0.032546551531349756

>  <r_i_glide_evdw>  (1) 
-41.858311576631309

>  <r_i_glide_gscore>  (1) 
-7.6873247214201976

>  <r_i_glide_gscore_strain>  (1) 
0

>  <r_i_glide_hbond>  (1) 
-0.32859597272635688

>  <r_i_glide_ligand_efficiency>  (1) 
-0.19300303167597063

>  <r_i_glide_ligand_efficiency_ln>  (1) 
-1.4164548726411634

>  <r_i_glide_ligand_efficiency_sa>  (1) 
-0.6190638498939478

>  <r_i_glide_lipo>  (1) 
-4.000844413972751

>  <r_i_glide_metal>  (1) 
-0

>  <r_i_glide_rewards>  (1) 
-1.3619269639574265

>  <r_lp_Energy>  (1) 
37.245042999999995

>  <r_lp_tautomer_probability>  (1) 
0.99999996999736518

>  <s_epik_Chemistry_Notes>  (1) 
This compound contains an acetal/aminal-like group ( X-CH(R)-Y where X, Y are N, S, or O) that may be acid/base labile, releasing an aldehyde.

>  <s_epik_cmdline>  (1) 
J2VwaWtfcHl0aG9uJywgJy1waHQnLCAnMS4wJywgJy1waCcsICc3LjQnLCAnLXRuJywgJzgnLCAnLW1hJywgJzUwMCcsICctaW1hZScsICc8aW5maWxlLm1hZT4nLCAnLW9tYWUnLCAnPG91dGZpbGUubWFlPic=

>  <s_epik_input>  (1) 
W09IXVtDSDJdT1tDQEBIXShDKD1PKVtDSDNdKU9bQ0BIXShbQ0BIXShbQ0gzXSlbT0hdKVtOSF1bQ0gyXVtOSF1bQ0gyXVtDSDJdW0NAQEhdKFMxKVtDSDJdW0NASF0oTjJbQ0hdM1tDSDJdW0NIMl0zKVtDQEBdMTJjNFtjSF1bY0hdW2NIXVtjSF1jNFtPSF0=

>  <s_glide_docking_method>  (1) 
confgen

>  <s_i_glide_gridfile>  (1) 
gpcr_5ht2c_6bqh_protein_autoprepared_prepared

>  <s_lp_Force_Field>  (1) 
S-OPLS

>  <s_lp_Variant>  (1) 
DiffSBDD_30_num_sample_100-5

>  <s_m_source_file>  (1) 
generated__ligand_DiffSBDD_2026-05-06_prepared.sdf

>  <GenAI_Model>  (1) 
DiffSBDD

>  <Protein>  (1) 
GPCR_5HT2C

$$$$
DiffSBDD_90_num_sample_100
     RDKit          3D

  0  0  0  0  0  0  0  0  0  0999 V3000
M  V30 BEGIN CTAB
M  V30 COUNTS 85 88 0 0 1
M  V30 BEGIN ATOM
M  V30 1 C 35.273798 31.605924 59.863848 0
M  V30 2 O 39.867412 36.421537 64.759154 0
M  V30 3 F 39.165621 25.040894 55.253492 0
M  V30 4 C 39.942552 29.779230 60.376356 0 CFG=1
M  V30 5 C 38.268718 37.879298 61.682705 0 CFG=2
M  V30 6 C 39.266005 35.717876 60.907323 0 CFG=1
M  V30 7 C 41.574036 31.914659 61.981934 0
M  V30 8 C 37.816146 33.628308 61.006470 0
M  V30 9 C 40.247091 29.833646 61.924567 0
M  V30 10 N 38.767713 36.758703 63.874911 0
M  V30 11 C 37.544705 26.174270 56.517281 0
M  V30 12 C 39.169821 30.539732 62.783272 0
M  V30 13 C 38.175694 36.774016 60.608908 0
M  V30 14 C 40.230013 36.415766 61.875924 0
M  V30 15 O 39.867364 39.621438 61.285832 0
M  V30 16 N 36.673532 31.322014 59.435630 0 CFG=1 CHG=1
M  V30 17 C 38.700744 34.470562 61.570250 0
M  V30 18 F 39.216698 24.787765 57.394744 0
M  V30 19 C 39.745374 27.683687 57.782007 0 CFG=2
M  V30 20 N 36.738700 30.021587 58.657261 0
M  V30 21 C 37.363874 27.070313 57.757061 0
M  V30 22 C 37.393813 32.471787 58.802931 0
M  V30 23 O 41.467410 30.508596 62.201072 0
M  V30 24 C 40.494415 28.431162 62.503869 0
M  V30 25 C 34.989233 33.013062 60.421045 0
M  V30 26 C 40.020448 26.816598 56.533953 0
M  V30 27 C 37.231747 33.775453 59.602084 0 CFG=1
M  V30 28 C 39.353239 37.381663 62.694528 0 CFG=1
M  V30 29 C 41.060182 29.113431 59.507591 0
M  V30 30 O 37.867405 39.844073 60.367014 0 CHG=-1
M  V30 31 C 38.086317 29.452226 58.662774 0 CFG=1
M  V30 32 C 35.731846 34.102472 59.649994 0
M  V30 33 O 36.966436 37.999512 62.253554 0
M  V30 34 C 38.567209 29.160080 60.088993 0
M  V30 35 C 38.318810 28.273160 57.678235 0 CFG=1
M  V30 36 C 40.807155 28.761970 58.018935 0
M  V30 37 C 38.996083 25.667939 56.416949 0
M  V30 38 C 38.704448 39.232732 61.053502 0
M  V30 39 H 35.067408 30.883129 60.651848 0
M  V30 40 H 34.579596 31.407650 59.053326 0
M  V30 41 H 39.774302 35.486985 64.858738 0
M  V30 42 H 39.866146 30.814907 60.052461 0
M  V30 43 H 39.806659 35.411632 60.012381 0
M  V30 44 H 42.603844 32.217979 62.168804 0
M  V30 45 H 41.333834 32.198500 60.960116 0
M  V30 46 H 40.955681 32.493515 62.666828 0
M  V30 47 H 37.479632 32.777724 61.573762 0
M  V30 48 H 38.241987 37.416818 64.435256 0
M  V30 49 H 37.292346 26.733986 55.615179 0
M  V30 50 H 36.853511 25.331520 56.557310 0
M  V30 51 H 38.218841 30.021482 62.790901 0
M  V30 52 H 39.485948 30.596774 63.825945 0
M  V30 53 H 38.987632 31.554824 62.448362 0
M  V30 54 H 38.267408 37.171778 59.597656 0
M  V30 55 H 37.186554 36.330100 60.623380 0
M  V30 56 H 40.955401 36.997847 61.308496 0
M  V30 57 H 40.819323 35.724786 62.478741 0
M  V30 58 H 39.048845 34.266480 62.570991 0
M  V30 59 H 39.801120 27.007948 58.637355 0
M  V30 60 H 36.486447 30.373294 57.738115 0
M  V30 61 H 36.333077 27.398575 57.853521 0
M  V30 62 H 37.590539 26.460143 58.632085 0
M  V30 63 H 37.067441 32.632491 57.779266 0
M  V30 64 H 38.459279 32.260062 58.737015 0
M  V30 65 H 39.687989 27.744140 62.259294 0
M  V30 66 H 41.428304 28.016094 62.133096 0
M  V30 67 H 40.585814 28.457283 63.589520 0
M  V30 68 H 35.247334 33.056302 61.479116 0
M  V30 69 H 33.919332 33.221430 60.377793 0
M  V30 70 H 39.979742 27.438553 55.639193 0
M  V30 71 H 41.030678 26.410134 56.570873 0
M  V30 72 H 37.745195 34.566106 59.055409 0
M  V30 73 H 39.969735 38.189474 63.090188 0
M  V30 74 H 41.867406 29.826723 59.453546 0
M  V30 75 H 41.453759 28.220179 59.987153 0
M  V30 76 H 38.694543 30.255704 58.260861 0
M  V30 77 H 35.543320 35.066101 60.114477 0
M  V30 78 H 35.334369 34.178292 58.635691 0
M  V30 79 H 36.755971 37.174023 62.660544 0
M  V30 80 H 37.867465 29.621428 60.764760 0
M  V30 81 H 38.546637 28.091616 60.304929 0
M  V30 82 H 38.199878 28.713793 56.686424 0
M  V30 83 H 40.555335 29.638345 57.437362 0
M  V30 84 H 41.755315 28.408919 57.611699 0
M  V30 85 H 37.183898 31.133984 60.283784 0
M  V30 END ATOM
M  V30 BEGIN BOND
M  V30 1 1 9 4
M  V30 2 1 10 2
M  V30 3 1 12 9
M  V30 4 1 13 5
M  V30 5 1 13 6
M  V30 6 1 14 6
M  V30 7 1 16 1
M  V30 8 1 17 6
M  V30 9 2 17 8
M  V30 10 1 20 16
M  V30 11 1 21 11
M  V30 12 1 22 16
M  V30 13 1 23 7
M  V30 14 1 23 9
M  V30 15 1 24 9
M  V30 16 1 25 1
M  V30 17 1 26 19
M  V30 18 1 27 8
M  V30 19 1 27 22
M  V30 20 1 28 5
M  V30 21 1 28 10
M  V30 22 1 28 14
M  V30 23 1 29 4
M  V30 24 1 31 20
M  V30 25 1 32 25
M  V30 26 1 32 27
M  V30 27 1 5 33 CFG=1
M  V30 28 1 34 4
M  V30 29 1 34 31
M  V30 30 1 35 19
M  V30 31 1 35 21
M  V30 32 1 35 31
M  V30 33 1 36 19
M  V30 34 1 36 29
M  V30 35 1 37 3
M  V30 36 1 37 11
M  V30 37 1 37 18
M  V30 38 1 37 26
M  V30 39 1 38 5
M  V30 40 2 38 15
M  V30 41 1 38 30
M  V30 42 1 39 1
M  V30 43 1 40 1
M  V30 44 1 41 2
M  V30 45 1 4 42 CFG=3
M  V30 46 1 6 43 CFG=3
M  V30 47 1 44 7
M  V30 48 1 45 7
M  V30 49 1 46 7
M  V30 50 1 47 8
M  V30 51 1 48 10
M  V30 52 1 49 11
M  V30 53 1 50 11
M  V30 54 1 51 12
M  V30 55 1 52 12
M  V30 56 1 53 12
M  V30 57 1 54 13
M  V30 58 1 55 13
M  V30 59 1 56 14
M  V30 60 1 57 14
M  V30 61 1 58 17
M  V30 62 1 19 59 CFG=1
M  V30 63 1 60 20
M  V30 64 1 61 21
M  V30 65 1 62 21
M  V30 66 1 63 22
M  V30 67 1 64 22
M  V30 68 1 65 24
M  V30 69 1 66 24
M  V30 70 1 67 24
M  V30 71 1 68 25
M  V30 72 1 69 25
M  V30 73 1 70 26
M  V30 74 1 71 26
M  V30 75 1 27 72 CFG=3
M  V30 76 1 28 73 CFG=1
M  V30 77 1 74 29
M  V30 78 1 75 29
M  V30 79 1 31 76 CFG=3
M  V30 80 1 77 32
M  V30 81 1 78 32
M  V30 82 1 79 33
M  V30 83 1 80 34
M  V30 84 1 81 34
M  V30 85 1 35 82 CFG=3
M  V30 86 1 83 36
M  V30 87 1 84 36
M  V30 88 1 16 85 CFG=1
M  V30 END BOND
M  V30 END CTAB
M  END
>  <i_epik_Tot_Q>  (1) 
0

>  <i_epik_Tot_abs_Q>  (1) 
2

>  <i_i_glide_confnum>  (1) 
316

>  <i_i_glide_lignum>  (1) 
237

>  <i_i_glide_posenum>  (1) 
344

>  <i_i_glide_rotatable_bonds>  (1) 
10

>  <i_lp_mmshare_version>  (1) 
72125

>  <i_m_source_file_index>  (1) 
91

>  <i_f3d_flags>  (1) 
0

>  <num_sample>  (1) 
100

>  <b_lp_Chiralities_Consistent>  (1) 
1

>  <r_epik_Charging_Adjusted_Penalty>  (1) 
1.5083745474312953

>  <r_epik_Ionization_Penalty>  (1) 
0.65750586125956467

>  <r_epik_Ionization_Penalty_Charging>  (1) 
0.6544614066189578

>  <r_epik_Ionization_Penalty_Neutral>  (1) 
0.0030444546406068235

>  <r_epik_State_Penalty>  (1) 
0.8539131408123376

>  <r_glide_ring_energy>  (1) 
2.1449054143447501

>  <r_i_docking_score>  (1) 
-6.3668599358756017

>  <r_i_glide_ecoul>  (1) 
-5.3984865582569954

>  <r_i_glide_eff_state_penalty>  (1) 
0.8539131408123376

>  <r_i_glide_einternal>  (1) 
36.524425195133176

>  <r_i_glide_emodel>  (1) 
-13.577821641410829

>  <r_i_glide_emodel_strain>  (1) 
4.1841078745694915

>  <r_i_glide_energy>  (1) 
-32.449084107865154

>  <r_i_glide_erotb>  (1) 
0.42002339013477186

>  <r_i_glide_esite>  (1) 
-0.13233110887736341

>  <r_i_glide_evdw>  (1) 
-27.05059754960816

>  <r_i_glide_gscore>  (1) 
-7.220773076687939

>  <r_i_glide_gscore_strain>  (1) 
0.046026968642372879

>  <r_i_glide_hbond>  (1) 
-0.66868082727380063

>  <r_i_glide_ligand_efficiency>  (1) 
-0.16754894568093689

>  <r_i_glide_ligand_efficiency_ln>  (1) 
-1.3728822962183505

>  <r_i_glide_ligand_efficiency_sa>  (1) 
-0.56329543481440536

>  <r_i_glide_lipo>  (1) 
-3.2429686200525851

>  <r_i_glide_metal>  (1) 
-0

>  <r_i_glide_rewards>  (1) 
-1.4805400180423773

>  <r_lp_Energy>  (1) 
46.065079999999995

>  <s_epik_Chemistry_Notes>  (1) 
This compound has a N-S or N-O group and may undergo hydrolysis at high or low pH.

>  <s_epik_cmdline>  (1) 
J2VwaWtfcHl0aG9uJywgJy1waHQnLCAnMS4wJywgJy1waCcsICc3LjQnLCAnLXRuJywgJzgnLCAnLW1hJywgJzUwMCcsICctaW1hZScsICc8aW5maWxlLm1hZT4nLCAnLW9tYWUnLCAnPG91dGZpbGUubWFlPic=

>  <s_epik_input>  (1) 
RkMoRikoW0NIMl0xKVtDSDJdW0NIMl1bQ0BIXShbQ0BASF0xMilbQ0BIXShbQ0gyXVtDQEhdKFtDSDJdW0NIMl0yKUMoW0NIM10pKFtDSDNdKU9bQ0gzXSlbTkhdTjNbQ0gyXVtDSDJdW0NIMl1bQ0BIXShbQ0gyXTMpL1tDSF09W0NIXVxbQ0BASF0oW0NIMl1bQ0BdNChbT0hdKUMoPU8pW09IXSlbQ0gyXVtDQEBIXTRbTkhdW09IXQ==

>  <s_glide_docking_method>  (1) 
confgen

>  <s_i_glide_gridfile>  (1) 
gpcr_5ht2c_6bqh_protein_autoprepared_prepared

>  <s_lp_Force_Field>  (1) 
S-OPLS

>  <s_lp_Variant>  (1) 
DiffSBDD_90_num_sample_100-9

>  <s_m_source_file>  (1) 
generated__ligand_DiffSBDD_2026-05-06_prepared.sdf

>  <GenAI_Model>  (1) 
DiffSBDD

>  <Protein>  (1) 
GPCR_5HT2C

$$$$
DiffSBDD_59_num_sample_100
     RDKit          3D

  0  0  0  0  0  0  0  0  0  0999 V3000
M  V30 BEGIN CTAB
M  V30 COUNTS 54 55 0 0 1
M  V30 BEGIN ATOM
M  V30 1 O 40.267532 29.281154 65.465614 0
M  V30 2 N 38.146678 30.800950 55.406624 0 CFG=1 CHG=1
M  V30 3 C 39.867413 30.490692 52.551142 0
M  V30 4 C 38.167508 31.644416 56.644650 0
M  V30 5 C 39.992616 30.837960 63.626408 0
M  V30 6 C 39.067067 27.866010 51.901570 0
M  V30 7 C 39.039801 28.287793 53.246174 0
M  V30 8 C 39.446790 29.621429 53.582279 0
M  V30 9 C 39.467434 31.925237 60.798391 0
M  V30 10 C 37.490062 31.926487 59.134410 0
M  V30 11 Cl 38.507434 27.178354 54.460556 0
M  V30 12 C 37.778323 30.940956 57.980366 0
M  V30 13 O 39.973717 30.812476 60.653495 0
M  V30 14 N 39.502335 32.645113 61.897892 0
M  V30 15 N 38.876234 33.825738 61.846444 0
M  V30 16 C 40.327220 30.645534 65.117130 0
M  V30 17 C 38.739132 32.636957 59.695763 0 CFG=1
M  V30 18 C 39.436220 30.137362 55.045706 0 CFG=2
M  V30 19 C 36.967030 29.922145 55.275788 0
M  V30 20 C 40.224667 32.290492 63.135916 0 CFG=2
M  V30 21 C 39.890655 30.051457 51.213223 0
M  V30 22 C 38.426370 33.822994 60.624270 0
M  V30 23 C 41.717991 32.630435 62.964976 0
M  V30 24 C 40.005762 29.221042 56.155335 0
M  V30 25 C 39.491352 28.743972 50.890692 0
M  V30 26 H 39.482354 28.895243 65.084571 0
M  V30 27 H 40.175357 31.499314 52.786675 0
M  V30 28 H 37.467403 32.459937 56.465337 0
M  V30 29 H 39.140612 32.126255 56.741840 0
M  V30 30 H 40.598167 30.148124 63.037169 0
M  V30 31 H 38.953441 30.550860 63.457242 0
M  V30 32 H 38.759185 26.861815 51.646241 0
M  V30 33 H 36.985170 31.389086 59.940158 0
M  V30 34 H 36.767801 32.667557 58.786690 0
M  V30 35 H 38.530378 30.220724 58.294799 0
M  V30 36 H 36.861928 30.367925 57.851248 0
M  V30 37 H 39.630608 31.199984 65.745842 0
M  V30 38 H 41.328685 31.005887 65.349835 0
M  V30 39 H 39.424548 32.958374 58.912732 0
M  V30 40 H 40.155335 30.958018 55.016031 0
M  V30 41 H 37.067422 29.112152 55.989761 0
M  V30 42 H 36.022535 30.421428 55.453350 0
M  V30 43 H 36.880903 29.503796 54.275286 0
M  V30 44 H 39.846749 32.947670 63.919029 0
M  V30 45 H 40.214233 30.723447 50.431628 0
M  V30 46 H 37.831586 34.654720 60.244726 0
M  V30 47 H 42.271519 32.496745 63.893447 0
M  V30 48 H 42.188305 32.007768 62.204245 0
M  V30 49 H 41.847596 33.670698 62.663505 0
M  V30 50 H 40.918876 28.716350 55.842876 0
M  V30 51 H 40.267388 29.804292 57.035062 0
M  V30 52 H 39.304120 28.471776 56.512545 0
M  V30 53 H 39.507907 28.413809 49.862506 0
M  V30 54 H 38.018688 31.483535 54.672362 0
M  V30 END ATOM
M  V30 BEGIN BOND
M  V30 1 1 4 2
M  V30 2 2 7 6
M  V30 3 2 8 3
M  V30 4 1 8 7
M  V30 5 1 11 7
M  V30 6 1 12 4
M  V30 7 1 12 10
M  V30 8 2 13 9
M  V30 9 1 14 9
M  V30 10 1 15 14
M  V30 11 1 16 1
M  V30 12 1 16 5
M  V30 13 1 17 9
M  V30 14 1 17 10
M  V30 15 1 18 2
M  V30 16 1 18 8
M  V30 17 1 19 2
M  V30 18 1 20 5
M  V30 19 1 20 14
M  V30 20 1 21 3
M  V30 21 2 22 15
M  V30 22 1 22 17
M  V30 23 1 23 20
M  V30 24 1 24 18
M  V30 25 1 25 6
M  V30 26 2 25 21
M  V30 27 1 26 1
M  V30 28 1 27 3
M  V30 29 1 28 4
M  V30 30 1 29 4
M  V30 31 1 30 5
M  V30 32 1 31 5
M  V30 33 1 32 6
M  V30 34 1 33 10
M  V30 35 1 34 10
M  V30 36 1 35 12
M  V30 37 1 36 12
M  V30 38 1 37 16
M  V30 39 1 38 16
M  V30 40 1 17 39 CFG=3
M  V30 41 1 18 40 CFG=3
M  V30 42 1 41 19
M  V30 43 1 42 19
M  V30 44 1 43 19
M  V30 45 1 20 44 CFG=1
M  V30 46 1 45 21
M  V30 47 1 46 22
M  V30 48 1 47 23
M  V30 49 1 48 23
M  V30 50 1 49 23
M  V30 51 1 50 24
M  V30 52 1 51 24
M  V30 53 1 52 24
M  V30 54 1 53 25
M  V30 55 1 2 54 CFG=3
M  V30 END BOND
M  V30 END CTAB
M  END
>  <i_epik_Tot_Q>  (1) 
1

>  <i_epik_Tot_abs_Q>  (1) 
1

>  <i_i_glide_confnum>  (1) 
226

>  <i_i_glide_lignum>  (1) 
150

>  <i_i_glide_posenum>  (1) 
266

>  <i_i_glide_rotatable_bonds>  (1) 
10

>  <i_lp_mmshare_version>  (1) 
72125

>  <i_m_source_file_index>  (1) 
60

>  <i_f3d_flags>  (1) 
0

>  <num_sample>  (1) 
100

>  <b_lp_Chiralities_Consistent>  (1) 
1

>  <r_epik_Charging_Adjusted_Penalty>  (1) 
0.90698054963472508

>  <r_epik_Ionization_Penalty>  (1) 
0.11890783771570668

>  <r_epik_Ionization_Penalty_Charging>  (1) 
0.11890771087092902

>  <r_epik_Ionization_Penalty_Neutral>  (1) 
1.2684477765112781e-07

>  <r_epik_State_Penalty>  (1) 
0.78807283876379608

>  <r_glide_ring_energy>  (1) 
0

>  <r_i_docking_score>  (1) 
-6.3557412159992905

>  <r_i_glide_ecoul>  (1) 
-6.9290914497113043

>  <r_i_glide_eff_state_penalty>  (1) 
0.78807283876379608

>  <r_i_glide_einternal>  (1) 
6.019867296168675

>  <r_i_glide_emodel>  (1) 
-59.76160039827964

>  <r_i_glide_emodel_strain>  (1) 
0.29350908129675446

>  <r_i_glide_energy>  (1) 
-40.643507722319484

>  <r_i_glide_erotb>  (1) 
1.1440711446639862

>  <r_i_glide_esite>  (1) 
-0.045766841184947692

>  <r_i_glide_evdw>  (1) 
-33.714416272608183

>  <r_i_glide_gscore>  (1) 
-7.1438140547630864

>  <r_i_glide_gscore_strain>  (1) 
0

>  <r_i_glide_hbond>  (1) 
-0.32000000000000001

>  <r_i_glide_ligand_efficiency>  (1) 
-0.25422964863997161

>  <r_i_glide_ligand_efficiency_ln>  (1) 
-1.5065011343863968

>  <r_i_glide_ligand_efficiency_sa>  (1) 
-0.74337200220290156

>  <r_i_glide_lipo>  (1) 
-2.8423373082484336

>  <r_i_glide_metal>  (1) 
-0

>  <r_i_glide_rewards>  (1) 
-2.3546965189065854

>  <r_lp_Energy>  (1) 
23.407125000000001

>  <r_lp_tautomer_probability>  (1) 
0.26444745842670125

>  <s_epik_Chemistry_Notes>  (1) 
This compound has an imine and may undergo hydrolysis.

>  <s_epik_cmdline>  (1) 
J2VwaWtfcHl0aG9uJywgJy1waHQnLCAnMS4wJywgJy1waCcsICc3LjQnLCAnLXRuJywgJzgnLCAnLW1hJywgJzUwMCcsICctaW1hZScsICc8aW5maWxlLm1hZT4nLCAnLW9tYWUnLCAnPG91dGZpbGUubWFlPic=

>  <s_epik_input>  (1) 
W09IXVtDSDJdW0NIMl1bQ0BASF0oW0NIM10pTihDMT1PKU49W0NIXVtDQEBIXTFbQ0gyXVtDSDJdW0NIMl1OKFtDSDNdKVtDQEBIXShbQ0gzXSljMltjSF1bY0hdW2NIXVtjSF1jMkNs

>  <s_glide_docking_method>  (1) 
confgen

>  <s_i_glide_gridfile>  (1) 
gpcr_5ht2c_6bqh_protein_autoprepared_prepared

>  <s_lp_Force_Field>  (1) 
S-OPLS

>  <s_lp_Variant>  (1) 
DiffSBDD_59_num_sample_100-3

>  <s_m_source_file>  (1) 
generated__ligand_DiffSBDD_2026-05-06_prepared.sdf

>  <GenAI_Model>  (1) 
DiffSBDD

>  <Protein>  (1) 
GPCR_5HT2C

$$$$
DiffSBDD_40_num_sample_100
     RDKit          3D

  0  0  0  0  0  0  0  0  0  0999 V3000
M  V30 BEGIN CTAB
M  V30 COUNTS 73 75 0 0 1
M  V30 BEGIN ATOM
M  V30 1 C 33.575317 33.707790 58.985500 0
M  V30 2 C 38.588251 26.840031 53.529253 0 CFG=1
M  V30 3 N 42.127633 35.621429 65.257921 0
M  V30 4 C 38.290428 27.328585 56.094197 0
M  V30 5 C 37.325488 36.485239 61.389112 0
M  V30 6 C 38.602095 31.968182 57.545209 0
M  V30 7 N 41.066695 35.513016 63.149921 0 CHG=1
M  V30 8 C 39.664893 29.757170 55.327040 0
M  V30 9 O 38.757913 31.367015 53.853519 0
M  V30 10 C 39.023496 32.167014 56.085166 0
M  V30 11 C 38.632136 27.772689 52.316333 0
M  V30 12 C 39.940989 26.176525 53.922465 0
M  V30 13 N 41.343516 33.661312 64.203312 0
M  V30 14 C 36.991944 32.336217 60.088863 0 CFG=2
M  V30 15 C 37.768847 27.510539 54.672647 0
M  V30 16 C 38.484981 34.235819 60.861703 0 CFG=1
M  V30 17 C 37.411663 35.267230 60.443413 0 CFG=1
M  V30 18 S 37.907859 25.985064 57.000951 0
M  V30 19 C 40.530347 34.534105 62.337613 0
M  V30 20 N 35.959597 33.314297 59.647749 0 CFG=1 CHG=1
M  V30 21 S 39.318506 28.631243 56.726220 0
M  V30 22 C 34.590893 32.743627 59.601335 0
M  V30 23 C 40.714863 33.342572 63.025707 0
M  V30 24 C 38.686237 30.945986 55.196009 0 CFG=2
M  V30 25 C 36.018354 34.610215 60.375496 0
M  V30 26 O 38.667421 27.221433 51.066025 0
M  V30 27 C 36.725388 31.725522 61.476400 0
M  V30 28 N 39.722754 28.021510 51.750353 0
M  V30 29 C 41.544764 34.966761 64.258775 0
M  V30 30 C 38.399482 32.969946 59.946005 0 CFG=2
M  V30 31 C 39.908650 34.833255 61.007774 0
M  V30 32 C 38.744897 33.218930 58.443539 0
M  V30 33 H 32.667419 33.221439 58.653502 0
M  V30 34 H 33.252747 34.421425 59.723614 0
M  V30 35 H 33.992637 34.269620 58.151574 0
M  V30 36 H 37.959404 26.021442 53.185523 0
M  V30 37 H 42.255959 36.630694 65.244032 0
M  V30 38 H 42.471020 35.155328 66.085250 0
M  V30 39 H 37.141738 36.178745 62.419715 0
M  V30 40 H 38.225439 37.097149 61.380634 0
M  V30 41 H 36.509972 37.146563 61.095479 0
M  V30 42 H 37.558093 31.664429 57.497057 0
M  V30 43 H 39.144851 31.136135 57.987140 0
M  V30 44 H 39.735702 29.190113 54.404703 0
M  V30 45 H 40.667401 30.153070 55.453492 0
M  V30 46 H 38.123496 32.055685 53.713197 0
M  V30 47 H 40.082971 32.414590 56.018885 0
M  V30 48 H 38.486323 33.038121 55.705583 0
M  V30 49 H 40.504561 25.837011 53.053535 0
M  V30 50 H 40.594940 26.821423 54.501376 0
M  V30 51 H 39.769462 25.293141 54.537978 0
M  V30 52 H 41.612841 33.001297 64.922844 0
M  V30 53 H 36.915937 31.469933 59.436935 0
M  V30 54 H 36.765713 27.084520 54.640611 0
M  V30 55 H 37.573181 28.559074 54.470057 0
M  V30 56 H 38.197768 33.929930 61.865481 0
M  V30 57 H 37.655102 35.651112 59.453568 0
M  V30 58 H 34.600152 31.802643 59.053501 0
M  V30 59 H 34.267424 32.513218 60.611198 0
M  V30 60 H 40.450670 32.326045 62.768069 0
M  V30 61 H 37.657907 30.627088 55.372386 0
M  V30 62 H 35.614466 34.464295 61.378816 0
M  V30 63 H 35.382103 35.321135 59.853499 0
M  V30 64 H 37.540291 31.064065 61.771098 0
M  V30 65 H 36.616171 32.477891 62.253477 0
M  V30 66 H 35.821116 31.117389 61.453522 0
M  V30 67 H 39.125099 32.245168 60.318115 0
M  V30 68 H 40.562326 34.433553 60.253502 0
M  V30 69 H 39.928592 35.907549 60.835465 0
M  V30 70 H 39.763397 33.594722 58.358013 0
M  V30 71 H 38.109569 33.999004 58.024163 0
M  V30 72 H 36.188271 33.511682 58.681889 0
M  V30 73 H 41.091521 36.503032 62.937536 0
M  V30 END ATOM
M  V30 BEGIN BOND
M  V30 1 1 10 6
M  V30 2 1 11 2
M  V30 3 1 12 2
M  V30 4 1 15 2
M  V30 5 1 15 4
M  V30 6 1 17 5
M  V30 7 1 17 16
M  V30 8 2 18 4
M  V30 9 1 19 7
M  V30 10 1 20 14
M  V30 11 1 21 4
M  V30 12 1 21 8
M  V30 13 1 22 1
M  V30 14 1 22 20
M  V30 15 1 23 13
M  V30 16 2 23 19
M  V30 17 1 24 8
M  V30 18 1 24 9
M  V30 19 1 24 10
M  V30 20 1 25 17
M  V30 21 1 25 20
M  V30 22 1 26 11
M  V30 23 1 27 14
M  V30 24 2 28 11
M  V30 25 1 28 26
M  V30 26 1 29 3
M  V30 27 2 29 7
M  V30 28 1 29 13
M  V30 29 1 30 14
M  V30 30 1 30 16
M  V30 31 1 31 16
M  V30 32 1 31 19
M  V30 33 1 32 6
M  V30 34 1 32 30
M  V30 35 1 33 1
M  V30 36 1 34 1
M  V30 37 1 35 1
M  V30 38 1 2 36 CFG=3
M  V30 39 1 37 3
M  V30 40 1 38 3
M  V30 41 1 39 5
M  V30 42 1 40 5
M  V30 43 1 41 5
M  V30 44 1 42 6
M  V30 45 1 43 6
M  V30 46 1 44 8
M  V30 47 1 45 8
M  V30 48 1 46 9
M  V30 49 1 47 10
M  V30 50 1 48 10
M  V30 51 1 49 12
M  V30 52 1 50 12
M  V30 53 1 51 12
M  V30 54 1 52 13
M  V30 55 1 14 53 CFG=3
M  V30 56 1 54 15
M  V30 57 1 55 15
M  V30 58 1 16 56 CFG=1
M  V30 59 1 17 57 CFG=3
M  V30 60 1 58 22
M  V30 61 1 59 22
M  V30 62 1 60 23
M  V30 63 1 24 61 CFG=1
M  V30 64 1 62 25
M  V30 65 1 63 25
M  V30 66 1 64 27
M  V30 67 1 65 27
M  V30 68 1 66 27
M  V30 69 1 30 67 CFG=1
M  V30 70 1 68 31
M  V30 71 1 69 31
M  V30 72 1 70 32
M  V30 73 1 71 32
M  V30 74 1 20 72 CFG=3
M  V30 75 1 73 7
M  V30 END BOND
M  V30 END CTAB
M  END
>  <i_epik_Tot_Q>  (1) 
2

>  <i_epik_Tot_abs_Q>  (1) 
2

>  <i_i_glide_confnum>  (1) 
755

>  <i_i_glide_lignum>  (1) 
100

>  <i_i_glide_posenum>  (1) 
56

>  <i_i_glide_rotatable_bonds>  (1) 
14

>  <i_lp_mmshare_version>  (1) 
72125

>  <i_m_source_file_index>  (1) 
41

>  <i_f3d_flags>  (1) 
0

>  <num_sample>  (1) 
100

>  <b_lp_Chiralities_Consistent>  (1) 
1

>  <r_epik_Charging_Adjusted_Penalty>  (1) 
0.0037096170623772918

>  <r_epik_Ionization_Penalty>  (1) 
0.054330814931534903

>  <r_epik_Ionization_Penalty_Charging>  (1) 
0.0037096170623772918

>  <r_epik_Ionization_Penalty_Neutral>  (1) 
0.050621197869157614

>  <r_epik_State_Penalty>  (1) 
-0

>  <r_glide_ring_energy>  (1) 
0

>  <r_i_docking_score>  (1) 
-6.3524299166070417

>  <r_i_glide_ecoul>  (1) 
-2.4567258399111198

>  <r_i_glide_eff_state_penalty>  (1) 
-0

>  <r_i_glide_einternal>  (1) 
12.888611439750544

>  <r_i_glide_emodel>  (1) 
-55.091716654082603

>  <r_i_glide_emodel_strain>  (1) 
4.3192384258114203

>  <r_i_glide_energy>  (1) 
-47.133610324537273

>  <r_i_glide_erotb>  (1) 
0.95438045441749597

>  <r_i_glide_esite>  (1) 
-0.079547214616066023

>  <r_i_glide_evdw>  (1) 
-44.67688448462615

>  <r_i_glide_gscore>  (1) 
-6.3524299166070417

>  <r_i_glide_gscore_strain>  (1) 
0.079809606452855064

>  <r_i_glide_hbond>  (1) 
0

>  <r_i_glide_ligand_efficiency>  (1) 
-0.19851343489397005

>  <r_i_glide_ligand_efficiency_ln>  (1) 
-1.422482219027883

>  <r_i_glide_ligand_efficiency_sa>  (1) 
-0.63024087076101754

>  <r_i_glide_lipo>  (1) 
-2.6845359395706874

>  <r_i_glide_metal>  (1) 
-0

>  <r_i_glide_rewards>  (1) 
-2.0201837230726647

>  <r_lp_Energy>  (1) 
35.145339999999997

>  <r_lp_tautomer_probability>  (1) 
1

>  <s_epik_Chemistry_Notes>  (1) 
This compound has an imine and may undergo hydrolysis.

>  <s_epik_cmdline>  (1) 
J2VwaWtfcHl0aG9uJywgJy1waHQnLCAnMS4wJywgJy1waCcsICc3LjQnLCAnLXRuJywgJzgnLCAnLW1hJywgJzUwMCcsICctaW1hZScsICc8aW5maWxlLm1hZT4nLCAnLW9tYWUnLCAnPG91dGZpbGUubWFlPic=

>  <s_epik_input>  (1) 
W2NIXTFbbkhdYyhbTkgyXSluYzFbQ0gyXVtDQEBIXShbQ0BIXShbQ0gzXSlbQ0gyXU4oW0NAQEhdMltDSDNdKVtDSDJdW0NIM10pW0NAQEhdMltDSDJdW0NIMl1bQ0gyXVtDQEBIXShbT0hdKVtDSDJdU0MoPVMpW0NIMl1bQ0BIXShbQ0gzXSlDMz1OTzM=

>  <s_glide_docking_method>  (1) 
confgen

>  <s_i_glide_gridfile>  (1) 
gpcr_5ht2c_6bqh_protein_autoprepared_prepared

>  <s_lp_Force_Field>  (1) 
S-OPLS

>  <s_lp_Variant>  (1) 
DiffSBDD_40_num_sample_100-1

>  <s_m_source_file>  (1) 
generated__ligand_DiffSBDD_2026-05-06_prepared.sdf

>  <GenAI_Model>  (1) 
DiffSBDD

>  <Protein>  (1) 
GPCR_5HT2C

$$$$
DiffSBDD_66_num_sample_100
     RDKit          3D

  0  0  0  0  0  0  0  0  0  0999 V3000
M  V30 BEGIN CTAB
M  V30 COUNTS 111 115 0 0 1
M  V30 BEGIN ATOM
M  V30 1 C 39.023543 29.652162 54.423184 0
M  V30 2 C 41.266763 30.632302 62.770998 0
M  V30 3 C 34.609938 34.419471 58.972093 0
M  V30 4 C 40.345428 35.283263 66.555186 0
M  V30 5 C 42.502613 25.228058 64.489003 0
M  V30 6 C 44.289930 25.632392 62.672974 0
M  V30 7 C 36.920065 34.502502 59.722257 0
M  V30 8 S 41.466917 33.848155 62.734301 0
M  V30 9 C 40.632878 31.439126 61.644809 0 CFG=1
M  V30 10 C 39.579341 30.926516 54.901565 0
M  V30 11 C 38.682050 29.593487 57.569821 0
M  V30 12 C 38.990801 30.896202 57.407094 0
M  V30 13 C 42.636192 25.609406 67.098892 0
M  V30 14 C 38.241333 28.173044 53.099252 0
M  V30 15 C 42.441917 30.555233 65.770257 0 CFG=2
M  V30 16 C 38.934815 28.488417 56.608716 0
M  V30 17 C 38.719993 31.874812 58.556330 0
M  V30 18 O 40.750654 25.621403 68.494408 0
M  V30 19 C 37.971133 32.525485 60.936260 0 CFG=1
M  V30 20 N 38.796351 29.450852 53.128047 0
M  V30 21 C 35.833753 35.102371 59.075303 0
M  V30 22 C 36.784213 33.209906 60.276975 0
M  V30 23 C 41.831496 25.686350 65.794954 0
M  V30 24 C 37.725435 26.305931 54.845019 0
M  V30 25 C 39.572212 31.451047 56.163156 0
M  V30 26 C 42.393941 32.115660 65.645291 0
M  V30 27 C 43.553849 26.197352 63.901061 0 CFG=1
M  V30 28 C 42.482211 30.075395 67.253238 0
M  V30 29 C 38.496738 31.381020 60.031296 0 CFG=2
M  V30 30 C 39.665174 30.591941 60.721878 0 CFG=2
M  V30 31 C 42.624963 34.999303 65.762867 0
M  V30 32 C 42.636245 28.558349 67.395794 0
M  V30 33 N 38.721898 28.620337 55.207414 0
M  V30 34 C 35.548791 32.535191 60.187949 0
M  V30 35 C 38.197201 27.640180 54.366374 0
M  V30 36 C 43.796952 30.174168 65.114202 0
M  V30 37 O 42.989403 27.416745 63.473750 0
M  V30 38 C 41.255109 29.825819 65.068796 0
M  V30 39 C 41.107367 32.946479 65.935804 0
M  V30 40 C 41.197268 34.473690 65.545019 0
M  V30 41 C 40.079335 32.759863 62.264570 0 CFG=2
M  V30 42 N 40.669803 30.510794 63.910755 0 CHG=1
M  V30 43 C 41.852244 27.786027 68.172964 0
M  V30 44 C 40.777738 34.859658 64.071580 0
M  V30 45 C 34.464353 33.141751 59.535072 0
M  V30 46 C 39.098394 29.320548 61.378726 0
M  V30 47 C 43.825383 24.996014 67.184074 0
M  V30 48 C 41.993570 26.262570 68.303801 0 CFG=2
M  V30 49 C 39.117600 33.476837 61.330673 0
M  V30 50 H 42.230433 30.151350 62.654513 0
M  V30 51 H 33.776383 34.877128 58.462399 0
M  V30 52 H 39.324232 34.932154 66.653654 0
M  V30 53 H 40.307695 36.341263 66.288353 0
M  V30 54 H 40.769394 35.225920 67.559736 0
M  V30 55 H 42.935927 24.236497 64.618372 0
M  V30 56 H 41.691327 25.087203 63.786997 0
M  V30 57 H 44.274311 24.543733 62.651463 0
M  V30 58 H 45.326403 25.968307 62.653286 0
M  V30 59 H 43.867568 25.982909 61.738642 0
M  V30 60 H 37.859157 35.027946 59.780538 0
M  V30 61 H 40.013786 31.540639 54.125767 0
M  V30 62 H 38.255162 29.281340 58.506661 0
M  V30 63 H 37.929972 27.728230 52.165322 0
M  V30 64 H 39.953512 28.129561 56.756870 0
M  V30 65 H 38.287742 27.686435 56.960783 0
M  V30 66 H 39.466937 32.666796 58.542662 0
M  V30 67 H 37.818532 32.363638 58.192025 0
M  V30 68 H 40.085744 26.293205 68.656950 0
M  V30 69 H 37.577610 32.085944 61.854319 0
M  V30 70 H 35.939004 36.089050 58.653776 0
M  V30 71 H 41.453137 26.698332 65.658576 0
M  V30 72 H 40.944947 25.068167 65.942385 0
M  V30 73 H 37.542782 25.637211 54.003834 0
M  V30 74 H 36.793399 26.402729 55.402891 0
M  V30 75 H 38.468604 25.830396 55.485838 0
M  V30 76 H 40.006144 32.435827 56.252146 0
M  V30 77 H 43.197792 32.501869 66.272432 0
M  V30 78 H 42.697895 32.366365 64.633834 0
M  V30 79 H 44.267972 26.424782 64.687482 0
M  V30 80 H 43.315426 30.544900 67.776837 0
M  V30 81 H 41.576841 30.393616 67.771192 0
M  V30 82 H 37.651914 30.696813 59.958294 0
M  V30 83 H 40.291565 30.195520 59.923558 0
M  V30 84 H 43.332224 34.579890 65.048591 0
M  V30 85 H 42.967184 34.748793 66.767350 0
M  V30 86 H 42.672348 36.084994 65.657934 0
M  V30 87 H 43.430020 28.099442 66.827138 0
M  V30 88 H 35.440334 31.545388 60.605574 0
M  V30 89 H 43.884945 30.542855 64.094630 0
M  V30 90 H 43.972137 29.104394 65.065327 0
M  V30 91 H 44.634679 30.597967 65.671162 0
M  V30 92 H 43.466444 27.683502 62.695029 0
M  V30 93 H 41.509055 28.813947 64.767593 0
M  V30 94 H 40.424659 29.721187 65.767562 0
M  V30 95 H 40.224683 32.518563 65.465404 0
M  V30 96 H 40.922904 32.863121 67.008700 0
M  V30 97 H 39.501316 32.564002 63.164986 0
M  V30 98 H 41.067488 28.247888 68.749010 0
M  V30 99 H 39.718618 34.918810 63.853299 0
M  V30 100 H 41.113882 35.880504 63.881335 0
M  V30 101 H 33.523788 32.620756 59.456879 0
M  V30 102 H 38.472248 29.604110 62.226106 0
M  V30 103 H 39.873198 28.638002 61.731141 0
M  V30 104 H 38.520924 28.742266 60.654321 0
M  V30 105 H 44.366433 24.956120 68.118420 0
M  V30 106 H 44.266594 24.528477 66.333611 0
M  V30 107 H 42.589241 26.068797 69.197411 0
M  V30 108 H 38.710027 34.347801 61.844727 0
M  V30 109 H 39.654211 33.851438 60.459213 0
M  V30 110 H 41.448490 31.753823 60.992488 0
M  V30 111 H 39.758989 30.937624 64.038647 0
M  V30 END ATOM
M  V30 BEGIN BOND
M  V30 1 1 9 2
M  V30 2 1 10 1
M  V30 3 2 12 11
M  V30 4 1 16 11
M  V30 5 1 17 12
M  V30 6 2 20 1
M  V30 7 1 20 14
M  V30 8 2 21 3
M  V30 9 1 21 7
M  V30 10 2 22 7
M  V30 11 1 22 19
M  V30 12 1 23 5
M  V30 13 1 23 13
M  V30 14 2 25 10
M  V30 15 1 25 12
M  V30 16 1 26 15
M  V30 17 1 27 5
M  V30 18 1 27 6
M  V30 19 1 15 28 CFG=1
M  V30 20 1 29 17
M  V30 21 1 29 19
M  V30 22 1 30 9
M  V30 23 1 30 29
M  V30 24 1 32 28
M  V30 25 1 33 1
M  V30 26 1 33 16
M  V30 27 1 34 22
M  V30 28 2 35 14
M  V30 29 1 35 24
M  V30 30 1 35 33
M  V30 31 1 36 15
M  V30 32 1 37 27
M  V30 33 1 38 15
M  V30 34 1 39 26
M  V30 35 1 40 4
M  V30 36 1 40 31
M  V30 37 1 40 39
M  V30 38 1 41 8
M  V30 39 1 41 9
M  V30 40 2 42 2
M  V30 41 1 42 38
M  V30 42 2 43 32
M  V30 43 1 44 8
M  V30 44 1 44 40
M  V30 45 1 45 3
M  V30 46 2 45 34
M  V30 47 1 46 30
M  V30 48 2 47 13
M  V30 49 1 48 13
M  V30 50 1 48 18
M  V30 51 1 48 43
M  V30 52 1 49 19
M  V30 53 1 49 41
M  V30 54 1 50 2
M  V30 55 1 51 3
M  V30 56 1 52 4
M  V30 57 1 53 4
M  V30 58 1 54 4
M  V30 59 1 55 5
M  V30 60 1 56 5
M  V30 61 1 57 6
M  V30 62 1 58 6
M  V30 63 1 59 6
M  V30 64 1 60 7
M  V30 65 1 61 10
M  V30 66 1 62 11
M  V30 67 1 63 14
M  V30 68 1 64 16
M  V30 69 1 65 16
M  V30 70 1 66 17
M  V30 71 1 67 17
M  V30 72 1 68 18
M  V30 73 1 19 69 CFG=1
M  V30 74 1 70 21
M  V30 75 1 71 23
M  V30 76 1 72 23
M  V30 77 1 73 24
M  V30 78 1 74 24
M  V30 79 1 75 24
M  V30 80 1 76 25
M  V30 81 1 77 26
M  V30 82 1 78 26
M  V30 83 1 27 79 CFG=1
M  V30 84 1 80 28
M  V30 85 1 81 28
M  V30 86 1 29 82 CFG=3
M  V30 87 1 30 83 CFG=3
M  V30 88 1 84 31
M  V30 89 1 85 31
M  V30 90 1 86 31
M  V30 91 1 87 32
M  V30 92 1 88 34
M  V30 93 1 89 36
M  V30 94 1 90 36
M  V30 95 1 91 36
M  V30 96 1 92 37
M  V30 97 1 93 38
M  V30 98 1 94 38
M  V30 99 1 95 39
M  V30 100 1 96 39
M  V30 101 1 41 97 CFG=1
M  V30 102 1 98 43
M  V30 103 1 99 44
M  V30 104 1 100 44
M  V30 105 1 101 45
M  V30 106 1 102 46
M  V30 107 1 103 46
M  V30 108 1 104 46
M  V30 109 1 105 47
M  V30 110 1 106 47
M  V30 111 1 48 107 CFG=1
M  V30 112 1 108 49
M  V30 113 1 109 49
M  V30 114 1 9 110 CFG=3
M  V30 115 1 111 42
M  V30 END BOND
M  V30 END CTAB
M  END
>  <i_epik_Tot_Q>  (1) 
1

>  <i_epik_Tot_abs_Q>  (1) 
1

>  <i_i_glide_confnum>  (1) 
2085

>  <i_i_glide_lignum>  (1) 
168

>  <i_i_glide_posenum>  (1) 
281

>  <i_i_glide_rotatable_bonds>  (1) 
12

>  <i_lp_mmshare_version>  (1) 
72125

>  <i_m_source_file_index>  (1) 
67

>  <i_f3d_flags>  (1) 
0

>  <num_sample>  (1) 
100

>  <b_lp_Chiralities_Consistent>  (1) 
1

>  <r_epik_Charging_Adjusted_Penalty>  (1) 
1.5687136755604425

>  <r_epik_Ionization_Penalty>  (1) 
3.7043048325211934

>  <r_epik_Ionization_Penalty_Charging>  (1) 
0.78327048387713327

>  <r_epik_Ionization_Penalty_Neutral>  (1) 
2.92103434864406

>  <r_epik_State_Penalty>  (1) 
0.78544319168330923

>  <r_glide_ring_energy>  (1) 
0

>  <r_i_docking_score>  (1) 
-6.3516843960745328

>  <r_i_glide_ecoul>  (1) 
-9.087510101168192

>  <r_i_glide_eff_state_penalty>  (1) 
0.78544319168330923

>  <r_i_glide_einternal>  (1) 
24.658131352729519

>  <r_i_glide_emodel>  (1) 
-44.578757936975535

>  <r_i_glide_emodel_strain>  (1) 
8.8778966907379981

>  <r_i_glide_energy>  (1) 
-45.08820648548074

>  <r_i_glide_erotb>  (1) 
0.28694684240539414

>  <r_i_glide_esite>  (1) 
-0.022525724494615831

>  <r_i_glide_evdw>  (1) 
-36.000696384312548

>  <r_i_glide_gscore>  (1) 
-7.137127587757842

>  <r_i_glide_gscore_strain>  (1) 
1.2194741726844995

>  <r_i_glide_hbond>  (1) 
-0.56599616031322253

>  <r_i_glide_ligand_efficiency>  (1) 
-0.1296262121647864

>  <r_i_glide_ligand_efficiency_ln>  (1) 
-1.2984296251699496

>  <r_i_glide_ligand_efficiency_sa>  (1) 
-0.47434193834325206

>  <r_i_glide_lipo>  (1) 
-3.9211182077372926

>  <r_i_glide_metal>  (1) 
-0

>  <r_i_glide_rewards>  (1) 
-0.97074717591174886

>  <r_lp_Energy>  (1) 
57.418498999999997

>  <s_epik_Chemistry_Notes>  (1) 
This compound has an imine and may undergo hydrolysis.

>  <s_epik_cmdline>  (1) 
J2VwaWtfcHl0aG9uJywgJy1waHQnLCAnMS4wJywgJy1waCcsICc3LjQnLCAnLXRuJywgJzgnLCAnLW1hJywgJzUwMCcsICctaW1hZScsICc8aW5maWxlLm1hZT4nLCAnLW9tYWUnLCAnPG91dGZpbGUubWFlPic=

>  <s_epik_input>  (1) 
bjFbY0hdYyhbQ0gzXSluKGMxMilbQ0gyXVtDSF09QyhbQ0hdPVtDSF0yKVtDSDJdW0NAQEhdKFtDQEBIXTNbQ0gzXSlbQ0BIXShjNFtjSF1bY0hdW2NIXVtjSF1bY0hdNClbQ0gyXVtDQEBIXShbQ0BIXTM1KVNbQ0gyXUMoW0NIM10pKFtDSDNdKVtDSDJdW0NIMl1bQ0BdKFtDSDNdKShbQ0gyXVxOPVtDSF1cNSlbQ0gyXS9bQ0hdPVtDSF0vW0NAQEhdKFtPSF0pQyg9W0NIMl0pW0NIMl1bQ0gyXVtDQEBIXShbQ0gzXSlbT0hd

>  <s_glide_docking_method>  (1) 
confgen

>  <s_i_glide_gridfile>  (1) 
gpcr_5ht2c_6bqh_protein_autoprepared_prepared

>  <s_lp_Force_Field>  (1) 
S-OPLS

>  <s_lp_Variant>  (1) 
DiffSBDD_66_num_sample_100-5

>  <s_m_source_file>  (1) 
generated__ligand_DiffSBDD_2026-05-06_prepared.sdf

>  <GenAI_Model>  (1) 
DiffSBDD

>  <Protein>  (1) 
GPCR_5HT2C

$$$$
DiffSBDD_66_num_sample_100
     RDKit          3D

  0  0  0  0  0  0  0  0  0  0999 V3000
M  V30 BEGIN CTAB
M  V30 COUNTS 111 115 0 0 1
M  V30 BEGIN ATOM
M  V30 1 C 36.025668 33.393866 60.971515 0
M  V30 2 C 39.807703 30.565251 64.140539 0
M  V30 3 C 40.568167 26.478102 56.800850 0
M  V30 4 C 45.467393 29.286871 64.779265 0
M  V30 5 C 39.518809 35.948927 63.195246 0
M  V30 6 C 40.070008 35.331711 60.836847 0
M  V30 7 C 41.668844 28.072217 58.254077 0
M  V30 8 S 41.589033 28.162553 64.032060 0
M  V30 9 C 39.868631 29.999564 62.765693 0 CFG=1
M  V30 10 C 35.776432 31.962211 60.835143 0
M  V30 11 C 37.690703 32.683581 58.572183 0
M  V30 12 C 37.583899 31.478580 59.163433 0
M  V30 13 C 39.288463 36.792682 65.581091 0
M  V30 14 C 36.267544 35.302328 61.822869 0
M  V30 15 C 41.808868 32.252133 66.625234 0 CFG=2
M  V30 16 C 36.679080 33.767335 58.646802 0
M  V30 17 C 38.674282 30.475807 58.974422 0
M  V30 18 O 40.862076 37.841438 67.056478 0
M  V30 19 C 40.504056 29.121679 60.158235 0 CFG=1
M  V30 20 N 35.836115 34.021412 62.106733 0
M  V30 21 C 41.708779 27.221466 57.175542 0
M  V30 22 C 40.504578 28.201529 58.994568 0
M  V30 23 C 39.982823 36.928749 64.257632 0
M  V30 24 C 36.902197 36.626228 59.665704 0
M  V30 25 C 36.452715 31.119107 60.024322 0
M  V30 26 C 42.647552 30.944902 66.557305 0
M  V30 27 C 39.993666 36.457908 61.852336 0 CFG=1
M  V30 28 C 42.555425 33.521898 66.137784 0
M  V30 29 C 39.215565 29.925044 60.340218 0 CFG=1
M  V30 30 C 39.423130 30.886306 61.561907 0 CFG=2
M  V30 31 C 43.928994 28.353690 66.470124 0
M  V30 32 C 41.615447 34.701837 65.948183 0
M  V30 33 N 36.451740 34.158200 59.974702 0
M  V30 34 C 39.352515 27.450774 58.653319 0
M  V30 35 C 36.563333 35.427268 60.486946 0
M  V30 36 C 41.459023 32.426464 68.124475 0
M  V30 37 O 39.067252 37.460322 61.498126 0
M  V30 38 C 40.463988 32.079279 65.886620 0
M  V30 39 C 43.448077 30.628381 65.271457 0
M  V30 40 C 43.999584 29.168782 65.155503 0
M  V30 41 C 41.161312 29.210516 62.591355 0 CFG=2
M  V30 42 N 40.518925 31.565887 64.514073 0 CHG=1
M  V30 43 C 41.140126 35.455426 66.960253 0
M  V30 44 C 43.385472 28.338474 64.002024 0
M  V30 45 C 39.387453 26.591493 57.547201 0
M  V30 46 C 40.357054 32.068218 61.272355 0
M  V30 47 C 37.957809 36.821478 65.669876 0
M  V30 48 C 40.177921 36.641521 66.818260 0 CFG=2
M  V30 49 C 40.954092 28.326583 61.379452 0
M  V30 50 H 39.146790 30.123126 64.880171 0
M  V30 51 H 40.611433 25.809103 55.953800 0
M  V30 52 H 45.618464 29.792295 63.825622 0
M  V30 53 H 45.867412 28.279082 64.700422 0
M  V30 54 H 46.015997 29.851065 65.528835 0
M  V30 55 H 39.901790 34.949295 63.390255 0
M  V30 56 H 38.438663 35.857828 63.177946 0
M  V30 57 H 40.904924 34.679220 61.078612 0
M  V30 58 H 40.267451 35.713105 59.853481 0
M  V30 59 H 39.157741 34.741200 60.803566 0
M  V30 60 H 42.551882 28.628663 58.531050 0
M  V30 61 H 35.024305 31.549429 61.488999 0
M  V30 62 H 38.556945 32.892701 57.962958 0
M  V30 63 H 36.247353 36.067553 62.585353 0
M  V30 64 H 37.055836 34.599954 58.058101 0
M  V30 65 H 35.713677 33.485691 58.253508 0
M  V30 66 H 38.236026 29.687792 58.365215 0
M  V30 67 H 39.467342 30.885464 58.359649 0
M  V30 68 H 41.392669 38.020915 66.284014 0
M  V30 69 H 41.283818 29.847196 59.929964 0
M  V30 70 H 42.625399 27.113842 56.653521 0
M  V30 71 H 41.051891 36.819946 64.330751 0
M  V30 72 H 39.822501 37.959667 63.938431 0
M  V30 73 H 36.851122 37.533757 60.266489 0
M  V30 74 H 36.171683 36.751797 58.866487 0
M  V30 75 H 37.867372 36.554459 59.196471 0
M  V30 76 H 36.197323 30.071179 60.086985 0
M  V30 77 H 43.361026 30.945117 67.383833 0
M  V30 78 H 41.959460 30.123374 66.760656 0
M  V30 79 H 40.983714 36.910356 61.925543 0
M  V30 80 H 43.349727 33.782776 66.837862 0
M  V30 81 H 43.040758 33.348146 65.178084 0
M  V30 82 H 38.451445 29.215905 60.653164 0
M  V30 83 H 38.453049 31.311360 61.817024 0
M  V30 84 H 42.904711 28.137587 66.771520 0
M  V30 85 H 44.425550 28.869805 67.292793 0
M  V30 86 H 44.425562 27.388667 66.362728 0
M  V30 87 H 41.330207 34.910692 64.940183 0
M  V30 88 H 38.448599 27.540028 59.235565 0
M  V30 89 H 41.093440 31.495921 68.560430 0
M  V30 90 H 40.672159 33.161535 68.287127 0
M  V30 91 H 42.325855 32.731585 68.712620 0
M  V30 92 H 39.366698 37.883835 60.708672 0
M  V30 93 H 39.867122 31.366435 66.460196 0
M  V30 94 H 39.872194 32.990610 65.852517 0
M  V30 95 H 42.900824 30.871737 64.367513 0
M  V30 96 H 44.278771 31.335557 65.262747 0
M  V30 97 H 41.958112 29.930632 62.428752 0
M  V30 98 H 41.443131 35.220511 67.965940 0
M  V30 99 H 43.679077 28.773530 63.053476 0
M  V30 100 H 43.800928 27.330154 63.996923 0
M  V30 101 H 38.515547 26.015298 57.276667 0
M  V30 102 H 41.394663 31.776992 61.117184 0
M  V30 103 H 40.326905 32.775090 62.099074 0
M  V30 104 H 40.026095 32.596365 60.379661 0
M  V30 105 H 37.474792 36.733702 66.611062 0
M  V30 106 H 37.340402 36.936131 64.792772 0
M  V30 107 H 39.501227 36.523459 67.666808 0
M  V30 108 H 41.867167 27.785412 61.154864 0
M  V30 109 H 40.198792 27.578047 61.601064 0
M  V30 110 H 39.085414 29.248387 62.757649 0
M  V30 111 H 41.152071 32.013340 63.859203 0
M  V30 END ATOM
M  V30 BEGIN BOND
M  V30 1 1 9 2
M  V30 2 1 10 1
M  V30 3 2 12 11
M  V30 4 1 16 11
M  V30 5 1 17 12
M  V30 6 2 20 1
M  V30 7 1 20 14
M  V30 8 2 21 3
M  V30 9 1 21 7
M  V30 10 2 22 7
M  V30 11 1 22 19
M  V30 12 1 23 5
M  V30 13 1 23 13
M  V30 14 2 25 10
M  V30 15 1 25 12
M  V30 16 1 26 15
M  V30 17 1 27 5
M  V30 18 1 27 6
M  V30 19 1 15 28 CFG=3
M  V30 20 1 29 17
M  V30 21 1 29 19
M  V30 22 1 30 9
M  V30 23 1 30 29
M  V30 24 1 32 28
M  V30 25 1 33 1
M  V30 26 1 33 16
M  V30 27 1 34 22
M  V30 28 2 35 14
M  V30 29 1 35 24
M  V30 30 1 35 33
M  V30 31 1 36 15
M  V30 32 1 37 27
M  V30 33 1 38 15
M  V30 34 1 39 26
M  V30 35 1 40 4
M  V30 36 1 40 31
M  V30 37 1 40 39
M  V30 38 1 41 8
M  V30 39 1 41 9
M  V30 40 2 42 2
M  V30 41 1 42 38
M  V30 42 2 43 32
M  V30 43 1 44 8
M  V30 44 1 44 40
M  V30 45 1 45 3
M  V30 46 2 45 34
M  V30 47 1 46 30
M  V30 48 2 47 13
M  V30 49 1 48 13
M  V30 50 1 48 18
M  V30 51 1 48 43
M  V30 52 1 49 19
M  V30 53 1 49 41
M  V30 54 1 50 2
M  V30 55 1 51 3
M  V30 56 1 52 4
M  V30 57 1 53 4
M  V30 58 1 54 4
M  V30 59 1 55 5
M  V30 60 1 56 5
M  V30 61 1 57 6
M  V30 62 1 58 6
M  V30 63 1 59 6
M  V30 64 1 60 7
M  V30 65 1 61 10
M  V30 66 1 62 11
M  V30 67 1 63 14
M  V30 68 1 64 16
M  V30 69 1 65 16
M  V30 70 1 66 17
M  V30 71 1 67 17
M  V30 72 1 68 18
M  V30 73 1 19 69 CFG=3
M  V30 74 1 70 21
M  V30 75 1 71 23
M  V30 76 1 72 23
M  V30 77 1 73 24
M  V30 78 1 74 24
M  V30 79 1 75 24
M  V30 80 1 76 25
M  V30 81 1 77 26
M  V30 82 1 78 26
M  V30 83 1 27 79 CFG=1
M  V30 84 1 80 28
M  V30 85 1 81 28
M  V30 86 1 29 82 CFG=1
M  V30 87 1 30 83 CFG=1
M  V30 88 1 84 31
M  V30 89 1 85 31
M  V30 90 1 86 31
M  V30 91 1 87 32
M  V30 92 1 88 34
M  V30 93 1 89 36
M  V30 94 1 90 36
M  V30 95 1 91 36
M  V30 96 1 92 37
M  V30 97 1 93 38
M  V30 98 1 94 38
M  V30 99 1 95 39
M  V30 100 1 96 39
M  V30 101 1 41 97 CFG=3
M  V30 102 1 98 43
M  V30 103 1 99 44
M  V30 104 1 100 44
M  V30 105 1 101 45
M  V30 106 1 102 46
M  V30 107 1 103 46
M  V30 108 1 104 46
M  V30 109 1 105 47
M  V30 110 1 106 47
M  V30 111 1 48 107 CFG=1
M  V30 112 1 108 49
M  V30 113 1 109 49
M  V30 114 1 9 110 CFG=1
M  V30 115 1 111 42
M  V30 END BOND
M  V30 END CTAB
M  END
>  <i_epik_Tot_Q>  (1) 
1

>  <i_epik_Tot_abs_Q>  (1) 
1

>  <i_i_glide_confnum>  (1) 
514

>  <i_i_glide_lignum>  (1) 
170

>  <i_i_glide_posenum>  (1) 
382

>  <i_i_glide_rotatable_bonds>  (1) 
12

>  <i_lp_mmshare_version>  (1) 
72125

>  <i_m_source_file_index>  (1) 
67

>  <i_f3d_flags>  (1) 
0

>  <num_sample>  (1) 
100

>  <b_lp_Chiralities_Consistent>  (1) 
1

>  <r_epik_Charging_Adjusted_Penalty>  (1) 
1.5687136755604425

>  <r_epik_Ionization_Penalty>  (1) 
3.7043048325211934

>  <r_epik_Ionization_Penalty_Charging>  (1) 
0.78327048387713327

>  <r_epik_Ionization_Penalty_Neutral>  (1) 
2.92103434864406

>  <r_epik_State_Penalty>  (1) 
0.78544319168330923

>  <r_glide_ring_energy>  (1) 
0

>  <r_i_docking_score>  (1) 
-6.3516120517850325

>  <r_i_glide_ecoul>  (1) 
-7.179469873023506

>  <r_i_glide_eff_state_penalty>  (1) 
0.78544319168330923

>  <r_i_glide_einternal>  (1) 
12.028307463635675

>  <r_i_glide_emodel>  (1) 
-25.794001144314638

>  <r_i_glide_emodel_strain>  (1) 
4.9061039758562828

>  <r_i_glide_energy>  (1) 
-18.304136364060334

>  <r_i_glide_erotb>  (1) 
0.28694684240539414

>  <r_i_glide_esite>  (1) 
-0.021719018872392332

>  <r_i_glide_evdw>  (1) 
-11.124666491036828

>  <r_i_glide_gscore>  (1) 
-7.1370552434683416

>  <r_i_glide_gscore_strain>  (1) 
0.22652599396407069

>  <r_i_glide_hbond>  (1) 
-0.41626021078876685

>  <r_i_glide_ligand_efficiency>  (1) 
-0.12962473575071495

>  <r_i_glide_ligand_efficiency_ln>  (1) 
-1.2984148363418466

>  <r_i_glide_ligand_efficiency_sa>  (1) 
-0.47433653569281009

>  <r_i_glide_lipo>  (1) 
-4.8106879449576221

>  <r_i_glide_metal>  (1) 
-0

>  <r_i_glide_rewards>  (1) 
-0.76870709971365714

>  <r_lp_Energy>  (1) 
58.587302999999999

>  <s_epik_Chemistry_Notes>  (1) 
This compound has an imine and may undergo hydrolysis.

>  <s_epik_cmdline>  (1) 
J2VwaWtfcHl0aG9uJywgJy1waHQnLCAnMS4wJywgJy1waCcsICc3LjQnLCAnLXRuJywgJzgnLCAnLW1hJywgJzUwMCcsICctaW1hZScsICc8aW5maWxlLm1hZT4nLCAnLW9tYWUnLCAnPG91dGZpbGUubWFlPic=

>  <s_epik_input>  (1) 
bjFbY0hdYyhbQ0gzXSluKGMxMilbQ0gyXVtDSF09QyhbQ0hdPVtDSF0yKVtDSDJdW0NASF0oW0NAQEhdM1tDSDNdKVtDQEhdKGM0W2NIXVtjSF1bY0hdW2NIXVtjSF00KVtDSDJdW0NAQEhdKFtDQEhdMzUpU1tDSDJdQyhbQ0gzXSkoW0NIM10pW0NIMl1bQ0gyXVtDQF0oW0NIM10pKFtDSDJdXE49W0NIXVw1KVtDSDJdL1tDSF09W0NIXS9bQ0BASF0oW09IXSlDKD1bQ0gyXSlbQ0gyXVtDSDJdW0NAQEhdKFtDSDNdKVtPSF0=

>  <s_glide_docking_method>  (1) 
confgen

>  <s_i_glide_gridfile>  (1) 
gpcr_5ht2c_6bqh_protein_autoprepared_prepared

>  <s_lp_Force_Field>  (1) 
S-OPLS

>  <s_lp_Variant>  (1) 
DiffSBDD_66_num_sample_100-7

>  <s_m_source_file>  (1) 
generated__ligand_DiffSBDD_2026-05-06_prepared.sdf

>  <GenAI_Model>  (1) 
DiffSBDD

>  <Protein>  (1) 
GPCR_5HT2C

$$$$
DiffSBDD_46_num_sample_100
     RDKit          3D

  0  0  0  0  0  0  0  0  0  0999 V3000
M  V30 BEGIN CTAB
M  V30 COUNTS 67 70 0 0 1
M  V30 BEGIN ATOM
M  V30 1 N 39.853909 29.820373 61.333659 0 CHG=-1
M  V30 2 N 38.741302 29.407555 54.064055 0
M  V30 3 C 38.541689 27.385030 58.494066 0
M  V30 4 C 37.762561 38.777371 61.036054 0
M  V30 5 C 38.013038 29.432645 56.989116 0
M  V30 6 O 41.713059 32.795559 62.070560 0
M  V30 7 O 41.067028 29.093619 64.094539 0
M  V30 8 C 37.941171 36.359458 61.135053 0
M  V30 9 N 37.374748 37.622853 60.994021 0
M  V30 10 F 39.874092 37.286987 62.241888 0
M  V30 11 C 38.388880 28.838006 58.348607 0 CFG=2
M  V30 12 N 39.503145 32.479956 61.454510 0
M  V30 13 C 39.116732 30.306454 56.339570 0 CFG=2
M  V30 14 C 39.760588 34.925836 61.880199 0
M  V30 15 C 40.518536 30.332648 63.698078 0
M  V30 16 C 38.206038 32.988617 55.370929 0
M  V30 17 C 40.104389 29.220455 50.066365 0
M  V30 18 C 39.204387 29.360507 52.733956 0
M  V30 19 C 39.206908 36.209130 61.761518 0
M  V30 20 C 40.230068 28.499400 60.855351 0
M  V30 21 C 37.777224 34.074227 60.773651 0
M  V30 22 C 39.026544 33.829462 61.370341 0
M  V30 23 N 37.237789 35.307113 60.653035 0
M  V30 24 C 37.896719 31.703160 54.584711 0
M  V30 25 C 40.310959 30.390477 50.807582 0
M  V30 26 C 40.785257 30.588581 62.193902 0 CFG=2
M  V30 27 C 39.361797 31.627364 57.076569 0
M  V30 28 C 39.867389 30.468579 52.137297 0
M  V30 29 C 40.631187 28.438736 59.385239 0
M  V30 30 C 39.455079 28.116258 50.653542 0
M  V30 31 C 38.317002 32.710401 56.865578 0
M  V30 32 C 40.706092 32.102341 61.931154 0
M  V30 33 C 39.004426 28.187737 51.981526 0
M  V30 34 O 38.175064 39.874768 60.922557 0
M  V30 35 C 38.964328 30.622039 54.842835 0 CFG=2
M  V30 36 N 39.781258 28.235169 58.397246 0 CHG=1
M  V30 37 H 38.249081 28.627701 54.472450 0
M  V30 38 H 38.547489 26.745387 57.613765 0
M  V30 39 H 38.473867 26.884937 59.453381 0
M  V30 40 H 37.767432 28.601123 56.329960 0
M  V30 41 H 37.088620 30.000432 57.100901 0
M  V30 42 H 40.569155 28.432896 63.633110 0
M  V30 43 H 38.222439 29.472175 59.216548 0
M  V30 44 H 38.875153 31.741194 61.154810 0
M  V30 45 H 40.044226 29.738236 56.394802 0
M  V30 46 H 40.714405 34.796955 62.357016 0
M  V30 47 H 39.451028 30.349730 63.919039 0
M  V30 48 H 40.983434 31.102882 64.315986 0
M  V30 49 H 37.467395 33.758376 55.173203 0
M  V30 50 H 39.158029 33.404700 55.053640 0
M  V30 51 H 40.445144 29.165205 49.044214 0
M  V30 52 H 41.056421 28.084059 61.429646 0
M  V30 53 H 37.191441 33.255357 60.382176 0
M  V30 54 H 36.907568 31.326115 54.850464 0
M  V30 55 H 37.867370 31.949276 53.527084 0
M  V30 56 H 40.810604 31.232690 50.355274 0
M  V30 57 H 41.833062 30.341272 62.036511 0
M  V30 58 H 39.467403 31.441275 58.140617 0
M  V30 59 H 40.267392 32.052906 56.653417 0
M  V30 60 H 40.028332 31.378874 52.686729 0
M  V30 61 H 41.668867 28.569790 59.108778 0
M  V30 62 H 39.297686 27.213513 50.082740 0
M  V30 63 H 37.380966 32.407558 57.310937 0
M  V30 64 H 38.611081 33.620673 57.387302 0
M  V30 65 H 38.502271 27.339998 52.424105 0
M  V30 66 H 39.943215 31.027932 54.598439 0
M  V30 67 H 39.410927 27.813212 61.038145 0
M  V30 END ATOM
M  V30 BEGIN BOND
M  V30 1 2 9 4
M  V30 2 1 9 8
M  V30 3 1 11 3
M  V30 4 1 11 5
M  V30 5 1 13 5
M  V30 6 1 15 7
M  V30 7 1 18 2
M  V30 8 2 19 8
M  V30 9 1 19 10
M  V30 10 1 19 14
M  V30 11 1 20 1
M  V30 12 1 22 12
M  V30 13 2 22 14
M  V30 14 1 22 21
M  V30 15 1 23 8
M  V30 16 2 23 21
M  V30 17 1 24 16
M  V30 18 2 25 17
M  V30 19 1 26 1
M  V30 20 1 26 15
M  V30 21 1 27 13
M  V30 22 2 28 18
M  V30 23 1 28 25
M  V30 24 1 29 20
M  V30 25 1 30 17
M  V30 26 1 31 16
M  V30 27 1 31 27
M  V30 28 2 32 6
M  V30 29 1 32 12
M  V30 30 1 32 26
M  V30 31 1 33 18
M  V30 32 2 33 30
M  V30 33 2 34 4
M  V30 34 1 35 2
M  V30 35 1 35 13
M  V30 36 1 35 24
M  V30 37 1 36 3
M  V30 38 1 36 11
M  V30 39 2 36 29
M  V30 40 1 37 2
M  V30 41 1 38 3
M  V30 42 1 39 3
M  V30 43 1 40 5
M  V30 44 1 41 5
M  V30 45 1 42 7
M  V30 46 1 11 43 CFG=1
M  V30 47 1 44 12
M  V30 48 1 13 45 CFG=3
M  V30 49 1 46 14
M  V30 50 1 47 15
M  V30 51 1 48 15
M  V30 52 1 49 16
M  V30 53 1 50 16
M  V30 54 1 51 17
M  V30 55 1 52 20
M  V30 56 1 53 21
M  V30 57 1 54 24
M  V30 58 1 55 24
M  V30 59 1 56 25
M  V30 60 1 26 57 CFG=3
M  V30 61 1 58 27
M  V30 62 1 59 27
M  V30 63 1 60 28
M  V30 64 1 61 29
M  V30 65 1 62 30
M  V30 66 1 63 31
M  V30 67 1 64 31
M  V30 68 1 65 33
M  V30 69 1 35 66 CFG=3
M  V30 70 1 67 20
M  V30 END BOND
M  V30 END CTAB
M  END
>  <i_epik_Tot_Q>  (1) 
0

>  <i_epik_Tot_abs_Q>  (1) 
2

>  <i_i_glide_confnum>  (1) 
310

>  <i_i_glide_lignum>  (1) 
128

>  <i_i_glide_posenum>  (1) 
9

>  <i_i_glide_rotatable_bonds>  (1) 
13

>  <i_lp_mmshare_version>  (1) 
72125

>  <i_m_source_file_index>  (1) 
47

>  <i_f3d_flags>  (1) 
0

>  <num_sample>  (1) 
100

>  <b_lp_Chiralities_Consistent>  (1) 
1

>  <r_epik_Charging_Adjusted_Penalty>  (1) 
1.3427112581869221

>  <r_epik_Ionization_Penalty>  (1) 
0.80930426782544973

>  <r_epik_Ionization_Penalty_Charging>  (1) 
0

>  <r_epik_Ionization_Penalty_Neutral>  (1) 
0.80930426782544973

>  <r_epik_State_Penalty>  (1) 
1.3427112581869221

>  <r_glide_ring_energy>  (1) 
0.05726729789671494

>  <r_i_docking_score>  (1) 
-6.350510978203137

>  <r_i_glide_ecoul>  (1) 
-1.920685511629022

>  <r_i_glide_eff_state_penalty>  (1) 
1.3427112581869221

>  <r_i_glide_einternal>  (1) 
8.2546553477818687

>  <r_i_glide_emodel>  (1) 
-76.225221299957397

>  <r_i_glide_emodel_strain>  (1) 
0.43825460916920633

>  <r_i_glide_energy>  (1) 
-52.16814173267602

>  <r_i_glide_erotb>  (1) 
0.99979395072351473

>  <r_i_glide_esite>  (1) 
0

>  <r_i_glide_evdw>  (1) 
-50.247456221046995

>  <r_i_glide_gscore>  (1) 
-7.6932222363900591

>  <r_i_glide_gscore_strain>  (1) 
0

>  <r_i_glide_hbond>  (1) 
-0.034919894337744943

>  <r_i_glide_ligand_efficiency>  (1) 
-0.17640308272786492

>  <r_i_glide_ligand_efficiency_ln>  (1) 
-1.3855099244647633

>  <r_i_glide_ligand_efficiency_sa>  (1) 
-0.58247014564815036

>  <r_i_glide_lipo>  (1) 
-3.5140727804944096

>  <r_i_glide_metal>  (1) 
-0

>  <r_i_glide_rewards>  (1) 
-2.3435478744847158

>  <r_lp_Energy>  (1) 
87.141047

>  <s_epik_Chemistry_Notes>  (1) 
This compound has an imine and may undergo hydrolysis.

>  <s_epik_cmdline>  (1) 
J2VwaWtfcHl0aG9uJywgJy1waHQnLCAnMS4wJywgJy1waCcsICc3LjQnLCAnLXRuJywgJzgnLCAnLW1hJywgJzUwMCcsICctaW1hZScsICc8aW5maWxlLm1hZT4nLCAnLW9tYWUnLCAnPG91dGZpbGUubWFlPic=

>  <s_epik_input>  (1) 
Tz1DPU5jMWMoRilbY0hdYyhbY0hdbjEpW05IXUMoPU8pW0NAQEhdKFtDSDJdW09IXSkvTj1bQ0hdL1tDSDJdTjJbQ0gyXVtDQEBIXTJbQ0gyXVtDQEBIXTNbQ0gyXVtDSDJdW0NIMl1bQ0gyXVtDQEBIXTNbTkhdYzRbY0hdW2NIXVtjSF1bY0hdW2NIXTQ=

>  <s_glide_docking_method>  (1) 
confgen

>  <s_i_glide_gridfile>  (1) 
gpcr_5ht2c_6bqh_protein_autoprepared_prepared

>  <s_lp_Force_Field>  (1) 
S-OPLS

>  <s_lp_Variant>  (1) 
DiffSBDD_46_num_sample_100-4

>  <s_m_source_file>  (1) 
generated__ligand_DiffSBDD_2026-05-06_prepared.sdf

>  <GenAI_Model>  (1) 
DiffSBDD

>  <Protein>  (1) 
GPCR_5HT2C

$$$$
DiffSBDD_29_num_sample_100
     RDKit          3D

  0  0  0  0  0  0  0  0  0  0999 V3000
M  V30 BEGIN CTAB
M  V30 COUNTS 86 90 0 0 1
M  V30 BEGIN ATOM
M  V30 1 F 36.798128 33.917361 61.819341 0
M  V30 2 C 39.634036 32.444991 60.639708 0
M  V30 3 C 35.545816 31.388417 61.080317 0
M  V30 4 C 38.720282 28.752283 56.882325 0 CFG=2
M  V30 5 C 38.936516 30.547338 53.543693 0
M  V30 6 C 37.465822 29.626028 56.634275 0
M  V30 7 C 35.793280 34.726400 59.922005 0
M  V30 8 N 38.550708 31.458599 60.734815 0
M  V30 9 C 37.961380 26.306599 56.332451 0 CFG=1
M  V30 10 C 40.223747 28.743070 51.322179 0
M  V30 11 C 40.345116 29.808949 61.745506 0
M  V30 12 C 39.200229 28.343412 52.346210 0 CFG=1
M  V30 13 C 35.923225 33.798571 60.812207 0
M  V30 14 C 39.548056 29.008080 60.749636 0 CFG=2
M  V30 15 C 38.687676 33.183000 58.416384 0
M  V30 16 C 37.870173 24.035502 57.430275 0
M  V30 17 C 38.796561 27.555583 55.875329 0 CFG=1
M  V30 18 C 39.943812 28.978260 59.276741 0 CFG=1
M  V30 19 C 34.208236 32.792808 59.485187 0
M  V30 20 N 37.467310 32.422489 58.703290 0 CHG=1
M  V30 21 N 35.163510 32.704162 60.616741 0
M  V30 22 F 36.489025 35.875872 59.918262 0
M  V30 23 S 39.377316 26.821647 53.263411 0
M  V30 24 C 37.666730 31.242677 59.569450 0 CFG=2
M  V30 25 C 39.284519 33.647557 59.748334 0
M  V30 26 C 40.030795 25.276339 57.584873 0
M  V30 27 O 41.144205 28.256084 59.101293 0
M  V30 28 C 38.520100 27.959372 54.415078 0 CFG=2
M  V30 29 C 38.835867 28.336094 58.395414 0
M  V30 30 C 39.982530 30.239770 51.077625 0
M  V30 31 C 39.840303 31.075518 52.384777 0
M  V30 32 C 36.305612 30.623051 59.964864 0
M  V30 33 O 37.067420 25.855531 55.334077 0
M  V30 34 C 39.275616 29.104039 53.683919 0 CFG=2
M  V30 35 C 38.904711 30.213571 61.458346 0 CFG=2
M  V30 36 C 38.782214 25.048303 56.716280 0
M  V30 37 O 39.825465 29.578938 56.590704 0
M  V30 38 S 34.667166 34.421719 58.653552 0
M  V30 39 H 39.882110 32.784544 61.646507 0
M  V30 40 H 40.530654 31.985127 60.253598 0
M  V30 41 H 34.671278 30.837805 61.431491 0
M  V30 42 H 36.197984 31.520639 61.940755 0
M  V30 43 H 39.190413 31.091227 54.454623 0
M  V30 44 H 37.866708 30.693639 53.453501 0
M  V30 45 H 36.632682 29.309195 57.256222 0
M  V30 46 H 37.653383 30.675542 56.836417 0
M  V30 47 H 37.101690 29.623733 55.611618 0
M  V30 48 H 37.314688 26.587425 57.163570 0
M  V30 49 H 41.237348 28.583916 51.683672 0
M  V30 50 H 40.118473 28.171339 50.398528 0
M  V30 51 H 40.546972 29.318931 62.696626 0
M  V30 52 H 41.178013 30.383624 61.360114 0
M  V30 53 H 38.189907 28.381416 51.931632 0
M  V30 54 H 39.214329 28.034388 61.106868 0
M  V30 55 H 38.407840 34.021341 57.784018 0
M  V30 56 H 39.389818 32.579733 57.842449 0
M  V30 57 H 37.338472 24.509272 58.254786 0
M  V30 58 H 37.119369 23.614622 56.760098 0
M  V30 59 H 38.449506 23.221716 57.853124 0
M  V30 60 H 39.841615 27.263456 55.862462 0
M  V30 61 H 40.163681 29.998326 58.974656 0
M  V30 62 H 34.245474 31.962380 58.789078 0
M  V30 63 H 33.190142 32.883107 59.853609 0
M  V30 64 H 36.831409 33.033813 59.190634 0
M  V30 65 H 38.167916 30.585450 58.896035 0
M  V30 66 H 38.593539 34.309240 60.263171 0
M  V30 67 H 40.166750 34.260855 59.577409 0
M  V30 68 H 39.808094 25.357045 58.647680 0
M  V30 69 H 40.667360 24.421389 57.453132 0
M  V30 70 H 40.660393 26.119111 57.317538 0
M  V30 71 H 41.079044 27.419083 59.536264 0
M  V30 72 H 37.457776 28.004282 54.164686 0
M  V30 73 H 37.871541 28.499721 58.868762 0
M  V30 74 H 38.917030 27.270406 58.518665 0
M  V30 75 H 40.782573 30.653332 50.460913 0
M  V30 76 H 39.072059 30.346807 50.487221 0
M  V30 77 H 40.836877 31.223551 52.792939 0
M  V30 78 H 39.465849 32.021488 52.071423 0
M  V30 79 H 35.689772 30.513076 59.070796 0
M  V30 80 H 36.474686 29.596594 60.253488 0
M  V30 81 H 37.570014 25.660025 54.553614 0
M  V30 82 H 40.267194 29.221473 54.119482 0
M  V30 83 H 38.251887 29.951017 62.285642 0
M  V30 84 H 39.146815 24.595754 55.791277 0
M  V30 85 H 40.610614 29.098731 56.815988 0
M  V30 86 H 36.988290 32.144063 57.848376 0
M  V30 END ATOM
M  V30 BEGIN BOND
M  V30 1 1 6 4
M  V30 2 1 8 2
M  V30 3 1 12 10
M  V30 4 1 13 1
M  V30 5 2 13 7
M  V30 6 1 14 11
M  V30 7 1 17 4
M  V30 8 1 17 9
M  V30 9 1 18 14
M  V30 10 1 20 15
M  V30 11 1 21 3
M  V30 12 1 21 13
M  V30 13 1 21 19
M  V30 14 1 22 7
M  V30 15 1 23 12
M  V30 16 1 24 8
M  V30 17 1 24 20
M  V30 18 1 25 2
M  V30 19 1 25 15
M  V30 20 1 27 18
M  V30 21 1 28 17
M  V30 22 1 28 23
M  V30 23 1 29 4
M  V30 24 1 29 18
M  V30 25 1 30 10
M  V30 26 1 31 5
M  V30 27 1 31 30
M  V30 28 1 32 3
M  V30 29 1 32 24
M  V30 30 1 33 9
M  V30 31 1 34 5
M  V30 32 1 34 12
M  V30 33 1 34 28
M  V30 34 1 35 8
M  V30 35 1 35 11
M  V30 36 1 35 14
M  V30 37 1 36 9
M  V30 38 1 36 16
M  V30 39 1 36 26
M  V30 40 1 4 37 CFG=3
M  V30 41 1 38 7
M  V30 42 1 38 19
M  V30 43 1 39 2
M  V30 44 1 40 2
M  V30 45 1 41 3
M  V30 46 1 42 3
M  V30 47 1 43 5
M  V30 48 1 44 5
M  V30 49 1 45 6
M  V30 50 1 46 6
M  V30 51 1 47 6
M  V30 52 1 9 48 CFG=1
M  V30 53 1 49 10
M  V30 54 1 50 10
M  V30 55 1 51 11
M  V30 56 1 52 11
M  V30 57 1 12 53 CFG=3
M  V30 58 1 14 54 CFG=1
M  V30 59 1 55 15
M  V30 60 1 56 15
M  V30 61 1 57 16
M  V30 62 1 58 16
M  V30 63 1 59 16
M  V30 64 1 17 60 CFG=3
M  V30 65 1 18 61 CFG=3
M  V30 66 1 62 19
M  V30 67 1 63 19
M  V30 68 1 64 20
M  V30 69 1 24 65 CFG=3
M  V30 70 1 66 25
M  V30 71 1 67 25
M  V30 72 1 68 26
M  V30 73 1 69 26
M  V30 74 1 70 26
M  V30 75 1 71 27
M  V30 76 1 28 72 CFG=3
M  V30 77 1 73 29
M  V30 78 1 74 29
M  V30 79 1 75 30
M  V30 80 1 76 30
M  V30 81 1 77 31
M  V30 82 1 78 31
M  V30 83 1 79 32
M  V30 84 1 80 32
M  V30 85 1 81 33
M  V30 86 1 34 82 CFG=1
M  V30 87 1 35 83 CFG=1
M  V30 88 1 84 36
M  V30 89 1 85 37
M  V30 90 1 86 20
M  V30 END BOND
M  V30 END CTAB
M  END
>  <i_epik_Tot_Q>  (1) 
1

>  <i_epik_Tot_abs_Q>  (1) 
1

>  <i_i_glide_confnum>  (1) 
2087

>  <i_i_glide_lignum>  (1) 
72

>  <i_i_glide_posenum>  (1) 
338

>  <i_i_glide_rotatable_bonds>  (1) 
14

>  <i_lp_mmshare_version>  (1) 
72125

>  <i_m_source_file_index>  (1) 
30

>  <i_f3d_flags>  (1) 
0

>  <num_sample>  (1) 
100

>  <b_lp_Chiralities_Consistent>  (1) 
1

>  <r_epik_Charging_Adjusted_Penalty>  (1) 
0.43533657855592212

>  <r_epik_Ionization_Penalty>  (1) 
0.17417288321429925

>  <r_epik_Ionization_Penalty_Charging>  (1) 
0.17415579174197784

>  <r_epik_Ionization_Penalty_Neutral>  (1) 
1.7091472321405907e-05

>  <r_epik_State_Penalty>  (1) 
0.2611807868139443

>  <r_glide_ring_energy>  (1) 
0.53215094814158026

>  <r_i_docking_score>  (1) 
-6.3494866135304475

>  <r_i_glide_ecoul>  (1) 
-1.8051044772460392

>  <r_i_glide_eff_state_penalty>  (1) 
0.2611807868139443

>  <r_i_glide_einternal>  (1) 
26.350124028405084

>  <r_i_glide_emodel>  (1) 
-29.379045723203603

>  <r_i_glide_emodel_strain>  (1) 
7.3864712687585836

>  <r_i_glide_energy>  (1) 
-33.718745441102911

>  <r_i_glide_erotb>  (1) 
0.46833353265868582

>  <r_i_glide_esite>  (1) 
-0.13483521690406572

>  <r_i_glide_evdw>  (1) 
-31.913640963856874

>  <r_i_glide_gscore>  (1) 
-6.6106674003443917

>  <r_i_glide_gscore_strain>  (1) 
0.8466178171896459

>  <r_i_glide_hbond>  (1) 
-0.19447313936677893

>  <r_i_glide_ligand_efficiency>  (1) 
-0.16709175298764337

>  <r_i_glide_ligand_efficiency_ln>  (1) 
-1.3691360968493711

>  <r_i_glide_ligand_efficiency_sa>  (1) 
-0.56175836422338432

>  <r_i_glide_lipo>  (1) 
-4.7580699226156504

>  <r_i_glide_metal>  (1) 
-0

>  <r_i_glide_rewards>  (1) 
-0.9717927515264777

>  <r_lp_Energy>  (1) 
47.870706999999996

>  <s_epik_Chemistry_Notes>  (1) 
This compound has an imine and may undergo hydrolysis. This compound contains an acetal/aminal-like group ( X-CH(R)-Y where X, Y are N, S, or O) that may be acid/base labile, releasing an aldehyde.

>  <s_epik_cmdline>  (1) 
J2VwaWtfcHl0aG9uJywgJy1waHQnLCAnMS4wJywgJy1waCcsICc3LjQnLCAnLXRuJywgJzgnLCAnLW1hJywgJzUwMCcsICctaW1hZScsICc8aW5maWxlLm1hZT4nLCAnLW9tYWUnLCAnPG91dGZpbGUubWFlPic=

>  <s_epik_input>  (1) 
RkMxPUMoRilOKFtDSDJdUzEpW0NIMl1bQ0gyXVtDQEhdMltOSF1bQ0gyXVtDSDJdW0NIMl1OMltDQEBIXTNbQ0gyXVtDQEBIXTNbQ0BASF0oW09IXSlbQ0gyXVtDQEBdKFtDSDNdKShbT0hdKVtDQEBIXShbQ0BASF0oW09IXSlbQ0hdKFtDSDNdKVtDSDNdKVtDQEhdKFM0KVtDQEBIXShbQ0BASF00NSlbQ0gyXVtDSDJdW0NIMl1bQ0gyXTU=

>  <s_glide_docking_method>  (1) 
confgen

>  <s_i_glide_gridfile>  (1) 
gpcr_5ht2c_6bqh_protein_autoprepared_prepared

>  <s_lp_Force_Field>  (1) 
S-OPLS

>  <s_lp_Variant>  (1) 
DiffSBDD_29_num_sample_100-2

>  <s_m_source_file>  (1) 
generated__ligand_DiffSBDD_2026-05-06_prepared.sdf

>  <GenAI_Model>  (1) 
DiffSBDD

>  <Protein>  (1) 
GPCR_5HT2C

$$$$
DiffSBDD_18_num_sample_100
     RDKit          3D

  0  0  0  0  0  0  0  0  0  0999 V3000
M  V30 BEGIN CTAB
M  V30 COUNTS 70 72 0 0 1
M  V30 BEGIN ATOM
M  V30 1 O 38.667402 31.933898 58.933658 0
M  V30 2 C 44.719857 27.239190 67.231774 0
M  V30 3 C 41.180998 29.490108 63.284242 0
M  V30 4 C 45.465614 27.687680 68.185230 0
M  V30 5 O 40.605172 31.118684 61.072099 0
M  V30 6 C 42.334912 27.291110 66.405132 0 CFG=2
M  V30 7 C 39.119577 26.771970 54.887991 0
M  V30 8 N 43.409551 27.606519 67.341982 0
M  V30 9 N 42.396775 25.878613 66.028687 0
M  V30 10 C 39.235866 29.756255 58.052845 0
M  V30 11 C 40.002978 26.250397 57.125192 0
M  V30 12 O 39.821597 26.556882 53.900595 0
M  V30 13 O 44.979563 29.022354 70.082466 0
M  V30 14 C 37.717253 24.601422 57.892580 0
M  V30 15 C 40.366663 29.593127 65.665769 0
M  V30 16 C 44.623734 28.445584 69.056779 0
M  V30 17 C 36.987339 24.421429 55.456847 0
M  V30 18 C 40.034075 27.485611 57.662012 0
M  V30 19 C 39.692949 30.472024 61.586477 0
M  V30 20 N 38.288305 27.843010 55.064560 0
M  V30 21 C 41.057206 28.695823 64.610746 0 CFG=2
M  V30 22 C 38.423976 31.040288 57.845744 0 CFG=2
M  V30 23 C 42.420781 28.141134 65.116475 0 CFG=2
M  V30 24 C 43.062303 27.119773 64.165173 0
M  V30 25 O 36.437755 23.371231 55.853498 0 CHG=-1
M  V30 26 C 43.126229 28.464732 68.543298 0
M  V30 27 C 38.267406 28.652860 56.058811 0
M  V30 28 C 38.268189 30.532734 61.009612 0
M  V30 29 C 37.928286 31.770416 60.144599 0
M  V30 30 C 38.829918 31.857425 56.603134 0
M  V30 31 C 39.191371 28.644224 57.277223 0
M  V30 32 C 39.097944 25.790125 56.033483 0 CFG=1
M  V30 33 C 37.687813 25.304702 56.519323 0 CFG=2
M  V30 34 N 39.874942 29.677512 62.653324 0
M  V30 35 N 42.716143 25.787604 64.653450 0
M  V30 36 O 37.015901 24.821428 54.277321 0
M  V30 37 H 45.010452 26.630378 66.388320 0
M  V30 38 H 41.812282 28.975905 62.562926 0
M  V30 39 H 41.654331 30.455693 63.472239 0
M  V30 40 H 46.526359 27.540811 68.326539 0
M  V30 41 H 41.395455 27.433600 66.935461 0
M  V30 42 H 43.106893 25.400580 66.579692 0
M  V30 43 H 39.889491 29.755946 58.909113 0
M  V30 44 H 40.667407 25.501575 57.520782 0
M  V30 45 H 42.793184 29.466572 68.271118 0
M  V30 46 H 36.702798 24.421430 58.242851 0
M  V30 47 H 38.247828 23.649049 57.853482 0
M  V30 48 H 38.186718 25.221416 58.653492 0
M  V30 49 H 41.028983 30.392867 65.998309 0
M  V30 50 H 39.467382 30.061959 65.266850 0
M  V30 51 H 40.044401 29.038401 66.545310 0
M  V30 52 H 40.736364 27.641871 58.468655 0
M  V30 53 H 40.415549 27.832128 64.426777 0
M  V30 54 H 37.359068 30.809309 57.807648 0
M  V30 55 H 43.095197 28.987758 65.255230 0
M  V30 56 H 42.783847 27.221545 63.119447 0
M  V30 57 H 44.146943 27.221181 64.210165 0
M  V30 58 H 42.438918 27.990906 69.244587 0
M  V30 59 H 37.551229 29.474883 56.061591 0
M  V30 60 H 37.576439 30.514924 61.851250 0
M  V30 61 H 38.075474 29.621425 60.448130 0
M  V30 62 H 38.097195 32.666967 60.741811 0
M  V30 63 H 36.863157 31.772271 59.908783 0
M  V30 64 H 38.702194 31.321018 55.665734 0
M  V30 65 H 38.216758 32.756756 56.532387 0
M  V30 66 H 39.867404 32.177789 56.653538 0
M  V30 67 H 39.601573 24.901133 55.647229 0
M  V30 68 H 37.037220 26.167768 56.652053 0
M  V30 69 H 39.085699 29.168421 63.038408 0
M  V30 70 H 43.484993 25.135139 64.511891 0
M  V30 END ATOM
M  V30 BEGIN BOND
M  V30 1 2 4 2
M  V30 2 1 8 2
M  V30 3 1 8 6
M  V30 4 1 9 6
M  V30 5 2 12 7
M  V30 6 1 16 4
M  V30 7 2 16 13
M  V30 8 2 18 11
M  V30 9 2 19 5
M  V30 10 1 20 7
M  V30 11 1 21 3
M  V30 12 1 21 15
M  V30 13 1 22 1
M  V30 14 1 22 10
M  V30 15 1 23 6
M  V30 16 1 23 21
M  V30 17 1 24 23
M  V30 18 1 25 17
M  V30 19 1 26 8
M  V30 20 1 26 16
M  V30 21 2 27 20
M  V30 22 1 28 19
M  V30 23 1 29 1
M  V30 24 1 29 28
M  V30 25 1 30 22
M  V30 26 2 31 10
M  V30 27 1 31 18
M  V30 28 1 31 27
M  V30 29 1 32 7
M  V30 30 1 32 11
M  V30 31 1 33 14
M  V30 32 1 33 17
M  V30 33 1 33 32
M  V30 34 1 34 3
M  V30 35 1 34 19
M  V30 36 1 35 9
M  V30 37 1 35 24
M  V30 38 2 36 17
M  V30 39 1 37 2
M  V30 40 1 38 3
M  V30 41 1 39 3
M  V30 42 1 40 4
M  V30 43 1 6 41 CFG=1
M  V30 44 1 42 9
M  V30 45 1 43 10
M  V30 46 1 44 11
M  V30 47 1 45 26
M  V30 48 1 46 14
M  V30 49 1 47 14
M  V30 50 1 48 14
M  V30 51 1 49 15
M  V30 52 1 50 15
M  V30 53 1 51 15
M  V30 54 1 52 18
M  V30 55 1 21 53 CFG=3
M  V30 56 1 22 54 CFG=3
M  V30 57 1 23 55 CFG=1
M  V30 58 1 56 24
M  V30 59 1 57 24
M  V30 60 1 58 26
M  V30 61 1 59 27
M  V30 62 1 60 28
M  V30 63 1 61 28
M  V30 64 1 62 29
M  V30 65 1 63 29
M  V30 66 1 64 30
M  V30 67 1 65 30
M  V30 68 1 66 30
M  V30 69 1 32 67 CFG=3
M  V30 70 1 33 68 CFG=1
M  V30 71 1 69 34
M  V30 72 1 70 35
M  V30 END BOND
M  V30 END CTAB
M  END
>  <i_epik_Tot_Q>  (1) 
-1

>  <i_epik_Tot_abs_Q>  (1) 
1

>  <i_i_glide_confnum>  (1) 
1281

>  <i_i_glide_lignum>  (1) 
44

>  <i_i_glide_posenum>  (1) 
399

>  <i_i_glide_rotatable_bonds>  (1) 
12

>  <i_lp_mmshare_version>  (1) 
72125

>  <i_m_source_file_index>  (1) 
19

>  <i_f3d_flags>  (1) 
0

>  <num_sample>  (1) 
100

>  <b_lp_Chiralities_Consistent>  (1) 
1

>  <r_epik_Charging_Adjusted_Penalty>  (1) 
0.37971815023500188

>  <r_epik_Ionization_Penalty>  (1) 
0.19445293645399606

>  <r_epik_Ionization_Penalty_Charging>  (1) 
0.18991606969001057

>  <r_epik_Ionization_Penalty_Neutral>  (1) 
0.004536866763985496

>  <r_epik_State_Penalty>  (1) 
0.18980208054499129

>  <r_glide_ring_energy>  (1) 
1.7561163794185886

>  <r_i_docking_score>  (1) 
-6.345330241795418

>  <r_i_glide_ecoul>  (1) 
-6.002233019543409

>  <r_i_glide_eff_state_penalty>  (1) 
0.18980208054499129

>  <r_i_glide_einternal>  (1) 
8.2597776523541739

>  <r_i_glide_emodel>  (1) 
-67.770763499818116

>  <r_i_glide_emodel_strain>  (1) 
2.2610067325393857

>  <r_i_glide_energy>  (1) 
-53.549566779393757

>  <r_i_glide_erotb>  (1) 
0.89642714384868305

>  <r_i_glide_esite>  (1) 
-0.034913723725945978

>  <r_i_glide_evdw>  (1) 
-47.547333759850346

>  <r_i_glide_gscore>  (1) 
-6.5351323223404094

>  <r_i_glide_gscore_strain>  (1) 
0

>  <r_i_glide_hbond>  (1) 
-0.3796769782147531

>  <r_i_glide_ligand_efficiency>  (1) 
-0.17625917338320607

>  <r_i_glide_ligand_efficiency_ln>  (1) 
-1.3843796277479217

>  <r_i_glide_ligand_efficiency_sa>  (1) 
-0.58199496746165069

>  <r_i_glide_lipo>  (1) 
-2.1194373393721015

>  <r_i_glide_metal>  (1) 
-0

>  <r_i_glide_rewards>  (1) 
-1.6198297839522624

>  <r_lp_Energy>  (1) 
18.74419

>  <r_lp_tautomer_probability>  (1) 
0.98846045845713826

>  <s_epik_Chemistry_Notes>  (1) 
This compound has an imine and may undergo hydrolysis. This compound contains an acetal/aminal-like group ( X-CH(R)-Y where X, Y are N, S, or O) that may be acid/base labile, releasing an aldehyde.

>  <s_epik_cmdline>  (1) 
J2VwaWtfcHl0aG9uJywgJy1waHQnLCAnMS4wJywgJy1waCcsICc3LjQnLCAnLXRuJywgJzgnLCAnLW1hJywgJzUwMCcsICctaW1hZScsICc8aW5maWxlLm1hZT4nLCAnLW9tYWUnLCAnPG91dGZpbGUubWFlPic=

>  <s_epik_input>  (1) 
W09IXUMoPU8pW0NASF0oW0NIM10pW0NAQEhdMVtDSF09W0NIXVxDKFtDSF09TkMxPU8pPVtDSF1cW0NASF0oW0NIM10pT1tDSDJdW0NIMl1DKD1PKVtOSF1bQ0gyXVtDQEhdKFtDSDNdKVtDQEBIXTJbQ0gyXVtOSF1bTkhdW0NASF0ybjNbY0hdW2NIXWMoW09IXSlbY0hdMw==

>  <s_glide_docking_method>  (1) 
confgen

>  <s_i_glide_gridfile>  (1) 
gpcr_5ht2c_6bqh_protein_autoprepared_prepared

>  <s_lp_Force_Field>  (1) 
S-OPLS

>  <s_lp_Variant>  (1) 
DiffSBDD_18_num_sample_100-4

>  <s_m_source_file>  (1) 
generated__ligand_DiffSBDD_2026-05-06_prepared.sdf

>  <GenAI_Model>  (1) 
DiffSBDD

>  <Protein>  (1) 
GPCR_5HT2C

$$$$
DiffSBDD_29_num_sample_100
     RDKit          3D

  0  0  0  0  0  0  0  0  0  0999 V3000
M  V30 BEGIN CTAB
M  V30 COUNTS 86 90 0 0 1
M  V30 BEGIN ATOM
M  V30 1 F 37.067356 35.129031 58.835863 0
M  V30 2 C 40.300201 31.898450 62.260276 0
M  V30 3 C 36.250381 34.011347 61.377157 0
M  V30 4 C 37.762265 30.038217 56.241968 0 CFG=2
M  V30 5 C 38.011634 28.459005 52.104680 0
M  V30 6 C 36.520898 30.021430 55.339643 0
M  V30 7 C 37.447254 37.094226 59.962200 0
M  V30 8 N 39.363900 31.577574 61.154359 0 CFG=2 CHG=1
M  V30 9 C 38.761030 27.578456 56.047324 0 CFG=1
M  V30 10 C 40.667194 29.769012 51.356605 0
M  V30 11 C 39.290703 29.068341 61.169329 0
M  V30 12 C 39.716604 30.471738 52.316602 0 CFG=2
M  V30 13 C 37.069991 35.858539 59.961987 0
M  V30 14 C 38.211756 29.588782 60.196113 0 CFG=2
M  V30 15 C 40.225201 34.291455 61.525620 0
M  V30 16 C 39.765710 25.286645 56.472802 0
M  V30 17 C 38.890438 29.102354 55.674854 0 CFG=1
M  V30 18 C 38.593421 29.971390 58.770293 0 CFG=1
M  V30 19 C 36.816721 36.311439 62.295957 0
M  V30 20 N 39.345867 33.885492 60.434238 0
M  V30 21 N 36.712099 35.367578 61.154401 0
M  V30 22 F 37.867401 37.747484 58.880549 0
M  V30 23 S 40.267403 30.791970 53.988818 0
M  V30 24 C 38.496870 32.724896 60.724121 0 CFG=2
M  V30 25 C 41.141334 33.120303 61.895624 0
M  V30 26 C 41.215538 27.301648 56.854305 0
M  V30 27 O 39.756438 29.235052 58.522451 0
M  V30 28 C 39.342759 29.268514 54.218872 0 CFG=2
M  V30 29 C 37.438443 29.749857 57.745378 0
M  V30 30 C 39.859796 28.867190 50.423550 0
M  V30 31 C 39.090591 27.804541 51.222630 0
M  V30 32 C 37.362593 33.005276 61.736782 0
M  V30 33 O 37.812250 26.956039 55.204067 0
M  V30 34 C 38.560385 29.621416 52.942467 0 CFG=2
M  V30 35 C 38.591285 30.357452 61.441807 0 CFG=2
M  V30 36 C 40.061355 26.723389 56.006543 0
M  V30 37 O 38.151076 31.401191 56.241921 0
M  V30 38 S 37.409273 37.924973 61.458985 0
M  V30 39 H 39.751433 32.076356 63.185695 0
M  V30 40 H 40.955801 31.046743 62.446163 0
M  V30 41 H 35.730878 33.668008 60.480995 0
M  V30 42 H 35.501726 34.028727 62.171272 0
M  V30 43 H 37.229155 28.821257 51.454135 0
M  V30 44 H 37.530190 27.708406 52.728531 0
M  V30 45 H 36.555582 29.153551 54.686403 0
M  V30 46 H 36.443134 30.898975 54.696362 0
M  V30 47 H 35.584756 30.021430 55.883258 0
M  V30 48 H 38.386189 27.460233 57.057672 0
M  V30 49 H 41.249016 30.497092 50.789269 0
M  V30 50 H 41.384355 29.128679 51.853504 0
M  V30 51 H 39.049002 28.214539 61.798353 0
M  V30 52 H 40.348188 29.136733 60.918939 0
M  V30 53 H 39.467325 31.444145 51.901996 0
M  V30 54 H 37.195459 29.221430 60.252921 0
M  V30 55 H 39.635588 34.612793 62.384899 0
M  V30 56 H 40.811810 35.153669 61.206540 0
M  V30 57 H 39.380939 25.264315 57.492323 0
M  V30 58 H 39.038273 24.787144 55.831936 0
M  V30 59 H 40.667397 24.687937 56.450171 0
M  V30 60 H 39.753491 29.467789 56.208123 0
M  V30 61 H 38.901028 31.008247 58.700927 0
M  V30 62 H 35.867466 36.456648 62.811773 0
M  V30 63 H 37.576789 36.021482 63.019354 0
M  V30 64 H 39.856907 33.761671 59.570764 0
M  V30 65 H 37.994416 32.479010 59.790979 0
M  V30 66 H 41.782677 33.398614 62.732797 0
M  V30 67 H 41.803604 32.867362 61.066768 0
M  V30 68 H 41.032179 27.178852 57.920967 0
M  V30 69 H 42.161604 26.821394 56.653569 0
M  V30 70 H 41.424267 28.347634 56.649410 0
M  V30 71 H 39.546660 28.313511 58.545866 0
M  V30 72 H 39.867400 28.386622 53.914844 0
M  V30 73 H 36.639076 30.421372 58.051018 0
M  V30 74 H 36.992185 28.763586 57.865373 0
M  V30 75 H 39.161246 29.474311 49.853875 0
M  V30 76 H 40.505379 28.400317 49.693942 0
M  V30 77 H 38.644688 27.079689 50.544638 0
M  V30 78 H 39.784824 27.236537 51.843015 0
M  V30 79 H 36.800063 32.094748 61.920179 0
M  V30 80 H 37.860725 33.221432 62.653489 0
M  V30 81 H 38.163818 26.918849 54.328142 0
M  V30 82 H 37.801820 30.317208 53.236332 0
M  V30 83 H 37.966847 30.375879 62.331034 0
M  V30 84 H 40.419978 26.648830 54.981187 0
M  V30 85 H 37.354017 31.908562 56.379938 0
M  V30 86 H 39.940261 31.351670 60.356136 0
M  V30 END ATOM
M  V30 BEGIN BOND
M  V30 1 1 6 4
M  V30 2 1 8 2
M  V30 3 1 12 10
M  V30 4 1 13 1
M  V30 5 2 13 7
M  V30 6 1 14 11
M  V30 7 1 17 4
M  V30 8 1 17 9
M  V30 9 1 18 14
M  V30 10 1 20 15
M  V30 11 1 21 3
M  V30 12 1 21 13
M  V30 13 1 21 19
M  V30 14 1 22 7
M  V30 15 1 23 12
M  V30 16 1 24 8
M  V30 17 1 24 20
M  V30 18 1 25 2
M  V30 19 1 25 15
M  V30 20 1 27 18
M  V30 21 1 28 17
M  V30 22 1 28 23
M  V30 23 1 29 4
M  V30 24 1 29 18
M  V30 25 1 30 10
M  V30 26 1 31 5
M  V30 27 1 31 30
M  V30 28 1 32 3
M  V30 29 1 32 24
M  V30 30 1 33 9
M  V30 31 1 34 5
M  V30 32 1 34 12
M  V30 33 1 34 28
M  V30 34 1 35 8
M  V30 35 1 35 11
M  V30 36 1 35 14
M  V30 37 1 36 9
M  V30 38 1 36 16
M  V30 39 1 36 26
M  V30 40 1 4 37 CFG=1
M  V30 41 1 38 7
M  V30 42 1 38 19
M  V30 43 1 39 2
M  V30 44 1 40 2
M  V30 45 1 41 3
M  V30 46 1 42 3
M  V30 47 1 43 5
M  V30 48 1 44 5
M  V30 49 1 45 6
M  V30 50 1 46 6
M  V30 51 1 47 6
M  V30 52 1 9 48 CFG=1
M  V30 53 1 49 10
M  V30 54 1 50 10
M  V30 55 1 51 11
M  V30 56 1 52 11
M  V30 57 1 12 53 CFG=3
M  V30 58 1 14 54 CFG=3
M  V30 59 1 55 15
M  V30 60 1 56 15
M  V30 61 1 57 16
M  V30 62 1 58 16
M  V30 63 1 59 16
M  V30 64 1 17 60 CFG=1
M  V30 65 1 18 61 CFG=1
M  V30 66 1 62 19
M  V30 67 1 63 19
M  V30 68 1 64 20
M  V30 69 1 24 65 CFG=3
M  V30 70 1 66 25
M  V30 71 1 67 25
M  V30 72 1 68 26
M  V30 73 1 69 26
M  V30 74 1 70 26
M  V30 75 1 71 27
M  V30 76 1 28 72 CFG=3
M  V30 77 1 73 29
M  V30 78 1 74 29
M  V30 79 1 75 30
M  V30 80 1 76 30
M  V30 81 1 77 31
M  V30 82 1 78 31
M  V30 83 1 79 32
M  V30 84 1 80 32
M  V30 85 1 81 33
M  V30 86 1 34 82 CFG=1
M  V30 87 1 35 83 CFG=1
M  V30 88 1 84 36
M  V30 89 1 85 37
M  V30 90 1 8 86 CFG=3
M  V30 END BOND
M  V30 END CTAB
M  END
>  <i_epik_Tot_Q>  (1) 
1

>  <i_epik_Tot_abs_Q>  (1) 
1

>  <i_i_glide_confnum>  (1) 
1845

>  <i_i_glide_lignum>  (1) 
76

>  <i_i_glide_posenum>  (1) 
55

>  <i_i_glide_rotatable_bonds>  (1) 
14

>  <i_lp_mmshare_version>  (1) 
72125

>  <i_m_source_file_index>  (1) 
30

>  <i_f3d_flags>  (1) 
0

>  <num_sample>  (1) 
100

>  <b_lp_Chiralities_Consistent>  (1) 
1

>  <r_epik_Charging_Adjusted_Penalty>  (1) 
1.7477768688038313

>  <r_epik_Ionization_Penalty>  (1) 
0.56833185219894722

>  <r_epik_Ionization_Penalty_Charging>  (1) 
0.56833130032608237

>  <r_epik_Ionization_Penalty_Neutral>  (1) 
5.5187286482775955e-07

>  <r_epik_State_Penalty>  (1) 
1.179445568477749

>  <r_glide_ring_energy>  (1) 
2.3029442833190661

>  <r_i_docking_score>  (1) 
-6.3352517199489595

>  <r_i_glide_ecoul>  (1) 
-1.3357127628670233

>  <r_i_glide_eff_state_penalty>  (1) 
1.179445568477749

>  <r_i_glide_einternal>  (1) 
13.130943405480448

>  <r_i_glide_emodel>  (1) 
-40.234420660054823

>  <r_i_glide_emodel_strain>  (1) 
3.9355864739261506

>  <r_i_glide_energy>  (1) 
-28.249952954448322

>  <r_i_glide_erotb>  (1) 
0.46833353265868582

>  <r_i_glide_esite>  (1) 
-0.044076882273742554

>  <r_i_glide_evdw>  (1) 
-26.9142401915813

>  <r_i_glide_gscore>  (1) 
-7.5146972884267083

>  <r_i_glide_gscore_strain>  (1) 
0

>  <r_i_glide_hbond>  (1) 
-0.13398352741090411

>  <r_i_glide_ligand_efficiency>  (1) 
-0.16671715052497263

>  <r_i_glide_ligand_efficiency_ln>  (1) 
-1.3660666350450585

>  <r_i_glide_ligand_efficiency_sa>  (1) 
-0.56049895995655896

>  <r_i_glide_lipo>  (1) 
-5.0423343432171652

>  <r_i_glide_metal>  (1) 
-0

>  <r_i_glide_rewards>  (1) 
-1.2165671441744625

>  <r_lp_Energy>  (1) 
42.485220999999996

>  <s_epik_Chemistry_Notes>  (1) 
This compound has an imine and may undergo hydrolysis. This compound contains an acetal/aminal-like group ( X-CH(R)-Y where X, Y are N, S, or O) that may be acid/base labile, releasing an aldehyde.

>  <s_epik_cmdline>  (1) 
J2VwaWtfcHl0aG9uJywgJy1waHQnLCAnMS4wJywgJy1waCcsICc3LjQnLCAnLXRuJywgJzgnLCAnLW1hJywgJzUwMCcsICctaW1hZScsICc8aW5maWxlLm1hZT4nLCAnLW9tYWUnLCAnPG91dGZpbGUubWFlPic=

>  <s_epik_input>  (1) 
RkMxPUMoRilOKFtDSDJdUzEpW0NIMl1bQ0gyXVtDQEhdMltOSF1bQ0gyXVtDSDJdW0NIMl1OMltDQEBIXTNbQ0gyXVtDQEBIXTNbQ0BASF0oW09IXSlbQ0gyXVtDQEBdKFtDSDNdKShbT0hdKVtDQEBIXShbQ0BASF0oW09IXSlbQ0hdKFtDSDNdKVtDSDNdKVtDQEhdKFM0KVtDQEBIXShbQ0BASF00NSlbQ0gyXVtDSDJdW0NIMl1bQ0gyXTU=

>  <s_glide_docking_method>  (1) 
confgen

>  <s_i_glide_gridfile>  (1) 
gpcr_5ht2c_6bqh_protein_autoprepared_prepared

>  <s_lp_Force_Field>  (1) 
S-OPLS

>  <s_lp_Variant>  (1) 
DiffSBDD_29_num_sample_100-6

>  <s_m_source_file>  (1) 
generated__ligand_DiffSBDD_2026-05-06_prepared.sdf

>  <GenAI_Model>  (1) 
DiffSBDD

>  <Protein>  (1) 
GPCR_5HT2C

$$$$
DiffSBDD_30_num_sample_100
     RDKit          3D

  0  0  0  0  0  0  0  0  0  0999 V3000
M  V30 BEGIN CTAB
M  V30 COUNTS 70 73 0 0 1
M  V30 BEGIN ATOM
M  V30 1 C 40.028976 29.198965 51.826299 0
M  V30 2 C 39.180677 26.812398 55.359117 0 CFG=2
M  V30 3 O 38.267398 27.621460 51.505447 0
M  V30 4 C 37.867401 37.191910 60.972041 0
M  V30 5 C 38.679898 36.939911 62.090047 0
M  V30 6 N 38.269026 29.911337 53.853453 0
M  V30 7 C 38.637891 34.557990 61.590824 0
M  V30 8 C 38.511380 28.466014 53.800844 0 CFG=1
M  V30 9 O 37.826504 24.262992 55.617887 0
M  V30 10 O 39.867086 25.671158 57.390965 0
M  V30 11 C 34.917559 34.102792 59.570383 0
M  V30 12 C 40.073024 26.597046 56.608310 0
M  V30 13 C 41.222955 27.575563 56.839911 0
M  V30 14 C 34.271405 34.647652 58.324955 0
M  V30 15 C 36.663302 32.446792 60.223566 0 CFG=2
M  V30 16 C 38.803209 30.479868 56.695158 0
M  V30 17 N 37.491962 30.037812 56.172237 0 CHG=1
M  V30 18 C 33.588920 33.553579 59.110868 0
M  V30 19 C 38.502851 31.260455 59.180219 0 CFG=1
M  V30 20 C 39.067406 35.627643 62.396144 0
M  V30 21 C 37.070388 31.091434 59.698351 0
M  V30 22 N 36.050214 33.258473 59.193515 0 CFG=2 CHG=1
M  V30 23 C 37.444234 36.130750 60.149512 0
M  V30 24 C 37.238768 30.408942 54.766884 0
M  V30 25 C 37.821312 34.790980 60.461184 0
M  V30 26 C 38.972486 30.173886 58.195947 0
M  V30 27 C 37.285405 25.481417 55.175978 0
M  V30 28 C 39.202023 28.062886 52.462349 0 CFG=2
M  V30 29 C 37.393284 33.621787 59.604270 0 CFG=1
M  V30 30 O 36.675399 36.404959 59.053623 0
M  V30 31 S 38.667399 32.957926 58.542632 0
M  V30 32 O 39.355388 28.105614 54.860192 0
M  V30 33 O 37.867845 26.593658 55.772197 0
M  V30 34 H 40.667372 29.685267 52.557247 0
M  V30 35 H 40.667051 28.817714 51.029616 0
M  V30 36 H 39.394517 29.969108 51.386699 0
M  V30 37 H 39.483069 26.107120 54.582755 0
M  V30 38 H 37.762842 26.889647 51.831871 0
M  V30 39 H 37.575649 38.205629 60.735281 0
M  V30 40 H 39.011207 37.755502 62.711563 0
M  V30 41 H 39.144292 30.414478 53.953179 0
M  V30 42 H 38.938966 33.550128 61.837115 0
M  V30 43 H 37.550064 27.958145 53.887040 0
M  V30 44 H 38.716207 24.193257 55.308261 0
M  V30 45 H 35.067383 34.713779 60.453384 0
M  V30 46 H 41.400916 28.233158 55.992119 0
M  V30 47 H 41.020941 28.182799 57.720167 0
M  V30 48 H 42.137198 27.016373 57.040547 0
M  V30 49 H 33.821169 35.621434 58.253487 0
M  V30 50 H 34.836312 34.421429 57.453502 0
M  V30 51 H 36.083153 32.522118 61.142974 0
M  V30 52 H 38.968888 31.520084 56.426894 0
M  V30 53 H 39.609296 29.968438 56.180665 0
M  V30 54 H 37.417560 29.035379 56.271635 0
M  V30 55 H 33.584501 32.560282 58.672840 0
M  V30 56 H 32.695122 33.817130 59.668523 0
M  V30 57 H 39.149303 31.216877 60.056979 0
M  V30 58 H 39.694157 35.437913 63.255767 0
M  V30 59 H 36.380912 30.764522 58.917408 0
M  V30 60 H 37.032263 30.351814 60.497084 0
M  V30 61 H 36.267437 30.021401 54.478175 0
M  V30 62 H 37.169523 31.495688 54.692825 0
M  V30 63 H 40.034970 30.021398 58.373281 0
M  V30 64 H 38.521803 29.211655 58.445620 0
M  V30 65 H 36.251201 25.471805 55.489498 0
M  V30 66 H 37.327345 25.515252 54.086068 0
M  V30 67 H 39.860417 27.215015 52.655008 0
M  V30 68 H 36.761508 35.844586 58.294884 0
M  V30 69 H 36.749280 30.488495 56.699918 0
M  V30 70 H 35.959807 32.753585 58.312994 0
M  V30 END ATOM
M  V30 BEGIN BOND
M  V30 1 1 5 4
M  V30 2 1 8 6
M  V30 3 1 12 2
M  V30 4 2 12 10
M  V30 5 1 13 12
M  V30 6 1 14 11
M  V30 7 1 17 16
M  V30 8 1 18 11
M  V30 9 1 18 14
M  V30 10 2 20 5
M  V30 11 1 20 7
M  V30 12 1 21 15
M  V30 13 1 21 19
M  V30 14 1 22 11
M  V30 15 1 22 15
M  V30 16 2 23 4
M  V30 17 1 24 6
M  V30 18 1 24 17
M  V30 19 2 25 7
M  V30 20 1 25 23
M  V30 21 1 26 16
M  V30 22 1 26 19
M  V30 23 1 27 9
M  V30 24 1 28 1
M  V30 25 1 28 3
M  V30 26 1 28 8
M  V30 27 1 29 15
M  V30 28 1 29 22
M  V30 29 1 29 25 CFG=1
M  V30 30 1 30 23
M  V30 31 1 31 19
M  V30 32 1 31 29
M  V30 33 1 32 2
M  V30 34 1 32 8
M  V30 35 1 33 2
M  V30 36 1 33 27
M  V30 37 1 34 1
M  V30 38 1 35 1
M  V30 39 1 36 1
M  V30 40 1 2 37 CFG=3
M  V30 41 1 38 3
M  V30 42 1 39 4
M  V30 43 1 40 5
M  V30 44 1 41 6
M  V30 45 1 42 7
M  V30 46 1 8 43 CFG=1
M  V30 47 1 44 9
M  V30 48 1 45 11
M  V30 49 1 46 13
M  V30 50 1 47 13
M  V30 51 1 48 13
M  V30 52 1 49 14
M  V30 53 1 50 14
M  V30 54 1 15 51 CFG=1
M  V30 55 1 52 16
M  V30 56 1 53 16
M  V30 57 1 54 17
M  V30 58 1 55 18
M  V30 59 1 56 18
M  V30 60 1 19 57 CFG=1
M  V30 61 1 58 20
M  V30 62 1 59 21
M  V30 63 1 60 21
M  V30 64 1 61 24
M  V30 65 1 62 24
M  V30 66 1 63 26
M  V30 67 1 64 26
M  V30 68 1 65 27
M  V30 69 1 66 27
M  V30 70 1 28 67 CFG=1
M  V30 71 1 68 30
M  V30 72 1 69 17
M  V30 73 1 22 70 CFG=3
M  V30 END BOND
M  V30 END CTAB
M  END
>  <i_epik_Tot_Q>  (1) 
2

>  <i_epik_Tot_abs_Q>  (1) 
2

>  <i_i_glide_confnum>  (1) 
4760

>  <i_i_glide_lignum>  (1) 
84

>  <i_i_glide_posenum>  (1) 
19

>  <i_i_glide_rotatable_bonds>  (1) 
17

>  <i_lp_mmshare_version>  (1) 
72125

>  <i_m_source_file_index>  (1) 
31

>  <i_f3d_flags>  (1) 
0

>  <num_sample>  (1) 
100

>  <b_lp_Chiralities_Consistent>  (1) 
1

>  <r_epik_Charging_Adjusted_Penalty>  (1) 
1.979093595035226

>  <r_epik_Ionization_Penalty>  (1) 
0.79989620662071081

>  <r_epik_Ionization_Penalty_Charging>  (1) 
0.66086891892205935

>  <r_epik_Ionization_Penalty_Neutral>  (1) 
0.13902728769865147

>  <r_epik_State_Penalty>  (1) 
1.3182246761131666

>  <r_glide_ring_energy>  (1) 
0

>  <r_i_docking_score>  (1) 
-6.3346675155217333

>  <r_i_glide_ecoul>  (1) 
-11.320101891903066

>  <r_i_glide_eff_state_penalty>  (1) 
1.3182246761131666

>  <r_i_glide_einternal>  (1) 
18.346956423630807

>  <r_i_glide_emodel>  (1) 
-62.387298384412432

>  <r_i_glide_emodel_strain>  (1) 
4.5729308392607209

>  <r_i_glide_energy>  (1) 
-48.763919092890518

>  <r_i_glide_erotb>  (1) 
1.1283805066766976

>  <r_i_glide_esite>  (1) 
-0.24542172156704317

>  <r_i_glide_evdw>  (1) 
-37.443817200987453

>  <r_i_glide_gscore>  (1) 
-7.6528921916348995

>  <r_i_glide_gscore_strain>  (1) 
0.14323270981518021

>  <r_i_glide_hbond>  (1) 
-0.71702371439978452

>  <r_i_glide_ligand_efficiency>  (1) 
-0.19195962168247677

>  <r_i_glide_ligand_efficiency_ln>  (1) 
-1.408797256299011

>  <r_i_glide_ligand_efficiency_sa>  (1) 
-0.61571707651955554

>  <r_i_glide_lipo>  (1) 
-2.1222817463787518

>  <r_i_glide_metal>  (1) 
-0

>  <r_i_glide_rewards>  (1) 
-2.2695720819463654

>  <r_lp_Energy>  (1) 
25.051933999999999

>  <r_lp_tautomer_probability>  (1) 
0.99999996999736518

>  <s_epik_Chemistry_Notes>  (1) 
This compound contains an acetal/aminal-like group ( X-CH(R)-Y where X, Y are N, S, or O) that may be acid/base labile, releasing an aldehyde.

>  <s_epik_cmdline>  (1) 
J2VwaWtfcHl0aG9uJywgJy1waHQnLCAnMS4wJywgJy1waCcsICc3LjQnLCAnLXRuJywgJzgnLCAnLW1hJywgJzUwMCcsICctaW1hZScsICc8aW5maWxlLm1hZT4nLCAnLW9tYWUnLCAnPG91dGZpbGUubWFlPic=

>  <s_epik_input>  (1) 
W09IXVtDSDJdT1tDQEBIXShDKD1PKVtDSDNdKU9bQ0BIXShbQ0BIXShbQ0gzXSlbT0hdKVtOSF1bQ0gyXVtOSF1bQ0gyXVtDSDJdW0NAQEhdKFMxKVtDSDJdW0NASF0oTjJbQ0hdM1tDSDJdW0NIMl0zKVtDQEBdMTJjNFtjSF1bY0hdW2NIXVtjSF1jNFtPSF0=

>  <s_glide_docking_method>  (1) 
confgen

>  <s_i_glide_gridfile>  (1) 
gpcr_5ht2c_6bqh_protein_autoprepared_prepared

>  <s_lp_Force_Field>  (1) 
S-OPLS

>  <s_lp_Variant>  (1) 
DiffSBDD_30_num_sample_100-6

>  <s_m_source_file>  (1) 
generated__ligand_DiffSBDD_2026-05-06_prepared.sdf

>  <GenAI_Model>  (1) 
DiffSBDD

>  <Protein>  (1) 
GPCR_5HT2C

$$$$
DiffSBDD_39_num_sample_100
     RDKit          3D

  0  0  0  0  0  0  0  0  0  0999 V3000
M  V30 BEGIN CTAB
M  V30 COUNTS 61 64 0 0 1
M  V30 BEGIN ATOM
M  V30 1 C 39.579613 33.797920 61.768975 0
M  V30 2 C 37.213793 29.908213 57.144630 0
M  V30 3 C 40.313009 29.769634 60.178025 0
M  V30 4 C 37.553560 30.767909 58.382697 0
M  V30 5 C 38.018794 31.912687 61.156888 0
M  V30 6 C 38.731875 28.151767 56.002228 0
M  V30 7 N 39.721784 30.821360 53.463981 0
M  V30 8 O 41.067399 30.637466 60.653503 0 CHG=-1
M  V30 9 C 39.048052 28.890289 54.748974 0
M  V30 10 C 39.783871 31.716507 63.043102 0
M  V30 11 O 40.501450 29.097384 59.141219 0
M  V30 12 C 40.836692 32.293240 63.788770 0
M  V30 13 C 41.254583 33.610876 63.528695 0
M  V30 14 N 38.046331 30.573360 60.833866 0
M  V30 15 C 41.053324 35.807403 62.268241 0
M  V30 16 C 39.552434 29.221822 62.412346 0
M  V30 17 C 40.131485 30.825362 51.051940 0
M  V30 18 C 37.095352 30.203770 59.752292 0
M  V30 19 C 38.823330 36.821431 63.096353 0
M  V30 20 C 39.018119 28.098385 53.471237 0
M  V30 21 C 39.088732 29.520325 61.002043 0 CFG=2
M  V30 22 C 40.075682 29.722441 49.941858 0
M  V30 23 O 37.630149 36.849835 62.723646 0 CHG=-1
M  V30 24 C 39.158796 32.470991 62.002150 0
M  V30 25 S 39.467417 28.111983 50.653571 0
M  V30 26 C 39.397963 28.820411 52.226099 0
M  V30 27 O 38.702604 26.907829 53.454613 0
M  V30 28 C 40.619930 34.367818 62.528022 0
M  V30 29 Cl 39.606699 31.195982 56.066587 0
M  V30 30 C 39.892153 36.798827 61.998869 0
M  V30 31 C 39.408894 30.217375 54.668711 0
M  V30 32 C 37.974353 28.591179 57.050509 0
M  V30 33 C 39.295916 30.337332 63.409176 0
M  V30 34 O 37.142870 32.676342 60.743974 0
M  V30 35 C 39.721462 30.095794 52.296846 0
M  V30 36 O 39.220370 36.821441 64.281703 0
M  V30 37 H 39.098615 34.380396 60.997540 0
M  V30 38 H 37.201490 30.468225 56.214047 0
M  V30 39 H 36.172880 29.621439 57.260151 0
M  V30 40 H 38.622366 30.951512 58.413227 0
M  V30 41 H 37.105483 31.753492 58.253510 0
M  V30 42 H 39.139483 27.154431 56.089210 0
M  V30 43 H 41.310795 31.727396 64.576844 0
M  V30 44 H 42.052833 34.046709 64.110939 0
M  V30 45 H 41.644191 36.169658 63.111687 0
M  V30 46 H 41.724072 35.804182 61.409614 0
M  V30 47 H 40.614535 28.969676 62.465899 0
M  V30 48 H 39.087986 28.273614 62.653500 0
M  V30 49 H 39.467403 31.657017 50.829375 0
M  V30 50 H 41.140972 31.220299 51.160220 0
M  V30 51 H 36.082321 30.543872 59.977367 0
M  V30 52 H 36.983196 29.130860 59.672796 0
M  V30 53 H 38.711928 28.567193 60.628466 0
M  V30 54 H 41.067780 29.610869 49.522243 0
M  V30 55 H 39.467408 30.039789 49.101946 0
M  V30 56 H 40.267395 37.813672 61.887308 0
M  V30 57 H 39.408503 36.556676 61.053548 0
M  V30 58 H 37.864339 27.937940 57.903251 0
M  V30 59 H 39.727328 30.046975 64.368013 0
M  V30 60 H 38.233320 30.421427 63.592727 0
M  V30 61 H 39.997807 31.794468 53.449916 0
M  V30 END ATOM
M  V30 BEGIN BOND
M  V30 1 1 4 2
M  V30 2 1 8 3
M  V30 3 1 9 6
M  V30 4 2 11 3
M  V30 5 1 12 10
M  V30 6 2 13 12
M  V30 7 1 14 5
M  V30 8 1 18 4
M  V30 9 1 18 14
M  V30 10 1 20 9
M  V30 11 1 21 3
M  V30 12 1 21 14
M  V30 13 1 21 16
M  V30 14 1 22 17
M  V30 15 1 23 19
M  V30 16 1 24 1
M  V30 17 1 24 5
M  V30 18 2 24 10
M  V30 19 1 25 22
M  V30 20 1 26 20
M  V30 21 1 26 25
M  V30 22 2 27 20
M  V30 23 2 28 1
M  V30 24 1 28 13
M  V30 25 1 28 15
M  V30 26 1 30 15
M  V30 27 1 30 19
M  V30 28 1 31 7
M  V30 29 2 31 9
M  V30 30 1 31 29
M  V30 31 1 32 2
M  V30 32 2 32 6
M  V30 33 1 33 10
M  V30 34 1 33 16
M  V30 35 2 34 5
M  V30 36 1 35 7
M  V30 37 1 35 17
M  V30 38 2 35 26
M  V30 39 2 36 19
M  V30 40 1 37 1
M  V30 41 1 38 2
M  V30 42 1 39 2
M  V30 43 1 40 4
M  V30 44 1 41 4
M  V30 45 1 42 6
M  V30 46 1 43 12
M  V30 47 1 44 13
M  V30 48 1 45 15
M  V30 49 1 46 15
M  V30 50 1 47 16
M  V30 51 1 48 16
M  V30 52 1 49 17
M  V30 53 1 50 17
M  V30 54 1 51 18
M  V30 55 1 52 18
M  V30 56 1 21 53 CFG=3
M  V30 57 1 54 22
M  V30 58 1 55 22
M  V30 59 1 56 30
M  V30 60 1 57 30
M  V30 61 1 58 32
M  V30 62 1 59 33
M  V30 63 1 60 33
M  V30 64 1 61 7
M  V30 END BOND
M  V30 END CTAB
M  END
>  <i_epik_Tot_Q>  (1) 
-2

>  <i_epik_Tot_abs_Q>  (1) 
2

>  <i_i_glide_confnum>  (1) 
165

>  <i_i_glide_lignum>  (1) 
99

>  <i_i_glide_posenum>  (1) 
76

>  <i_i_glide_rotatable_bonds>  (1) 
9

>  <i_lp_mmshare_version>  (1) 
72125

>  <i_m_source_file_index>  (1) 
40

>  <i_f3d_flags>  (1) 
0

>  <num_sample>  (1) 
100

>  <b_lp_Chiralities_Consistent>  (1) 
1

>  <r_epik_Charging_Adjusted_Penalty>  (1) 
2.4833595310622814

>  <r_epik_Ionization_Penalty>  (1) 
1.1966221344959846

>  <r_epik_Ionization_Penalty_Charging>  (1) 
1.1966221333468745

>  <r_epik_Ionization_Penalty_Neutral>  (1) 
1.1491101627543943e-09

>  <r_epik_State_Penalty>  (1) 
1.2867373977154066

>  <r_glide_ring_energy>  (1) 
0

>  <r_i_docking_score>  (1) 
-6.3313232951248857

>  <r_i_glide_ecoul>  (1) 
-2.9164589208067433

>  <r_i_glide_eff_state_penalty>  (1) 
1.2867373977154066

>  <r_i_glide_einternal>  (1) 
11.004772417637568

>  <r_i_glide_emodel>  (1) 
-57.706604621164736

>  <r_i_glide_emodel_strain>  (1) 
1.0708353084669966

>  <r_i_glide_energy>  (1) 
-43.00273601385031

>  <r_i_glide_erotb>  (1) 
0.44176053004123106

>  <r_i_glide_esite>  (1) 
0

>  <r_i_glide_evdw>  (1) 
-40.08627709304357

>  <r_i_glide_gscore>  (1) 
-7.6180606928402925

>  <r_i_glide_gscore_strain>  (1) 
0

>  <r_i_glide_hbond>  (1) 
-0.099060225602434826

>  <r_i_glide_ligand_efficiency>  (1) 
-0.17587009153124683

>  <r_i_glide_ligand_efficiency_ln>  (1) 
-1.3813236904083781

>  <r_i_glide_ligand_efficiency_sa>  (1) 
-0.58071024749261613

>  <r_i_glide_lipo>  (1) 
-4.2627848489088649

>  <r_i_glide_metal>  (1) 
-0

>  <r_i_glide_rewards>  (1) 
-1.2561934555970335

>  <r_lp_Energy>  (1) 
54.484504999999999

>  <s_epik_cmdline>  (1) 
J2VwaWtfcHl0aG9uJywgJy1waHQnLCAnMS4wJywgJy1waCcsICc3LjQnLCAnLXRuJywgJzgnLCAnLW1hJywgJzUwMCcsICctaW1hZScsICc8aW5maWxlLm1hZT4nLCAnLW9tYWUnLCAnPG91dGZpbGUubWFlPic=

>  <s_epik_input>  (1) 
W09IXUMoPU8pW0NIMl1bQ0gyXWMoW2NIXVtjSF0xKVtjSF1jKGMxMilDKD1PKU4oW0NAQEhdKEMoPU8pW09IXSlbQ0gyXVtDSDJdMilbQ0gyXVtDSDJdW0NIMl0vW0NIXT1bQ0hdXGMoYzNbT0hdKWMoQ2wpbmMoYzM0KVtDSDJdW0NIMl1TNA==

>  <s_glide_docking_method>  (1) 
confgen

>  <s_i_glide_gridfile>  (1) 
gpcr_5ht2c_6bqh_protein_autoprepared_prepared

>  <s_lp_Force_Field>  (1) 
S-OPLS

>  <s_lp_Variant>  (1) 
DiffSBDD_39_num_sample_100-6

>  <s_m_source_file>  (1) 
generated__ligand_DiffSBDD_2026-05-06_prepared.sdf

>  <GenAI_Model>  (1) 
DiffSBDD

>  <Protein>  (1) 
GPCR_5HT2C

$$$$
DiffSBDD_83_num_sample_100
     RDKit          3D

  0  0  0  0  0  0  0  0  0  0999 V3000
M  V30 BEGIN CTAB
M  V30 COUNTS 66 69 0 0 1
M  V30 BEGIN ATOM
M  V30 1 C 40.185454 26.716070 57.002456 0
M  V30 2 C 39.779156 30.780198 54.285596 0
M  V30 3 O 39.054176 28.791107 51.233685 0
M  V30 4 O 42.053658 26.374834 65.603478 0
M  V30 5 C 39.875624 28.081597 57.124329 0
M  V30 6 N 42.898135 29.634159 65.309927 0
M  V30 7 C 37.560352 27.506866 57.620113 0
M  V30 8 C 43.706010 30.096098 66.290306 0
M  V30 9 O 43.314868 30.354395 67.429916 0
M  V30 10 C 38.603307 30.567383 61.497791 0
M  V30 11 C 41.509638 30.082759 65.062221 0 CFG=1
M  V30 12 C 38.969390 29.296303 52.515204 0
M  V30 13 C 39.924318 29.417762 50.301979 0
M  V30 14 N 40.263111 29.679920 63.068469 0
M  V30 15 C 45.170802 30.281881 65.923164 0
M  V30 16 C 38.755433 30.495630 58.822556 0 CFG=2
M  V30 17 C 39.177267 25.745349 57.184410 0
M  V30 18 O 42.055553 31.053384 62.940919 0
M  V30 19 C 39.867403 30.294142 52.968957 0
M  V30 20 C 37.965952 28.821418 53.379602 0
M  V30 21 O 41.294842 32.381138 65.744959 0
M  V30 22 C 38.792379 30.291172 55.156153 0
M  V30 23 C 37.868389 26.143226 57.497949 0
M  V30 24 O 38.183534 31.704428 59.321731 0
M  V30 25 C 38.197429 29.960178 57.517700 0 CFG=1
M  V30 26 C 40.956709 31.210117 65.920322 0
M  V30 27 C 41.802945 27.487281 64.772115 0
M  V30 28 C 37.867381 29.322562 54.691527 0
M  V30 29 C 39.903777 29.745558 61.653525 0 CFG=1
M  V30 30 C 41.312718 30.325308 63.598445 0
M  V30 31 O 39.467400 24.423128 57.053681 0
M  V30 32 C 37.961703 30.528648 60.113801 0 CFG=2
M  V30 33 O 38.751567 30.756896 56.459741 0
M  V30 34 C 39.770402 28.292646 61.173583 0
M  V30 35 C 38.555926 28.479065 57.424778 0
M  V30 36 C 41.764928 28.764912 65.604480 0 CFG=1
M  V30 37 H 41.192654 26.416495 56.761920 0
M  V30 38 H 40.479819 31.524421 54.632670 0
M  V30 39 H 42.085359 25.595803 65.069314 0
M  V30 40 H 40.644653 28.824072 56.973723 0
M  V30 41 H 36.553218 27.810194 57.853503 0
M  V30 42 H 38.801908 31.608916 61.754919 0
M  V30 43 H 37.867384 30.226688 62.224233 0
M  V30 44 H 39.824617 28.934448 49.333041 0
M  V30 45 H 39.675361 30.472291 50.170420 0
M  V30 46 H 40.967004 29.324378 50.607124 0
M  V30 47 H 39.682753 29.104784 63.672456 0
M  V30 48 H 45.266039 30.821795 64.982098 0
M  V30 49 H 45.703510 30.835704 66.696899 0
M  V30 50 H 45.646219 29.308526 65.805989 0
M  V30 51 H 39.831243 30.421415 58.922565 0
M  V30 52 H 40.635111 30.677633 52.316212 0
M  V30 53 H 37.269303 28.070917 53.035244 0
M  V30 54 H 37.095819 25.401759 57.640571 0
M  V30 55 H 37.113082 30.084856 57.514660 0
M  V30 56 H 40.246356 30.910763 66.691170 0
M  V30 57 H 40.832440 27.332934 64.299876 0
M  V30 58 H 42.552746 27.546431 63.980958 0
M  V30 59 H 37.095027 28.954679 55.343096 0
M  V30 60 H 40.687613 30.222073 61.064310 0
M  V30 61 H 38.737049 23.861728 57.261958 0
M  V30 62 H 36.934563 30.169340 60.081631 0
M  V30 63 H 39.499733 28.219441 60.122925 0
M  V30 64 H 40.711871 27.757188 61.296170 0
M  V30 65 H 39.014528 27.761446 61.750262 0
M  V30 66 H 41.468454 28.616637 66.643300 0
M  V30 END ATOM
M  V30 BEGIN BOND
M  V30 1 2 5 1
M  V30 2 1 8 6
M  V30 3 2 9 8
M  V30 4 1 11 6
M  V30 5 1 12 3
M  V30 6 1 13 3
M  V30 7 1 15 8
M  V30 8 1 17 1
M  V30 9 2 19 2
M  V30 10 1 19 12
M  V30 11 2 20 12
M  V30 12 1 22 2
M  V30 13 1 23 7
M  V30 14 2 23 17
M  V30 15 1 24 16
M  V30 16 1 25 16
M  V30 17 1 11 26 CFG=1
M  V30 18 2 26 21
M  V30 19 1 27 4
M  V30 20 1 28 20
M  V30 21 2 28 22
M  V30 22 1 29 10
M  V30 23 1 29 14
M  V30 24 1 30 11
M  V30 25 1 30 14
M  V30 26 2 30 18
M  V30 27 1 31 17
M  V30 28 1 32 10
M  V30 29 1 32 16
M  V30 30 1 32 24
M  V30 31 1 33 22
M  V30 32 1 33 25
M  V30 33 1 34 29
M  V30 34 1 35 5
M  V30 35 2 35 7
M  V30 36 1 35 25
M  V30 37 1 36 6
M  V30 38 1 36 11
M  V30 39 1 36 27
M  V30 40 1 37 1
M  V30 41 1 38 2
M  V30 42 1 39 4
M  V30 43 1 40 5
M  V30 44 1 41 7
M  V30 45 1 42 10
M  V30 46 1 43 10
M  V30 47 1 44 13
M  V30 48 1 45 13
M  V30 49 1 46 13
M  V30 50 1 47 14
M  V30 51 1 48 15
M  V30 52 1 49 15
M  V30 53 1 50 15
M  V30 54 1 16 51 CFG=1
M  V30 55 1 52 19
M  V30 56 1 53 20
M  V30 57 1 54 23
M  V30 58 1 25 55 CFG=1
M  V30 59 1 56 26
M  V30 60 1 57 27
M  V30 61 1 58 27
M  V30 62 1 59 28
M  V30 63 1 29 60 CFG=3
M  V30 64 1 61 31
M  V30 65 1 32 62 CFG=1
M  V30 66 1 63 34
M  V30 67 1 64 34
M  V30 68 1 65 34
M  V30 69 1 36 66 CFG=1
M  V30 END BOND
M  V30 END CTAB
M  END
>  <i_epik_Tot_Q>  (1) 
0

>  <i_epik_Tot_abs_Q>  (1) 
0

>  <i_i_glide_confnum>  (1) 
3219

>  <i_i_glide_lignum>  (1) 
217

>  <i_i_glide_posenum>  (1) 
331

>  <i_i_glide_rotatable_bonds>  (1) 
15

>  <i_lp_mmshare_version>  (1) 
72125

>  <i_m_source_file_index>  (1) 
84

>  <i_f3d_flags>  (1) 
0

>  <num_sample>  (1) 
100

>  <b_lp_Chiralities_Consistent>  (1) 
1

>  <r_epik_Charging_Adjusted_Penalty>  (1) 
0.0031499927794813721

>  <r_epik_Ionization_Penalty>  (1) 
0.0031524718426135371

>  <r_epik_Ionization_Penalty_Charging>  (1) 
0

>  <r_epik_Ionization_Penalty_Neutral>  (1) 
0.0031524718426135371

>  <r_epik_State_Penalty>  (1) 
0.0031499927794813721

>  <r_glide_ring_energy>  (1) 
0

>  <r_i_docking_score>  (1) 
-6.3204583664592242

>  <r_i_glide_ecoul>  (1) 
-4.6609893358118715

>  <r_i_glide_eff_state_penalty>  (1) 
0.0031499927794813721

>  <r_i_glide_einternal>  (1) 
20.793757027996392

>  <r_i_glide_emodel>  (1) 
-58.045774247090542

>  <r_i_glide_emodel_strain>  (1) 
1.6187213842708843

>  <r_i_glide_energy>  (1) 
-51.080321223832875

>  <r_i_glide_erotb>  (1) 
0.82106346531741226

>  <r_i_glide_esite>  (1) 
-0.046052806101207239

>  <r_i_glide_evdw>  (1) 
-46.419331888021006

>  <r_i_glide_gscore>  (1) 
-6.3236083592387056

>  <r_i_glide_gscore_strain>  (1) 
0

>  <r_i_glide_hbond>  (1) 
-0.43985099842098629

>  <r_i_glide_ligand_efficiency>  (1) 
-0.17556828795720067

>  <r_i_glide_ligand_efficiency_ln>  (1) 
-1.3789532565099811

>  <r_i_glide_ligand_efficiency_sa>  (1) 
-0.57971371404765937

>  <r_i_glide_lipo>  (1) 
-3.8702461809718929

>  <r_i_glide_metal>  (1) 
-0

>  <r_i_glide_rewards>  (1) 
0.23159315571080186

>  <r_lp_Energy>  (1) 
25.148723999999998

>  <r_lp_tautomer_probability>  (1) 
0.99999999999736477

>  <s_epik_cmdline>  (1) 
J2VwaWtfcHl0aG9uJywgJy1waHQnLCAnMS4wJywgJy1waCcsICc3LjQnLCAnLXRuJywgJzgnLCAnLW1hJywgJzUwMCcsICctaW1hZScsICc8aW5maWxlLm1hZT4nLCAnLW9tYWUnLCAnPG91dGZpbGUubWFlPic=

>  <s_epik_input>  (1) 
W0NIM11PYzFbY0hdW2NIXWMoW2NIXVtjSF0xKU9bQ0BASF0oYyhbY0hdW2NIXTIpW2NIXVtjSF1jMltPSF0pW0NASF0zT1tDSF0zW0NIMl1bQ0BIXShbQ0gzXSlbTkhdQyg9TylDNChbQ0hdPU8pTihDKD1PKVtDSDNdKVtDQEBIXTRbQ0gyXVtPSF0=

>  <s_glide_docking_method>  (1) 
confgen

>  <s_i_glide_gridfile>  (1) 
gpcr_5ht2c_6bqh_protein_autoprepared_prepared

>  <s_lp_Force_Field>  (1) 
S-OPLS

>  <s_lp_Variant>  (1) 
DiffSBDD_83_num_sample_100-1

>  <s_m_source_file>  (1) 
generated__ligand_DiffSBDD_2026-05-06_prepared.sdf

>  <GenAI_Model>  (1) 
DiffSBDD

>  <Protein>  (1) 
GPCR_5HT2C

$$$$
DiffSBDD_90_num_sample_100
     RDKit          3D

  0  0  0  0  0  0  0  0  0  0999 V3000
M  V30 BEGIN CTAB
M  V30 COUNTS 85 88 0 0 1
M  V30 BEGIN ATOM
M  V30 1 C 40.152721 29.032179 62.080968 0
M  V30 2 O 38.945988 27.463228 53.192594 0
M  V30 3 F 43.244838 34.021248 67.356700 0
M  V30 4 C 39.216044 34.888324 61.795377 0 CFG=1
M  V30 5 C 38.413271 25.809036 55.624397 0 CFG=2
M  V30 6 C 38.989673 27.870743 56.756928 0 CFG=1
M  V30 7 C 37.128167 36.858719 59.461258 0
M  V30 8 C 39.080493 30.086726 58.034764 0
M  V30 9 C 37.819366 35.504707 61.395137 0
M  V30 10 N 39.867845 26.421394 53.611413 0
M  V30 11 C 42.132765 32.385986 66.154439 0
M  V30 12 C 36.769976 34.426097 61.010917 0
M  V30 13 C 37.827358 27.118438 56.143960 0
M  V30 14 C 40.155475 27.597258 55.807074 0
M  V30 15 O 37.549485 24.101879 57.074081 0
M  V30 16 N 40.437717 30.356535 61.575601 0
M  V30 17 C 38.674774 29.337639 56.982295 0
M  V30 18 F 41.120642 34.279197 67.081798 0
M  V30 19 C 41.398841 34.467244 64.173436 0 CFG=2
M  V30 20 N 40.031347 31.242061 62.632864 0 CHG=1
M  V30 21 C 41.084251 32.132876 65.062335 0
M  V30 22 C 39.601695 30.577162 60.395316 0
M  V30 23 O 38.162770 36.285141 60.253590 0
M  V30 24 C 37.237950 36.497210 62.435967 0
M  V30 25 C 40.606145 28.033999 61.053691 0
M  V30 26 C 42.499662 34.719424 65.223908 0
M  V30 27 C 39.948255 29.621663 59.223178 0 CFG=1
M  V30 28 C 39.796648 26.277756 55.069365 0 CFG=1
M  V30 29 C 40.073384 35.912681 62.578154 0
M  V30 30 O 39.622451 24.820887 57.445540 0 CHG=-1
M  V30 31 C 40.462135 32.646404 62.550820 0 CFG=1
M  V30 32 C 39.893800 28.174300 59.724221 0
M  V30 33 O 37.539163 25.256630 54.652809 0
M  V30 34 C 39.165098 33.450355 62.398821 0
M  V30 35 C 41.366760 32.973036 63.781730 0 CFG=1
M  V30 36 C 41.462470 35.417419 62.963088 0
M  V30 37 C 42.245698 33.875521 66.489729 0
M  V30 38 C 38.541710 24.821413 56.817807 0
M  V30 39 H 40.678152 28.846119 63.020445 0
M  V30 40 H 39.083985 28.905162 62.263109 0
M  V30 41 H 38.921728 28.026677 53.952159 0
M  V30 42 H 39.746842 34.734590 60.853869 0
M  V30 43 H 39.119706 27.329439 57.664853 0
M  V30 44 H 37.592514 37.428420 58.657207 0
M  V30 45 H 36.501565 36.104818 58.988208 0
M  V30 46 H 36.490725 37.539676 60.023899 0
M  V30 47 H 38.777632 31.123946 58.062307 0
M  V30 48 H 40.760296 26.778948 53.302308 0
M  V30 49 H 43.103346 32.012379 65.820896 0
M  V30 50 H 41.883221 31.819058 67.053199 0
M  V30 51 H 36.521364 33.784592 61.853832 0
M  V30 52 H 35.817688 34.837779 60.689600 0
M  V30 53 H 37.129605 33.800559 60.193352 0
M  V30 54 H 37.067207 26.944783 56.900392 0
M  V30 55 H 37.410828 27.689231 55.315788 0
M  V30 56 H 41.090833 27.502576 56.358220 0
M  V30 57 H 40.266522 28.443391 55.130622 0
M  V30 58 H 38.069389 29.808303 56.220260 0
M  V30 59 H 40.473196 34.689506 64.699875 0
M  V30 60 H 39.022965 31.200296 62.654490 0
M  V30 61 H 41.107156 31.059401 64.873384 0
M  V30 62 H 40.092460 32.365555 65.450917 0
M  V30 63 H 39.718802 31.613111 60.076054 0
M  V30 64 H 38.549004 30.452969 60.657678 0
M  V30 65 H 37.127873 36.071189 63.427955 0
M  V30 66 H 37.857131 37.389186 62.529992 0
M  V30 67 H 36.258980 36.860784 62.145153 0
M  V30 68 H 41.689041 28.033774 60.933427 0
M  V30 69 H 40.307813 27.098464 61.453319 0
M  V30 70 H 43.467072 34.457412 64.801718 0
M  V30 71 H 42.549860 35.778621 65.484567 0
M  V30 72 H 40.988458 29.759319 58.937889 0
M  V30 73 H 40.559533 25.540774 55.314635 0
M  V30 74 H 40.194957 36.800792 61.955810 0
M  V30 75 H 39.567036 36.254601 63.479903 0
M  V30 76 H 41.049831 32.786795 61.641450 0
M  V30 77 H 38.864298 27.820186 59.812618 0
M  V30 78 H 40.464702 27.510897 59.076618 0
M  V30 79 H 37.944424 24.470952 54.322354 0
M  V30 80 H 38.552009 32.862810 61.719277 0
M  V30 81 H 38.667757 33.362375 63.342832 0
M  V30 82 H 42.374547 32.702514 63.462206 0
M  V30 83 H 41.867613 34.933558 62.082083 0
M  V30 84 H 42.093062 36.280349 63.185718 0
M  V30 85 H 40.392250 30.837845 63.485457 0
M  V30 END ATOM
M  V30 BEGIN BOND
M  V30 1 1 9 4
M  V30 2 1 10 2
M  V30 3 1 12 9
M  V30 4 1 13 5
M  V30 5 1 13 6
M  V30 6 1 14 6
M  V30 7 1 16 1
M  V30 8 1 17 6
M  V30 9 2 17 8
M  V30 10 1 20 16
M  V30 11 1 21 11
M  V30 12 1 22 16
M  V30 13 1 23 7
M  V30 14 1 23 9
M  V30 15 1 24 9
M  V30 16 1 25 1
M  V30 17 1 26 19
M  V30 18 1 27 8
M  V30 19 1 27 22
M  V30 20 1 28 5
M  V30 21 1 28 10
M  V30 22 1 28 14
M  V30 23 1 29 4
M  V30 24 1 31 20
M  V30 25 1 32 25
M  V30 26 1 32 27
M  V30 27 1 5 33 CFG=3
M  V30 28 1 34 4
M  V30 29 1 34 31
M  V30 30 1 35 19
M  V30 31 1 35 21
M  V30 32 1 35 31
M  V30 33 1 36 19
M  V30 34 1 36 29
M  V30 35 1 37 3
M  V30 36 1 37 11
M  V30 37 1 37 18
M  V30 38 1 37 26
M  V30 39 1 38 5
M  V30 40 2 38 15
M  V30 41 1 38 30
M  V30 42 1 39 1
M  V30 43 1 40 1
M  V30 44 1 41 2
M  V30 45 1 4 42 CFG=3
M  V30 46 1 6 43 CFG=1
M  V30 47 1 44 7
M  V30 48 1 45 7
M  V30 49 1 46 7
M  V30 50 1 47 8
M  V30 51 1 48 10
M  V30 52 1 49 11
M  V30 53 1 50 11
M  V30 54 1 51 12
M  V30 55 1 52 12
M  V30 56 1 53 12
M  V30 57 1 54 13
M  V30 58 1 55 13
M  V30 59 1 56 14
M  V30 60 1 57 14
M  V30 61 1 58 17
M  V30 62 1 19 59 CFG=1
M  V30 63 1 60 20
M  V30 64 1 61 21
M  V30 65 1 62 21
M  V30 66 1 63 22
M  V30 67 1 64 22
M  V30 68 1 65 24
M  V30 69 1 66 24
M  V30 70 1 67 24
M  V30 71 1 68 25
M  V30 72 1 69 25
M  V30 73 1 70 26
M  V30 74 1 71 26
M  V30 75 1 27 72 CFG=3
M  V30 76 1 28 73 CFG=1
M  V30 77 1 74 29
M  V30 78 1 75 29
M  V30 79 1 31 76 CFG=3
M  V30 80 1 77 32
M  V30 81 1 78 32
M  V30 82 1 79 33
M  V30 83 1 80 34
M  V30 84 1 81 34
M  V30 85 1 35 82 CFG=3
M  V30 86 1 83 36
M  V30 87 1 84 36
M  V30 88 1 85 20
M  V30 END BOND
M  V30 END CTAB
M  END
>  <i_epik_Tot_Q>  (1) 
0

>  <i_epik_Tot_abs_Q>  (1) 
2

>  <i_i_glide_confnum>  (1) 
80

>  <i_i_glide_lignum>  (1) 
233

>  <i_i_glide_posenum>  (1) 
82

>  <i_i_glide_rotatable_bonds>  (1) 
10

>  <i_lp_mmshare_version>  (1) 
72125

>  <i_m_source_file_index>  (1) 
91

>  <i_f3d_flags>  (1) 
0

>  <num_sample>  (1) 
100

>  <b_lp_Chiralities_Consistent>  (1) 
1

>  <r_epik_Charging_Adjusted_Penalty>  (1) 
1.3235823108087639

>  <r_epik_Ionization_Penalty>  (1) 
0.58520961668590687

>  <r_epik_Ionization_Penalty_Charging>  (1) 
0.5818654171532841

>  <r_epik_Ionization_Penalty_Neutral>  (1) 
0.0033441995326227757

>  <r_epik_State_Penalty>  (1) 
0.74171689365547977

>  <r_glide_ring_energy>  (1) 
0.52270073413304585

>  <r_i_docking_score>  (1) 
-6.3190023487019316

>  <r_i_glide_ecoul>  (1) 
-1.6029825392711485

>  <r_i_glide_eff_state_penalty>  (1) 
0.74171689365547977

>  <r_i_glide_einternal>  (1) 
41.19014677921804

>  <r_i_glide_emodel>  (1) 
-15.488857361791617

>  <r_i_glide_emodel_strain>  (1) 
3.2381467541746787

>  <r_i_glide_energy>  (1) 
-33.837816249055074

>  <r_i_glide_erotb>  (1) 
0.42002339013477186

>  <r_i_glide_esite>  (1) 
0

>  <r_i_glide_evdw>  (1) 
-32.234833709783928

>  <r_i_glide_gscore>  (1) 
-7.0607192423574112

>  <r_i_glide_gscore_strain>  (1) 
0

>  <r_i_glide_hbond>  (1) 
-0.10157359322646907

>  <r_i_glide_ligand_efficiency>  (1) 
-0.16628953549215608

>  <r_i_glide_ligand_efficiency_ln>  (1) 
-1.3625627925961268

>  <r_i_glide_ligand_efficiency_sa>  (1) 
-0.55906132873265224

>  <r_i_glide_lipo>  (1) 
-4.4896465786576805

>  <r_i_glide_metal>  (1) 
-0

>  <r_i_glide_rewards>  (1) 
-1.0373333942281655

>  <r_lp_Energy>  (1) 
57.623837999999999

>  <s_epik_Chemistry_Notes>  (1) 
This compound has a N-S or N-O group and may undergo hydrolysis at high or low pH.

>  <s_epik_cmdline>  (1) 
J2VwaWtfcHl0aG9uJywgJy1waHQnLCAnMS4wJywgJy1waCcsICc3LjQnLCAnLXRuJywgJzgnLCAnLW1hJywgJzUwMCcsICctaW1hZScsICc8aW5maWxlLm1hZT4nLCAnLW9tYWUnLCAnPG91dGZpbGUubWFlPic=

>  <s_epik_input>  (1) 
RkMoRikoW0NIMl0xKVtDSDJdW0NIMl1bQ0BIXShbQ0BASF0xMilbQ0BIXShbQ0gyXVtDQEhdKFtDSDJdW0NIMl0yKUMoW0NIM10pKFtDSDNdKU9bQ0gzXSlbTkhdTjNbQ0gyXVtDSDJdW0NIMl1bQ0BIXShbQ0gyXTMpL1tDSF09W0NIXVxbQ0BASF0oW0NIMl1bQ0BdNChbT0hdKUMoPU8pW09IXSlbQ0gyXVtDQEBIXTRbTkhdW09IXQ==

>  <s_glide_docking_method>  (1) 
confgen

>  <s_i_glide_gridfile>  (1) 
gpcr_5ht2c_6bqh_protein_autoprepared_prepared

>  <s_lp_Force_Field>  (1) 
S-OPLS

>  <s_lp_Variant>  (1) 
DiffSBDD_90_num_sample_100-5

>  <s_m_source_file>  (1) 
generated__ligand_DiffSBDD_2026-05-06_prepared.sdf

>  <GenAI_Model>  (1) 
DiffSBDD

>  <Protein>  (1) 
GPCR_5HT2C

$$$$
DiffSBDD_18_num_sample_100
     RDKit          3D

  0  0  0  0  0  0  0  0  0  0999 V3000
M  V30 BEGIN CTAB
M  V30 COUNTS 70 72 0 0 1
M  V30 BEGIN ATOM
M  V30 1 O 38.558229 31.635277 58.526244 0
M  V30 2 C 42.172301 31.314876 66.649018 0
M  V30 3 C 39.200266 33.491857 62.295875 0
M  V30 4 C 42.139166 31.109486 67.923668 0
M  V30 5 O 37.086355 34.524572 60.785750 0
M  V30 6 C 42.099376 33.171055 64.951518 0 CFG=2
M  V30 7 C 39.278908 26.774630 54.115591 0
M  V30 8 N 41.986284 32.618657 66.299970 0
M  V30 9 N 42.847778 34.421432 65.024229 0
M  V30 10 C 37.869946 29.891245 56.930153 0
M  V30 11 C 39.950369 26.885789 56.461528 0
M  V30 12 O 40.078109 26.421425 53.255817 0
M  V30 13 O 41.867423 32.582104 69.759895 0
M  V30 14 C 37.146819 24.617258 54.887736 0
M  V30 15 C 41.045712 31.768042 62.377323 0
M  V30 16 C 41.917802 32.374718 68.549710 0
M  V30 17 C 37.858764 24.905683 57.338056 0
M  V30 18 C 39.570845 28.110616 56.844199 0
M  V30 19 C 38.042837 34.010453 60.207017 0
M  V30 20 N 38.357732 27.783897 53.980191 0
M  V30 21 C 40.636719 33.204057 62.779671 0 CFG=2
M  V30 22 C 38.191597 30.277440 58.367318 0 CFG=2
M  V30 23 C 40.741444 33.494972 64.305989 0 CFG=2
M  V30 24 C 40.667971 35.010746 64.568527 0
M  V30 25 O 38.267290 25.620157 58.276541 0 CHG=-1
M  V30 26 C 41.754546 33.527788 67.480422 0
M  V30 27 C 37.919232 28.627532 54.843426 0
M  V30 28 C 38.076091 33.933933 58.687069 0
M  V30 29 C 37.573931 32.598517 58.186723 0
M  V30 30 C 36.990225 29.893790 59.235287 0
M  V30 31 C 38.458770 28.886945 56.245686 0
M  V30 32 C 39.239272 26.060643 55.447356 0 CFG=1
M  V30 33 C 37.826085 25.542925 55.922493 0 CFG=1
M  V30 34 N 39.098101 33.496197 60.850702 0
M  V30 35 N 42.040595 35.479612 64.554432 0
M  V30 36 O 37.467626 23.727881 57.446100 0
M  V30 37 H 42.331660 30.590913 65.861667 0
M  V30 38 H 38.856646 34.460796 62.652226 0
M  V30 39 H 38.509595 32.741032 62.680736 0
M  V30 40 H 42.263074 30.175929 68.451868 0
M  V30 41 H 42.669031 32.466632 64.354526 0
M  V30 42 H 43.103110 34.616714 65.987962 0
M  V30 43 H 37.068892 30.443781 56.466225 0
M  V30 44 H 40.783565 26.413850 56.962147 0
M  V30 45 H 42.514067 34.302066 67.593665 0
M  V30 46 H 36.174201 24.269739 55.235459 0
M  V30 47 H 36.972134 25.145533 53.952574 0
M  V30 48 H 37.759382 23.742415 54.670167 0
M  V30 49 H 40.527669 31.022701 62.980348 0
M  V30 50 H 40.808230 31.561431 61.333115 0
M  V30 51 H 42.116735 31.599509 62.481253 0
M  V30 52 H 40.132798 28.561992 57.642607 0
M  V30 53 H 41.313744 33.889572 62.262726 0
M  V30 54 H 39.031912 29.736280 58.782360 0
M  V30 55 H 39.955192 32.929753 64.813497 0
M  V30 56 H 40.083095 35.585204 63.853979 0
M  V30 57 H 40.267140 35.207714 65.561191 0
M  V30 58 H 40.748098 33.948591 67.479254 0
M  V30 59 H 37.078837 29.273864 54.582750 0
M  V30 60 H 39.102142 34.021422 58.339139 0
M  V30 61 H 37.467360 34.737413 58.268485 0
M  V30 62 H 37.467370 32.630761 57.102340 0
M  V30 63 H 36.609814 32.408128 58.653469 0
M  V30 64 H 36.836456 28.821429 59.143033 0
M  V30 65 H 37.142123 30.148667 60.282500 0
M  V30 66 H 36.068832 30.365314 58.892193 0
M  V30 67 H 39.855451 25.167526 55.328253 0
M  V30 68 H 37.147282 26.381002 56.062061 0
M  V30 69 H 39.850676 33.083286 60.318801 0
M  V30 70 H 42.168451 36.329979 65.105690 0
M  V30 END ATOM
M  V30 BEGIN BOND
M  V30 1 2 4 2
M  V30 2 1 8 2
M  V30 3 1 8 6
M  V30 4 1 9 6
M  V30 5 2 12 7
M  V30 6 1 16 4
M  V30 7 2 16 13
M  V30 8 2 18 11
M  V30 9 2 19 5
M  V30 10 1 20 7
M  V30 11 1 21 3
M  V30 12 1 21 15
M  V30 13 1 22 1
M  V30 14 1 22 10
M  V30 15 1 23 6
M  V30 16 1 23 21
M  V30 17 1 24 23
M  V30 18 1 25 17
M  V30 19 1 26 8
M  V30 20 1 26 16
M  V30 21 2 27 20
M  V30 22 1 28 19
M  V30 23 1 29 1
M  V30 24 1 29 28
M  V30 25 1 30 22
M  V30 26 2 31 10
M  V30 27 1 31 18
M  V30 28 1 31 27
M  V30 29 1 32 7
M  V30 30 1 32 11
M  V30 31 1 33 14
M  V30 32 1 33 17
M  V30 33 1 33 32
M  V30 34 1 34 3
M  V30 35 1 34 19
M  V30 36 1 35 9
M  V30 37 1 35 24
M  V30 38 2 36 17
M  V30 39 1 37 2
M  V30 40 1 38 3
M  V30 41 1 39 3
M  V30 42 1 40 4
M  V30 43 1 6 41 CFG=3
M  V30 44 1 42 9
M  V30 45 1 43 10
M  V30 46 1 44 11
M  V30 47 1 45 26
M  V30 48 1 46 14
M  V30 49 1 47 14
M  V30 50 1 48 14
M  V30 51 1 49 15
M  V30 52 1 50 15
M  V30 53 1 51 15
M  V30 54 1 52 18
M  V30 55 1 21 53 CFG=3
M  V30 56 1 22 54 CFG=1
M  V30 57 1 23 55 CFG=1
M  V30 58 1 56 24
M  V30 59 1 57 24
M  V30 60 1 58 26
M  V30 61 1 59 27
M  V30 62 1 60 28
M  V30 63 1 61 28
M  V30 64 1 62 29
M  V30 65 1 63 29
M  V30 66 1 64 30
M  V30 67 1 65 30
M  V30 68 1 66 30
M  V30 69 1 32 67 CFG=3
M  V30 70 1 33 68 CFG=1
M  V30 71 1 69 34
M  V30 72 1 70 35
M  V30 END BOND
M  V30 END CTAB
M  END
>  <i_epik_Tot_Q>  (1) 
-1

>  <i_epik_Tot_abs_Q>  (1) 
1

>  <i_i_glide_confnum>  (1) 
1929

>  <i_i_glide_lignum>  (1) 
41

>  <i_i_glide_posenum>  (1) 
140

>  <i_i_glide_rotatable_bonds>  (1) 
12

>  <i_lp_mmshare_version>  (1) 
72125

>  <i_m_source_file_index>  (1) 
19

>  <i_f3d_flags>  (1) 
0

>  <num_sample>  (1) 
100

>  <b_lp_Chiralities_Consistent>  (1) 
1

>  <r_epik_Charging_Adjusted_Penalty>  (1) 
0.37971815023500188

>  <r_epik_Ionization_Penalty>  (1) 
0.19445293645399606

>  <r_epik_Ionization_Penalty_Charging>  (1) 
0.18991606969001057

>  <r_epik_Ionization_Penalty_Neutral>  (1) 
0.004536866763985496

>  <r_epik_State_Penalty>  (1) 
0.18980208054499129

>  <r_glide_ring_energy>  (1) 
1.845819541117304

>  <r_i_docking_score>  (1) 
-6.3184484383062287

>  <r_i_glide_ecoul>  (1) 
-3.0423727818643895

>  <r_i_glide_eff_state_penalty>  (1) 
0.18980208054499129

>  <r_i_glide_einternal>  (1) 
6.8392998024964733

>  <r_i_glide_emodel>  (1) 
-61.478830488771081

>  <r_i_glide_emodel_strain>  (1) 
3.0397113749101266

>  <r_i_glide_energy>  (1) 
-45.718383698186216

>  <r_i_glide_erotb>  (1) 
0.89642714384868305

>  <r_i_glide_esite>  (1) 
-0.0090536079541783752

>  <r_i_glide_evdw>  (1) 
-42.676010916321829

>  <r_i_glide_gscore>  (1) 
-6.5082505188512201

>  <r_i_glide_gscore_strain>  (1) 
0

>  <r_i_glide_hbond>  (1) 
-0.20655363149133565

>  <r_i_glide_ligand_efficiency>  (1) 
-0.17551245661961745

>  <r_i_glide_ligand_efficiency_ln>  (1) 
-1.3785147444889807

>  <r_i_glide_ligand_efficiency_sa>  (1) 
-0.57952936303275115

>  <r_i_glide_lipo>  (1) 
-2.4423841590910738

>  <r_i_glide_metal>  (1) 
-0

>  <r_i_glide_rewards>  (1) 
-2.1565298010675669

>  <r_lp_Energy>  (1) 
22.943131999999999

>  <r_lp_tautomer_probability>  (1) 
0.98846045845713826

>  <s_epik_Chemistry_Notes>  (1) 
This compound has an imine and may undergo hydrolysis. This compound contains an acetal/aminal-like group ( X-CH(R)-Y where X, Y are N, S, or O) that may be acid/base labile, releasing an aldehyde.

>  <s_epik_cmdline>  (1) 
J2VwaWtfcHl0aG9uJywgJy1waHQnLCAnMS4wJywgJy1waCcsICc3LjQnLCAnLXRuJywgJzgnLCAnLW1hJywgJzUwMCcsICctaW1hZScsICc8aW5maWxlLm1hZT4nLCAnLW9tYWUnLCAnPG91dGZpbGUubWFlPic=

>  <s_epik_input>  (1) 
W09IXUMoPU8pW0NASF0oW0NIM10pW0NAQEhdMVtDSF09W0NIXS9DKFtDSF09TkMxPU8pPVtDSF1cW0NASF0oW0NIM10pT1tDSDJdW0NIMl1DKD1PKVtOSF1bQ0gyXVtDQEhdKFtDSDNdKVtDQEBIXTJbQ0gyXVtOSF1bTkhdW0NASF0ybjNbY0hdW2NIXWMoW09IXSlbY0hdMw==

>  <s_glide_docking_method>  (1) 
confgen

>  <s_i_glide_gridfile>  (1) 
gpcr_5ht2c_6bqh_protein_autoprepared_prepared

>  <s_lp_Force_Field>  (1) 
S-OPLS

>  <s_lp_Variant>  (1) 
DiffSBDD_18_num_sample_100-1

>  <s_m_source_file>  (1) 
generated__ligand_DiffSBDD_2026-05-06_prepared.sdf

>  <GenAI_Model>  (1) 
DiffSBDD

>  <Protein>  (1) 
GPCR_5HT2C

$$$$
DiffSBDD_30_num_sample_100
     RDKit          3D

  0  0  0  0  0  0  0  0  0  0999 V3000
M  V30 BEGIN CTAB
M  V30 COUNTS 70 73 0 0 1
M  V30 BEGIN ATOM
M  V30 1 C 41.067157 28.464664 59.297228 0
M  V30 2 C 39.232390 26.028247 56.040973 0 CFG=2
M  V30 3 O 42.146415 27.221431 57.586521 0
M  V30 4 C 40.267399 31.530180 63.665461 0
M  V30 5 C 41.345998 32.232985 64.228772 0
M  V30 6 N 39.305778 29.344862 57.381079 0
M  V30 7 C 40.848479 34.143803 62.801237 0
M  V30 8 C 39.918181 28.079347 56.979387 0 CFG=1
M  V30 9 O 38.646309 28.248177 53.803757 0
M  V30 10 O 37.743128 24.230159 55.368965 0
M  V30 11 C 38.491785 36.191633 62.527990 0
M  V30 12 C 38.121488 24.977681 56.268285 0
M  V30 13 C 37.504789 24.907574 57.662085 0
M  V30 14 C 39.067298 37.580338 62.416899 0
M  V30 15 C 37.455883 34.423346 61.096507 0 CFG=2
M  V30 16 C 38.444446 32.483799 56.591493 0
M  V30 17 N 37.867403 31.172298 56.924508 0 CHG=1
M  V30 18 C 37.569045 37.382147 62.552287 0
M  V30 19 C 37.746731 33.426320 58.892447 0 CFG=1
M  V30 20 C 41.637030 33.537359 63.796801 0
M  V30 21 C 36.863869 34.387057 59.699787 0
M  V30 22 N 38.470308 35.468026 61.238325 0 CFG=2 CHG=1
M  V30 23 C 39.470017 32.133475 62.669870 0
M  V30 24 C 38.519838 29.994405 56.337047 0
M  V30 25 C 39.751995 33.450290 62.232958 0
M  V30 26 C 37.704236 33.593264 57.362079 0
M  V30 27 C 38.442357 26.864237 53.947198 0
M  V30 28 C 40.863725 27.514493 58.097954 0 CFG=2
M  V30 29 C 38.922859 34.088381 61.150583 0 CFG=1
M  V30 30 O 38.426465 31.438779 62.125895 0
M  V30 31 S 39.425825 33.621425 59.512529 0
M  V30 32 O 38.884700 27.166284 56.772903 0
M  V30 33 O 39.472204 26.248204 54.669372 0
M  V30 34 H 40.131165 28.668262 59.818523 0
M  V30 35 H 41.743170 28.021221 60.027517 0
M  V30 36 H 41.504834 29.414182 58.991064 0
M  V30 37 H 40.154909 25.609758 56.442462 0
M  V30 38 H 42.193885 26.324662 57.262666 0
M  V30 39 H 40.048235 30.525163 63.998267 0
M  V30 40 H 41.953080 31.768758 64.991983 0
M  V30 41 H 38.717787 29.142200 58.182757 0
M  V30 42 H 41.084431 35.144515 62.469681 0
M  V30 43 H 40.465773 28.233662 56.046730 0
M  V30 44 H 39.362611 28.370772 53.199032 0
M  V30 45 H 38.667413 35.621429 63.435818 0
M  V30 46 H 38.250482 25.143247 58.421037 0
M  V30 47 H 36.682445 25.618508 57.746927 0
M  V30 48 H 37.120324 23.905564 57.853730 0
M  V30 49 H 39.613230 37.957412 63.280647 0
M  V30 50 H 39.444535 37.914721 61.453503 0
M  V30 51 H 36.793309 34.393460 61.955265 0
M  V30 52 H 38.348714 32.652550 55.517726 0
M  V30 53 H 39.508869 32.490004 56.824146 0
M  V30 54 H 37.875038 31.072826 57.926103 0
M  V30 55 H 36.952621 37.581232 61.676566 0
M  V30 56 H 37.106003 37.621440 63.507513 0
M  V30 57 H 37.428864 32.420873 59.169587 0
M  V30 58 H 42.470077 34.074795 64.227351 0
M  V30 59 H 36.852833 35.388983 59.266554 0
M  V30 60 H 35.832896 34.032399 59.732952 0
M  V30 61 H 37.736248 29.323287 55.983811 0
M  V30 62 H 39.136596 30.272135 55.481268 0
M  V30 63 H 36.667410 33.621431 57.055756 0
M  V30 64 H 38.102305 34.553820 57.053470 0
M  V30 65 H 38.436793 26.439171 52.943430 0
M  V30 66 H 37.449599 26.718942 54.375165 0
M  V30 67 H 40.437036 26.589249 58.487287 0
M  V30 68 H 38.391390 30.549973 62.451181 0
M  V30 69 H 36.879665 31.221392 56.653549 0
M  V30 70 H 38.603240 36.009252 60.396322 0
M  V30 END ATOM
M  V30 BEGIN BOND
M  V30 1 1 5 4
M  V30 2 1 8 6
M  V30 3 1 12 2
M  V30 4 2 12 10
M  V30 5 1 13 12
M  V30 6 1 14 11
M  V30 7 1 17 16
M  V30 8 1 18 11
M  V30 9 1 18 14
M  V30 10 2 20 5
M  V30 11 1 20 7
M  V30 12 1 21 15
M  V30 13 1 21 19
M  V30 14 1 22 11
M  V30 15 1 22 15
M  V30 16 2 23 4
M  V30 17 1 24 6
M  V30 18 1 24 17
M  V30 19 2 25 7
M  V30 20 1 25 23
M  V30 21 1 26 16
M  V30 22 1 26 19
M  V30 23 1 27 9
M  V30 24 1 28 1
M  V30 25 1 28 3
M  V30 26 1 28 8
M  V30 27 1 29 15
M  V30 28 1 29 22
M  V30 29 1 29 25 CFG=1
M  V30 30 1 30 23
M  V30 31 1 31 19
M  V30 32 1 31 29
M  V30 33 1 32 2
M  V30 34 1 32 8
M  V30 35 1 33 2
M  V30 36 1 33 27
M  V30 37 1 34 1
M  V30 38 1 35 1
M  V30 39 1 36 1
M  V30 40 1 2 37 CFG=1
M  V30 41 1 38 3
M  V30 42 1 39 4
M  V30 43 1 40 5
M  V30 44 1 41 6
M  V30 45 1 42 7
M  V30 46 1 8 43 CFG=3
M  V30 47 1 44 9
M  V30 48 1 45 11
M  V30 49 1 46 13
M  V30 50 1 47 13
M  V30 51 1 48 13
M  V30 52 1 49 14
M  V30 53 1 50 14
M  V30 54 1 15 51 CFG=1
M  V30 55 1 52 16
M  V30 56 1 53 16
M  V30 57 1 54 17
M  V30 58 1 55 18
M  V30 59 1 56 18
M  V30 60 1 19 57 CFG=3
M  V30 61 1 58 20
M  V30 62 1 59 21
M  V30 63 1 60 21
M  V30 64 1 61 24
M  V30 65 1 62 24
M  V30 66 1 63 26
M  V30 67 1 64 26
M  V30 68 1 65 27
M  V30 69 1 66 27
M  V30 70 1 28 67 CFG=1
M  V30 71 1 68 30
M  V30 72 1 69 17
M  V30 73 1 22 70 CFG=3
M  V30 END BOND
M  V30 END CTAB
M  END
>  <i_epik_Tot_Q>  (1) 
2

>  <i_epik_Tot_abs_Q>  (1) 
2

>  <i_i_glide_confnum>  (1) 
629

>  <i_i_glide_lignum>  (1) 
84

>  <i_i_glide_posenum>  (1) 
398

>  <i_i_glide_rotatable_bonds>  (1) 
17

>  <i_lp_mmshare_version>  (1) 
72125

>  <i_m_source_file_index>  (1) 
31

>  <i_f3d_flags>  (1) 
0

>  <num_sample>  (1) 
100

>  <b_lp_Chiralities_Consistent>  (1) 
1

>  <r_epik_Charging_Adjusted_Penalty>  (1) 
1.979093595035226

>  <r_epik_Ionization_Penalty>  (1) 
0.79989620662071081

>  <r_epik_Ionization_Penalty_Charging>  (1) 
0.66086891892205935

>  <r_epik_Ionization_Penalty_Neutral>  (1) 
0.13902728769865147

>  <r_epik_State_Penalty>  (1) 
1.3182246761131666

>  <r_glide_ring_energy>  (1) 
0

>  <r_i_docking_score>  (1) 
-6.3115699886645622

>  <r_i_glide_ecoul>  (1) 
-10.875300444737874

>  <r_i_glide_eff_state_penalty>  (1) 
1.3182246761131666

>  <r_i_glide_einternal>  (1) 
18.913582179991892

>  <r_i_glide_emodel>  (1) 
-62.220647619511439

>  <r_i_glide_emodel_strain>  (1) 
2.3115178550545181

>  <r_i_glide_energy>  (1) 
-46.7017741708637

>  <r_i_glide_erotb>  (1) 
1.1283805066766976

>  <r_i_glide_esite>  (1) 
-0.12137020993085201

>  <r_i_glide_evdw>  (1) 
-35.826473726125826

>  <r_i_glide_gscore>  (1) 
-7.6297946647777293

>  <r_i_glide_gscore_strain>  (1) 
0

>  <r_i_glide_hbond>  (1) 
-0.52000000000000002

>  <r_i_glide_ligand_efficiency>  (1) 
-0.19125969662619885

>  <r_i_glide_ligand_efficiency_ln>  (1) 
-1.4036604859185697

>  <r_i_glide_ligand_efficiency_sa>  (1) 
-0.61347204287311985

>  <r_i_glide_lipo>  (1) 
-2.6296542618330219

>  <r_i_glide_metal>  (1) 
-0

>  <r_i_glide_rewards>  (1) 
-2.0645319466735814

>  <r_lp_Energy>  (1) 
25.051933999999999

>  <r_lp_tautomer_probability>  (1) 
0.99999996999736518

>  <s_epik_Chemistry_Notes>  (1) 
This compound contains an acetal/aminal-like group ( X-CH(R)-Y where X, Y are N, S, or O) that may be acid/base labile, releasing an aldehyde.

>  <s_epik_cmdline>  (1) 
J2VwaWtfcHl0aG9uJywgJy1waHQnLCAnMS4wJywgJy1waCcsICc3LjQnLCAnLXRuJywgJzgnLCAnLW1hJywgJzUwMCcsICctaW1hZScsICc8aW5maWxlLm1hZT4nLCAnLW9tYWUnLCAnPG91dGZpbGUubWFlPic=

>  <s_epik_input>  (1) 
W09IXVtDSDJdT1tDQEBIXShDKD1PKVtDSDNdKU9bQ0BIXShbQ0BIXShbQ0gzXSlbT0hdKVtOSF1bQ0gyXVtOSF1bQ0gyXVtDSDJdW0NAQEhdKFMxKVtDSDJdW0NASF0oTjJbQ0hdM1tDSDJdW0NIMl0zKVtDQEBdMTJjNFtjSF1bY0hdW2NIXVtjSF1jNFtPSF0=

>  <s_glide_docking_method>  (1) 
confgen

>  <s_i_glide_gridfile>  (1) 
gpcr_5ht2c_6bqh_protein_autoprepared_prepared

>  <s_lp_Force_Field>  (1) 
S-OPLS

>  <s_lp_Variant>  (1) 
DiffSBDD_30_num_sample_100-6

>  <s_m_source_file>  (1) 
generated__ligand_DiffSBDD_2026-05-06_prepared.sdf

>  <GenAI_Model>  (1) 
DiffSBDD

>  <Protein>  (1) 
GPCR_5HT2C

$$$$
DiffSBDD_30_num_sample_100
     RDKit          3D

  0  0  0  0  0  0  0  0  0  0999 V3000
M  V30 BEGIN CTAB
M  V30 COUNTS 70 73 0 0 1
M  V30 BEGIN ATOM
M  V30 1 C 35.395372 31.748497 60.437644 0
M  V30 2 C 38.739125 35.308970 60.947577 0 CFG=1
M  V30 3 O 35.129988 33.621427 61.832892 0
M  V30 4 C 38.033821 25.562569 57.692360 0
M  V30 5 C 37.474997 24.424959 57.085602 0
M  V30 6 N 37.855251 32.810872 59.517154 0
M  V30 7 C 37.458777 25.577963 54.939009 0
M  V30 8 C 37.114759 33.652455 60.461384 0 CFG=1
M  V30 9 O 37.115347 37.190635 59.453508 0
M  V30 10 O 40.990774 36.041765 61.453497 0
M  V30 11 C 38.847986 28.287541 52.234553 0
M  V30 12 C 40.168113 35.130148 61.490881 0
M  V30 13 C 40.531879 33.765918 62.071508 0
M  V30 14 C 40.051195 28.635296 51.382071 0
M  V30 15 C 39.708227 28.505633 54.658865 0 CFG=2
M  V30 16 C 38.470089 32.971822 55.864275 0
M  V30 17 N 37.867405 32.592017 57.157399 0 CHG=1
M  V30 18 C 39.270629 27.375407 51.108277 0
M  V30 19 C 38.473410 30.522545 55.129097 0 CFG=1
M  V30 20 C 37.185735 24.432839 55.710839 0
M  V30 21 C 39.767545 30.017298 54.505395 0
M  V30 22 N 39.173536 27.689647 53.554357 0 CFG=1 CHG=1
M  V30 23 C 38.303419 26.712808 56.926026 0
M  V30 24 C 38.252802 33.460090 58.274256 0
M  V30 25 C 38.018375 26.727745 55.538265 0
M  V30 26 C 38.075083 31.966736 54.779343 0
M  V30 27 C 37.065969 36.958124 60.845990 0
M  V30 28 C 36.130938 32.797755 61.287526 0 CFG=2
M  V30 29 C 38.331607 27.935235 54.707124 0 CFG=1
M  V30 30 O 38.848493 27.813126 57.525011 0
M  V30 31 S 37.201035 29.348604 54.653502 0
M  V30 32 O 37.969166 34.233426 61.405761 0
M  V30 33 O 38.282693 36.553093 61.390735 0
M  V30 34 H 36.069679 30.992305 60.035431 0
M  V30 35 H 34.667424 31.221447 61.051584 0
M  V30 36 H 34.865249 32.204495 59.599901 0
M  V30 37 H 38.800363 35.328419 59.864448 0
M  V30 38 H 34.529700 33.099340 62.342686 0
M  V30 39 H 38.259453 25.552427 58.748190 0
M  V30 40 H 37.269810 23.543973 57.676400 0
M  V30 41 H 38.649633 32.384973 59.985090 0
M  V30 42 H 37.238146 25.574609 53.880865 0
M  V30 43 H 36.545775 34.405287 59.916572 0
M  V30 44 H 36.800894 36.421359 59.002773 0
M  V30 45 H 37.907420 28.821158 52.121581 0
M  V30 46 H 39.945481 33.570398 62.969030 0
M  V30 47 H 40.335551 32.977612 61.346033 0
M  V30 48 H 41.588204 33.735729 62.338219 0
M  V30 49 H 39.940050 29.456642 50.676073 0
M  V30 50 H 41.043502 28.531016 51.812546 0
M  V30 51 H 40.442948 28.004543 55.288055 0
M  V30 52 H 39.556088 33.009860 55.958774 0
M  V30 53 H 38.129980 33.971588 55.587662 0
M  V30 54 H 36.847892 32.544245 57.053517 0
M  V30 55 H 39.733219 26.422141 51.354363 0
M  V30 56 H 38.667403 27.367884 50.210999 0
M  V30 57 H 38.565077 30.381596 56.205021 0
M  V30 58 H 36.756764 23.557546 55.244671 0
M  V30 59 H 39.863065 30.320580 53.464514 0
M  V30 60 H 40.636377 30.411695 55.033512 0
M  V30 61 H 39.331317 33.621440 58.269300 0
M  V30 62 H 37.760753 34.421420 58.133032 0
M  V30 63 H 38.491802 32.259430 53.815375 0
M  V30 64 H 36.994994 32.021390 54.653522 0
M  V30 65 H 36.271250 36.245569 61.061343 0
M  V30 66 H 36.797696 37.905820 61.315348 0
M  V30 67 H 36.680194 32.300595 62.088124 0
M  V30 68 H 39.011285 27.686771 58.448219 0
M  V30 69 H 38.163821 31.655341 57.382624 0
M  V30 70 H 39.541193 26.749271 53.543558 0
M  V30 END ATOM
M  V30 BEGIN BOND
M  V30 1 1 5 4
M  V30 2 1 8 6
M  V30 3 1 12 2
M  V30 4 2 12 10
M  V30 5 1 13 12
M  V30 6 1 14 11
M  V30 7 1 17 16
M  V30 8 1 18 11
M  V30 9 1 18 14
M  V30 10 2 20 5
M  V30 11 1 20 7
M  V30 12 1 21 15
M  V30 13 1 21 19
M  V30 14 1 22 11
M  V30 15 1 22 15
M  V30 16 2 23 4
M  V30 17 1 24 6
M  V30 18 1 24 17
M  V30 19 2 25 7
M  V30 20 1 25 23
M  V30 21 1 26 16
M  V30 22 1 26 19
M  V30 23 1 27 9
M  V30 24 1 28 1
M  V30 25 1 28 3
M  V30 26 1 28 8
M  V30 27 1 29 15
M  V30 28 1 29 22
M  V30 29 1 29 25 CFG=1
M  V30 30 1 30 23
M  V30 31 1 31 19
M  V30 32 1 31 29
M  V30 33 1 32 2
M  V30 34 1 32 8
M  V30 35 1 33 2
M  V30 36 1 33 27
M  V30 37 1 34 1
M  V30 38 1 35 1
M  V30 39 1 36 1
M  V30 40 1 2 37 CFG=3
M  V30 41 1 38 3
M  V30 42 1 39 4
M  V30 43 1 40 5
M  V30 44 1 41 6
M  V30 45 1 42 7
M  V30 46 1 8 43 CFG=3
M  V30 47 1 44 9
M  V30 48 1 45 11
M  V30 49 1 46 13
M  V30 50 1 47 13
M  V30 51 1 48 13
M  V30 52 1 49 14
M  V30 53 1 50 14
M  V30 54 1 15 51 CFG=1
M  V30 55 1 52 16
M  V30 56 1 53 16
M  V30 57 1 54 17
M  V30 58 1 55 18
M  V30 59 1 56 18
M  V30 60 1 19 57 CFG=1
M  V30 61 1 58 20
M  V30 62 1 59 21
M  V30 63 1 60 21
M  V30 64 1 61 24
M  V30 65 1 62 24
M  V30 66 1 63 26
M  V30 67 1 64 26
M  V30 68 1 65 27
M  V30 69 1 66 27
M  V30 70 1 28 67 CFG=1
M  V30 71 1 68 30
M  V30 72 1 69 17
M  V30 73 1 22 70 CFG=3
M  V30 END BOND
M  V30 END CTAB
M  END
>  <i_epik_Tot_Q>  (1) 
2

>  <i_epik_Tot_abs_Q>  (1) 
2

>  <i_i_glide_confnum>  (1) 
6036

>  <i_i_glide_lignum>  (1) 
81

>  <i_i_glide_posenum>  (1) 
160

>  <i_i_glide_rotatable_bonds>  (1) 
17

>  <i_lp_mmshare_version>  (1) 
72125

>  <i_m_source_file_index>  (1) 
31

>  <i_f3d_flags>  (1) 
0

>  <num_sample>  (1) 
100

>  <b_lp_Chiralities_Consistent>  (1) 
1

>  <r_epik_Charging_Adjusted_Penalty>  (1) 
1.979093595035226

>  <r_epik_Ionization_Penalty>  (1) 
0.79989620662071081

>  <r_epik_Ionization_Penalty_Charging>  (1) 
0.66086891892205935

>  <r_epik_Ionization_Penalty_Neutral>  (1) 
0.13902728769865147

>  <r_epik_State_Penalty>  (1) 
1.3182246761131666

>  <r_glide_ring_energy>  (1) 
0

>  <r_i_docking_score>  (1) 
-6.3112583757868617

>  <r_i_glide_ecoul>  (1) 
-3.8233958588061236

>  <r_i_glide_eff_state_penalty>  (1) 
1.3182246761131666

>  <r_i_glide_einternal>  (1) 
24.464432381080542

>  <r_i_glide_emodel>  (1) 
-63.014542051286945

>  <r_i_glide_emodel_strain>  (1) 
1.9215253093177651

>  <r_i_glide_energy>  (1) 
-47.463993159886314

>  <r_i_glide_erotb>  (1) 
1.1283805066766976

>  <r_i_glide_esite>  (1) 
-0.13723323728944611

>  <r_i_glide_evdw>  (1) 
-43.640597301080192

>  <r_i_glide_gscore>  (1) 
-7.6294830519000287

>  <r_i_glide_gscore_strain>  (1) 
0

>  <r_i_glide_hbond>  (1) 
-0.2068749540491456

>  <r_i_glide_ligand_efficiency>  (1) 
-0.19125025381172309

>  <r_i_glide_ligand_efficiency_ln>  (1) 
-1.4035911848280143

>  <r_i_glide_ligand_efficiency_sa>  (1) 
-0.61344175472151696

>  <r_i_glide_lipo>  (1) 
-3.5398319363335151

>  <r_i_glide_metal>  (1) 
-0

>  <r_i_glide_rewards>  (1) 
-2.1183841870296924

>  <r_lp_Energy>  (1) 
32.029553999999997

>  <r_lp_tautomer_probability>  (1) 
0.99999996999736518

>  <s_epik_Chemistry_Notes>  (1) 
This compound contains an acetal/aminal-like group ( X-CH(R)-Y where X, Y are N, S, or O) that may be acid/base labile, releasing an aldehyde.

>  <s_epik_cmdline>  (1) 
J2VwaWtfcHl0aG9uJywgJy1waHQnLCAnMS4wJywgJy1waCcsICc3LjQnLCAnLXRuJywgJzgnLCAnLW1hJywgJzUwMCcsICctaW1hZScsICc8aW5maWxlLm1hZT4nLCAnLW9tYWUnLCAnPG91dGZpbGUubWFlPic=

>  <s_epik_input>  (1) 
W09IXVtDSDJdT1tDQEBIXShDKD1PKVtDSDNdKU9bQ0BIXShbQ0BIXShbQ0gzXSlbT0hdKVtOSF1bQ0gyXVtOSF1bQ0gyXVtDSDJdW0NAQEhdKFMxKVtDSDJdW0NASF0oTjJbQ0hdM1tDSDJdW0NIMl0zKVtDQEBdMTJjNFtjSF1bY0hdW2NIXVtjSF1jNFtPSF0=

>  <s_glide_docking_method>  (1) 
confgen

>  <s_i_glide_gridfile>  (1) 
gpcr_5ht2c_6bqh_protein_autoprepared_prepared

>  <s_lp_Force_Field>  (1) 
S-OPLS

>  <s_lp_Variant>  (1) 
DiffSBDD_30_num_sample_100-3

>  <s_m_source_file>  (1) 
generated__ligand_DiffSBDD_2026-05-06_prepared.sdf

>  <GenAI_Model>  (1) 
DiffSBDD

>  <Protein>  (1) 
GPCR_5HT2C

$$$$
DiffSBDD_66_num_sample_100
     RDKit          3D

  0  0  0  0  0  0  0  0  0  0999 V3000
M  V30 BEGIN CTAB
M  V30 COUNTS 111 115 0 0 1
M  V30 BEGIN ATOM
M  V30 1 C 41.123100 27.450283 66.440754 0
M  V30 2 C 40.051848 31.049692 61.433988 0
M  V30 3 C 40.290653 36.346420 68.028098 0
M  V30 4 C 36.589930 35.400253 59.959754 0
M  V30 5 C 38.024091 26.170342 54.270399 0
M  V30 6 C 39.083723 24.834763 56.231918 0
M  V30 7 C 41.555530 36.021351 65.960380 0
M  V30 8 S 39.550586 34.104437 60.862781 0
M  V30 9 C 40.318310 31.988030 62.606056 0 CFG=1
M  V30 10 C 40.248794 28.628886 66.468911 0
M  V30 11 C 43.025658 29.751007 67.091424 0
M  V30 12 C 41.983293 30.459945 66.613187 0
M  V30 13 C 38.436604 28.756407 54.094813 0
M  V30 14 C 41.817251 25.417385 66.021751 0
M  V30 15 C 37.763384 30.460570 58.898070 0 CFG=2
M  V30 16 C 42.953418 28.397314 67.716866 0
M  V30 17 C 42.232924 31.863493 66.098989 0
M  V30 18 O 39.045338 31.134893 54.013460 0
M  V30 19 C 41.506624 33.844453 64.653047 0 CFG=1
M  V30 20 N 40.791705 26.305729 65.877835 0 CHG=1
M  V30 21 C 41.132003 36.850550 67.032999 0
M  V30 22 C 41.108552 34.715995 65.869985 0
M  V30 23 C 38.257218 27.514955 54.972845 0
M  V30 24 C 44.133075 25.597073 67.252338 0
M  V30 25 C 40.613144 29.927404 66.565545 0
M  V30 26 C 36.714217 31.464040 59.526913 0
M  V30 27 C 37.916552 24.966499 55.240147 0 CFG=1
M  V30 28 C 38.601003 31.121529 57.769622 0
M  V30 29 C 41.318080 32.325516 64.913694 0 CFG=1
M  V30 30 C 41.320265 31.429426 63.650729 0 CFG=2
M  V30 31 C 35.369959 33.644573 61.256384 0
M  V30 32 C 39.707774 30.270579 57.161226 0
M  V30 33 N 42.326670 27.342648 66.966826 0
M  V30 34 C 40.267338 34.216785 66.879350 0
M  V30 35 C 42.809397 26.065558 66.745851 0
M  V30 36 C 36.955691 29.326376 58.220871 0
M  V30 37 O 36.720793 25.045044 55.984605 0
M  V30 38 C 38.676830 29.786105 59.986572 0
M  V30 39 C 36.870900 33.005288 59.307139 0
M  V30 40 C 36.689206 33.963574 60.515460 0
M  V30 41 C 40.679381 33.427300 62.162106 0 CFG=2
M  V30 42 N 38.894317 30.608572 61.162222 0
M  V30 43 C 39.739148 29.828110 55.892396 0
M  V30 44 C 37.860511 33.902969 61.534213 0
M  V30 45 C 39.862441 35.024766 67.954829 0
M  V30 46 C 42.711406 31.102949 63.109527 0
M  V30 47 C 38.408950 28.699241 52.746333 0
M  V30 48 C 38.658515 30.069634 54.855642 0 CFG=2
M  V30 49 C 40.773782 34.375486 63.379215 0
M  V30 50 H 40.928942 30.791139 60.834683 0
M  V30 51 H 39.976911 36.977611 68.846566 0
M  V30 52 H 37.458778 35.653029 59.353651 0
M  V30 53 H 36.521744 36.140776 60.756454 0
M  V30 54 H 35.713130 35.519702 59.321541 0
M  V30 55 H 37.133649 26.216706 53.642746 0
M  V30 56 H 38.865858 26.022740 53.596913 0
M  V30 57 H 40.040358 24.824511 55.712061 0
M  V30 58 H 39.008805 23.916844 56.812627 0
M  V30 59 H 39.104350 25.655707 56.948198 0
M  V30 60 H 42.204698 36.420329 65.196412 0
M  V30 61 H 39.200824 28.421262 66.362729 0
M  V30 62 H 44.005212 30.207222 67.090803 0
M  V30 63 H 41.766930 24.420122 65.633198 0
M  V30 64 H 43.977343 28.101415 67.942618 0
M  V30 65 H 42.443917 28.475861 68.678508 0
M  V30 66 H 42.131724 32.505711 66.970156 0
M  V30 67 H 43.279074 31.974630 65.816334 0
M  V30 68 H 38.647431 31.926847 54.346197 0
M  V30 69 H 42.573282 33.997215 64.482314 0
M  V30 70 H 41.469077 37.873432 67.083925 0
M  V30 71 H 37.467242 27.710827 55.688897 0
M  V30 72 H 39.168115 27.400212 55.555561 0
M  V30 73 H 44.249357 24.528489 67.068726 0
M  V30 74 H 44.213904 25.756981 68.328777 0
M  V30 75 H 44.943958 26.130187 66.762383 0
M  V30 76 H 39.813890 30.648496 66.524083 0
M  V30 77 H 35.730634 31.230117 59.115904 0
M  V30 78 H 36.576206 31.241803 60.581643 0
M  V30 79 H 37.861254 24.049524 54.652730 0
M  V30 80 H 37.942172 31.553139 57.016794 0
M  V30 81 H 39.151486 31.960020 58.178274 0
M  V30 82 H 40.280414 32.207561 65.197843 0
M  V30 83 H 40.913110 30.464937 63.957805 0
M  V30 84 H 35.385283 32.671709 61.742030 0
M  V30 85 H 34.518324 33.646410 60.574863 0
M  V30 86 H 35.170842 34.374245 62.043122 0
M  V30 87 H 40.525901 30.020250 57.817492 0
M  V30 88 H 39.869479 33.236940 66.809666 0
M  V30 89 H 36.200214 28.910201 58.887417 0
M  V30 90 H 37.597703 28.506977 57.896573 0
M  V30 91 H 36.420565 29.687763 57.341876 0
M  V30 92 H 36.652921 24.271558 56.522728 0
M  V30 93 H 38.198965 28.866358 60.306152 0
M  V30 94 H 39.613117 29.409390 59.582327 0
M  V30 95 H 37.795183 33.290161 58.824273 0
M  V30 96 H 36.121013 33.274043 58.563697 0
M  V30 97 H 41.662174 33.408731 61.691970 0
M  V30 98 H 40.587046 29.245473 55.564235 0
M  V30 99 H 37.744584 34.711362 62.252529 0
M  V30 100 H 37.785039 32.968784 62.081422 0
M  V30 101 H 39.199643 34.628146 68.710475 0
M  V30 102 H 43.067336 31.835331 62.387492 0
M  V30 103 H 42.674092 30.118649 62.653470 0
M  V30 104 H 43.462173 31.015701 63.889796 0
M  V30 105 H 38.544921 29.586596 52.150727 0
M  V30 106 H 38.252182 27.767133 52.225978 0
M  V30 107 H 37.702466 30.325241 55.309891 0
M  V30 108 H 41.235019 35.313282 63.064926 0
M  V30 109 H 39.765485 34.654456 63.649904 0
M  V30 110 H 39.917839 26.124847 65.401158 0
M  V30 111 H 39.375046 32.057483 63.143122 0
M  V30 END ATOM
M  V30 BEGIN BOND
M  V30 1 1 9 2
M  V30 2 1 10 1
M  V30 3 2 12 11
M  V30 4 1 16 11
M  V30 5 1 17 12
M  V30 6 2 20 1
M  V30 7 1 20 14
M  V30 8 2 21 3
M  V30 9 1 21 7
M  V30 10 2 22 7
M  V30 11 1 22 19
M  V30 12 1 23 5
M  V30 13 1 23 13
M  V30 14 2 25 10
M  V30 15 1 25 12
M  V30 16 1 26 15
M  V30 17 1 27 5
M  V30 18 1 27 6
M  V30 19 1 15 28 CFG=3
M  V30 20 1 29 17
M  V30 21 1 29 19
M  V30 22 1 30 9
M  V30 23 1 30 29
M  V30 24 1 32 28
M  V30 25 1 33 1
M  V30 26 1 33 16
M  V30 27 1 34 22
M  V30 28 2 35 14
M  V30 29 1 35 24
M  V30 30 1 35 33
M  V30 31 1 36 15
M  V30 32 1 37 27
M  V30 33 1 38 15
M  V30 34 1 39 26
M  V30 35 1 40 4
M  V30 36 1 40 31
M  V30 37 1 40 39
M  V30 38 1 41 8
M  V30 39 1 41 9
M  V30 40 2 42 2
M  V30 41 1 42 38
M  V30 42 2 43 32
M  V30 43 1 44 8
M  V30 44 1 44 40
M  V30 45 1 45 3
M  V30 46 2 45 34
M  V30 47 1 46 30
M  V30 48 2 47 13
M  V30 49 1 48 13
M  V30 50 1 48 18
M  V30 51 1 48 43
M  V30 52 1 49 19
M  V30 53 1 49 41
M  V30 54 1 50 2
M  V30 55 1 51 3
M  V30 56 1 52 4
M  V30 57 1 53 4
M  V30 58 1 54 4
M  V30 59 1 55 5
M  V30 60 1 56 5
M  V30 61 1 57 6
M  V30 62 1 58 6
M  V30 63 1 59 6
M  V30 64 1 60 7
M  V30 65 1 61 10
M  V30 66 1 62 11
M  V30 67 1 63 14
M  V30 68 1 64 16
M  V30 69 1 65 16
M  V30 70 1 66 17
M  V30 71 1 67 17
M  V30 72 1 68 18
M  V30 73 1 19 69 CFG=3
M  V30 74 1 70 21
M  V30 75 1 71 23
M  V30 76 1 72 23
M  V30 77 1 73 24
M  V30 78 1 74 24
M  V30 79 1 75 24
M  V30 80 1 76 25
M  V30 81 1 77 26
M  V30 82 1 78 26
M  V30 83 1 27 79 CFG=3
M  V30 84 1 80 28
M  V30 85 1 81 28
M  V30 86 1 29 82 CFG=1
M  V30 87 1 30 83 CFG=1
M  V30 88 1 84 31
M  V30 89 1 85 31
M  V30 90 1 86 31
M  V30 91 1 87 32
M  V30 92 1 88 34
M  V30 93 1 89 36
M  V30 94 1 90 36
M  V30 95 1 91 36
M  V30 96 1 92 37
M  V30 97 1 93 38
M  V30 98 1 94 38
M  V30 99 1 95 39
M  V30 100 1 96 39
M  V30 101 1 41 97 CFG=3
M  V30 102 1 98 43
M  V30 103 1 99 44
M  V30 104 1 100 44
M  V30 105 1 101 45
M  V30 106 1 102 46
M  V30 107 1 103 46
M  V30 108 1 104 46
M  V30 109 1 105 47
M  V30 110 1 106 47
M  V30 111 1 48 107 CFG=1
M  V30 112 1 108 49
M  V30 113 1 109 49
M  V30 114 1 110 20
M  V30 115 1 9 111 CFG=1
M  V30 END BOND
M  V30 END CTAB
M  END
>  <i_epik_Tot_Q>  (1) 
1

>  <i_epik_Tot_abs_Q>  (1) 
1

>  <i_i_glide_confnum>  (1) 
480

>  <i_i_glide_lignum>  (1) 
175

>  <i_i_glide_posenum>  (1) 
96

>  <i_i_glide_rotatable_bonds>  (1) 
12

>  <i_lp_mmshare_version>  (1) 
72125

>  <i_m_source_file_index>  (1) 
67

>  <i_f3d_flags>  (1) 
0

>  <num_sample>  (1) 
100

>  <b_lp_Chiralities_Consistent>  (1) 
1

>  <r_epik_Charging_Adjusted_Penalty>  (1) 
1.1641737349406356

>  <r_epik_Ionization_Penalty>  (1) 
1.1550326719201827

>  <r_epik_Ionization_Penalty_Charging>  (1) 
0

>  <r_epik_Ionization_Penalty_Neutral>  (1) 
1.1550326719201827

>  <r_epik_State_Penalty>  (1) 
1.1641737349406356

>  <r_glide_ring_energy>  (1) 
0

>  <r_i_docking_score>  (1) 
-6.3083262592256206

>  <r_i_glide_ecoul>  (1) 
-0.15781196652598961

>  <r_i_glide_eff_state_penalty>  (1) 
1.1641737349406356

>  <r_i_glide_einternal>  (1) 
7.7466262841586211

>  <r_i_glide_emodel>  (1) 
-57.953291687588589

>  <r_i_glide_emodel_strain>  (1) 
5.3474077125840438

>  <r_i_glide_energy>  (1) 
-37.742609010784875

>  <r_i_glide_erotb>  (1) 
0.28694684240539414

>  <r_i_glide_esite>  (1) 
0

>  <r_i_glide_evdw>  (1) 
-37.584797044258885

>  <r_i_glide_gscore>  (1) 
-7.472499994166256

>  <r_i_glide_gscore_strain>  (1) 
0.33685192814601095

>  <r_i_glide_hbond>  (1) 
0

>  <r_i_glide_ligand_efficiency>  (1) 
-0.1287413522290943

>  <r_i_glide_ligand_efficiency_ln>  (1) 
-1.2895662299087505

>  <r_i_glide_ligand_efficiency_sa>  (1) 
-0.47110396532800342

>  <r_i_glide_lipo>  (1) 
-5.4228940996559318

>  <r_i_glide_metal>  (1) 
-0

>  <r_i_glide_rewards>  (1) 
-0.77049301786988722

>  <r_lp_Energy>  (1) 
61.575507999999999

>  <s_epik_Chemistry_Notes>  (1) 
This compound has an imine and may undergo hydrolysis.

>  <s_epik_cmdline>  (1) 
J2VwaWtfcHl0aG9uJywgJy1waHQnLCAnMS4wJywgJy1waCcsICc3LjQnLCAnLXRuJywgJzgnLCAnLW1hJywgJzUwMCcsICctaW1hZScsICc8aW5maWxlLm1hZT4nLCAnLW9tYWUnLCAnPG91dGZpbGUubWFlPic=

>  <s_epik_input>  (1) 
bjFbY0hdYyhbQ0gzXSluKGMxMilbQ0gyXVtDSF09QyhbQ0hdPVtDSF0yKVtDSDJdW0NASF0oW0NAQEhdM1tDSDNdKVtDQEhdKGM0W2NIXVtjSF1bY0hdW2NIXVtjSF00KVtDSDJdW0NAQEhdKFtDQEhdMzUpU1tDSDJdQyhbQ0gzXSkoW0NIM10pW0NIMl1bQ0gyXVtDQF0oW0NIM10pKFtDSDJdXE49W0NIXVw1KVtDSDJdL1tDSF09W0NIXVxbQ0BASF0oW09IXSlDKD1bQ0gyXSlbQ0gyXVtDSDJdW0NAQEhdKFtDSDNdKVtPSF0=

>  <s_glide_docking_method>  (1) 
confgen

>  <s_i_glide_gridfile>  (1) 
gpcr_5ht2c_6bqh_protein_autoprepared_prepared

>  <s_lp_Force_Field>  (1) 
S-OPLS

>  <s_lp_Variant>  (1) 
DiffSBDD_66_num_sample_100-12

>  <s_m_source_file>  (1) 
generated__ligand_DiffSBDD_2026-05-06_prepared.sdf

>  <GenAI_Model>  (1) 
DiffSBDD

>  <Protein>  (1) 
GPCR_5HT2C

$$$$
DiffSBDD_14_num_sample_100
     RDKit          3D

  0  0  0  0  0  0  0  0  0  0999 V3000
M  V30 BEGIN CTAB
M  V30 COUNTS 76 78 0 0 1
M  V30 BEGIN ATOM
M  V30 1 C 39.126556 27.176019 51.442157 0
M  V30 2 C 39.225609 27.412278 52.944551 0 CFG=1
M  V30 3 C 39.080950 30.376240 58.303942 0
M  V30 4 C 39.662459 29.899955 52.502063 0
M  V30 5 C 38.800068 28.869069 53.270384 0 CFG=2
M  V30 6 C 40.578474 30.600097 50.246847 0
M  V30 7 O 41.729971 34.957310 64.527497 0
M  V30 8 C 38.964570 24.579568 56.960821 0
M  V30 9 C 40.488907 33.012616 61.325066 0
M  V30 10 C 37.164495 25.836315 56.177458 0
M  V30 11 C 39.670853 29.630307 51.003216 0 CFG=1
M  V30 12 O 39.639033 31.348399 55.346786 0
M  V30 13 O 37.867348 24.458320 57.860792 0
M  V30 14 N 41.290796 35.822750 63.497751 0
M  V30 15 C 37.492326 30.756594 56.253138 0
M  V30 16 O 40.071023 35.939782 61.601328 0
M  V30 17 C 38.815556 29.150344 54.775557 0
M  V30 18 N 37.067399 30.583754 58.667279 0 CHG=1
M  V30 19 O 38.485085 26.456518 53.690521 0
M  V30 20 C 36.674683 24.845755 57.198314 0
M  V30 21 C 39.262866 25.878839 54.744658 0
M  V30 22 C 40.513574 35.275709 62.536169 0
M  V30 23 C 38.225473 30.457243 59.560716 0 CFG=2
M  V30 24 C 38.406406 31.630275 60.542064 0 CFG=2
M  V30 25 C 40.175579 33.765687 62.634321 0
M  V30 26 C 37.819927 30.024453 57.546849 0 CFG=2
M  V30 27 C 39.821427 31.625557 61.186992 0
M  V30 28 C 38.346005 25.061836 55.642279 0 CFG=1
M  V30 29 C 38.463524 30.604533 55.101893 0 CFG=2
M  V30 30 C 37.328613 31.601328 61.631701 0
M  V30 31 C 40.044902 28.179958 50.737141 0
M  V30 32 H 38.097529 27.271308 51.094665 0
M  V30 33 H 39.464463 26.169772 51.208633 0
M  V30 34 H 40.267388 27.221400 53.159338 0
M  V30 35 H 39.467056 31.341591 57.975292 0
M  V30 36 H 39.853435 29.604331 58.309518 0
M  V30 37 H 39.313498 30.917977 52.650922 0
M  V30 38 H 40.667509 29.906079 52.898406 0
M  V30 39 H 37.767958 28.989167 52.933651 0
M  V30 40 H 41.609448 30.561312 50.600747 0
M  V30 41 H 40.580537 30.364647 49.185146 0
M  V30 42 H 40.222915 31.621504 50.355892 0
M  V30 43 H 42.263541 35.516790 65.073670 0
M  V30 44 H 39.467487 23.621335 56.877679 0
M  V30 45 H 39.674229 25.304200 57.364116 0
M  V30 46 H 40.248587 33.619763 60.450540 0
M  V30 47 H 41.570381 32.869800 61.291645 0
M  V30 48 H 37.480799 26.761561 56.656898 0
M  V30 49 H 36.399006 26.064739 55.449684 0
M  V30 50 H 38.666871 29.777692 50.637235 0
M  V30 51 H 39.409337 32.262211 55.428831 0
M  V30 52 H 41.611840 36.776252 63.635726 0
M  V30 53 H 36.528069 30.421460 55.866404 0
M  V30 54 H 37.467370 31.830037 56.443371 0
M  V30 55 H 39.777417 28.892261 55.220769 0
M  V30 56 H 38.079670 28.490993 55.232519 0
M  V30 57 H 36.267949 30.028313 58.931502 0
M  V30 58 H 36.267326 23.984021 56.663320 0
M  V30 59 H 35.919523 25.257466 57.866072 0
M  V30 60 H 40.040800 25.235492 54.328974 0
M  V30 61 H 39.771235 26.638583 55.338894 0
M  V30 62 H 38.206122 29.485195 60.057215 0
M  V30 63 H 38.289443 32.559558 59.983506 0
M  V30 64 H 40.636239 33.220220 63.454848 0
M  V30 65 H 39.107386 33.718811 62.829873 0
M  V30 66 H 37.669315 28.947034 57.504184 0
M  V30 67 H 40.486290 31.010894 60.581766 0
M  V30 68 H 39.810690 31.118013 62.153662 0
M  V30 69 H 37.978860 24.208851 55.069963 0
M  V30 70 H 37.954680 31.073299 54.257617 0
M  V30 71 H 37.466896 30.716369 62.252146 0
M  V30 72 H 37.388439 32.469566 62.282337 0
M  V30 73 H 36.323593 31.586817 61.208048 0
M  V30 74 H 40.031558 28.021429 49.680491 0
M  V30 75 H 41.066904 28.021803 51.054353 0
M  V30 76 H 36.804808 31.537333 58.445789 0
M  V30 END ATOM
M  V30 BEGIN BOND
M  V30 1 1 2 1
M  V30 2 1 5 2
M  V30 3 1 5 4
M  V30 4 1 11 4
M  V30 5 1 11 6
M  V30 6 1 13 8
M  V30 7 1 14 7
M  V30 8 1 17 5
M  V30 9 1 19 2
M  V30 10 1 20 10
M  V30 11 1 20 13
M  V30 12 1 21 19
M  V30 13 1 22 14
M  V30 14 2 22 16
M  V30 15 1 23 3
M  V30 16 1 23 18
M  V30 17 1 24 23
M  V30 18 1 25 9
M  V30 19 1 25 22
M  V30 20 1 26 3
M  V30 21 1 26 15
M  V30 22 1 26 18
M  V30 23 1 27 9
M  V30 24 1 27 24
M  V30 25 1 28 8
M  V30 26 1 28 10
M  V30 27 1 28 21
M  V30 28 1 29 12
M  V30 29 1 29 15
M  V30 30 1 29 17
M  V30 31 1 30 24
M  V30 32 1 31 1
M  V30 33 1 31 11
M  V30 34 1 32 1
M  V30 35 1 33 1
M  V30 36 1 2 34 CFG=1
M  V30 37 1 35 3
M  V30 38 1 36 3
M  V30 39 1 37 4
M  V30 40 1 38 4
M  V30 41 1 5 39 CFG=3
M  V30 42 1 40 6
M  V30 43 1 41 6
M  V30 44 1 42 6
M  V30 45 1 43 7
M  V30 46 1 44 8
M  V30 47 1 45 8
M  V30 48 1 46 9
M  V30 49 1 47 9
M  V30 50 1 48 10
M  V30 51 1 49 10
M  V30 52 1 11 50 CFG=3
M  V30 53 1 51 12
M  V30 54 1 52 14
M  V30 55 1 53 15
M  V30 56 1 54 15
M  V30 57 1 55 17
M  V30 58 1 56 17
M  V30 59 1 57 18
M  V30 60 1 58 20
M  V30 61 1 59 20
M  V30 62 1 60 21
M  V30 63 1 61 21
M  V30 64 1 23 62 CFG=1
M  V30 65 1 24 63 CFG=3
M  V30 66 1 64 25
M  V30 67 1 65 25
M  V30 68 1 26 66 CFG=3
M  V30 69 1 67 27
M  V30 70 1 68 27
M  V30 71 1 28 69 CFG=3
M  V30 72 1 29 70 CFG=3
M  V30 73 1 71 30
M  V30 74 1 72 30
M  V30 75 1 73 30
M  V30 76 1 74 31
M  V30 77 1 75 31
M  V30 78 1 76 18
M  V30 END BOND
M  V30 END CTAB
M  END
>  <i_epik_Tot_Q>  (1) 
1

>  <i_epik_Tot_abs_Q>  (1) 
1

>  <i_i_glide_confnum>  (1) 
2765

>  <i_i_glide_lignum>  (1) 
32

>  <i_i_glide_posenum>  (1) 
47

>  <i_i_glide_rotatable_bonds>  (1) 
15

>  <i_lp_mmshare_version>  (1) 
72125

>  <i_m_source_file_index>  (1) 
15

>  <i_f3d_flags>  (1) 
0

>  <num_sample>  (1) 
100

>  <b_lp_Chiralities_Consistent>  (1) 
1

>  <r_epik_Charging_Adjusted_Penalty>  (1) 
0.00011085431656654283

>  <r_epik_Ionization_Penalty>  (1) 
0.0093428253379992804

>  <r_epik_Ionization_Penalty_Charging>  (1) 
0.00011085431656654283

>  <r_epik_Ionization_Penalty_Neutral>  (1) 
0.0092319710214327378

>  <r_epik_State_Penalty>  (1) 
-0

>  <r_glide_ring_energy>  (1) 
0

>  <r_i_docking_score>  (1) 
-6.3080661698068505

>  <r_i_glide_ecoul>  (1) 
-5.7913920687926348

>  <r_i_glide_eff_state_penalty>  (1) 
-0

>  <r_i_glide_einternal>  (1) 
12.741458128305112

>  <r_i_glide_emodel>  (1) 
-56.814932854907042

>  <r_i_glide_emodel_strain>  (1) 
1.1289603596533198

>  <r_i_glide_energy>  (1) 
-42.888879357950096

>  <r_i_glide_erotb>  (1) 
1.3314850251941783

>  <r_i_glide_esite>  (1) 
-0.10044409078936814

>  <r_i_glide_evdw>  (1) 
-37.097487289157463

>  <r_i_glide_gscore>  (1) 
-6.3080661698068505

>  <r_i_glide_gscore_strain>  (1) 
0

>  <r_i_glide_hbond>  (1) 
-0.3719099058902795

>  <r_i_glide_ligand_efficiency>  (1) 
-0.20348600547764034

>  <r_i_glide_ligand_efficiency_ln>  (1) 
-1.4226622403028142

>  <r_i_glide_ligand_efficiency_sa>  (1) 
-0.63922700063986848

>  <r_i_glide_lipo>  (1) 
-4.4612201400861764

>  <r_i_glide_metal>  (1) 
-0

>  <r_i_glide_rewards>  (1) 
0.017606116541564854

>  <r_lp_Energy>  (1) 
22.97654

>  <r_lp_tautomer_probability>  (1) 
1

>  <s_epik_Chemistry_Notes>  (1) 
This compound has a N-S or N-O group and may undergo hydrolysis at high or low pH.

>  <s_epik_cmdline>  (1) 
J2VwaWtfcHl0aG9uJywgJy1waHQnLCAnMS4wJywgJy1waCcsICc3LjQnLCAnLXRuJywgJzgnLCAnLW1hJywgJzUwMCcsICctaW1hZScsICc8aW5maWxlLm1hZT4nLCAnLW9tYWUnLCAnPG91dGZpbGUubWFlPic=

>  <s_epik_input>  (1) 
W0NIMl0xW0NIMl1PW0NIMl1bQ0BASF0xW0NIMl1PW0NASF0yW0NIMl1bQ0gyXVtDQEhdKFtDSDNdKVtDSDJdW0NAQEhdMltDSDJdW0NASF0oW09IXSlbQ0gyXVtDQEhdKFtOSF0zKVtDSDJdW0NASF0zW0NAQEhdKFtDSDNdKVtDSDJdW0NIMl1bQ0gyXUMoPU8pW05IXVtPSF0=

>  <s_glide_docking_method>  (1) 
confgen

>  <s_i_glide_gridfile>  (1) 
gpcr_5ht2c_6bqh_protein_autoprepared_prepared

>  <s_lp_Force_Field>  (1) 
S-OPLS

>  <s_lp_Variant>  (1) 
DiffSBDD_14_num_sample_100-1

>  <s_m_source_file>  (1) 
generated__ligand_DiffSBDD_2026-05-06_prepared.sdf

>  <GenAI_Model>  (1) 
DiffSBDD

>  <Protein>  (1) 
GPCR_5HT2C

$$$$
DiffSBDD_39_num_sample_100
     RDKit          3D

  0  0  0  0  0  0  0  0  0  0999 V3000
M  V30 BEGIN CTAB
M  V30 COUNTS 61 64 0 0 1
M  V30 BEGIN ATOM
M  V30 1 C 39.224623 34.576132 60.404722 0
M  V30 2 C 38.398034 28.533613 58.659982 0
M  V30 3 C 36.040473 32.555152 61.313650 0
M  V30 4 C 38.020851 29.854023 59.343258 0
M  V30 5 C 38.066717 32.890988 58.952073 0
M  V30 6 C 38.484240 27.748145 56.283110 0
M  V30 7 N 38.895310 26.848702 52.656639 0
M  V30 8 O 35.681681 33.621242 61.853698 0 CHG=-1
M  V30 9 C 38.764172 27.857237 54.836306 0
M  V30 10 C 36.950854 35.082616 59.647035 0
M  V30 11 O 36.667740 31.621566 61.853336 0
M  V30 12 C 37.005748 36.310507 60.339056 0
M  V30 13 C 38.158002 36.662093 61.071975 0
M  V30 14 N 36.941609 32.124885 59.053772 0
M  V30 15 C 40.534458 36.188511 61.869692 0
M  V30 16 C 34.869722 33.561313 59.300696 0
M  V30 17 C 39.614934 27.999330 50.608234 0
M  V30 18 C 37.061330 30.751960 58.516999 0
M  V30 19 C 41.093506 34.002950 63.189124 0
M  V30 20 C 39.175559 29.184726 54.207184 0
M  V30 21 C 35.708731 32.383340 59.842754 0 CFG=2
M  V30 22 C 39.944735 29.501370 50.292521 0
M  V30 23 O 41.746174 33.603698 62.198545 0 CHG=-1
M  V30 24 C 38.068952 34.203000 59.690330 0
M  V30 25 S 40.004445 30.504397 51.833534 0
M  V30 26 C 39.468023 29.154793 52.750856 0
M  V30 27 O 39.265066 30.228865 54.847425 0
M  V30 28 C 39.271222 35.795172 61.101664 0
M  V30 29 Cl 38.149484 25.243697 54.654488 0
M  V30 30 C 40.728973 35.497331 63.241759 0
M  V30 31 C 38.636450 26.782917 54.015764 0
M  V30 32 C 38.743506 28.694216 57.205289 0
M  V30 33 C 35.716169 34.732511 58.823535 0
M  V30 34 O 39.067212 32.534514 58.335722 0
M  V30 35 C 39.319775 28.027191 52.083380 0
M  V30 36 O 40.721650 33.295957 64.149498 0
M  V30 37 H 40.076768 33.913496 60.420420 0
M  V30 38 H 37.543560 27.867955 58.652729 0
M  V30 39 H 39.212380 28.037523 59.191289 0
M  V30 40 H 37.535855 29.630075 60.290835 0
M  V30 41 H 38.951060 30.366098 59.593218 0
M  V30 42 H 38.032649 26.834646 56.635350 0
M  V30 43 H 36.165051 36.986107 60.303037 0
M  V30 44 H 38.191627 37.603294 61.599658 0
M  V30 45 H 41.406259 36.011879 61.238463 0
M  V30 46 H 40.521062 37.265761 62.028255 0
M  V30 47 H 34.142870 33.893765 60.044945 0
M  V30 48 H 34.237112 33.231154 58.483475 0
M  V30 49 H 40.464579 27.368196 50.330471 0
M  V30 50 H 38.737989 27.662113 50.061710 0
M  V30 51 H 37.379834 30.830365 57.474377 0
M  V30 52 H 36.092859 30.256892 58.458608 0
M  V30 53 H 35.060660 31.509136 59.825342 0
M  V30 54 H 39.137832 29.931263 49.720518 0
M  V30 55 H 40.859941 29.622441 49.716992 0
M  V30 56 H 41.543069 35.989872 63.774249 0
M  V30 57 H 39.836984 35.638122 63.851923 0
M  V30 58 H 39.212787 29.616900 56.939842 0
M  V30 59 H 35.091782 35.608393 58.654503 0
M  V30 60 H 36.092840 34.421117 57.855336 0
M  V30 61 H 38.793945 26.021144 52.087469 0
M  V30 END ATOM
M  V30 BEGIN BOND
M  V30 1 1 4 2
M  V30 2 1 8 3
M  V30 3 1 9 6
M  V30 4 2 11 3
M  V30 5 1 12 10
M  V30 6 2 13 12
M  V30 7 1 14 5
M  V30 8 1 18 4
M  V30 9 1 18 14
M  V30 10 1 20 9
M  V30 11 1 21 3
M  V30 12 1 21 14
M  V30 13 1 21 16
M  V30 14 1 22 17
M  V30 15 1 23 19
M  V30 16 1 24 1
M  V30 17 1 24 5
M  V30 18 2 24 10
M  V30 19 1 25 22
M  V30 20 1 26 20
M  V30 21 1 26 25
M  V30 22 2 27 20
M  V30 23 2 28 1
M  V30 24 1 28 13
M  V30 25 1 28 15
M  V30 26 1 30 15
M  V30 27 1 30 19
M  V30 28 1 31 7
M  V30 29 2 31 9
M  V30 30 1 31 29
M  V30 31 1 32 2
M  V30 32 2 32 6
M  V30 33 1 33 10
M  V30 34 1 33 16
M  V30 35 2 34 5
M  V30 36 1 35 7
M  V30 37 1 35 17
M  V30 38 2 35 26
M  V30 39 2 36 19
M  V30 40 1 37 1
M  V30 41 1 38 2
M  V30 42 1 39 2
M  V30 43 1 40 4
M  V30 44 1 41 4
M  V30 45 1 42 6
M  V30 46 1 43 12
M  V30 47 1 44 13
M  V30 48 1 45 15
M  V30 49 1 46 15
M  V30 50 1 47 16
M  V30 51 1 48 16
M  V30 52 1 49 17
M  V30 53 1 50 17
M  V30 54 1 51 18
M  V30 55 1 52 18
M  V30 56 1 21 53 CFG=1
M  V30 57 1 54 22
M  V30 58 1 55 22
M  V30 59 1 56 30
M  V30 60 1 57 30
M  V30 61 1 58 32
M  V30 62 1 59 33
M  V30 63 1 60 33
M  V30 64 1 61 7
M  V30 END BOND
M  V30 END CTAB
M  END
>  <i_epik_Tot_Q>  (1) 
-2

>  <i_epik_Tot_abs_Q>  (1) 
2

>  <i_i_glide_confnum>  (1) 
33

>  <i_i_glide_lignum>  (1) 
98

>  <i_i_glide_posenum>  (1) 
15

>  <i_i_glide_rotatable_bonds>  (1) 
9

>  <i_lp_mmshare_version>  (1) 
72125

>  <i_m_source_file_index>  (1) 
40

>  <i_f3d_flags>  (1) 
0

>  <num_sample>  (1) 
100

>  <b_lp_Chiralities_Consistent>  (1) 
1

>  <r_epik_Charging_Adjusted_Penalty>  (1) 
2.4833595310622814

>  <r_epik_Ionization_Penalty>  (1) 
1.1966221344959846

>  <r_epik_Ionization_Penalty_Charging>  (1) 
1.1966221333468745

>  <r_epik_Ionization_Penalty_Neutral>  (1) 
1.1491101627543943e-09

>  <r_epik_State_Penalty>  (1) 
1.2867373977154066

>  <r_glide_ring_energy>  (1) 
0

>  <r_i_docking_score>  (1) 
-6.3078460454537009

>  <r_i_glide_ecoul>  (1) 
-4.9992275599289098

>  <r_i_glide_eff_state_penalty>  (1) 
1.2867373977154066

>  <r_i_glide_einternal>  (1) 
12.125129622033509

>  <r_i_glide_emodel>  (1) 
-47.200310520635597

>  <r_i_glide_emodel_strain>  (1) 
3.8876426685156531

>  <r_i_glide_energy>  (1) 
-37.557461485305112

>  <r_i_glide_erotb>  (1) 
0.44176053004123106

>  <r_i_glide_esite>  (1) 
-0.15141788520882982

>  <r_i_glide_evdw>  (1) 
-32.5582339253762

>  <r_i_glide_gscore>  (1) 
-7.5945834431691077

>  <r_i_glide_gscore_strain>  (1) 
0

>  <r_i_glide_hbond>  (1) 
-0.16

>  <r_i_glide_ligand_efficiency>  (1) 
-0.17521794570704724

>  <r_i_glide_ligand_efficiency_ln>  (1) 
-1.3762015888121115

>  <r_i_glide_ligand_efficiency_sa>  (1) 
-0.57855690942543869

>  <r_i_glide_lipo>  (1) 
-4.2545592358672595

>  <r_i_glide_metal>  (1) 
-0

>  <r_i_glide_rewards>  (1) 
-1.0925710218761018

>  <r_lp_Energy>  (1) 
53.030488999999996

>  <s_epik_cmdline>  (1) 
J2VwaWtfcHl0aG9uJywgJy1waHQnLCAnMS4wJywgJy1waCcsICc3LjQnLCAnLXRuJywgJzgnLCAnLW1hJywgJzUwMCcsICctaW1hZScsICc8aW5maWxlLm1hZT4nLCAnLW9tYWUnLCAnPG91dGZpbGUubWFlPic=

>  <s_epik_input>  (1) 
W09IXUMoPU8pW0NIMl1bQ0gyXWMoW2NIXVtjSF0xKVtjSF1jKGMxMilDKD1PKU4oW0NAQEhdKEMoPU8pW09IXSlbQ0gyXVtDSDJdMilbQ0gyXVtDSDJdW0NIMl1cW0NIXT1bQ0hdXGMoYzNbT0hdKWMoQ2wpbmMoYzM0KVtDSDJdW0NIMl1TNA==

>  <s_glide_docking_method>  (1) 
confgen

>  <s_i_glide_gridfile>  (1) 
gpcr_5ht2c_6bqh_protein_autoprepared_prepared

>  <s_lp_Force_Field>  (1) 
S-OPLS

>  <s_lp_Variant>  (1) 
DiffSBDD_39_num_sample_100-5

>  <s_m_source_file>  (1) 
generated__ligand_DiffSBDD_2026-05-06_prepared.sdf

>  <GenAI_Model>  (1) 
DiffSBDD

>  <Protein>  (1) 
GPCR_5HT2C

$$$$
DiffSBDD_75_num_sample_100
     RDKit          3D

  0  0  0  0  0  0  0  0  0  0999 V3000
M  V30 BEGIN CTAB
M  V30 COUNTS 40 43 0 0 1
M  V30 BEGIN ATOM
M  V30 1 N 39.620376 29.014371 58.463003 0
M  V30 2 C 38.320275 31.037274 58.692651 0
M  V30 3 C 38.810108 28.202006 53.943195 0
M  V30 4 C 38.574350 30.093355 56.513938 0
M  V30 5 C 39.072190 30.000514 59.197156 0
M  V30 6 C 37.874496 31.957094 59.685555 0
M  V30 7 C 40.750615 27.025857 56.999302 0 CFG=1
M  V30 8 C 37.068082 24.724494 57.274033 0
M  V30 9 C 38.056708 31.116242 57.332124 0
M  V30 10 C 38.356824 31.504245 61.029782 0
M  V30 11 O 37.199838 32.973655 59.522485 0
M  V30 12 O 39.427522 25.021910 56.900165 0
M  V30 13 C 39.359769 29.054358 57.113567 0
M  V30 14 S 39.368032 29.970817 60.980112 0
M  V30 15 C 38.969172 27.492084 55.280738 0
M  V30 16 C 39.466770 26.852203 53.996117 0
M  V30 17 N 39.905577 28.005382 56.298751 0
M  V30 18 C 42.012030 27.608621 57.697801 0
M  V30 19 O 38.086610 32.114973 62.063594 0
M  V30 20 C 39.959754 25.978780 57.806070 0
M  V30 21 C 38.141991 25.278675 56.344795 0 CFG=2
M  V30 22 C 37.832116 26.736741 55.938121 0
M  V30 23 H 37.812834 28.255359 53.510317 0
M  V30 24 H 39.460198 29.046037 53.717680 0
M  V30 25 H 38.387692 30.107714 55.455023 0
M  V30 26 H 41.179884 26.449158 56.182278 0
M  V30 27 H 36.079206 24.821385 56.815062 0
M  V30 28 H 37.241140 23.668752 57.482906 0
M  V30 29 H 37.051767 25.254088 58.226003 0
M  V30 30 H 37.467407 31.922259 56.918331 0
M  V30 31 H 40.533920 26.797097 53.815227 0
M  V30 32 H 38.895923 26.025198 53.578166 0
M  V30 33 H 42.755690 26.826056 57.842260 0
M  V30 34 H 42.485818 28.373406 57.083954 0
M  V30 35 H 41.834251 28.021950 58.688400 0
M  V30 36 H 39.219053 26.389919 58.492300 0
M  V30 37 H 40.670151 25.415710 58.407894 0
M  V30 38 H 38.112439 24.670875 55.439502 0
M  V30 39 H 37.469963 27.296884 56.801141 0
M  V30 40 H 36.999448 26.717030 55.237994 0
M  V30 END ATOM
M  V30 BEGIN BOND
M  V30 1 1 5 1
M  V30 2 2 5 2
M  V30 3 1 6 2
M  V30 4 1 9 2
M  V30 5 2 9 4
M  V30 6 1 10 6
M  V30 7 2 11 6
M  V30 8 2 13 1
M  V30 9 1 13 4
M  V30 10 1 14 5
M  V30 11 1 14 10
M  V30 12 1 15 3
M  V30 13 1 16 3
M  V30 14 1 16 15
M  V30 15 1 17 7
M  V30 16 1 17 13
M  V30 17 1 17 15
M  V30 18 1 18 7
M  V30 19 2 19 10
M  V30 20 1 20 7
M  V30 21 1 20 12
M  V30 22 1 21 8
M  V30 23 1 21 12
M  V30 24 1 22 15
M  V30 25 1 22 21
M  V30 26 1 23 3
M  V30 27 1 24 3
M  V30 28 1 25 4
M  V30 29 1 7 26 CFG=3
M  V30 30 1 27 8
M  V30 31 1 28 8
M  V30 32 1 29 8
M  V30 33 1 30 9
M  V30 34 1 31 16
M  V30 35 1 32 16
M  V30 36 1 33 18
M  V30 37 1 34 18
M  V30 38 1 35 18
M  V30 39 1 36 20
M  V30 40 1 37 20
M  V30 41 1 21 38 CFG=3
M  V30 42 1 39 22
M  V30 43 1 40 22
M  V30 END BOND
M  V30 END CTAB
M  END
>  <i_epik_Tot_Q>  (1) 
0

>  <i_epik_Tot_abs_Q>  (1) 
0

>  <i_i_glide_confnum>  (1) 
6

>  <i_i_glide_lignum>  (1) 
188

>  <i_i_glide_posenum>  (1) 
21

>  <i_i_glide_rotatable_bonds>  (1) 
1

>  <i_lp_mmshare_version>  (1) 
72125

>  <i_m_source_file_index>  (1) 
76

>  <i_f3d_flags>  (1) 
0

>  <num_sample>  (1) 
100

>  <b_lp_Chiralities_Consistent>  (1) 
1

>  <r_epik_Charging_Adjusted_Penalty>  (1) 
0

>  <r_epik_Ionization_Penalty>  (1) 
6.9313959963176031e-10

>  <r_epik_Ionization_Penalty_Charging>  (1) 
0

>  <r_epik_Ionization_Penalty_Neutral>  (1) 
6.9313959963176031e-10

>  <r_epik_State_Penalty>  (1) 
-0

>  <r_glide_ring_energy>  (1) 
1.8977538109218037

>  <r_i_docking_score>  (1) 
-6.3070729268542678

>  <r_i_glide_ecoul>  (1) 
-0.81037629952890622

>  <r_i_glide_eff_state_penalty>  (1) 
-0

>  <r_i_glide_einternal>  (1) 
3.2108274761428692

>  <r_i_glide_emodel>  (1) 
-48.384837153342303

>  <r_i_glide_emodel_strain>  (1) 
0.19514929772144285

>  <r_i_glide_energy>  (1) 
-35.52275995325779

>  <r_i_glide_erotb>  (1) 
0.1839108918674553

>  <r_i_glide_esite>  (1) 
-0.034459803801261006

>  <r_i_glide_evdw>  (1) 
-34.712383653728885

>  <r_i_glide_gscore>  (1) 
-6.3070729268542678

>  <r_i_glide_gscore_strain>  (1) 
0

>  <r_i_glide_hbond>  (1) 
0

>  <r_i_glide_ligand_efficiency>  (1) 
-0.28668513303883036

>  <r_i_glide_ligand_efficiency_ln>  (1) 
-1.541678679397918

>  <r_i_glide_ligand_efficiency_sa>  (1) 
-0.80330301828897488

>  <r_i_glide_lipo>  (1) 
-2.5164634886903734

>  <r_i_glide_metal>  (1) 
-0

>  <r_i_glide_rewards>  (1) 
-2.0828848986143078

>  <r_lp_Energy>  (1) 
36.581914999999995

>  <r_lp_tautomer_probability>  (1) 
1

>  <s_epik_cmdline>  (1) 
J2VwaWtfcHl0aG9uJywgJy1waHQnLCAnMS4wJywgJy1waCcsICc3LjQnLCAnLXRuJywgJzgnLCAnLW1hJywgJzUwMCcsICctaW1hZScsICc8aW5maWxlLm1hZT4nLCAnLW9tYWUnLCAnPG91dGZpbGUubWFlPic=

>  <s_epik_input>  (1) 
Tz1DMUMoPU8pU2MoYzEyKW5jKFtjSF1bY0hdMilOKEMzNFtDSDJdW0NIMl0zKVtDQEBIXShbQ0gzXSlbQ0gyXU9bQ0BASF0oW0NIM10pW0NIMl00

>  <s_glide_docking_method>  (1) 
confgen

>  <s_i_glide_gridfile>  (1) 
gpcr_5ht2c_6bqh_protein_autoprepared_prepared

>  <s_lp_Force_Field>  (1) 
S-OPLS

>  <s_lp_Variant>  (1) 
DiffSBDD_75_num_sample_100-1

>  <s_m_source_file>  (1) 
generated__ligand_DiffSBDD_2026-05-06_prepared.sdf

>  <GenAI_Model>  (1) 
DiffSBDD

>  <Protein>  (1) 
GPCR_5HT2C

$$$$
DiffSBDD_88_num_sample_100
     RDKit          3D

  0  0  0  0  0  0  0  0  0  0999 V3000
M  V30 BEGIN CTAB
M  V30 COUNTS 72 75 0 0 1
M  V30 BEGIN ATOM
M  V30 1 C 39.227305 32.459205 55.481784 0
M  V30 2 C 38.337044 27.037724 53.803731 0
M  V30 3 C 38.103969 32.887019 61.823956 0 CFG=1
M  V30 4 C 37.948334 33.256041 57.576513 0
M  V30 5 C 38.095710 31.646572 54.834156 0
M  V30 6 C 37.042360 31.984045 61.124019 0
M  V30 7 O 41.759652 30.128320 63.534163 0
M  V30 8 C 36.669470 36.205817 60.588410 0 CFG=1
M  V30 9 C 37.917637 29.752158 56.451340 0
M  V30 10 C 39.197917 32.589505 57.007507 0
M  V30 11 O 41.067446 29.758729 61.453843 0 CHG=-1
M  V30 12 N 37.913644 33.135543 59.053165 0 CFG=1 CHG=1
M  V30 13 C 38.063691 34.432804 59.751877 0 CFG=1
M  V30 14 C 39.513731 32.197298 61.655323 0 CFG=1
M  V30 15 C 38.932497 28.667683 51.974522 0
M  V30 16 C 36.837562 32.271627 59.606675 0
M  V30 17 C 37.864860 36.862742 61.319543 0
M  V30 18 C 40.772078 33.075659 61.457422 0
M  V30 19 C 39.758752 31.196272 62.822704 0
M  V30 20 N 37.752695 29.460899 57.560149 0
M  V30 21 C 40.963453 30.279745 62.584800 0
M  V30 22 C 39.444905 35.617309 62.802259 0
M  V30 23 O 37.067231 29.648848 54.273698 0
M  V30 24 C 39.359785 29.354055 54.435747 0 CFG=1
M  V30 25 C 38.366375 27.517909 52.366791 0
M  V30 26 C 37.078263 35.542373 59.282615 0
M  V30 27 C 39.283764 27.823499 54.728248 0
M  V30 28 C 37.846982 34.349733 61.282110 0 CFG=1
M  V30 29 C 39.611269 29.640642 52.919934 0
M  V30 30 C 36.404535 34.922798 61.411011 0
M  V30 31 C 38.136558 30.110633 55.035799 0 CFG=1
M  V30 32 C 38.480698 35.609613 61.864247 0
M  V30 33 H 40.179231 32.022031 55.180369 0
M  V30 34 H 39.190413 33.463457 55.064093 0
M  V30 35 H 37.307034 27.068227 54.163691 0
M  V30 36 H 38.630413 25.995632 53.827152 0
M  V30 37 H 37.877691 32.821564 62.882158 0
M  V30 38 H 37.911309 34.288525 57.233681 0
M  V30 39 H 37.067393 32.816508 57.162336 0
M  V30 40 H 38.084936 31.896427 53.776258 0
M  V30 41 H 37.132723 32.021114 55.172612 0
M  V30 42 H 36.080818 32.099234 61.623781 0
M  V30 43 H 37.290351 30.932111 61.262921 0
M  V30 44 H 35.867814 36.907815 60.386204 0
M  V30 45 H 39.362189 31.616818 57.466502 0
M  V30 46 H 40.033773 33.220539 57.297458 0
M  V30 47 H 39.091316 34.739049 59.583925 0
M  V30 48 H 39.459462 31.611528 60.735699 0
M  V30 49 H 38.915977 28.940378 50.927042 0
M  V30 50 H 35.869698 32.739529 59.422767 0
M  V30 51 H 36.803847 31.328339 59.067255 0
M  V30 52 H 37.536092 37.510473 62.132707 0
M  V30 53 H 38.521528 37.414571 60.653173 0
M  V30 54 H 41.204544 33.401809 62.401915 0
M  V30 55 H 41.558072 32.487268 60.985723 0
M  V30 56 H 40.612334 33.946477 60.833276 0
M  V30 57 H 39.908636 31.742598 63.756812 0
M  V30 58 H 38.895196 30.551746 62.985740 0
M  V30 59 H 39.837032 36.547522 63.189242 0
M  V30 60 H 39.840801 34.704755 63.203953 0
M  V30 61 H 37.409289 29.012485 53.661584 0
M  V30 62 H 40.232977 29.719390 54.976129 0
M  V30 63 H 37.893724 26.879019 51.633981 0
M  V30 64 H 36.193280 35.112465 58.807740 0
M  V30 65 H 37.466554 36.267913 58.572753 0
M  V30 66 H 40.267461 27.370389 54.654439 0
M  V30 67 H 39.001876 27.626531 55.761445 0
M  V30 68 H 39.310889 30.643219 52.643426 0
M  V30 69 H 40.667269 29.621726 52.670962 0
M  V30 70 H 35.614591 34.311376 60.978081 0
M  V30 71 H 36.104110 35.151349 62.435794 0
M  V30 72 H 38.754121 32.627514 59.290106 0
M  V30 END ATOM
M  V30 BEGIN BOND
M  V30 1 1 5 1
M  V30 2 1 6 3
M  V30 3 1 10 1
M  V30 4 1 10 4
M  V30 5 1 12 4
M  V30 6 1 13 12
M  V30 7 1 14 3
M  V30 8 1 16 6
M  V30 9 1 16 12
M  V30 10 1 17 8
M  V30 11 1 18 14
M  V30 12 1 19 14
M  V30 13 3 20 9
M  V30 14 2 21 7
M  V30 15 1 21 11
M  V30 16 1 21 19
M  V30 17 1 25 2
M  V30 18 2 25 15
M  V30 19 1 26 8
M  V30 20 1 26 13
M  V30 21 1 27 2
M  V30 22 1 27 24
M  V30 23 1 28 3
M  V30 24 1 28 13
M  V30 25 1 29 15
M  V30 26 1 29 24
M  V30 27 1 30 8
M  V30 28 1 30 28
M  V30 29 1 31 5
M  V30 30 1 31 9 CFG=1
M  V30 31 1 31 23
M  V30 32 1 31 24
M  V30 33 1 32 17
M  V30 34 2 32 22
M  V30 35 1 28 32 CFG=1
M  V30 36 1 33 1
M  V30 37 1 34 1
M  V30 38 1 35 2
M  V30 39 1 36 2
M  V30 40 1 3 37 CFG=1
M  V30 41 1 38 4
M  V30 42 1 39 4
M  V30 43 1 40 5
M  V30 44 1 41 5
M  V30 45 1 42 6
M  V30 46 1 43 6
M  V30 47 1 8 44 CFG=3
M  V30 48 1 45 10
M  V30 49 1 46 10
M  V30 50 1 13 47 CFG=1
M  V30 51 1 14 48 CFG=3
M  V30 52 1 49 15
M  V30 53 1 50 16
M  V30 54 1 51 16
M  V30 55 1 52 17
M  V30 56 1 53 17
M  V30 57 1 54 18
M  V30 58 1 55 18
M  V30 59 1 56 18
M  V30 60 1 57 19
M  V30 61 1 58 19
M  V30 62 1 59 22
M  V30 63 1 60 22
M  V30 64 1 61 23
M  V30 65 1 24 62 CFG=1
M  V30 66 1 63 25
M  V30 67 1 64 26
M  V30 68 1 65 26
M  V30 69 1 66 27
M  V30 70 1 67 27
M  V30 71 1 68 29
M  V30 72 1 69 29
M  V30 73 1 70 30
M  V30 74 1 71 30
M  V30 75 1 12 72 CFG=1
M  V30 END BOND
M  V30 END CTAB
M  END
>  <i_epik_Tot_Q>  (1) 
0

>  <i_epik_Tot_abs_Q>  (1) 
2

>  <i_i_glide_confnum>  (1) 
629

>  <i_i_glide_lignum>  (1) 
226

>  <i_i_glide_posenum>  (1) 
101

>  <i_i_glide_rotatable_bonds>  (1) 
10

>  <i_lp_mmshare_version>  (1) 
72125

>  <i_m_source_file_index>  (1) 
89

>  <i_f3d_flags>  (1) 
0

>  <num_sample>  (1) 
100

>  <b_lp_Chiralities_Consistent>  (1) 
1

>  <r_epik_Charging_Adjusted_Penalty>  (1) 
0.0020242395650179774

>  <r_epik_Ionization_Penalty>  (1) 
0.0021859291232044671

>  <r_epik_Ionization_Penalty_Charging>  (1) 
0.0020242395650179774

>  <r_epik_Ionization_Penalty_Neutral>  (1) 
0.00016168955818648959

>  <r_epik_State_Penalty>  (1) 
-0

>  <r_glide_ring_energy>  (1) 
1.8266832637363128

>  <r_i_docking_score>  (1) 
-6.3039660343662911

>  <r_i_glide_ecoul>  (1) 
-4.873575156510487

>  <r_i_glide_eff_state_penalty>  (1) 
-0

>  <r_i_glide_einternal>  (1) 
12.157341431034249

>  <r_i_glide_emodel>  (1) 
-40.446199336958564

>  <r_i_glide_emodel_strain>  (1) 
0.0070792304406239737

>  <r_i_glide_energy>  (1) 
-35.03761529589255

>  <r_i_glide_erotb>  (1) 
0.71992511853168706

>  <r_i_glide_esite>  (1) 
-0.11983693232545178

>  <r_i_glide_evdw>  (1) 
-30.16404013938206

>  <r_i_glide_gscore>  (1) 
-6.3039660343662911

>  <r_i_glide_gscore_strain>  (1) 
0

>  <r_i_glide_hbond>  (1) 
-0.16

>  <r_i_glide_ligand_efficiency>  (1) 
-0.1969989385739466

>  <r_i_glide_ligand_efficiency_ln>  (1) 
-1.4116298347186436

>  <r_i_glide_ligand_efficiency_sa>  (1) 
-0.62543264465780313

>  <r_i_glide_lipo>  (1) 
-3.2255108257575644

>  <r_i_glide_metal>  (1) 
-0

>  <r_i_glide_rewards>  (1) 
-1.2793051143692848

>  <r_lp_Energy>  (1) 
68.419443999999999

>  <r_lp_tautomer_probability>  (1) 
1

>  <s_epik_cmdline>  (1) 
J2VwaWtfcHl0aG9uJywgJy1waHQnLCAnMS4wJywgJy1waCcsICc3LjQnLCAnLXRuJywgJzgnLCAnLW1hJywgJzUwMCcsICctaW1hZScsICc8aW5maWxlLm1hZT4nLCAnLW9tYWUnLCAnPG91dGZpbGUubWFlPic=

>  <s_epik_input>  (1) 
W0NIMl0xW0NIXT1bQ0hdW0NIMl1bQ0gyXVtDQEBIXTFbQ0BdKEMjTikoW09IXSlbQ0gyXVtDSDJdW0NIMl1bQ0gyXU4oW0NASF0oW0NAXTIzNClbQ0gyXVtDQEBIXShbQ0gyXTMpW0NIMl1DND1bQ0gyXSlbQ0gyXVtDSDJdW0NASF0yW0NAQEhdKFtDSDNdKVtDSDJdQyg9TylbT0hd

>  <s_glide_docking_method>  (1) 
confgen

>  <s_i_glide_gridfile>  (1) 
gpcr_5ht2c_6bqh_protein_autoprepared_prepared

>  <s_lp_Force_Field>  (1) 
S-OPLS

>  <s_lp_Variant>  (1) 
DiffSBDD_88_num_sample_100-1

>  <s_m_source_file>  (1) 
generated__ligand_DiffSBDD_2026-05-06_prepared.sdf

>  <GenAI_Model>  (1) 
DiffSBDD

>  <Protein>  (1) 
GPCR_5HT2C

$$$$
DiffSBDD_44_num_sample_100
     RDKit          3D

  0  0  0  0  0  0  0  0  0  0999 V3000
M  V30 BEGIN CTAB
M  V30 COUNTS 58 59 0 0 1
M  V30 BEGIN ATOM
M  V30 1 C 37.737601 34.091672 58.964641 0
M  V30 2 O 37.616437 29.587947 59.576323 0 CHG=-1
M  V30 3 C 39.093127 29.464971 53.675152 0
M  V30 4 C 36.736730 32.215628 60.057093 0 CFG=1
M  V30 5 N 37.430017 31.679316 58.846051 0 CFG=1 CHG=1
M  V30 6 C 38.510822 27.419918 52.457084 0
M  V30 7 N 38.766153 28.162735 56.246710 0
M  V30 8 C 38.624143 28.241156 53.724926 0
M  V30 9 O 38.449557 26.160962 55.019188 0
M  V30 10 C 36.564581 33.721547 59.843549 0 CFG=1
M  V30 11 C 36.521161 34.526914 61.147318 0
M  V30 12 C 39.162078 29.957181 57.897720 0 CFG=1
M  V30 13 C 38.380335 29.270775 56.756347 0
M  V30 14 C 38.020765 32.845584 58.138528 0
M  V30 15 C 39.810964 25.768496 55.144585 0
M  V30 16 C 39.968685 30.538706 51.631949 0
M  V30 17 C 38.370305 30.547870 59.117135 0 CFG=2
M  V30 18 C 38.189397 27.563737 55.042190 0 CFG=1
M  V30 19 F 40.734449 28.422619 51.063238 0
M  V30 20 C 39.710603 29.207466 50.855720 0 CFG=1
M  V30 21 C 39.646394 30.509030 53.116914 0
M  V30 22 C 40.315028 29.056585 58.417755 0
M  V30 23 C 37.160784 30.027282 56.258100 0
M  V30 24 C 35.375784 31.559253 60.330197 0
M  V30 25 C 38.518129 28.266135 51.151595 0
M  V30 26 H 38.610301 34.339699 59.576447 0
M  V30 27 H 37.476265 34.938055 58.326249 0
M  V30 28 H 37.390426 32.061380 60.917354 0
M  V30 29 H 39.316291 26.688187 52.431825 0
M  V30 30 H 37.581450 26.853177 52.506690 0
M  V30 31 H 35.656457 33.904305 59.265883 0
M  V30 32 H 37.376190 34.294348 61.782873 0
M  V30 33 H 36.545113 35.598206 60.948162 0
M  V30 34 H 35.616080 34.311042 61.713420 0
M  V30 35 H 39.653575 30.786064 57.398811 0
M  V30 36 H 39.093343 32.765936 57.969307 0
M  V30 37 H 37.528996 32.950753 57.171985 0
M  V30 38 H 39.866646 24.693793 54.981438 0
M  V30 39 H 40.459460 26.253241 54.414905 0
M  V30 40 H 40.199762 25.970737 56.142410 0
M  V30 41 H 39.466672 31.378463 51.160408 0
M  V30 42 H 41.023656 30.792666 51.520563 0
M  V30 43 H 39.129377 30.995457 59.759535 0
M  V30 44 H 37.099722 27.595834 55.048273 0
M  V30 45 H 39.725595 29.435103 49.789133 0
M  V30 46 H 39.898640 31.392130 53.691422 0
M  V30 47 H 41.003644 28.773152 57.620193 0
M  V30 48 H 40.905918 29.560027 59.181615 0
M  V30 49 H 39.926058 28.139182 58.862034 0
M  V30 50 H 37.462522 31.048603 56.030771 0
M  V30 51 H 36.721479 29.639281 55.344597 0
M  V30 52 H 36.378959 30.020139 57.016171 0
M  V30 53 H 34.888799 32.031946 61.181915 0
M  V30 54 H 34.715603 31.637295 59.464862 0
M  V30 55 H 35.477566 30.503340 60.574287 0
M  V30 56 H 38.530377 27.537944 50.342839 0
M  V30 57 H 37.595588 28.820251 51.094065 0
M  V30 58 H 36.706131 31.326070 58.229935 0
M  V30 END ATOM
M  V30 BEGIN BOND
M  V30 1 1 5 4
M  V30 2 2 8 3
M  V30 3 1 8 6
M  V30 4 1 10 1
M  V30 5 1 10 4
M  V30 6 1 11 10
M  V30 7 2 13 7
M  V30 8 1 13 12
M  V30 9 1 14 1
M  V30 10 1 14 5
M  V30 11 1 15 9
M  V30 12 1 17 2
M  V30 13 1 17 5
M  V30 14 1 17 12
M  V30 15 1 18 7
M  V30 16 1 18 8
M  V30 17 1 18 9
M  V30 18 1 20 16
M  V30 19 1 20 19
M  V30 20 2 21 3
M  V30 21 1 21 16
M  V30 22 1 22 12
M  V30 23 1 23 13
M  V30 24 1 24 4
M  V30 25 1 25 6
M  V30 26 1 25 20
M  V30 27 1 26 1
M  V30 28 1 27 1
M  V30 29 1 4 28 CFG=1
M  V30 30 1 29 6
M  V30 31 1 30 6
M  V30 32 1 10 31 CFG=3
M  V30 33 1 32 11
M  V30 34 1 33 11
M  V30 35 1 34 11
M  V30 36 1 12 35 CFG=3
M  V30 37 1 36 14
M  V30 38 1 37 14
M  V30 39 1 38 15
M  V30 40 1 39 15
M  V30 41 1 40 15
M  V30 42 1 41 16
M  V30 43 1 42 16
M  V30 44 1 17 43 CFG=1
M  V30 45 1 18 44 CFG=1
M  V30 46 1 20 45 CFG=3
M  V30 47 1 46 21
M  V30 48 1 47 22
M  V30 49 1 48 22
M  V30 50 1 49 22
M  V30 51 1 50 23
M  V30 52 1 51 23
M  V30 53 1 52 23
M  V30 54 1 53 24
M  V30 55 1 54 24
M  V30 56 1 55 24
M  V30 57 1 56 25
M  V30 58 1 57 25
M  V30 59 1 5 58 CFG=3
M  V30 END BOND
M  V30 END CTAB
M  END
>  <i_epik_Tot_Q>  (1) 
0

>  <i_epik_Tot_abs_Q>  (1) 
2

>  <i_i_glide_confnum>  (1) 
33

>  <i_i_glide_lignum>  (1) 
112

>  <i_i_glide_posenum>  (1) 
310

>  <i_i_glide_rotatable_bonds>  (1) 
6

>  <i_lp_mmshare_version>  (1) 
72125

>  <i_m_source_file_index>  (1) 
45

>  <i_f3d_flags>  (1) 
0

>  <num_sample>  (1) 
100

>  <b_lp_Chiralities_Consistent>  (1) 
1

>  <r_epik_Charging_Adjusted_Penalty>  (1) 
0.41733257654759531

>  <r_epik_Ionization_Penalty>  (1) 
0.0069177268181324029

>  <r_epik_Ionization_Penalty_Charging>  (1) 
0.0066527375949913311

>  <r_epik_Ionization_Penalty_Neutral>  (1) 
0.00026498922314107146

>  <r_epik_State_Penalty>  (1) 
0.41067983895260396

>  <r_glide_ring_energy>  (1) 
0

>  <r_i_docking_score>  (1) 
-6.3029293075901904

>  <r_i_glide_ecoul>  (1) 
-3.684295371150994

>  <r_i_glide_eff_state_penalty>  (1) 
0.41067983895260396

>  <r_i_glide_einternal>  (1) 
3.5318479871412709

>  <r_i_glide_emodel>  (1) 
-43.065286527892027

>  <r_i_glide_emodel_strain>  (1) 
2.1737178317099719

>  <r_i_glide_energy>  (1) 
-32.125670334803551

>  <r_i_glide_erotb>  (1) 
0.61440649929112812

>  <r_i_glide_esite>  (1) 
-0.12666559149277318

>  <r_i_glide_evdw>  (1) 
-28.441374963652557

>  <r_i_glide_gscore>  (1) 
-6.7136091465427947

>  <r_i_glide_gscore_strain>  (1) 
0

>  <r_i_glide_hbond>  (1) 
-0.17822381995172135

>  <r_i_glide_ligand_efficiency>  (1) 
-0.25211717230360764

>  <r_i_glide_ligand_efficiency_ln>  (1) 
-1.4939831294482566

>  <r_i_glide_ligand_efficiency_sa>  (1) 
-0.73719508392381827

>  <r_i_glide_lipo>  (1) 
-2.6950705910955444

>  <r_i_glide_metal>  (1) 
-0

>  <r_i_glide_rewards>  (1) 
-2.3533425894386069

>  <r_lp_Energy>  (1) 
11.823086999999999

>  <r_lp_tautomer_probability>  (1) 
0.49999399997599986

>  <s_epik_Chemistry_Notes>  (1) 
This compound has an imine and may undergo hydrolysis. This compound contains an acetal/aminal-like group ( X-CH(R)-Y where X, Y are N, S, or O) that may be acid/base labile, releasing an aldehyde.

>  <s_epik_cmdline>  (1) 
J2VwaWtfcHl0aG9uJywgJy1waHQnLCAnMS4wJywgJy1waCcsICc3LjQnLCAnLXRuJywgJzgnLCAnLW1hJywgJzUwMCcsICctaW1hZScsICc8aW5maWxlLm1hZT4nLCAnLW9tYWUnLCAnPG91dGZpbGUubWFlPic=

>  <s_epik_input>  (1) 
W0NIM11bQ0BIXTFbQ0gyXVtDSDJdTihbQ0BASF0xW0NIM10pW0NAQEhdKFtPSF0pW0NAQEhdKFtDSDNdKVxDKFtDSDNdKT1OXFtDQEBIXShPW0NIM10pQzI9Qz1bQ0hdW0NIMl1bQ0BASF0oRilbQ0gyXVtDSDJdMg==

>  <s_glide_docking_method>  (1) 
confgen

>  <s_i_glide_gridfile>  (1) 
gpcr_5ht2c_6bqh_protein_autoprepared_prepared

>  <s_lp_Force_Field>  (1) 
S-OPLS

>  <s_lp_Variant>  (1) 
DiffSBDD_44_num_sample_100-5

>  <s_m_source_file>  (1) 
generated__ligand_DiffSBDD_2026-05-06_prepared.sdf

>  <GenAI_Model>  (1) 
DiffSBDD

>  <Protein>  (1) 
GPCR_5HT2C

$$$$
DiffSBDD_0_num_sample_100
     RDKit          3D

  0  0  0  0  0  0  0  0  0  0999 V3000
M  V30 BEGIN CTAB
M  V30 COUNTS 60 62 0 0 1
M  V30 BEGIN ATOM
M  V30 1 C 38.468732 27.172091 57.921927 0
M  V30 2 C 39.293815 28.750169 54.397278 0 CFG=1
M  V30 3 C 37.707327 34.988612 60.610422 0
M  V30 4 C 38.194849 32.809340 58.262887 0
M  V30 5 C 39.478284 27.688922 58.801454 0
M  V30 6 C 41.075255 27.728721 56.771061 0
M  V30 7 C 39.782678 33.830047 61.167369 0
M  V30 8 C 38.147824 36.118608 61.324371 0
M  V30 9 C 38.524983 33.841003 60.531551 0
M  V30 10 C 39.642432 28.642620 51.939821 0 CFG=2
M  V30 11 N 38.916187 31.059022 55.238406 0 CHG=1
M  V30 12 C 38.031976 32.064652 55.854897 0
M  V30 13 C 37.882913 31.871180 57.354569 0
M  V30 14 C 39.404854 36.106731 61.957346 0
M  V30 15 F 41.432131 34.949396 62.489230 0
M  V30 16 C 40.222818 34.961881 61.879353 0
M  V30 17 C 38.054875 32.620871 59.761635 0 CFG=1
M  V30 18 C 40.712747 27.954703 58.287734 0
M  V30 19 N 35.647355 31.876779 60.525899 0
M  V30 20 C 38.457557 29.652905 55.335209 0
M  V30 21 C 38.790473 26.862517 56.682948 0
M  V30 22 C 39.454127 27.254440 54.792999 0 CFG=1
M  V30 23 N 38.707416 28.788606 53.057345 0
M  V30 24 O 39.829296 37.205226 62.646502 0
M  V30 25 C 39.588883 29.931635 51.108795 0
M  V30 26 C 39.281809 27.370086 51.159130 0
M  V30 27 C 40.629035 30.045738 49.993000 0
M  V30 28 N 40.014465 26.937252 56.127613 0
M  V30 29 S 37.868826 26.396575 55.316765 0
M  V30 30 C 36.703713 32.204590 60.183856 0
M  V30 31 Cl 39.120876 28.021562 60.453438 0
M  V30 32 H 37.450046 27.095147 58.252735 0
M  V30 33 H 40.264365 29.228326 54.366412 0
M  V30 34 H 36.742778 35.002039 60.122802 0
M  V30 35 H 38.571654 33.764794 57.930639 0
M  V30 36 H 41.234166 28.678270 56.267472 0
M  V30 37 H 42.004199 27.168023 56.699388 0
M  V30 38 H 40.410494 32.954228 61.106804 0
M  V30 39 H 37.521996 36.994350 61.385738 0
M  V30 40 H 40.668307 28.529059 52.253502 0
M  V30 41 H 39.012842 31.297612 54.261974 0
M  V30 42 H 37.066382 32.018512 55.363873 0
M  V30 43 H 38.447018 33.053330 55.654466 0
M  V30 44 H 37.498098 30.914836 57.685878 0
M  V30 45 H 38.701836 31.784601 60.028995 0
M  V30 46 H 41.487275 28.358434 58.924308 0
M  V30 47 H 38.608954 29.393566 56.378628 0
M  V30 48 H 37.390483 29.544057 55.129915 0
M  V30 49 H 39.970115 26.659013 54.042201 0
M  V30 50 H 38.100814 29.579097 52.912529 0
M  V30 51 H 39.156854 37.858737 62.749553 0
M  V30 52 H 38.619633 29.977805 50.651032 0
M  V30 53 H 39.674796 30.810580 51.747901 0
M  V30 54 H 39.873842 27.268980 50.251425 0
M  V30 55 H 39.472045 26.482914 51.761256 0
M  V30 56 H 38.231379 27.359888 50.881021 0
M  V30 57 H 40.554698 31.008694 49.483688 0
M  V30 58 H 41.633416 29.978691 50.398752 0
M  V30 59 H 40.493190 29.273644 49.233928 0
M  V30 60 H 39.819350 31.141066 55.682693 0
M  V30 END ATOM
M  V30 BEGIN BOND
M  V30 1 1 5 1
M  V30 2 2 8 3
M  V30 3 1 9 3
M  V30 4 2 9 7
M  V30 5 1 12 11
M  V30 6 2 13 4
M  V30 7 1 13 12
M  V30 8 1 14 8
M  V30 9 1 16 7
M  V30 10 2 16 14
M  V30 11 1 16 15
M  V30 12 1 17 4
M  V30 13 1 17 9
M  V30 14 2 18 5
M  V30 15 1 18 6
M  V30 16 1 20 2
M  V30 17 1 20 11
M  V30 18 2 21 1
M  V30 19 1 22 2
M  V30 20 1 23 2
M  V30 21 1 23 10
M  V30 22 1 24 14
M  V30 23 1 25 10
M  V30 24 1 26 10
M  V30 25 1 27 25
M  V30 26 1 28 6
M  V30 27 1 28 21
M  V30 28 1 28 22
M  V30 29 1 29 21
M  V30 30 1 29 22
M  V30 31 1 30 17
M  V30 32 3 30 19
M  V30 33 1 31 5
M  V30 34 1 32 1
M  V30 35 1 2 33 CFG=3
M  V30 36 1 34 3
M  V30 37 1 35 4
M  V30 38 1 36 6
M  V30 39 1 37 6
M  V30 40 1 38 7
M  V30 41 1 39 8
M  V30 42 1 10 40 CFG=1
M  V30 43 1 41 11
M  V30 44 1 42 12
M  V30 45 1 43 12
M  V30 46 1 44 13
M  V30 47 1 17 45 CFG=1
M  V30 48 1 46 18
M  V30 49 1 47 20
M  V30 50 1 48 20
M  V30 51 1 22 49 CFG=3
M  V30 52 1 50 23
M  V30 53 1 51 24
M  V30 54 1 52 25
M  V30 55 1 53 25
M  V30 56 1 54 26
M  V30 57 1 55 26
M  V30 58 1 56 26
M  V30 59 1 57 27
M  V30 60 1 58 27
M  V30 61 1 59 27
M  V30 62 1 60 11
M  V30 END BOND
M  V30 END CTAB
M  END
>  <i_epik_Tot_Q>  (1) 
1

>  <i_epik_Tot_abs_Q>  (1) 
1

>  <i_i_glide_confnum>  (1) 
649

>  <i_i_glide_lignum>  (1) 
5

>  <i_i_glide_posenum>  (1) 
367

>  <i_i_glide_rotatable_bonds>  (1) 
11

>  <i_lp_mmshare_version>  (1) 
72125

>  <i_m_source_file_index>  (1) 
1

>  <i_f3d_flags>  (1) 
0

>  <num_sample>  (1) 
100

>  <b_lp_Chiralities_Consistent>  (1) 
1

>  <r_epik_Charging_Adjusted_Penalty>  (1) 
1.8065071523224812

>  <r_epik_Ionization_Penalty>  (1) 
0.92614417087394063

>  <r_epik_Ionization_Penalty_Charging>  (1) 
0.760298405215594

>  <r_epik_Ionization_Penalty_Neutral>  (1) 
0.16584576565834661

>  <r_epik_State_Penalty>  (1) 
1.0462087471068873

>  <r_glide_ring_energy>  (1) 
0

>  <r_i_docking_score>  (1) 
-6.2986103572385819

>  <r_i_glide_ecoul>  (1) 
0.10407021317451282

>  <r_i_glide_eff_state_penalty>  (1) 
1.0462087471068873

>  <r_i_glide_einternal>  (1) 
9.8886372338466515

>  <r_i_glide_emodel>  (1) 
-63.820258842176571

>  <r_i_glide_emodel_strain>  (1) 
0.12804569525530951

>  <r_i_glide_energy>  (1) 
-44.41491070441063

>  <r_i_glide_erotb>  (1) 
0.74887478347211667

>  <r_i_glide_esite>  (1) 
-0.05084601588442527

>  <r_i_glide_evdw>  (1) 
-44.518980917585139

>  <r_i_glide_gscore>  (1) 
-7.3448191043454694

>  <r_i_glide_gscore_strain>  (1) 
0

>  <r_i_glide_hbond>  (1) 
0

>  <r_i_glide_ligand_efficiency>  (1) 
-0.2031809792657607

>  <r_i_glide_ligand_efficiency_ln>  (1) 
-1.4205296647828163

>  <r_i_glide_ligand_efficiency_sa>  (1) 
-0.63826879719939755

>  <r_i_glide_lipo>  (1) 
-4.5158760826169404

>  <r_i_glide_metal>  (1) 
-0

>  <r_i_glide_rewards>  (1) 
-1.3166332754131398

>  <r_lp_Energy>  (1) 
41.265557999999999

>  <s_epik_Chemistry_Notes>  (1) 
This compound contains an acetal/aminal-like group ( X-CH(R)-Y where X, Y are N, S, or O) that may be acid/base labile, releasing an aldehyde.

>  <s_epik_cmdline>  (1) 
J2VwaWtfcHl0aG9uJywgJy1waHQnLCAnMS4wJywgJy1waCcsICc3LjQnLCAnLXRuJywgJzgnLCAnLW1hJywgJzUwMCcsICctaW1hZScsICc8aW5maWxlLm1hZT4nLCAnLW9tYWUnLCAnPG91dGZpbGUubWFlPic=

>  <s_epik_input>  (1) 
W0NIXT0xQyhDbCk9W0NIXVtDSDJdTihDMTIpW0NAQEhdKFMyKVtDQEBIXShbTkhdW0NAQEhdKFtDSDNdKVtDSDJdW0NIM10pW0NIMl1bTkhdW0NIMl1cW0NIXT1bQ0hdXFtDQEhdKEMjTiljM1tjSF1bY0hdYyhbT0hdKWMoRilbY0hdMw==

>  <s_glide_docking_method>  (1) 
confgen

>  <s_i_glide_gridfile>  (1) 
gpcr_5ht2c_6bqh_protein_autoprepared_prepared

>  <s_lp_Force_Field>  (1) 
S-OPLS

>  <s_lp_Variant>  (1) 
DiffSBDD_0_num_sample_100-5

>  <s_m_source_file>  (1) 
generated__ligand_DiffSBDD_2026-05-06_prepared.sdf

>  <GenAI_Model>  (1) 
DiffSBDD

>  <Protein>  (1) 
GPCR_5HT2C

$$$$
DiffSBDD_74_num_sample_100
     RDKit          3D

  0  0  0  0  0  0  0  0  0  0999 V3000
M  V30 BEGIN CTAB
M  V30 COUNTS 24 24 0 0 1
M  V30 BEGIN ATOM
M  V30 1 C 40.480658 30.398487 49.853686 0
M  V30 2 C 37.084993 27.561614 54.207411 0
M  V30 3 C 39.067403 28.373262 52.945120 0
M  V30 4 C 39.079751 25.465739 55.537138 0
M  V30 5 C 39.867403 30.488309 52.344854 0
M  V30 6 C 39.337848 29.650459 53.377399 0
M  V30 7 S 39.467015 28.194466 51.267715 0
M  V30 8 C 39.988710 29.842305 51.140248 0
M  V30 9 C 39.451094 26.802466 54.878055 0
M  V30 10 C 38.506911 27.236859 53.736459 0 CFG=1
M  V30 11 H 40.388235 31.484723 49.833861 0
M  V30 12 H 41.525362 30.140208 49.687119 0
M  V30 13 H 39.887805 29.992974 49.037997 0
M  V30 14 H 36.423916 27.712285 53.353735 0
M  V30 15 H 36.667404 26.754411 54.806114 0
M  V30 16 H 37.067503 28.473642 54.804669 0
M  V30 17 H 39.832774 25.179361 56.271619 0
M  V30 18 H 38.124044 25.521244 56.057553 0
M  V30 19 H 39.016933 24.664066 54.801436 0
M  V30 20 H 40.128843 31.522187 52.518322 0
M  V30 21 H 39.175418 30.008996 54.383593 0
M  V30 22 H 40.456943 26.688467 54.474685 0
M  V30 23 H 39.513313 27.584895 55.635983 0
M  V30 24 H 38.418536 26.389430 53.058142 0
M  V30 END ATOM
M  V30 BEGIN BOND
M  V30 1 2 6 3
M  V30 2 1 6 5
M  V30 3 1 7 3
M  V30 4 1 8 1
M  V30 5 2 8 5
M  V30 6 1 8 7
M  V30 7 1 9 4
M  V30 8 1 10 2
M  V30 9 1 10 3
M  V30 10 1 10 9
M  V30 11 1 11 1
M  V30 12 1 12 1
M  V30 13 1 13 1
M  V30 14 1 14 2
M  V30 15 1 15 2
M  V30 16 1 16 2
M  V30 17 1 17 4
M  V30 18 1 18 4
M  V30 19 1 19 4
M  V30 20 1 20 5
M  V30 21 1 21 6
M  V30 22 1 22 9
M  V30 23 1 23 9
M  V30 24 1 10 24 CFG=3
M  V30 END BOND
M  V30 END CTAB
M  END
>  <i_epik_Tot_Q>  (1) 
0

>  <i_epik_Tot_abs_Q>  (1) 
0

>  <i_i_glide_confnum>  (1) 
2

>  <i_i_glide_lignum>  (1) 
186

>  <i_i_glide_posenum>  (1) 
128

>  <i_i_glide_rotatable_bonds>  (1) 
2

>  <i_lp_mmshare_version>  (1) 
72125

>  <i_m_source_file_index>  (1) 
75

>  <i_f3d_flags>  (1) 
0

>  <num_sample>  (1) 
100

>  <b_lp_Chiralities_Consistent>  (1) 
1

>  <r_epik_Charging_Adjusted_Penalty>  (1) 
0

>  <r_epik_Ionization_Penalty>  (1) 
0

>  <r_epik_Ionization_Penalty_Charging>  (1) 
0

>  <r_epik_Ionization_Penalty_Neutral>  (1) 
0

>  <r_epik_State_Penalty>  (1) 
-0

>  <r_glide_ring_energy>  (1) 
0

>  <r_i_docking_score>  (1) 
-6.2952994806257383

>  <r_i_glide_ecoul>  (1) 
-0.7168722523037353

>  <r_i_glide_eff_state_penalty>  (1) 
-0

>  <r_i_glide_einternal>  (1) 
3.0044147681660744

>  <r_i_glide_emodel>  (1) 
-30.345890076083997

>  <r_i_glide_emodel_strain>  (1) 
0

>  <r_i_glide_energy>  (1) 
-23.005627083325152

>  <r_i_glide_erotb>  (1) 
0.62454345272379397

>  <r_i_glide_esite>  (1) 
0

>  <r_i_glide_evdw>  (1) 
-22.288754831021418

>  <r_i_glide_gscore>  (1) 
-6.2952994806257383

>  <r_i_glide_gscore_strain>  (1) 
0

>  <r_i_glide_hbond>  (1) 
0

>  <r_i_glide_ligand_efficiency>  (1) 
-0.62952994806257379

>  <r_i_glide_ligand_efficiency_ln>  (1) 
-1.9061732864901197

>  <r_i_glide_ligand_efficiency_sa>  (1) 
-1.3562811585199792

>  <r_i_glide_lipo>  (1) 
-2.8837605335923846

>  <r_i_glide_metal>  (1) 
-0

>  <r_i_glide_rewards>  (1) 
-2.8141138203605163

>  <r_lp_Energy>  (1) 
7.9688679999999996

>  <r_lp_tautomer_probability>  (1) 
1

>  <s_epik_cmdline>  (1) 
J2VwaWtfcHl0aG9uJywgJy1waHQnLCAnMS4wJywgJy1waCcsICc3LjQnLCAnLXRuJywgJzgnLCAnLW1hJywgJzUwMCcsICctaW1hZScsICc8aW5maWxlLm1hZT4nLCAnLW9tYWUnLCAnPG91dGZpbGUubWFlPic=

>  <s_epik_input>  (1) 
W0NIM11jKHMxKVtjSF1bY0hdYzFbQ0BIXShbQ0gzXSlbQ0gyXVtDSDNd

>  <s_glide_docking_method>  (1) 
confgen

>  <s_i_glide_gridfile>  (1) 
gpcr_5ht2c_6bqh_protein_autoprepared_prepared

>  <s_lp_Force_Field>  (1) 
S-OPLS

>  <s_lp_Variant>  (1) 
DiffSBDD_74_num_sample_100-1

>  <s_m_source_file>  (1) 
generated__ligand_DiffSBDD_2026-05-06_prepared.sdf

>  <GenAI_Model>  (1) 
DiffSBDD

>  <Protein>  (1) 
GPCR_5HT2C

$$$$
DiffSBDD_56_num_sample_100
     RDKit          3D

  0  0  0  0  0  0  0  0  0  0999 V3000
M  V30 BEGIN CTAB
M  V30 COUNTS 59 62 0 0 1
M  V30 BEGIN ATOM
M  V30 1 N 38.834385 32.553329 60.144084 0
M  V30 2 O 36.917369 33.774430 61.329251 0
M  V30 3 O 37.826137 26.437774 57.427850 0
M  V30 4 C 39.956652 36.823442 63.720855 0
M  V30 5 C 37.447402 36.804999 60.877285 0
M  V30 6 S 41.058152 35.176347 61.456360 0
M  V30 7 O 40.137937 26.383392 57.776023 0
M  V30 8 C 38.757023 33.028034 58.746229 0
M  V30 9 C 38.557563 36.668491 63.130331 0
M  V30 10 C 40.697881 35.574214 64.125535 0
M  V30 11 S 38.367494 33.557224 61.454802 0
M  V30 12 N 36.153029 36.821659 63.453401 0
M  V30 13 O 36.265060 29.622064 58.554145 0
M  V30 14 C 41.233702 34.739973 63.142579 0
M  V30 15 C 38.002410 30.522633 56.026669 0
M  V30 16 O 40.284965 28.820815 56.313955 0
M  V30 17 N 38.496876 36.292959 61.760524 0
M  V30 18 C 39.092532 26.811502 56.931118 0
M  V30 19 C 42.066940 33.227186 64.860288 0
M  V30 20 C 38.341326 31.170100 60.221779 0
M  V30 21 O 38.897476 32.883995 62.652140 0
M  V30 22 C 37.656851 29.446324 58.355248 0 CFG=1
M  V30 23 C 39.268675 35.165214 61.185540 0 CFG=1
M  V30 24 C 41.913152 33.561603 63.500447 0
M  V30 25 C 37.961976 29.198761 56.857916 0 CFG=2
M  V30 26 C 41.544022 34.074386 65.856050 0
M  V30 27 C 40.859612 35.249560 65.490264 0
M  V30 28 O 38.670766 31.619438 56.665808 0
M  V30 29 C 37.459970 36.926697 63.875296 0
M  V30 30 C 39.218723 28.327864 56.668763 0
M  V30 31 C 38.468997 30.659656 58.804039 0 CFG=1
M  V30 32 C 38.143546 31.872030 57.960378 0 CFG=1
M  V30 33 H 37.803137 25.495092 57.493778 0
M  V30 34 H 39.867853 37.472503 64.592046 0
M  V30 35 H 40.573097 37.396470 63.028185 0
M  V30 36 H 37.140971 37.806592 61.183607 0
M  V30 37 H 36.569026 36.162569 60.867844 0
M  V30 38 H 37.808050 36.894212 59.851764 0
M  V30 39 H 40.959421 26.512537 57.320775 0
M  V30 40 H 38.132340 33.917751 58.662044 0
M  V30 41 H 39.754594 33.278113 58.389371 0
M  V30 42 H 35.399590 36.802698 64.128559 0
M  V30 43 H 35.952407 30.336226 58.000385 0
M  V30 44 H 36.987812 30.821630 55.782483 0
M  V30 45 H 38.481329 30.359425 55.061389 0
M  V30 46 H 39.225503 26.309711 55.972114 0
M  V30 47 H 42.589486 32.325099 65.138912 0
M  V30 48 H 38.916973 30.585706 60.939179 0
M  V30 49 H 37.297675 31.170759 60.538059 0
M  V30 50 H 37.953290 28.591478 58.963353 0
M  V30 51 H 39.213886 35.307931 60.111114 0
M  V30 52 H 42.320838 32.917396 62.735924 0
M  V30 53 H 37.156997 28.609367 56.446617 0
M  V30 54 H 41.665308 33.821594 66.898766 0
M  V30 55 H 40.454414 35.897225 66.252923 0
M  V30 56 H 37.546618 37.221428 64.909973 0
M  V30 57 H 39.519138 30.412662 58.664692 0
M  V30 58 H 37.070806 32.055455 57.926458 0
M  V30 59 H 35.945840 36.362108 62.579821 0
M  V30 END ATOM
M  V30 BEGIN BOND
M  V30 1 1 8 1
M  V30 2 1 9 4
M  V30 3 1 10 4
M  V30 4 1 11 1
M  V30 5 2 11 2
M  V30 6 1 14 6
M  V30 7 1 14 10
M  V30 8 1 17 5
M  V30 9 1 17 9
M  V30 10 1 18 3
M  V30 11 1 18 7
M  V30 12 1 20 1
M  V30 13 2 21 11
M  V30 14 1 22 13
M  V30 15 1 23 6
M  V30 16 1 23 11
M  V30 17 1 23 17
M  V30 18 2 24 14
M  V30 19 1 24 19
M  V30 20 1 25 15
M  V30 21 1 25 22
M  V30 22 2 26 19
M  V30 23 2 27 10
M  V30 24 1 27 26
M  V30 25 1 28 15
M  V30 26 2 29 9
M  V30 27 1 29 12
M  V30 28 2 30 16
M  V30 29 1 30 18
M  V30 30 1 30 25
M  V30 31 1 31 20
M  V30 32 1 31 22
M  V30 33 1 32 8
M  V30 34 1 32 28
M  V30 35 1 32 31
M  V30 36 1 33 3
M  V30 37 1 34 4
M  V30 38 1 35 4
M  V30 39 1 36 5
M  V30 40 1 37 5
M  V30 41 1 38 5
M  V30 42 1 39 7
M  V30 43 1 40 8
M  V30 44 1 41 8
M  V30 45 1 42 12
M  V30 46 1 43 13
M  V30 47 1 44 15
M  V30 48 1 45 15
M  V30 49 1 46 18
M  V30 50 1 47 19
M  V30 51 1 48 20
M  V30 52 1 49 20
M  V30 53 1 22 50 CFG=1
M  V30 54 1 23 51 CFG=3
M  V30 55 1 52 24
M  V30 56 1 25 53 CFG=3
M  V30 57 1 54 26
M  V30 58 1 55 27
M  V30 59 1 56 29
M  V30 60 1 31 57 CFG=3
M  V30 61 1 32 58 CFG=3
M  V30 62 1 59 12
M  V30 END BOND
M  V30 END CTAB
M  END
>  <i_epik_Tot_Q>  (1) 
0

>  <i_epik_Tot_abs_Q>  (1) 
0

>  <i_i_glide_confnum>  (1) 
75

>  <i_i_glide_lignum>  (1) 
145

>  <i_i_glide_posenum>  (1) 
293

>  <i_i_glide_rotatable_bonds>  (1) 
7

>  <i_lp_mmshare_version>  (1) 
72125

>  <i_m_source_file_index>  (1) 
57

>  <i_f3d_flags>  (1) 
0

>  <num_sample>  (1) 
100

>  <b_lp_Chiralities_Consistent>  (1) 
1

>  <r_epik_Charging_Adjusted_Penalty>  (1) 
0.0073760756096081168

>  <r_epik_Ionization_Penalty>  (1) 
0.10489428414322399

>  <r_epik_Ionization_Penalty_Charging>  (1) 
0.0073760756096081168

>  <r_epik_Ionization_Penalty_Neutral>  (1) 
0.097518208533615869

>  <r_epik_State_Penalty>  (1) 
-0

>  <r_glide_ring_energy>  (1) 
0

>  <r_i_docking_score>  (1) 
-6.2915118058812167

>  <r_i_glide_ecoul>  (1) 
-6.0509689383968155

>  <r_i_glide_eff_state_penalty>  (1) 
-0

>  <r_i_glide_einternal>  (1) 
6.6536316427692439

>  <r_i_glide_emodel>  (1) 
-46.481675417640432

>  <r_i_glide_emodel_strain>  (1) 
2.1381147369131384

>  <r_i_glide_energy>  (1) 
-44.932260490476082

>  <r_i_glide_erotb>  (1) 
0.34464789498163795

>  <r_i_glide_esite>  (1) 
0

>  <r_i_glide_evdw>  (1) 
-38.881291552079269

>  <r_i_glide_gscore>  (1) 
-6.2915118058812167

>  <r_i_glide_gscore_strain>  (1) 
0

>  <r_i_glide_hbond>  (1) 
-0.21467924065637278

>  <r_i_glide_ligand_efficiency>  (1) 
-0.19660974393378802

>  <r_i_glide_ligand_efficiency_ln>  (1) 
-1.4088409934713888

>  <r_i_glide_ligand_efficiency_sa>  (1) 
-0.62419702869538696

>  <r_i_glide_lipo>  (1) 
-2.0652252140393861

>  <r_i_glide_metal>  (1) 
-0

>  <r_i_glide_rewards>  (1) 
-1.5045453278036109

>  <r_lp_Energy>  (1) 
30.746641

>  <r_lp_tautomer_probability>  (1) 
1

>  <s_epik_Chemistry_Notes>  (1) 
This compound has an imine and may undergo hydrolysis. This compound contains an acetal/aminal-like group ( X-CH(R)-Y where X, Y are N, S, or O) that may be acid/base labile, releasing an aldehyde.

>  <s_epik_cmdline>  (1) 
J2VwaWtfcHl0aG9uJywgJy1waHQnLCAnMS4wJywgJy1waCcsICc3LjQnLCAnLXRuJywgJzgnLCAnLW1hJywgJzUwMCcsICctaW1hZScsICc8aW5maWxlLm1hZT4nLCAnLW9tYWUnLCAnPG91dGZpbGUubWFlPic=

>  <s_epik_input>  (1) 
W2NIXTFbY0hdW2NIXVtjSF1jKGMxMilTW0NASF0oTihbQ0gzXSlbQ0BIXShbQ0gyXTIpXFtDSF09TlxbSF0pUyg9TykoPU8pTihbQ0gyXTMpW0NIMl1bQ0BIXShbQ0BASF0zNClPW0NIMl1bQ0BIXShbQ0BASF00W09IXSlDKD1PKVtDSF0oW09IXSlbT0hd

>  <s_glide_docking_method>  (1) 
confgen

>  <s_i_glide_gridfile>  (1) 
gpcr_5ht2c_6bqh_protein_autoprepared_prepared

>  <s_lp_Force_Field>  (1) 
S-OPLS

>  <s_lp_Variant>  (1) 
DiffSBDD_56_num_sample_100-1

>  <s_m_source_file>  (1) 
generated__ligand_DiffSBDD_2026-05-06_prepared.sdf

>  <GenAI_Model>  (1) 
DiffSBDD

>  <Protein>  (1) 
GPCR_5HT2C

$$$$
DiffSBDD_20_num_sample_100
     RDKit          3D

  0  0  0  0  0  0  0  0  0  0999 V3000
M  V30 BEGIN CTAB
M  V30 COUNTS 55 55 0 0 1
M  V30 BEGIN ATOM
M  V30 1 C 38.029267 25.861354 56.372593 0 CFG=1
M  V30 2 C 38.727037 27.940498 54.857271 0 CFG=2
M  V30 3 C 39.029512 28.748850 58.255768 0
M  V30 4 C 37.155639 23.621099 55.368786 0
M  V30 5 N 39.067343 28.183159 53.483135 0
M  V30 6 C 38.826619 30.617430 53.778353 0
M  V30 7 O 41.465022 30.022990 62.253299 0
M  V30 8 C 39.100147 30.236058 62.329858 0
M  V30 9 C 38.542222 30.579382 59.813693 0
M  V30 10 C 40.091696 30.812819 51.063089 0
M  V30 11 N 38.697071 29.161925 59.486856 0
M  V30 12 O 39.264228 29.519942 57.330391 0
M  V30 13 C 36.883661 25.809010 57.404566 0
M  V30 14 C 38.364083 24.419064 55.931117 0
M  V30 15 C 39.067580 29.341515 52.960909 0
M  V30 16 C 40.508244 30.826518 62.215539 0
M  V30 17 O 39.067899 27.221418 50.654331 0
M  V30 18 N 39.056750 27.398286 58.153296 0
M  V30 19 C 39.901789 27.366980 55.663950 0
M  V30 20 S 37.467411 26.697606 54.869922 0
M  V30 21 C 39.954076 28.317902 50.765028 0
M  V30 22 O 40.598738 32.067247 62.087422 0 CHG=-1
M  V30 23 C 39.300381 26.635184 56.889796 0 CFG=2
M  V30 24 C 39.302303 29.541973 51.448848 0 CFG=2
M  V30 25 C 38.132010 30.820896 61.278533 0
M  V30 26 H 38.255621 28.783826 55.349961 0
M  V30 27 H 37.467305 22.796978 54.729173 0
M  V30 28 H 36.552625 23.204273 56.174792 0
M  V30 29 H 36.488434 24.213917 54.744841 0
M  V30 30 H 39.029217 31.540340 53.245893 0
M  V30 31 H 38.727545 30.436592 63.334360 0
M  V30 32 H 39.152176 29.151113 62.243395 0
M  V30 33 H 39.467287 31.110573 59.598243 0
M  V30 34 H 37.786011 31.012798 59.156714 0
M  V30 35 H 39.492974 31.713538 51.181064 0
M  V30 36 H 41.004464 30.923135 51.646376 0
M  V30 37 H 40.379545 30.802537 50.011202 0
M  V30 38 H 38.522071 28.484585 60.212156 0
M  V30 39 H 37.167339 25.190955 58.253480 0
M  V30 40 H 36.622185 26.799139 57.774388 0
M  V30 41 H 35.972362 25.385678 56.981264 0
M  V30 42 H 39.143630 24.429081 55.168721 0
M  V30 43 H 38.792355 23.879194 56.776036 0
M  V30 44 H 39.467386 26.538361 50.131971 0
M  V30 45 H 38.855785 26.855942 58.978926 0
M  V30 46 H 40.417956 26.626008 55.050891 0
M  V30 47 H 40.663389 28.105432 55.914763 0
M  V30 48 H 40.849214 28.024457 51.307711 0
M  V30 49 H 40.265887 28.574133 49.754338 0
M  V30 50 H 40.042503 25.899177 57.202459 0
M  V30 51 H 38.311263 29.619685 51.017973 0
M  V30 52 H 38.035981 31.895399 61.440784 0
M  V30 53 H 37.132443 30.422592 61.441839 0
M  V30 54 H 37.790143 30.660574 54.112200 0
M  V30 55 H 39.470561 30.627209 54.658712 0
M  V30 END ATOM
M  V30 BEGIN BOND
M  V30 1 1 5 2
M  V30 2 1 11 3
M  V30 3 1 11 9
M  V30 4 2 12 3
M  V30 5 1 1 13 CFG=1
M  V30 6 1 14 1
M  V30 7 1 14 4
M  V30 8 2 15 5
M  V30 9 1 15 6
M  V30 10 2 16 7
M  V30 11 1 16 8
M  V30 12 1 18 3
M  V30 13 1 19 2
M  V30 14 1 20 1
M  V30 15 1 20 2
M  V30 16 1 21 17
M  V30 17 1 22 16
M  V30 18 1 23 1
M  V30 19 1 23 18
M  V30 20 1 23 19
M  V30 21 1 24 10
M  V30 22 1 24 15
M  V30 23 1 24 21
M  V30 24 1 25 8
M  V30 25 1 25 9
M  V30 26 1 2 26 CFG=1
M  V30 27 1 27 4
M  V30 28 1 28 4
M  V30 29 1 29 4
M  V30 30 1 30 6
M  V30 31 1 31 8
M  V30 32 1 32 8
M  V30 33 1 33 9
M  V30 34 1 34 9
M  V30 35 1 35 10
M  V30 36 1 36 10
M  V30 37 1 37 10
M  V30 38 1 38 11
M  V30 39 1 39 13
M  V30 40 1 40 13
M  V30 41 1 41 13
M  V30 42 1 42 14
M  V30 43 1 43 14
M  V30 44 1 44 17
M  V30 45 1 45 18
M  V30 46 1 46 19
M  V30 47 1 47 19
M  V30 48 1 48 21
M  V30 49 1 49 21
M  V30 50 1 23 50 CFG=1
M  V30 51 1 24 51 CFG=3
M  V30 52 1 52 25
M  V30 53 1 53 25
M  V30 54 1 54 6
M  V30 55 1 55 6
M  V30 END BOND
M  V30 END CTAB
M  END
>  <i_epik_Tot_Q>  (1) 
-1

>  <i_epik_Tot_abs_Q>  (1) 
1

>  <i_i_glide_confnum>  (1) 
870

>  <i_i_glide_lignum>  (1) 
56

>  <i_i_glide_posenum>  (1) 
185

>  <i_i_glide_rotatable_bonds>  (1) 
12

>  <i_lp_mmshare_version>  (1) 
72125

>  <i_m_source_file_index>  (1) 
21

>  <i_f3d_flags>  (1) 
0

>  <num_sample>  (1) 
100

>  <b_lp_Chiralities_Consistent>  (1) 
1

>  <r_epik_Charging_Adjusted_Penalty>  (1) 
0.43743025276339681

>  <r_epik_Ionization_Penalty>  (1) 
0.026773266926762091

>  <r_epik_Ionization_Penalty_Charging>  (1) 
0.0015534882308521432

>  <r_epik_Ionization_Penalty_Neutral>  (1) 
0.025219778695909949

>  <r_epik_State_Penalty>  (1) 
0.43587676453254465

>  <r_glide_ring_energy>  (1) 
0

>  <r_i_docking_score>  (1) 
-6.2867009740455879

>  <r_i_glide_ecoul>  (1) 
-4.0891678136421739

>  <r_i_glide_eff_state_penalty>  (1) 
0.43587676453254465

>  <r_i_glide_einternal>  (1) 
21.389451700475785

>  <r_i_glide_emodel>  (1) 
-41.886176817368323

>  <r_i_glide_emodel_strain>  (1) 
3.497630736377829

>  <r_i_glide_energy>  (1) 
-40.953818480074034

>  <r_i_glide_erotb>  (1) 
1.2527341714622291

>  <r_i_glide_esite>  (1) 
-4.4637726774260368e-05

>  <r_i_glide_evdw>  (1) 
-36.864650666431864

>  <r_i_glide_gscore>  (1) 
-6.7225777385781322

>  <r_i_glide_gscore_strain>  (1) 
0

>  <r_i_glide_hbond>  (1) 
-0.47999999999999998

>  <r_i_glide_ligand_efficiency>  (1) 
-0.25146803896182351

>  <r_i_glide_ligand_efficiency_ln>  (1) 
-1.4901365280742735

>  <r_i_glide_ligand_efficiency_sa>  (1) 
-0.73529700651797614

>  <r_i_glide_lipo>  (1) 
-3.3332186067236926

>  <r_i_glide_metal>  (1) 
-0

>  <r_i_glide_rewards>  (1) 
-1.7054409602219751

>  <r_lp_Energy>  (1) 
19.737282

>  <r_lp_tautomer_probability>  (1) 
0.49999399997599986

>  <s_epik_Chemistry_Notes>  (1) 
This compound has an imine and may undergo hydrolysis. This compound contains an acetal/aminal-like group ( X-CH(R)-Y where X, Y are N, S, or O) that may be acid/base labile, releasing an aldehyde.

>  <s_epik_cmdline>  (1) 
J2VwaWtfcHl0aG9uJywgJy1waHQnLCAnMS4wJywgJy1waCcsICc3LjQnLCAnLXRuJywgJzgnLCAnLW1hJywgJzUwMCcsICctaW1hZScsICc8aW5maWxlLm1hZT4nLCAnLW9tYWUnLCAnPG91dGZpbGUubWFlPic=

>  <s_epik_input>  (1) 
W09IXVtDSDJdW0NAQEhdKFtDSDNdKUMoPVtDSDJdKVtOSF1bQ0BASF0oU1tDQEBdMShbQ0gzXSlbQ0gyXVtDSDNdKVtDSDJdW0NASF0xW05IXUMoPU8pW05IXVtDSDJdW0NIMl1bQ0gyXUMoPU8pW09IXQ==

>  <s_glide_docking_method>  (1) 
confgen

>  <s_i_glide_gridfile>  (1) 
gpcr_5ht2c_6bqh_protein_autoprepared_prepared

>  <s_lp_Force_Field>  (1) 
S-OPLS

>  <s_lp_Variant>  (1) 
DiffSBDD_20_num_sample_100-4

>  <s_m_source_file>  (1) 
generated__ligand_DiffSBDD_2026-05-06_prepared.sdf

>  <GenAI_Model>  (1) 
DiffSBDD

>  <Protein>  (1) 
GPCR_5HT2C

$$$$
DiffSBDD_90_num_sample_100
     RDKit          3D

  0  0  0  0  0  0  0  0  0  0999 V3000
M  V30 BEGIN CTAB
M  V30 COUNTS 85 88 0 0 1
M  V30 BEGIN ATOM
M  V30 1 C 39.962899 27.908465 59.791597 0
M  V30 2 O 39.867411 37.542046 63.875358 0
M  V30 3 F 38.261572 23.635465 55.454850 0
M  V30 4 C 38.416624 29.785047 54.835087 0 CFG=1
M  V30 5 C 38.114422 36.201860 61.692166 0 CFG=2
M  V30 6 C 39.196882 34.259834 60.613531 0 CFG=1
M  V30 7 C 39.993797 31.017471 52.326880 0
M  V30 8 C 38.441042 31.862855 60.570950 0
M  V30 9 C 38.768901 31.285345 54.568681 0
M  V30 10 N 40.001727 36.208537 63.367726 0
M  V30 11 C 37.604167 24.914127 57.231585 0
M  V30 12 C 37.507676 32.150095 54.758352 0
M  V30 13 C 37.909682 34.725322 61.294962 0
M  V30 14 C 40.314888 35.100976 61.235107 0
M  V30 15 O 37.958689 38.411527 60.780459 0
M  V30 16 N 38.752728 28.360999 59.062232 0 CFG=2 CHG=1
M  V30 17 C 39.419495 32.767937 60.712876 0
M  V30 18 F 39.515935 23.698300 57.233276 0
M  V30 19 C 38.650432 26.468787 54.929122 0 CFG=1
M  V30 20 N 38.864859 27.929624 57.633380 0
M  V30 21 C 36.722109 25.750269 56.328490 0
M  V30 22 C 38.495373 29.815378 59.222089 0
M  V30 23 O 39.064111 31.623120 53.207542 0
M  V30 24 C 39.906445 31.832553 55.443115 0
M  V30 25 C 40.001058 28.368274 61.258548 0
M  V30 26 C 39.570404 25.540637 55.731923 0
M  V30 27 C 38.639795 30.366601 60.651741 0 CFG=1
M  V30 28 C 39.654532 36.296552 61.952469 0 CFG=1
M  V30 29 C 39.628907 28.873040 54.801380 0
M  V30 30 O 37.056508 36.746147 59.611459 0 CHG=-1
M  V30 31 C 37.677162 28.133735 56.798322 0 CFG=1
M  V30 32 C 39.943466 29.893863 61.316801 0
M  V30 33 O 37.302952 36.461524 62.822807 0
M  V30 34 C 37.607732 29.548012 56.125717 0
M  V30 35 C 37.467446 26.972604 55.751899 0 CFG=1
M  V30 36 C 39.359314 27.529281 54.100690 0
M  V30 37 C 38.762826 24.418540 56.409181 0
M  V30 38 C 37.674108 37.205284 60.596045 0
M  V30 39 H 40.850894 28.283204 59.280105 0
M  V30 40 H 40.002226 26.822355 59.724732 0
M  V30 41 H 40.732476 37.740508 64.253402 0
M  V30 42 H 37.757493 29.521885 54.014941 0
M  V30 43 H 39.130590 34.454064 59.546829 0
M  V30 44 H 40.213818 31.747562 51.552386 0
M  V30 45 H 40.921653 30.807283 52.835911 0
M  V30 46 H 39.599459 30.161073 51.778963 0
M  V30 47 H 37.431190 32.199801 60.378397 0
M  V30 48 H 39.270727 35.733338 63.882869 0
M  V30 49 H 37.048941 24.067654 57.627384 0
M  V30 50 H 37.960018 25.481027 58.088263 0
M  V30 51 H 37.284434 32.306609 55.812135 0
M  V30 52 H 37.594933 33.142065 54.311709 0
M  V30 53 H 36.644370 31.679606 54.292003 0
M  V30 54 H 37.025494 34.524413 60.690690 0
M  V30 55 H 37.794269 34.132608 62.194572 0
M  V30 56 H 41.002104 35.450741 60.466653 0
M  V30 57 H 40.907963 34.503612 61.928039 0
M  V30 58 H 40.430033 32.440974 60.903283 0
M  V30 59 H 38.223011 25.821926 54.160828 0
M  V30 60 H 39.009022 26.935701 57.772293 0
M  V30 61 H 36.335417 25.132631 55.512814 0
M  V30 62 H 35.870725 26.020934 56.917160 0
M  V30 63 H 37.474959 30.024709 58.894371 0
M  V30 64 H 39.193879 30.355880 58.581195 0
M  V30 65 H 39.875883 31.451158 56.458533 0
M  V30 66 H 40.883568 31.604901 55.019631 0
M  V30 67 H 39.844659 32.916080 55.510916 0
M  V30 68 H 40.920034 28.021014 61.732791 0
M  V30 69 H 39.178285 27.936328 61.829815 0
M  V30 70 H 40.249791 25.083700 55.021498 0
M  V30 71 H 40.180388 26.087921 56.450127 0
M  V30 72 H 37.820527 30.032242 61.279673 0
M  V30 73 H 40.064769 37.210302 61.515916 0
M  V30 74 H 40.146897 28.814430 55.758105 0
M  V30 75 H 40.271470 29.433798 54.180390 0
M  V30 76 H 36.837601 28.090452 57.492789 0
M  V30 77 H 40.818135 30.295769 60.806953 0
M  V30 78 H 39.993489 30.226743 62.353902 0
M  V30 79 H 36.411705 36.508711 62.516752 0
M  V30 80 H 36.559124 29.778742 55.924700 0
M  V30 81 H 37.901340 30.328722 56.806100 0
M  V30 82 H 36.823199 27.348509 54.956640 0
M  V30 83 H 38.810567 27.704575 53.172756 0
M  V30 84 H 40.267356 27.063209 53.757321 0
M  V30 85 H 37.961278 27.866448 59.449446 0
M  V30 END ATOM
M  V30 BEGIN BOND
M  V30 1 1 9 4
M  V30 2 1 10 2
M  V30 3 1 12 9
M  V30 4 1 13 5
M  V30 5 1 13 6
M  V30 6 1 14 6
M  V30 7 1 16 1
M  V30 8 1 17 6
M  V30 9 2 17 8
M  V30 10 1 20 16
M  V30 11 1 21 11
M  V30 12 1 22 16
M  V30 13 1 23 7
M  V30 14 1 23 9
M  V30 15 1 24 9
M  V30 16 1 25 1
M  V30 17 1 26 19
M  V30 18 1 27 8
M  V30 19 1 27 22
M  V30 20 1 28 5
M  V30 21 1 28 10
M  V30 22 1 28 14
M  V30 23 1 29 4
M  V30 24 1 31 20
M  V30 25 1 32 25
M  V30 26 1 32 27
M  V30 27 1 5 33 CFG=1
M  V30 28 1 34 4
M  V30 29 1 34 31
M  V30 30 1 35 19
M  V30 31 1 35 21
M  V30 32 1 35 31
M  V30 33 1 36 19
M  V30 34 1 36 29
M  V30 35 1 37 3
M  V30 36 1 37 11
M  V30 37 1 37 18
M  V30 38 1 37 26
M  V30 39 1 38 5
M  V30 40 2 38 15
M  V30 41 1 38 30
M  V30 42 1 39 1
M  V30 43 1 40 1
M  V30 44 1 41 2
M  V30 45 1 4 42 CFG=3
M  V30 46 1 6 43 CFG=3
M  V30 47 1 44 7
M  V30 48 1 45 7
M  V30 49 1 46 7
M  V30 50 1 47 8
M  V30 51 1 48 10
M  V30 52 1 49 11
M  V30 53 1 50 11
M  V30 54 1 51 12
M  V30 55 1 52 12
M  V30 56 1 53 12
M  V30 57 1 54 13
M  V30 58 1 55 13
M  V30 59 1 56 14
M  V30 60 1 57 14
M  V30 61 1 58 17
M  V30 62 1 19 59 CFG=3
M  V30 63 1 60 20
M  V30 64 1 61 21
M  V30 65 1 62 21
M  V30 66 1 63 22
M  V30 67 1 64 22
M  V30 68 1 65 24
M  V30 69 1 66 24
M  V30 70 1 67 24
M  V30 71 1 68 25
M  V30 72 1 69 25
M  V30 73 1 70 26
M  V30 74 1 71 26
M  V30 75 1 27 72 CFG=1
M  V30 76 1 28 73 CFG=3
M  V30 77 1 74 29
M  V30 78 1 75 29
M  V30 79 1 31 76 CFG=1
M  V30 80 1 77 32
M  V30 81 1 78 32
M  V30 82 1 79 33
M  V30 83 1 80 34
M  V30 84 1 81 34
M  V30 85 1 35 82 CFG=3
M  V30 86 1 83 36
M  V30 87 1 84 36
M  V30 88 1 16 85 CFG=1
M  V30 END BOND
M  V30 END CTAB
M  END
>  <i_epik_Tot_Q>  (1) 
0

>  <i_epik_Tot_abs_Q>  (1) 
2

>  <i_i_glide_confnum>  (1) 
250

>  <i_i_glide_lignum>  (1) 
244

>  <i_i_glide_posenum>  (1) 
341

>  <i_i_glide_rotatable_bonds>  (1) 
10

>  <i_lp_mmshare_version>  (1) 
72125

>  <i_m_source_file_index>  (1) 
91

>  <i_f3d_flags>  (1) 
0

>  <num_sample>  (1) 
100

>  <b_lp_Chiralities_Consistent>  (1) 
1

>  <r_epik_Charging_Adjusted_Penalty>  (1) 
1.5083745474312953

>  <r_epik_Ionization_Penalty>  (1) 
0.65750586125956467

>  <r_epik_Ionization_Penalty_Charging>  (1) 
0.6544614066189578

>  <r_epik_Ionization_Penalty_Neutral>  (1) 
0.0030444546406068235

>  <r_epik_State_Penalty>  (1) 
0.8539131408123376

>  <r_glide_ring_energy>  (1) 
0.35261698705859396

>  <r_i_docking_score>  (1) 
-6.2861572626920621

>  <r_i_glide_ecoul>  (1) 
-6.3995288090848046

>  <r_i_glide_eff_state_penalty>  (1) 
0.8539131408123376

>  <r_i_glide_einternal>  (1) 
29.257455515593595

>  <r_i_glide_emodel>  (1) 
-87.412360267275602

>  <r_i_glide_emodel_strain>  (1) 
3.7056414232882702

>  <r_i_glide_energy>  (1) 
-19.542703919126687

>  <r_i_glide_erotb>  (1) 
0.42002339013477186

>  <r_i_glide_esite>  (1) 
-0.057003701263153218

>  <r_i_glide_evdw>  (1) 
-13.143175110041884

>  <r_i_glide_gscore>  (1) 
-7.1400704035043994

>  <r_i_glide_gscore_strain>  (1) 
0

>  <r_i_glide_hbond>  (1) 
-0.28318497537708104

>  <r_i_glide_ligand_efficiency>  (1) 
-0.16542519112347531

>  <r_i_glide_ligand_efficiency_ln>  (1) 
-1.3554804258478599

>  <r_i_glide_ligand_efficiency_sa>  (1) 
-0.55615542422214226

>  <r_i_glide_lipo>  (1) 
-4.5363168260736408

>  <r_i_glide_metal>  (1) 
-0

>  <r_i_glide_rewards>  (1) 
-1.0665002140604805

>  <r_lp_Energy>  (1) 
53.976785999999997

>  <s_epik_Chemistry_Notes>  (1) 
This compound has a N-S or N-O group and may undergo hydrolysis at high or low pH.

>  <s_epik_cmdline>  (1) 
J2VwaWtfcHl0aG9uJywgJy1waHQnLCAnMS4wJywgJy1waCcsICc3LjQnLCAnLXRuJywgJzgnLCAnLW1hJywgJzUwMCcsICctaW1hZScsICc8aW5maWxlLm1hZT4nLCAnLW9tYWUnLCAnPG91dGZpbGUubWFlPic=

>  <s_epik_input>  (1) 
RkMoRikoW0NIMl0xKVtDSDJdW0NIMl1bQ0BIXShbQ0BASF0xMilbQ0BIXShbQ0gyXVtDQEhdKFtDSDJdW0NIMl0yKUMoW0NIM10pKFtDSDNdKU9bQ0gzXSlbTkhdTjNbQ0gyXVtDSDJdW0NIMl1bQ0BIXShbQ0gyXTMpL1tDSF09W0NIXS9bQ0BASF0oW0NIMl1bQ0BdNChbT0hdKUMoPU8pW09IXSlbQ0gyXVtDQEBIXTRbTkhdW09IXQ==

>  <s_glide_docking_method>  (1) 
confgen

>  <s_i_glide_gridfile>  (1) 
gpcr_5ht2c_6bqh_protein_autoprepared_prepared

>  <s_lp_Force_Field>  (1) 
S-OPLS

>  <s_lp_Variant>  (1) 
DiffSBDD_90_num_sample_100-16

>  <s_m_source_file>  (1) 
generated__ligand_DiffSBDD_2026-05-06_prepared.sdf

>  <GenAI_Model>  (1) 
DiffSBDD

>  <Protein>  (1) 
GPCR_5HT2C

$$$$
DiffSBDD_44_num_sample_100
     RDKit          3D

  0  0  0  0  0  0  0  0  0  0999 V3000
M  V30 BEGIN CTAB
M  V30 COUNTS 58 59 0 0 1
M  V30 BEGIN ATOM
M  V30 1 C 37.688141 26.482081 54.861943 0
M  V30 2 O 39.806098 30.021445 56.826023 0 CHG=-1
M  V30 3 C 38.643307 33.508743 61.388042 0
M  V30 4 C 38.339136 28.856219 54.878494 0 CFG=1
M  V30 5 N 38.465485 28.314928 56.262332 0 CFG=1 CHG=1
M  V30 6 C 36.625078 33.414418 59.987583 0
M  V30 7 N 38.689152 30.539998 60.034801 0
M  V30 8 C 37.761449 32.765412 60.770459 0
M  V30 9 O 37.867404 30.823978 62.253500 0
M  V30 10 C 37.703559 27.753508 54.009634 0 CFG=1
M  V30 11 C 38.403465 27.580047 52.653538 0
M  V30 12 C 39.388085 28.624951 58.621282 0 CFG=1
M  V30 13 C 38.346402 29.594790 59.239783 0
M  V30 14 C 38.352331 26.837159 56.185640 0
M  V30 15 C 39.168382 30.580547 62.783502 0
M  V30 16 C 38.463346 35.968236 61.503323 0
M  V30 17 C 39.639063 28.756566 57.081927 0 CFG=2
M  V30 18 C 37.743022 31.241851 60.895889 0 CFG=2
M  V30 19 F 36.812023 37.129283 60.346629 0
M  V30 20 C 37.387936 35.927149 60.373711 0 CFG=2
M  V30 21 C 39.125127 34.638787 61.830370 0
M  V30 22 C 40.729070 28.654738 59.390760 0
M  V30 23 C 36.895959 29.333391 58.836109 0
M  V30 24 C 37.484090 30.144619 54.850842 0
M  V30 25 C 36.267508 34.854555 60.461923 0
M  V30 26 H 38.196671 25.648210 54.375258 0
M  V30 27 H 36.667403 26.160586 55.053400 0
M  V30 28 H 39.338880 29.070495 54.496067 0
M  V30 29 H 36.889149 33.412968 58.928843 0
M  V30 30 H 35.723504 32.807833 60.072499 0
M  V30 31 H 36.667337 28.013505 53.800329 0
M  V30 32 H 39.445520 27.281772 52.773665 0
M  V30 33 H 37.905415 26.821436 52.051245 0
M  V30 34 H 38.384762 28.509135 52.083145 0
M  V30 35 H 39.000577 27.621451 58.797827 0
M  V30 36 H 39.333318 26.360571 56.199417 0
M  V30 37 H 37.796019 26.444233 57.036985 0
M  V30 38 H 39.089321 30.421445 63.858435 0
M  V30 39 H 39.604987 29.677331 62.357344 0
M  V30 40 H 39.856083 31.408818 62.621320 0
M  V30 41 H 38.007745 36.337504 62.422893 0
M  V30 42 H 39.241047 36.683900 61.237834 0
M  V30 43 H 40.455392 28.073820 56.841403 0
M  V30 44 H 36.710716 30.981194 60.687533 0
M  V30 45 H 37.867384 35.824568 59.409806 0
M  V30 46 H 39.971317 34.665054 62.500622 0
M  V30 47 H 40.584647 28.456688 60.452980 0
M  V30 48 H 41.419424 27.898365 59.016625 0
M  V30 49 H 41.223671 29.621206 59.291049 0
M  V30 50 H 36.792873 28.421557 58.253487 0
M  V30 51 H 36.246720 29.221430 59.701024 0
M  V30 52 H 36.523744 30.164849 58.237631 0
M  V30 53 H 37.467398 30.571143 53.853494 0
M  V30 54 H 36.453522 29.966659 55.159358 0
M  V30 55 H 37.873911 30.924583 55.503728 0
M  V30 56 H 35.448374 35.189497 59.827451 0
M  V30 57 H 35.867681 34.821302 61.476777 0
M  V30 58 H 37.650776 28.670677 56.737996 0
M  V30 END ATOM
M  V30 BEGIN BOND
M  V30 1 1 5 4
M  V30 2 2 8 3
M  V30 3 1 8 6
M  V30 4 1 10 1
M  V30 5 1 10 4
M  V30 6 1 11 10
M  V30 7 2 13 7
M  V30 8 1 13 12
M  V30 9 1 14 1
M  V30 10 1 14 5
M  V30 11 1 15 9
M  V30 12 1 17 2
M  V30 13 1 17 5
M  V30 14 1 17 12
M  V30 15 1 18 7
M  V30 16 1 18 8
M  V30 17 1 18 9
M  V30 18 1 20 16
M  V30 19 1 20 19
M  V30 20 2 21 3
M  V30 21 1 21 16
M  V30 22 1 22 12
M  V30 23 1 23 13
M  V30 24 1 24 4
M  V30 25 1 25 6
M  V30 26 1 25 20
M  V30 27 1 26 1
M  V30 28 1 27 1
M  V30 29 1 4 28 CFG=3
M  V30 30 1 29 6
M  V30 31 1 30 6
M  V30 32 1 10 31 CFG=3
M  V30 33 1 32 11
M  V30 34 1 33 11
M  V30 35 1 34 11
M  V30 36 1 12 35 CFG=3
M  V30 37 1 36 14
M  V30 38 1 37 14
M  V30 39 1 38 15
M  V30 40 1 39 15
M  V30 41 1 40 15
M  V30 42 1 41 16
M  V30 43 1 42 16
M  V30 44 1 17 43 CFG=3
M  V30 45 1 18 44 CFG=3
M  V30 46 1 20 45 CFG=3
M  V30 47 1 46 21
M  V30 48 1 47 22
M  V30 49 1 48 22
M  V30 50 1 49 22
M  V30 51 1 50 23
M  V30 52 1 51 23
M  V30 53 1 52 23
M  V30 54 1 53 24
M  V30 55 1 54 24
M  V30 56 1 55 24
M  V30 57 1 56 25
M  V30 58 1 57 25
M  V30 59 1 5 58 CFG=1
M  V30 END BOND
M  V30 END CTAB
M  END
>  <i_epik_Tot_Q>  (1) 
0

>  <i_epik_Tot_abs_Q>  (1) 
2

>  <i_i_glide_confnum>  (1) 
12

>  <i_i_glide_lignum>  (1) 
116

>  <i_i_glide_posenum>  (1) 
90

>  <i_i_glide_rotatable_bonds>  (1) 
6

>  <i_lp_mmshare_version>  (1) 
72125

>  <i_m_source_file_index>  (1) 
45

>  <i_f3d_flags>  (1) 
0

>  <num_sample>  (1) 
100

>  <b_lp_Chiralities_Consistent>  (1) 
1

>  <r_epik_Charging_Adjusted_Penalty>  (1) 
0.41733257654759531

>  <r_epik_Ionization_Penalty>  (1) 
0.0069177268181324029

>  <r_epik_Ionization_Penalty_Charging>  (1) 
0.0066527375949913311

>  <r_epik_Ionization_Penalty_Neutral>  (1) 
0.00026498922314107146

>  <r_epik_State_Penalty>  (1) 
0.41067983895260396

>  <r_glide_ring_energy>  (1) 
0

>  <r_i_docking_score>  (1) 
-6.2843471471968444

>  <r_i_glide_ecoul>  (1) 
-2.9529851031887784

>  <r_i_glide_eff_state_penalty>  (1) 
0.41067983895260396

>  <r_i_glide_einternal>  (1) 
7.6623609020401702

>  <r_i_glide_emodel>  (1) 
-43.638027562753258

>  <r_i_glide_emodel_strain>  (1) 
3.5211850431699148

>  <r_i_glide_energy>  (1) 
-34.020740822140141

>  <r_i_glide_erotb>  (1) 
0.61440649929112812

>  <r_i_glide_esite>  (1) 
0

>  <r_i_glide_evdw>  (1) 
-31.067755718951361

>  <r_i_glide_gscore>  (1) 
-6.6950269861494487

>  <r_i_glide_gscore_strain>  (1) 
0

>  <r_i_glide_hbond>  (1) 
-0.18567727782406382

>  <r_i_glide_ligand_efficiency>  (1) 
-0.25137388588787379

>  <r_i_glide_ligand_efficiency_ln>  (1) 
-1.4895786005726228

>  <r_i_glide_ligand_efficiency_sa>  (1) 
-0.73502170125963984

>  <r_i_glide_lipo>  (1) 
-2.6694396986782478

>  <r_i_glide_metal>  (1) 
-0

>  <r_i_glide_rewards>  (1) 
-2.4579809575123805

>  <r_lp_Energy>  (1) 
7.1252040000000001

>  <r_lp_tautomer_probability>  (1) 
0.49999399997599986

>  <s_epik_Chemistry_Notes>  (1) 
This compound has an imine and may undergo hydrolysis. This compound contains an acetal/aminal-like group ( X-CH(R)-Y where X, Y are N, S, or O) that may be acid/base labile, releasing an aldehyde.

>  <s_epik_cmdline>  (1) 
J2VwaWtfcHl0aG9uJywgJy1waHQnLCAnMS4wJywgJy1waCcsICc3LjQnLCAnLXRuJywgJzgnLCAnLW1hJywgJzUwMCcsICctaW1hZScsICc8aW5maWxlLm1hZT4nLCAnLW9tYWUnLCAnPG91dGZpbGUubWFlPic=

>  <s_epik_input>  (1) 
W0NIM11bQ0BIXTFbQ0gyXVtDSDJdTihbQ0BASF0xW0NIM10pW0NAQEhdKFtPSF0pW0NAQEhdKFtDSDNdKVxDKFtDSDNdKT1OXFtDQEBIXShPW0NIM10pQzI9Qz1bQ0hdW0NIMl1bQ0BASF0oRilbQ0gyXVtDSDJdMg==

>  <s_glide_docking_method>  (1) 
confgen

>  <s_i_glide_gridfile>  (1) 
gpcr_5ht2c_6bqh_protein_autoprepared_prepared

>  <s_lp_Force_Field>  (1) 
S-OPLS

>  <s_lp_Variant>  (1) 
DiffSBDD_44_num_sample_100-9

>  <s_m_source_file>  (1) 
generated__ligand_DiffSBDD_2026-05-06_prepared.sdf

>  <GenAI_Model>  (1) 
DiffSBDD

>  <Protein>  (1) 
GPCR_5HT2C

$$$$
DiffSBDD_1_num_sample_100
     RDKit          3D

  0  0  0  0  0  0  0  0  0  0999 V3000
M  V30 BEGIN CTAB
M  V30 COUNTS 63 66 0 0 1
M  V30 BEGIN ATOM
M  V30 1 C 39.089309 26.225274 56.659509 0
M  V30 2 C 38.783106 34.189018 60.059086 0
M  V30 3 O 37.918870 24.389718 56.130643 0
M  V30 4 C 38.349776 32.423385 58.275963 0 CFG=1
M  V30 5 C 39.606679 27.595781 56.464362 0
M  V30 6 C 37.776960 30.166056 57.725321 0
M  V30 7 C 34.978340 34.120527 59.592682 0
M  V30 8 C 38.857902 35.348823 62.067242 0
M  V30 9 N 37.446087 35.245986 61.615166 0 CHG=1
M  V30 10 C 38.366065 32.005098 54.480611 0
M  V30 11 C 39.161948 28.370967 55.217478 0
M  V30 12 C 36.345171 34.803551 59.385720 0 CFG=2
M  V30 13 C 37.342736 34.306942 60.471270 0 CFG=1
M  V30 14 C 37.909609 30.449577 56.204065 0 CFG=2
M  V30 15 C 39.047802 30.678307 54.111310 0
M  V30 16 C 38.314439 25.629903 55.807686 0
M  V30 17 N 38.655768 31.018428 58.531508 0
M  V30 18 C 39.223534 33.348062 59.108160 0
M  V30 19 O 40.371682 28.132800 57.265080 0
M  V30 20 C 36.233996 36.344805 59.323126 0
M  V30 21 C 38.573268 24.214119 57.453169 0
M  V30 22 C 38.632909 32.741362 56.799277 0
M  V30 23 C 39.704812 35.080643 60.831680 0
M  V30 24 N 37.867446 31.885656 55.865471 0 CFG=1 CHG=1
M  V30 25 O 36.720844 30.021438 55.564217 0
M  V30 26 C 39.450507 25.490798 57.866845 0
M  V30 27 C 39.123183 29.900012 55.427829 0 CFG=2
M  V30 28 O 35.021141 32.711763 59.453506 0
M  V30 29 H 37.298904 32.574814 58.486659 0
M  V30 30 H 37.950413 29.114960 57.948177 0
M  V30 31 H 36.744659 30.346281 58.030771 0
M  V30 32 H 34.222461 34.517871 58.915559 0
M  V30 33 H 34.667266 34.319897 60.613048 0
M  V30 34 H 39.067478 34.576405 62.808051 0
M  V30 35 H 39.071447 36.315392 62.526057 0
M  V30 36 H 37.170606 36.156389 61.276923 0
M  V30 37 H 39.067332 32.821430 54.384514 0
M  V30 38 H 37.505903 32.210530 53.853409 0
M  V30 39 H 38.180380 28.043747 54.881253 0
M  V30 40 H 39.859726 28.127327 54.419670 0
M  V30 41 H 36.686793 34.519712 58.393346 0
M  V30 42 H 37.059760 33.330645 60.868495 0
M  V30 43 H 40.031878 30.825392 53.662964 0
M  V30 44 H 38.433335 30.139336 53.388920 0
M  V30 45 H 37.935114 25.993515 54.864597 0
M  V30 46 H 38.484040 30.809152 59.511020 0
M  V30 47 H 40.267403 33.328032 58.890928 0
M  V30 48 H 35.898192 36.797377 60.253485 0
M  V30 49 H 37.187137 36.799926 59.051983 0
M  V30 50 H 35.502536 36.653474 58.580830 0
M  V30 51 H 37.797198 24.038615 58.198903 0
M  V30 52 H 39.208272 23.328758 57.453299 0
M  V30 53 H 38.387010 33.782449 56.586742 0
M  V30 54 H 39.701666 32.621524 56.604704 0
M  V30 55 H 40.665553 34.615738 61.058661 0
M  V30 56 H 39.875393 35.997955 60.269462 0
M  V30 57 H 35.981707 30.367470 56.062919 0
M  V30 58 H 40.519708 25.284972 57.914705 0
M  V30 59 H 39.100112 25.985626 58.772815 0
M  V30 60 H 40.029804 30.230430 55.936073 0
M  V30 61 H 35.067396 32.469899 58.524708 0
M  V30 62 H 36.829925 34.977526 62.369899 0
M  V30 63 H 36.895237 32.183055 55.927527 0
M  V30 END ATOM
M  V30 BEGIN BOND
M  V30 1 1 5 1
M  V30 2 1 9 8
M  V30 3 1 11 5
M  V30 4 1 12 7
M  V30 5 1 13 2
M  V30 6 1 13 9
M  V30 7 1 13 12
M  V30 8 1 14 6
M  V30 9 1 15 10
M  V30 10 2 16 1
M  V30 11 1 16 3
M  V30 12 1 17 4
M  V30 13 1 17 6
M  V30 14 2 18 2
M  V30 15 1 18 4
M  V30 16 2 19 5
M  V30 17 1 20 12
M  V30 18 1 21 3
M  V30 19 1 22 4
M  V30 20 1 23 2
M  V30 21 1 23 8
M  V30 22 1 24 10
M  V30 23 1 24 14
M  V30 24 1 24 22
M  V30 25 1 14 25 CFG=3
M  V30 26 1 26 1
M  V30 27 1 26 21
M  V30 28 1 27 11
M  V30 29 1 27 14
M  V30 30 1 27 15
M  V30 31 1 28 7
M  V30 32 1 4 29 CFG=1
M  V30 33 1 30 6
M  V30 34 1 31 6
M  V30 35 1 32 7
M  V30 36 1 33 7
M  V30 37 1 34 8
M  V30 38 1 35 8
M  V30 39 1 36 9
M  V30 40 1 37 10
M  V30 41 1 38 10
M  V30 42 1 39 11
M  V30 43 1 40 11
M  V30 44 1 12 41 CFG=3
M  V30 45 1 13 42 CFG=1
M  V30 46 1 43 15
M  V30 47 1 44 15
M  V30 48 1 45 16
M  V30 49 1 46 17
M  V30 50 1 47 18
M  V30 51 1 48 20
M  V30 52 1 49 20
M  V30 53 1 50 20
M  V30 54 1 51 21
M  V30 55 1 52 21
M  V30 56 1 53 22
M  V30 57 1 54 22
M  V30 58 1 55 23
M  V30 59 1 56 23
M  V30 60 1 57 25
M  V30 61 1 58 26
M  V30 62 1 59 26
M  V30 63 1 27 60 CFG=1
M  V30 64 1 61 28
M  V30 65 1 62 9
M  V30 66 1 24 63 CFG=3
M  V30 END BOND
M  V30 END CTAB
M  END
>  <i_epik_Tot_Q>  (1) 
2

>  <i_epik_Tot_abs_Q>  (1) 
2

>  <i_i_glide_confnum>  (1) 
486

>  <i_i_glide_lignum>  (1) 
14

>  <i_i_glide_posenum>  (1) 
100

>  <i_i_glide_rotatable_bonds>  (1) 
8

>  <i_lp_mmshare_version>  (1) 
72125

>  <i_m_source_file_index>  (1) 
2

>  <i_f3d_flags>  (1) 
0

>  <num_sample>  (1) 
100

>  <b_lp_Chiralities_Consistent>  (1) 
1

>  <r_epik_Charging_Adjusted_Penalty>  (1) 
2.3622130296898831

>  <r_epik_Ionization_Penalty>  (1) 
1.4312966064593899

>  <r_epik_Ionization_Penalty_Charging>  (1) 
1.1852885594971458

>  <r_epik_Ionization_Penalty_Neutral>  (1) 
0.24600804696224418

>  <r_epik_State_Penalty>  (1) 
1.176924470192737

>  <r_glide_ring_energy>  (1) 
0

>  <r_i_docking_score>  (1) 
-6.2821438771383535

>  <r_i_glide_ecoul>  (1) 
-11.568133288076359

>  <r_i_glide_eff_state_penalty>  (1) 
1.176924470192737

>  <r_i_glide_einternal>  (1) 
17.770466644376931

>  <r_i_glide_emodel>  (1) 
-51.218279439548098

>  <r_i_glide_emodel_strain>  (1) 
1.1123801936504805

>  <r_i_glide_energy>  (1) 
-37.715147399468073

>  <r_i_glide_erotb>  (1) 
0.75687532201182384

>  <r_i_glide_esite>  (1) 
-0.17991626101844124

>  <r_i_glide_evdw>  (1) 
-26.147014111391716

>  <r_i_glide_gscore>  (1) 
-7.4590683473310904

>  <r_i_glide_gscore_strain>  (1) 
0

>  <r_i_glide_hbond>  (1) 
-0.6253556441129533

>  <r_i_glide_ligand_efficiency>  (1) 
-0.22436228132636976

>  <r_i_glide_ligand_efficiency_ln>  (1) 
-1.4501032586026945

>  <r_i_glide_ligand_efficiency_sa>  (1) 
-0.68129602918051946

>  <r_i_glide_lipo>  (1) 
-2.4877318381653768

>  <r_i_glide_metal>  (1) 
-0

>  <r_i_glide_rewards>  (1) 
-1.8803692272651045

>  <r_lp_Energy>  (1) 
20.193497000000001

>  <s_epik_cmdline>  (1) 
J2VwaWtfcHl0aG9uJywgJy1waHQnLCAnMS4wJywgJy1waCcsICc3LjQnLCAnLXRuJywgJzgnLCAnLW1hJywgJzUwMCcsICctaW1hZScsICc8aW5maWxlLm1hZT4nLCAnLW9tYWUnLCAnPG91dGZpbGUubWFlPic=

>  <s_epik_input>  (1) 
W0NIMl0xW0NIMl1PW0NIXT1DMUMoPU8pW0NIMl1bQ0BIXTJbQ0gyXVtDSDJdTihbQ0BAXTIzW09IXSlbQ0gyXVtDQEBIXShbTkhdW0NIMl0zKS9bQ0hdPUM0XFtDQEBIXShbTkhdW0NIMl1bQ0gyXTQpW0NASF0oW0NIM10pW0NIMl1bT0hd

>  <s_glide_docking_method>  (1) 
confgen

>  <s_i_glide_gridfile>  (1) 
gpcr_5ht2c_6bqh_protein_autoprepared_prepared

>  <s_lp_Force_Field>  (1) 
S-OPLS

>  <s_lp_Variant>  (1) 
DiffSBDD_1_num_sample_100-8

>  <s_m_source_file>  (1) 
generated__ligand_DiffSBDD_2026-05-06_prepared.sdf

>  <GenAI_Model>  (1) 
DiffSBDD

>  <Protein>  (1) 
GPCR_5HT2C

$$$$
DiffSBDD_44_num_sample_100
     RDKit          3D

  0  0  0  0  0  0  0  0  0  0999 V3000
M  V30 BEGIN CTAB
M  V30 COUNTS 58 59 0 0 1
M  V30 BEGIN ATOM
M  V30 1 C 41.355353 27.274019 56.653512 0
M  V30 2 O 39.086757 28.543389 59.917408 0 CHG=-1
M  V30 3 C 38.658078 29.067288 53.267811 0
M  V30 4 C 39.061573 26.558000 56.897313 0 CFG=1
M  V30 5 N 39.495919 27.243971 58.141398 0 CFG=1 CHG=1
M  V30 6 C 40.226323 30.861151 52.723138 0
M  V30 7 N 38.448225 29.802802 56.015625 0
M  V30 8 C 39.346049 30.098138 53.686781 0
M  V30 9 O 39.096373 32.014653 55.194732 0
M  V30 10 C 40.365449 26.182531 56.211730 0 CFG=1
M  V30 11 C 40.229631 26.021463 54.692827 0
M  V30 12 C 37.534160 28.984703 58.140373 0 CFG=1
M  V30 13 C 38.242696 30.016033 57.261684 0
M  V30 14 C 40.798082 27.900314 57.915258 0
M  V30 15 C 37.802467 32.458721 54.858216 0
M  V30 16 C 39.007007 28.181903 50.989263 0
M  V30 17 C 38.467022 27.984839 58.907341 0 CFG=2
M  V30 18 C 39.300298 30.605722 55.138618 0 CFG=1
M  V30 19 F 40.267379 29.276926 49.384183 0
M  V30 20 C 39.655713 29.516604 50.538128 0 CFG=2
M  V30 21 C 38.358350 28.172227 52.365528 0
M  V30 22 C 36.446395 29.621461 59.038625 0
M  V30 23 C 38.667403 31.292438 57.980034 0
M  V30 24 C 38.171743 25.322600 57.153858 0
M  V30 25 C 40.722718 30.070582 51.478245 0
M  V30 26 H 41.435868 28.048093 55.892360 0
M  V30 27 H 42.348111 26.875320 56.848810 0
M  V30 28 H 38.528041 27.249819 56.250018 0
M  V30 29 H 39.670025 31.735253 52.393953 0
M  V30 30 H 41.067397 31.221434 53.301850 0
M  V30 31 H 40.667398 25.227098 56.632426 0
M  V30 32 H 39.867456 26.937152 54.246313 0
M  V30 33 H 41.171058 25.789318 54.203132 0
M  V30 34 H 39.523349 25.228717 54.447519 0
M  V30 35 H 36.968713 28.365330 57.453500 0
M  V30 36 H 40.706257 28.978681 57.801131 0
M  V30 37 H 41.447932 27.721904 58.773095 0
M  V30 38 H 37.742887 33.544176 54.935295 0
M  V30 39 H 37.535800 32.170292 53.853512 0
M  V30 40 H 37.067413 32.022710 55.523047 0
M  V30 41 H 39.742812 27.377109 50.962653 0
M  V30 42 H 38.267410 27.932616 50.253523 0
M  V30 43 H 37.867407 27.108101 59.053568 0
M  V30 44 H 40.324209 30.470184 55.482258 0
M  V30 45 H 38.925899 30.288670 50.312736 0
M  V30 46 H 37.690319 27.352474 52.586285 0
M  V30 47 H 35.895862 30.405513 58.522440 0
M  V30 48 H 35.698781 28.893281 59.348871 0
M  V30 49 H 36.877576 30.069199 59.934201 0
M  V30 50 H 37.821770 31.977608 58.044250 0
M  V30 51 H 39.002070 31.072396 58.993555 0
M  V30 52 H 39.467405 31.816403 57.477128 0
M  V30 53 H 37.982757 24.780833 56.226003 0
M  V30 54 H 38.641797 24.625724 57.849659 0
M  V30 55 H 37.196533 25.595547 57.555050 0
M  V30 56 H 41.373481 30.738355 50.912039 0
M  V30 57 H 41.339992 29.221443 51.774184 0
M  V30 58 H 39.741139 26.498438 58.775087 0
M  V30 END ATOM
M  V30 BEGIN BOND
M  V30 1 1 5 4
M  V30 2 2 8 3
M  V30 3 1 8 6
M  V30 4 1 10 1
M  V30 5 1 10 4
M  V30 6 1 11 10
M  V30 7 2 13 7
M  V30 8 1 13 12
M  V30 9 1 14 1
M  V30 10 1 14 5
M  V30 11 1 15 9
M  V30 12 1 17 2
M  V30 13 1 17 5
M  V30 14 1 17 12
M  V30 15 1 18 7
M  V30 16 1 18 8
M  V30 17 1 18 9
M  V30 18 1 20 16
M  V30 19 1 20 19
M  V30 20 2 21 3
M  V30 21 1 21 16
M  V30 22 1 22 12
M  V30 23 1 23 13
M  V30 24 1 24 4
M  V30 25 1 25 6
M  V30 26 1 25 20
M  V30 27 1 26 1
M  V30 28 1 27 1
M  V30 29 1 4 28 CFG=3
M  V30 30 1 29 6
M  V30 31 1 30 6
M  V30 32 1 10 31 CFG=1
M  V30 33 1 32 11
M  V30 34 1 33 11
M  V30 35 1 34 11
M  V30 36 1 12 35 CFG=3
M  V30 37 1 36 14
M  V30 38 1 37 14
M  V30 39 1 38 15
M  V30 40 1 39 15
M  V30 41 1 40 15
M  V30 42 1 41 16
M  V30 43 1 42 16
M  V30 44 1 17 43 CFG=1
M  V30 45 1 18 44 CFG=1
M  V30 46 1 20 45 CFG=3
M  V30 47 1 46 21
M  V30 48 1 47 22
M  V30 49 1 48 22
M  V30 50 1 49 22
M  V30 51 1 50 23
M  V30 52 1 51 23
M  V30 53 1 52 23
M  V30 54 1 53 24
M  V30 55 1 54 24
M  V30 56 1 55 24
M  V30 57 1 56 25
M  V30 58 1 57 25
M  V30 59 1 5 58 CFG=1
M  V30 END BOND
M  V30 END CTAB
M  END
>  <i_epik_Tot_Q>  (1) 
0

>  <i_epik_Tot_abs_Q>  (1) 
2

>  <i_i_glide_confnum>  (1) 
13

>  <i_i_glide_lignum>  (1) 
120

>  <i_i_glide_posenum>  (1) 
267

>  <i_i_glide_rotatable_bonds>  (1) 
6

>  <i_lp_mmshare_version>  (1) 
72125

>  <i_m_source_file_index>  (1) 
45

>  <i_f3d_flags>  (1) 
0

>  <num_sample>  (1) 
100

>  <b_lp_Chiralities_Consistent>  (1) 
1

>  <r_epik_Charging_Adjusted_Penalty>  (1) 
0.41733257654759531

>  <r_epik_Ionization_Penalty>  (1) 
0.0069177268181324029

>  <r_epik_Ionization_Penalty_Charging>  (1) 
0.0066527375949913311

>  <r_epik_Ionization_Penalty_Neutral>  (1) 
0.00026498922314107146

>  <r_epik_State_Penalty>  (1) 
0.41067983895260396

>  <r_glide_ring_energy>  (1) 
0

>  <r_i_docking_score>  (1) 
-6.281576754598106

>  <r_i_glide_ecoul>  (1) 
-1.4603466347089782

>  <r_i_glide_eff_state_penalty>  (1) 
0.41067983895260396

>  <r_i_glide_einternal>  (1) 
8.3833755070952556

>  <r_i_glide_emodel>  (1) 
-37.852568344965654

>  <r_i_glide_emodel_strain>  (1) 
1.0584311551754482

>  <r_i_glide_energy>  (1) 
-27.118061926881566

>  <r_i_glide_erotb>  (1) 
0.61440649929112812

>  <r_i_glide_esite>  (1) 
-0.04853740443753083

>  <r_i_glide_evdw>  (1) 
-25.657715292172586

>  <r_i_glide_gscore>  (1) 
-6.6922565935507103

>  <r_i_glide_gscore_strain>  (1) 
0

>  <r_i_glide_hbond>  (1) 
0

>  <r_i_glide_ligand_efficiency>  (1) 
-0.25126307018392424

>  <r_i_glide_ligand_efficiency_ln>  (1) 
-1.4889219345047551

>  <r_i_glide_ligand_efficiency_sa>  (1) 
-0.73469767417561882

>  <r_i_glide_lipo>  (1) 
-3.2411791555306415

>  <r_i_glide_metal>  (1) 
-0

>  <r_i_glide_rewards>  (1) 
-2.5150087730586907

>  <r_lp_Energy>  (1) 
10.956301

>  <r_lp_tautomer_probability>  (1) 
0.49999399997599986

>  <s_epik_Chemistry_Notes>  (1) 
This compound has an imine and may undergo hydrolysis. This compound contains an acetal/aminal-like group ( X-CH(R)-Y where X, Y are N, S, or O) that may be acid/base labile, releasing an aldehyde.

>  <s_epik_cmdline>  (1) 
J2VwaWtfcHl0aG9uJywgJy1waHQnLCAnMS4wJywgJy1waCcsICc3LjQnLCAnLXRuJywgJzgnLCAnLW1hJywgJzUwMCcsICctaW1hZScsICc8aW5maWxlLm1hZT4nLCAnLW9tYWUnLCAnPG91dGZpbGUubWFlPic=

>  <s_epik_input>  (1) 
W0NIM11bQ0BIXTFbQ0gyXVtDSDJdTihbQ0BASF0xW0NIM10pW0NAQEhdKFtPSF0pW0NAQEhdKFtDSDNdKVxDKFtDSDNdKT1OXFtDQEBIXShPW0NIM10pQzI9Qz1bQ0hdW0NIMl1bQ0BASF0oRilbQ0gyXVtDSDJdMg==

>  <s_glide_docking_method>  (1) 
confgen

>  <s_i_glide_gridfile>  (1) 
gpcr_5ht2c_6bqh_protein_autoprepared_prepared

>  <s_lp_Force_Field>  (1) 
S-OPLS

>  <s_lp_Variant>  (1) 
DiffSBDD_44_num_sample_100-13

>  <s_m_source_file>  (1) 
generated__ligand_DiffSBDD_2026-05-06_prepared.sdf

>  <GenAI_Model>  (1) 
DiffSBDD

>  <Protein>  (1) 
GPCR_5HT2C

$$$$
DiffSBDD_0_num_sample_100
     RDKit          3D

  0  0  0  0  0  0  0  0  0  0999 V3000
M  V30 BEGIN CTAB
M  V30 COUNTS 60 62 0 0 1
M  V30 BEGIN ATOM
M  V30 1 C 37.227970 37.226975 59.849875 0
M  V30 2 C 37.940928 33.184817 60.348685 0 CFG=1
M  V30 3 C 38.261783 28.474489 53.640385 0
M  V30 4 C 39.710584 31.566569 55.412073 0
M  V30 5 C 38.122721 37.956757 60.711454 0
M  V30 6 C 38.361921 35.783526 62.091000 0
M  V30 7 C 39.668081 30.267661 52.758527 0
M  V30 8 C 38.466055 27.740789 52.460878 0
M  V30 9 C 38.865031 29.741611 53.797424 0
M  V30 10 C 39.770607 31.820142 61.321405 0 CFG=2
M  V30 11 N 38.354629 31.799766 58.320583 0 CHG=1
M  V30 12 C 38.331618 32.735322 57.172679 0
M  V30 13 C 39.570053 32.533724 56.332821 0
M  V30 14 C 39.270141 28.266432 51.434442 0
M  V30 15 F 40.639053 30.035098 50.589749 0
M  V30 16 C 39.868185 29.529233 51.582016 0
M  V30 17 C 38.636836 30.539206 55.076546 0 CFG=1
M  V30 18 C 38.667804 37.299456 61.777513 0
M  V30 19 N 38.271582 28.969058 57.154396 0
M  V30 20 C 37.390633 32.098227 59.385660 0
M  V30 21 C 36.816707 36.037840 60.220680 0
M  V30 22 C 36.799612 34.061425 60.856066 0 CFG=1
M  V30 23 N 38.534535 32.559929 61.531454 0
M  V30 24 O 39.467908 27.555763 50.297316 0
M  V30 25 C 39.486739 30.314952 61.517509 0
M  V30 26 C 40.805435 32.370551 62.313588 0
M  V30 27 C 40.669994 29.409425 61.173272 0
M  V30 28 N 37.119907 35.415046 61.379484 0
M  V30 29 S 35.867341 34.847643 59.454266 0
M  V30 30 C 38.431755 29.652181 56.233932 0
M  V30 31 Cl 38.508486 39.616537 60.399118 0
M  V30 32 H 36.926473 37.626418 58.901224 0
M  V30 33 H 38.682347 33.806288 59.842608 0
M  V30 34 H 37.639561 28.065789 54.424361 0
M  V30 35 H 40.638630 31.494253 54.867849 0
M  V30 36 H 39.205355 35.179683 61.758855 0
M  V30 37 H 38.267231 35.650125 63.163512 0
M  V30 38 H 40.126098 31.237006 52.858873 0
M  V30 39 H 38.001567 26.775180 52.342463 0
M  V30 40 H 40.142911 32.005202 60.316302 0
M  V30 41 H 38.138830 30.871268 57.978945 0
M  V30 42 H 38.275895 33.775561 57.496183 0
M  V30 43 H 37.467351 32.550161 56.552007 0
M  V30 44 H 40.383992 33.221429 56.502914 0
M  V30 45 H 37.695494 31.070719 54.933271 0
M  V30 46 H 39.351521 37.811404 62.440103 0
M  V30 47 H 36.457585 32.370996 58.899659 0
M  V30 48 H 37.136210 31.186168 59.921944 0
M  V30 49 H 36.098664 33.549976 61.518739 0
M  V30 50 H 37.867036 32.027660 62.069757 0
M  V30 51 H 39.056606 26.704030 50.279638 0
M  V30 52 H 39.180736 30.122417 62.547140 0
M  V30 53 H 38.654292 29.997119 60.894863 0
M  V30 54 H 41.776763 31.890411 62.187339 0
M  V30 55 H 40.953101 33.440157 62.165395 0
M  V30 56 H 40.491247 32.222115 63.346951 0
M  V30 57 H 40.377753 28.358994 61.204239 0
M  V30 58 H 41.063806 29.616312 60.177425 0
M  V30 59 H 41.467864 29.537008 61.900060 0
M  V30 60 H 39.275146 31.785101 58.729601 0
M  V30 END ATOM
M  V30 BEGIN BOND
M  V30 1 1 5 1
M  V30 2 2 8 3
M  V30 3 1 9 3
M  V30 4 2 9 7
M  V30 5 1 12 11
M  V30 6 2 13 4
M  V30 7 1 13 12
M  V30 8 1 14 8
M  V30 9 1 16 7
M  V30 10 2 16 14
M  V30 11 1 16 15
M  V30 12 1 17 4
M  V30 13 1 17 9
M  V30 14 2 18 5
M  V30 15 1 18 6
M  V30 16 1 20 2
M  V30 17 1 20 11
M  V30 18 2 21 1
M  V30 19 1 22 2
M  V30 20 1 23 2
M  V30 21 1 23 10
M  V30 22 1 24 14
M  V30 23 1 25 10
M  V30 24 1 26 10
M  V30 25 1 27 25
M  V30 26 1 28 6
M  V30 27 1 28 21
M  V30 28 1 28 22
M  V30 29 1 29 21
M  V30 30 1 29 22
M  V30 31 1 30 17
M  V30 32 3 30 19
M  V30 33 1 31 5
M  V30 34 1 32 1
M  V30 35 1 2 33 CFG=3
M  V30 36 1 34 3
M  V30 37 1 35 4
M  V30 38 1 36 6
M  V30 39 1 37 6
M  V30 40 1 38 7
M  V30 41 1 39 8
M  V30 42 1 10 40 CFG=3
M  V30 43 1 41 11
M  V30 44 1 42 12
M  V30 45 1 43 12
M  V30 46 1 44 13
M  V30 47 1 17 45 CFG=3
M  V30 48 1 46 18
M  V30 49 1 47 20
M  V30 50 1 48 20
M  V30 51 1 22 49 CFG=1
M  V30 52 1 50 23
M  V30 53 1 51 24
M  V30 54 1 52 25
M  V30 55 1 53 25
M  V30 56 1 54 26
M  V30 57 1 55 26
M  V30 58 1 56 26
M  V30 59 1 57 27
M  V30 60 1 58 27
M  V30 61 1 59 27
M  V30 62 1 60 11
M  V30 END BOND
M  V30 END CTAB
M  END
>  <i_epik_Tot_Q>  (1) 
1

>  <i_epik_Tot_abs_Q>  (1) 
1

>  <i_i_glide_confnum>  (1) 
618

>  <i_i_glide_lignum>  (1) 
6

>  <i_i_glide_posenum>  (1) 
262

>  <i_i_glide_rotatable_bonds>  (1) 
11

>  <i_lp_mmshare_version>  (1) 
72125

>  <i_m_source_file_index>  (1) 
1

>  <i_f3d_flags>  (1) 
0

>  <num_sample>  (1) 
100

>  <b_lp_Chiralities_Consistent>  (1) 
1

>  <r_epik_Charging_Adjusted_Penalty>  (1) 
1.8065071523224812

>  <r_epik_Ionization_Penalty>  (1) 
0.92614417087394063

>  <r_epik_Ionization_Penalty_Charging>  (1) 
0.760298405215594

>  <r_epik_Ionization_Penalty_Neutral>  (1) 
0.16584576565834661

>  <r_epik_State_Penalty>  (1) 
1.0462087471068873

>  <r_glide_ring_energy>  (1) 
0

>  <r_i_docking_score>  (1) 
-6.2804550945851494

>  <r_i_glide_ecoul>  (1) 
-1.5510354753879536

>  <r_i_glide_eff_state_penalty>  (1) 
1.0462087471068873

>  <r_i_glide_einternal>  (1) 
11.848045454598024

>  <r_i_glide_emodel>  (1) 
-66.53783179671403

>  <r_i_glide_emodel_strain>  (1) 
0.266489136030998

>  <r_i_glide_energy>  (1) 
-43.40090871218041

>  <r_i_glide_erotb>  (1) 
0.74887478347211667

>  <r_i_glide_esite>  (1) 
-0.079456889742875

>  <r_i_glide_evdw>  (1) 
-41.849873236792455

>  <r_i_glide_gscore>  (1) 
-7.3266638416920369

>  <r_i_glide_gscore_strain>  (1) 
0

>  <r_i_glide_hbond>  (1) 
-0.075094836019515304

>  <r_i_glide_ligand_efficiency>  (1) 
-0.20259532563177901

>  <r_i_glide_ligand_efficiency_ln>  (1) 
-1.4164350966624872

>  <r_i_glide_ligand_efficiency_sa>  (1) 
-0.63642903620460478

>  <r_i_glide_lipo>  (1) 
-3.8412502260747488

>  <r_i_glide_metal>  (1) 
-0

>  <r_i_glide_rewards>  (1) 
-1.7545876901791981

>  <r_lp_Energy>  (1) 
39.043923999999997

>  <s_epik_Chemistry_Notes>  (1) 
This compound contains an acetal/aminal-like group ( X-CH(R)-Y where X, Y are N, S, or O) that may be acid/base labile, releasing an aldehyde.

>  <s_epik_cmdline>  (1) 
J2VwaWtfcHl0aG9uJywgJy1waHQnLCAnMS4wJywgJy1waCcsICc3LjQnLCAnLXRuJywgJzgnLCAnLW1hJywgJzUwMCcsICctaW1hZScsICc8aW5maWxlLm1hZT4nLCAnLW9tYWUnLCAnPG91dGZpbGUubWFlPic=

>  <s_epik_input>  (1) 
W0NIXT0xQyhDbCk9W0NIXVtDSDJdTihDMTIpW0NAQEhdKFMyKVtDQEBIXShbTkhdW0NAQEhdKFtDSDNdKVtDSDJdW0NIM10pW0NIMl1bTkhdW0NIMl0vW0NIXT1bQ0hdXFtDQEhdKEMjTiljM1tjSF1bY0hdYyhbT0hdKWMoRilbY0hdMw==

>  <s_glide_docking_method>  (1) 
confgen

>  <s_i_glide_gridfile>  (1) 
gpcr_5ht2c_6bqh_protein_autoprepared_prepared

>  <s_lp_Force_Field>  (1) 
S-OPLS

>  <s_lp_Variant>  (1) 
DiffSBDD_0_num_sample_100-6

>  <s_m_source_file>  (1) 
generated__ligand_DiffSBDD_2026-05-06_prepared.sdf

>  <GenAI_Model>  (1) 
DiffSBDD

>  <Protein>  (1) 
GPCR_5HT2C

$$$$
DiffSBDD_40_num_sample_100
     RDKit          3D

  0  0  0  0  0  0  0  0  0  0999 V3000
M  V30 BEGIN CTAB
M  V30 COUNTS 73 75 0 0 1
M  V30 BEGIN ATOM
M  V30 1 C 34.278477 32.869553 59.307851 0
M  V30 2 C 40.001881 29.101028 51.668690 0 CFG=1
M  V30 3 N 41.899004 35.621458 65.964301 0
M  V30 4 C 38.591422 28.027257 53.622175 0
M  V30 5 C 38.639737 36.324121 62.164747 0
M  V30 6 C 38.626692 32.087415 57.910363 0
M  V30 7 N 41.273423 35.134821 63.742190 0 CHG=1
M  V30 8 C 38.460529 30.095559 55.500314 0
M  V30 9 O 38.266862 32.197836 54.253498 0
M  V30 10 C 38.949734 32.449917 56.469156 0
M  V30 11 C 39.672480 29.544648 50.253379 0
M  V30 12 C 40.267333 30.323218 52.566185 0
M  V30 13 N 41.764245 33.471332 65.008715 0
M  V30 14 C 37.210368 32.466740 60.572843 0 CFG=2
M  V30 15 C 38.859039 28.136186 52.127937 0
M  V30 16 C 39.125198 33.888613 61.418746 0 CFG=1
M  V30 17 C 38.312705 35.182679 61.183037 0 CFG=1
M  V30 18 S 39.289348 26.845821 54.573711 0
M  V30 19 C 41.109473 34.007671 62.963510 0
M  V30 20 N 36.374297 33.691827 60.415929 0 CFG=1 CHG=1
M  V30 21 S 37.467417 29.221223 54.253590 0
M  V30 22 C 34.925547 33.450373 60.550526 0
M  V30 23 C 41.432562 32.939421 63.788765 0
M  V30 24 C 38.117485 31.599890 55.507975 0 CFG=2
M  V30 25 C 36.800745 34.866250 61.231202 0
M  V30 26 O 40.667436 29.621434 49.334873 0
M  V30 27 C 36.971390 31.671492 61.853596 0
M  V30 28 N 39.867415 30.736272 49.900717 0
M  V30 29 C 41.660100 34.787733 64.960452 0
M  V30 30 C 38.697210 32.817198 60.373127 0 CFG=2
M  V30 31 C 40.660932 34.061602 61.536557 0
M  V30 32 C 38.922293 33.221233 58.899037 0
M  V30 33 H 33.204143 32.821503 59.453507 0
M  V30 34 H 34.450142 33.536631 58.464208 0
M  V30 35 H 34.641531 31.871361 59.060570 0
M  V30 36 H 40.927799 28.528052 51.606774 0
M  V30 37 H 41.820250 36.628082 65.863722 0
M  V30 38 H 42.194369 35.301917 66.875728 0
M  V30 39 H 38.510878 36.021543 63.204142 0
M  V30 40 H 39.659918 36.685359 62.038126 0
M  V30 41 H 37.989113 37.182442 61.994220 0
M  V30 42 H 37.560717 31.875310 57.920958 0
M  V30 43 H 39.112856 31.156796 58.196742 0
M  V30 44 H 39.524218 29.951056 55.336466 0
M  V30 45 H 38.238460 29.648766 56.468584 0
M  V30 46 H 37.658014 32.920884 54.201356 0
M  V30 47 H 40.015424 32.353468 56.259089 0
M  V30 48 H 38.698712 33.500709 56.309481 0
M  V30 49 H 40.998398 31.011703 52.138940 0
M  V30 50 H 39.353501 30.887033 52.657374 0
M  V30 51 H 40.639059 30.049107 53.548753 0
M  V30 52 H 42.044025 32.940231 65.824719 0
M  V30 53 H 36.882108 31.765310 59.813668 0
M  V30 54 H 39.039607 27.139492 51.720445 0
M  V30 55 H 37.919162 28.451245 51.670777 0
M  V30 56 H 38.814236 33.506466 62.389065 0
M  V30 57 H 38.550028 35.572440 60.195050 0
M  V30 58 H 34.664002 32.912169 61.458657 0
M  V30 59 H 34.488661 34.421336 60.637691 0
M  V30 60 H 41.444110 31.874071 63.600219 0
M  V30 61 H 37.067406 31.701902 55.743035 0
M  V30 62 H 36.466706 34.715137 62.253409 0
M  V30 63 H 36.267813 35.747792 60.871276 0
M  V30 64 H 37.690972 30.857126 61.947661 0
M  V30 65 H 37.067432 32.306436 62.724018 0
M  V30 66 H 35.980162 31.222550 61.853289 0
M  V30 67 H 39.287131 31.917249 60.553996 0
M  V30 68 H 41.161416 33.225913 61.053510 0
M  V30 69 H 41.016604 34.971103 61.050650 0
M  V30 70 H 39.921892 33.607998 58.754618 0
M  V30 71 H 38.267169 34.042811 58.621925 0
M  V30 72 H 36.506470 33.981049 59.455661 0
M  V30 73 H 41.116832 36.087871 63.436244 0
M  V30 END ATOM
M  V30 BEGIN BOND
M  V30 1 1 10 6
M  V30 2 1 11 2
M  V30 3 1 12 2
M  V30 4 1 15 2
M  V30 5 1 15 4
M  V30 6 1 17 5
M  V30 7 1 17 16
M  V30 8 2 18 4
M  V30 9 1 19 7
M  V30 10 1 20 14
M  V30 11 1 21 4
M  V30 12 1 21 8
M  V30 13 1 22 1
M  V30 14 1 22 20
M  V30 15 1 23 13
M  V30 16 2 23 19
M  V30 17 1 24 8
M  V30 18 1 24 9
M  V30 19 1 24 10
M  V30 20 1 25 17
M  V30 21 1 25 20
M  V30 22 1 26 11
M  V30 23 1 27 14
M  V30 24 2 28 11
M  V30 25 1 28 26
M  V30 26 1 29 3
M  V30 27 2 29 7
M  V30 28 1 29 13
M  V30 29 1 30 14
M  V30 30 1 30 16
M  V30 31 1 31 16
M  V30 32 1 31 19
M  V30 33 1 32 6
M  V30 34 1 32 30
M  V30 35 1 33 1
M  V30 36 1 34 1
M  V30 37 1 35 1
M  V30 38 1 2 36 CFG=3
M  V30 39 1 37 3
M  V30 40 1 38 3
M  V30 41 1 39 5
M  V30 42 1 40 5
M  V30 43 1 41 5
M  V30 44 1 42 6
M  V30 45 1 43 6
M  V30 46 1 44 8
M  V30 47 1 45 8
M  V30 48 1 46 9
M  V30 49 1 47 10
M  V30 50 1 48 10
M  V30 51 1 49 12
M  V30 52 1 50 12
M  V30 53 1 51 12
M  V30 54 1 52 13
M  V30 55 1 14 53 CFG=3
M  V30 56 1 54 15
M  V30 57 1 55 15
M  V30 58 1 16 56 CFG=1
M  V30 59 1 17 57 CFG=3
M  V30 60 1 58 22
M  V30 61 1 59 22
M  V30 62 1 60 23
M  V30 63 1 24 61 CFG=1
M  V30 64 1 62 25
M  V30 65 1 63 25
M  V30 66 1 64 27
M  V30 67 1 65 27
M  V30 68 1 66 27
M  V30 69 1 30 67 CFG=1
M  V30 70 1 68 31
M  V30 71 1 69 31
M  V30 72 1 70 32
M  V30 73 1 71 32
M  V30 74 1 20 72 CFG=3
M  V30 75 1 73 7
M  V30 END BOND
M  V30 END CTAB
M  END
>  <i_epik_Tot_Q>  (1) 
2

>  <i_epik_Tot_abs_Q>  (1) 
2

>  <i_i_glide_confnum>  (1) 
755

>  <i_i_glide_lignum>  (1) 
100

>  <i_i_glide_posenum>  (1) 
341

>  <i_i_glide_rotatable_bonds>  (1) 
14

>  <i_lp_mmshare_version>  (1) 
72125

>  <i_m_source_file_index>  (1) 
41

>  <i_f3d_flags>  (1) 
0

>  <num_sample>  (1) 
100

>  <b_lp_Chiralities_Consistent>  (1) 
1

>  <r_epik_Charging_Adjusted_Penalty>  (1) 
0.0037096170623772918

>  <r_epik_Ionization_Penalty>  (1) 
0.054330814931534903

>  <r_epik_Ionization_Penalty_Charging>  (1) 
0.0037096170623772918

>  <r_epik_Ionization_Penalty_Neutral>  (1) 
0.050621197869157614

>  <r_epik_State_Penalty>  (1) 
-0

>  <r_glide_ring_energy>  (1) 
0

>  <r_i_docking_score>  (1) 
-6.2786641057383754

>  <r_i_glide_ecoul>  (1) 
-2.5272583320224085

>  <r_i_glide_eff_state_penalty>  (1) 
-0

>  <r_i_glide_einternal>  (1) 
17.722281879254901

>  <r_i_glide_emodel>  (1) 
-46.25697596378933

>  <r_i_glide_emodel_strain>  (1) 
4.4927118166949924

>  <r_i_glide_energy>  (1) 
-41.106578160539563

>  <r_i_glide_erotb>  (1) 
0.95438045441749597

>  <r_i_glide_esite>  (1) 
-0.015034487040599077

>  <r_i_glide_evdw>  (1) 
-38.579319828517157

>  <r_i_glide_gscore>  (1) 
-6.2786641057383754

>  <r_i_glide_gscore_strain>  (1) 
0.12317795417374811

>  <r_i_glide_hbond>  (1) 
0

>  <r_i_glide_ligand_efficiency>  (1) 
-0.19620825330432423

>  <r_i_glide_ligand_efficiency_ln>  (1) 
-1.4059640431943277

>  <r_i_glide_ligand_efficiency_sa>  (1) 
-0.62292237540025452

>  <r_i_glide_lipo>  (1) 
-2.5752437974619591

>  <r_i_glide_metal>  (1) 
-0

>  <r_i_glide_rewards>  (1) 
-2.4578894885978428

>  <r_lp_Energy>  (1) 
35.145339999999997

>  <r_lp_tautomer_probability>  (1) 
1

>  <s_epik_Chemistry_Notes>  (1) 
This compound has an imine and may undergo hydrolysis.

>  <s_epik_cmdline>  (1) 
J2VwaWtfcHl0aG9uJywgJy1waHQnLCAnMS4wJywgJy1waCcsICc3LjQnLCAnLXRuJywgJzgnLCAnLW1hJywgJzUwMCcsICctaW1hZScsICc8aW5maWxlLm1hZT4nLCAnLW9tYWUnLCAnPG91dGZpbGUubWFlPic=

>  <s_epik_input>  (1) 
W2NIXTFbbkhdYyhbTkgyXSluYzFbQ0gyXVtDQEBIXShbQ0BIXShbQ0gzXSlbQ0gyXU4oW0NAQEhdMltDSDNdKVtDSDJdW0NIM10pW0NAQEhdMltDSDJdW0NIMl1bQ0gyXVtDQEBIXShbT0hdKVtDSDJdU0MoPVMpW0NIMl1bQ0BIXShbQ0gzXSlDMz1OTzM=

>  <s_glide_docking_method>  (1) 
confgen

>  <s_i_glide_gridfile>  (1) 
gpcr_5ht2c_6bqh_protein_autoprepared_prepared

>  <s_lp_Force_Field>  (1) 
S-OPLS

>  <s_lp_Variant>  (1) 
DiffSBDD_40_num_sample_100-1

>  <s_m_source_file>  (1) 
generated__ligand_DiffSBDD_2026-05-06_prepared.sdf

>  <GenAI_Model>  (1) 
DiffSBDD

>  <Protein>  (1) 
GPCR_5HT2C

$$$$
DiffSBDD_75_num_sample_100
     RDKit          3D

  0  0  0  0  0  0  0  0  0  0999 V3000
M  V30 BEGIN CTAB
M  V30 COUNTS 40 43 0 0 1
M  V30 BEGIN ATOM
M  V30 1 N 38.435354 31.587815 57.542817 0
M  V30 2 C 37.106818 31.290348 59.528910 0
M  V30 3 C 39.355163 31.782487 54.863971 0
M  V30 4 C 38.060820 29.358484 58.501125 0
M  V30 5 C 37.698375 32.061541 58.559222 0
M  V30 6 C 36.364773 32.043764 60.483173 0
M  V30 7 C 39.915410 28.324426 56.539485 0 CFG=1
M  V30 8 C 37.333091 27.621427 53.053506 0
M  V30 9 C 37.262888 29.913186 59.517279 0
M  V30 10 C 36.459419 33.495020 60.145254 0
M  V30 11 O 35.736644 31.621429 61.453500 0
M  V30 12 O 37.867403 27.435305 55.347608 0
M  V30 13 C 38.630140 30.231054 57.519281 0
M  V30 14 S 37.464373 33.845547 58.653500 0
M  V30 15 C 39.134119 30.309526 55.134672 0
M  V30 16 C 40.267494 30.760677 54.253528 0
M  V30 17 N 39.435073 29.724970 56.455223 0
M  V30 18 C 40.844854 28.038431 57.741321 0
M  V30 19 O 35.911172 34.361676 60.823261 0
M  V30 20 C 38.930487 27.161108 56.241557 0
M  V30 21 C 38.214391 28.147178 54.176914 0 CFG=2
M  V30 22 C 37.955794 29.628982 54.467011 0
M  V30 23 H 38.651476 32.287640 54.205228 0
M  V30 24 H 39.824636 32.420917 55.609318 0
M  V30 25 H 38.212998 28.299436 58.462742 0
M  V30 26 H 40.604920 28.293319 55.696176 0
M  V30 27 H 37.535730 28.131911 52.111690 0
M  V30 28 H 37.510100 26.557448 52.898663 0
M  V30 29 H 36.275152 27.743876 53.282294 0
M  V30 30 H 36.799545 29.293490 60.253501 0
M  V30 31 H 41.277562 30.717378 54.653500 0
M  V30 32 H 40.185486 30.603116 53.179958 0
M  V30 33 H 41.379501 27.099738 57.592077 0
M  V30 34 H 41.596726 28.819688 57.853491 0
M  V30 35 H 40.323886 27.954520 58.692472 0
M  V30 36 H 38.494931 26.746528 57.148052 0
M  V30 37 H 39.504742 26.334903 55.819795 0
M  V30 38 H 39.249904 27.971396 53.880773 0
M  V30 39 H 37.053455 29.767844 55.065312 0
M  V30 40 H 37.775652 30.141385 53.523284 0
M  V30 END ATOM
M  V30 BEGIN BOND
M  V30 1 1 5 1
M  V30 2 2 5 2
M  V30 3 1 6 2
M  V30 4 1 9 2
M  V30 5 2 9 4
M  V30 6 1 10 6
M  V30 7 2 11 6
M  V30 8 2 13 1
M  V30 9 1 13 4
M  V30 10 1 14 5
M  V30 11 1 14 10
M  V30 12 1 15 3
M  V30 13 1 16 3
M  V30 14 1 16 15
M  V30 15 1 17 7
M  V30 16 1 17 13
M  V30 17 1 17 15
M  V30 18 1 18 7
M  V30 19 2 19 10
M  V30 20 1 20 7
M  V30 21 1 20 12
M  V30 22 1 21 8
M  V30 23 1 21 12
M  V30 24 1 22 15
M  V30 25 1 22 21
M  V30 26 1 23 3
M  V30 27 1 24 3
M  V30 28 1 25 4
M  V30 29 1 7 26 CFG=3
M  V30 30 1 27 8
M  V30 31 1 28 8
M  V30 32 1 29 8
M  V30 33 1 30 9
M  V30 34 1 31 16
M  V30 35 1 32 16
M  V30 36 1 33 18
M  V30 37 1 34 18
M  V30 38 1 35 18
M  V30 39 1 36 20
M  V30 40 1 37 20
M  V30 41 1 21 38 CFG=3
M  V30 42 1 39 22
M  V30 43 1 40 22
M  V30 END BOND
M  V30 END CTAB
M  END
>  <i_epik_Tot_Q>  (1) 
0

>  <i_epik_Tot_abs_Q>  (1) 
0

>  <i_i_glide_confnum>  (1) 
1

>  <i_i_glide_lignum>  (1) 
188

>  <i_i_glide_posenum>  (1) 
113

>  <i_i_glide_rotatable_bonds>  (1) 
1

>  <i_lp_mmshare_version>  (1) 
72125

>  <i_m_source_file_index>  (1) 
76

>  <i_f3d_flags>  (1) 
0

>  <num_sample>  (1) 
100

>  <b_lp_Chiralities_Consistent>  (1) 
1

>  <r_epik_Charging_Adjusted_Penalty>  (1) 
0

>  <r_epik_Ionization_Penalty>  (1) 
6.9313959963176031e-10

>  <r_epik_Ionization_Penalty_Charging>  (1) 
0

>  <r_epik_Ionization_Penalty_Neutral>  (1) 
6.9313959963176031e-10

>  <r_epik_State_Penalty>  (1) 
-0

>  <r_glide_ring_energy>  (1) 
0

>  <r_i_docking_score>  (1) 
-6.2755858261240309

>  <r_i_glide_ecoul>  (1) 
-2.9228841468101336

>  <r_i_glide_eff_state_penalty>  (1) 
-0

>  <r_i_glide_einternal>  (1) 
8.9028025474203112

>  <r_i_glide_emodel>  (1) 
-44.160997566920265

>  <r_i_glide_emodel_strain>  (1) 
2.2377664929407075

>  <r_i_glide_energy>  (1) 
-36.260726095277342

>  <r_i_glide_erotb>  (1) 
0.1839108918674553

>  <r_i_glide_esite>  (1) 
-0.061381627093984606

>  <r_i_glide_evdw>  (1) 
-33.337841948467208

>  <r_i_glide_gscore>  (1) 
-6.2755858261240309

>  <r_i_glide_gscore_strain>  (1) 
0

>  <r_i_glide_hbond>  (1) 
-0.32000000000000001

>  <r_i_glide_ligand_efficiency>  (1) 
-0.28525390118745597

>  <r_i_glide_ligand_efficiency_ln>  (1) 
-1.5339820834595432

>  <r_i_glide_ligand_efficiency_sa>  (1) 
-0.79929265035013708

>  <r_i_glide_lipo>  (1) 
-1.9001085732276624

>  <r_i_glide_metal>  (1) 
-0

>  <r_i_glide_rewards>  (1) 
-2.0726817982249579

>  <r_lp_Energy>  (1) 
36.581914999999995

>  <r_lp_tautomer_probability>  (1) 
1

>  <s_epik_cmdline>  (1) 
J2VwaWtfcHl0aG9uJywgJy1waHQnLCAnMS4wJywgJy1waCcsICc3LjQnLCAnLXRuJywgJzgnLCAnLW1hJywgJzUwMCcsICctaW1hZScsICc8aW5maWxlLm1hZT4nLCAnLW9tYWUnLCAnPG91dGZpbGUubWFlPic=

>  <s_epik_input>  (1) 
Tz1DMUMoPU8pU2MoYzEyKW5jKFtjSF1bY0hdMilOKEMzNFtDSDJdW0NIMl0zKVtDQEBIXShbQ0gzXSlbQ0gyXU9bQ0BASF0oW0NIM10pW0NIMl00

>  <s_glide_docking_method>  (1) 
confgen

>  <s_i_glide_gridfile>  (1) 
gpcr_5ht2c_6bqh_protein_autoprepared_prepared

>  <s_lp_Force_Field>  (1) 
S-OPLS

>  <s_lp_Variant>  (1) 
DiffSBDD_75_num_sample_100-1

>  <s_m_source_file>  (1) 
generated__ligand_DiffSBDD_2026-05-06_prepared.sdf

>  <GenAI_Model>  (1) 
DiffSBDD

>  <Protein>  (1) 
GPCR_5HT2C

$$$$
DiffSBDD_88_num_sample_100
     RDKit          3D

  0  0  0  0  0  0  0  0  0  0999 V3000
M  V30 BEGIN CTAB
M  V30 COUNTS 72 75 0 0 1
M  V30 BEGIN ATOM
M  V30 1 C 37.795177 29.830162 54.948714 0
M  V30 2 C 39.301907 24.618911 56.641607 0
M  V30 3 C 37.805119 31.346032 60.724682 0 CFG=1
M  V30 4 C 38.708956 31.823123 56.441902 0
M  V30 5 C 39.042413 28.996797 55.294045 0
M  V30 6 C 37.137600 30.407433 59.700258 0
M  V30 7 O 40.997519 32.137319 63.968209 0
M  V30 8 C 36.661621 34.675665 59.405034 0 CFG=1
M  V30 9 C 38.987870 27.329654 53.493395 0
M  V30 10 C 38.012163 31.347533 55.141786 0
M  V30 11 O 41.126646 29.947734 63.586731 0 CHG=-1
M  V30 12 N 37.867404 31.790775 57.674939 0 CFG=2 CHG=1
M  V30 13 C 38.180374 32.917319 58.586711 0 CFG=1
M  V30 14 C 39.035697 30.671213 61.436653 0 CFG=1
M  V30 15 C 38.676101 26.578159 58.071160 0
M  V30 16 C 37.743233 30.456222 58.294105 0
M  V30 17 C 37.687049 35.291730 60.373957 0
M  V30 18 C 40.359847 30.622173 60.653478 0
M  V30 19 C 39.134022 31.078760 62.933322 0
M  V30 20 N 38.970383 27.221443 52.341777 0
M  V30 21 C 40.540789 31.051241 63.550441 0
M  V30 22 C 39.520786 34.024482 61.490510 0
M  V30 23 O 40.267414 27.073870 55.453494 0
M  V30 24 C 37.922800 26.614883 55.664505 0 CFG=1
M  V30 25 C 39.445375 25.511556 57.853498 0
M  V30 26 C 37.322759 34.120918 58.127056 0
M  V30 27 C 38.202178 25.084984 55.646700 0
M  V30 28 C 37.789182 32.787554 60.090195 0 CFG=1
M  V30 29 C 37.593041 27.007435 57.123039 0
M  V30 30 C 36.341103 33.340733 60.072491 0
M  V30 31 C 39.019676 27.487694 54.959200 0 CFG=1
M  V30 32 C 38.419181 34.030966 60.725651 0
M  V30 33 H 37.517518 29.650842 53.908613 0
M  V30 34 H 36.935626 29.512294 55.531029 0
M  V30 35 H 40.267408 24.572040 56.143357 0
M  V30 36 H 39.079878 23.621423 57.006591 0
M  V30 37 H 37.074240 31.400074 61.532327 0
M  V30 38 H 39.661352 31.323250 56.611488 0
M  V30 39 H 38.980678 32.862701 56.248798 0
M  V30 40 H 39.286510 29.112880 56.345647 0
M  V30 41 H 39.886304 29.445167 54.766276 0
M  V30 42 H 36.074503 30.633693 59.630533 0
M  V30 43 H 37.164104 29.373880 60.034667 0
M  V30 44 H 35.797437 35.312049 59.210293 0
M  V30 45 H 38.632103 31.683575 54.308800 0
M  V30 46 H 37.067433 31.874837 55.017148 0
M  V30 47 H 39.248252 33.139246 58.524896 0
M  V30 48 H 38.776080 29.614612 61.511051 0
M  V30 49 H 38.817075 27.175756 58.960423 0
M  V30 50 H 37.021007 29.962608 57.657667 0
M  V30 51 H 38.676852 29.904462 58.256226 0
M  V30 52 H 37.207712 35.714077 61.258879 0
M  V30 53 H 38.321700 36.043143 59.906216 0
M  V30 54 H 40.897140 31.566978 60.653509 0
M  V30 55 H 41.032623 29.877095 61.075424 0
M  V30 56 H 40.204034 30.293872 59.635044 0
M  V30 57 H 38.719142 32.076290 63.053479 0
M  V30 58 H 38.498641 30.421450 63.526171 0
M  V30 59 H 39.916819 34.943211 61.896941 0
M  V30 60 H 40.041568 33.120565 61.714501 0
M  V30 61 H 40.110267 26.447563 56.147404 0
M  V30 62 H 37.015126 26.779254 55.083926 0
M  V30 63 H 40.213312 25.246830 58.565834 0
M  V30 64 H 36.526338 33.785483 57.468675 0
M  V30 65 H 37.867404 34.825006 57.518569 0
M  V30 66 H 37.273828 24.573183 55.905174 0
M  V30 67 H 38.447581 24.741665 54.645284 0
M  V30 68 H 37.452218 28.065032 57.211884 0
M  V30 69 H 36.667436 26.534820 57.451086 0
M  V30 70 H 35.636070 32.758016 59.477785 0
M  V30 71 H 35.914692 33.466851 61.070315 0
M  V30 72 H 36.907550 31.985138 57.368324 0
M  V30 END ATOM
M  V30 BEGIN BOND
M  V30 1 1 5 1
M  V30 2 1 6 3
M  V30 3 1 10 1
M  V30 4 1 10 4
M  V30 5 1 12 4
M  V30 6 1 13 12
M  V30 7 1 14 3
M  V30 8 1 16 6
M  V30 9 1 16 12
M  V30 10 1 17 8
M  V30 11 1 18 14
M  V30 12 1 19 14
M  V30 13 3 20 9
M  V30 14 2 21 7
M  V30 15 1 21 11
M  V30 16 1 21 19
M  V30 17 1 25 2
M  V30 18 2 25 15
M  V30 19 1 26 8
M  V30 20 1 26 13
M  V30 21 1 27 2
M  V30 22 1 27 24
M  V30 23 1 28 3
M  V30 24 1 28 13
M  V30 25 1 29 15
M  V30 26 1 29 24
M  V30 27 1 30 8
M  V30 28 1 30 28
M  V30 29 1 31 5
M  V30 30 1 31 9 CFG=3
M  V30 31 1 31 23
M  V30 32 1 31 24
M  V30 33 1 32 17
M  V30 34 2 32 22
M  V30 35 1 28 32 CFG=1
M  V30 36 1 33 1
M  V30 37 1 34 1
M  V30 38 1 35 2
M  V30 39 1 36 2
M  V30 40 1 3 37 CFG=1
M  V30 41 1 38 4
M  V30 42 1 39 4
M  V30 43 1 40 5
M  V30 44 1 41 5
M  V30 45 1 42 6
M  V30 46 1 43 6
M  V30 47 1 8 44 CFG=3
M  V30 48 1 45 10
M  V30 49 1 46 10
M  V30 50 1 13 47 CFG=1
M  V30 51 1 14 48 CFG=1
M  V30 52 1 49 15
M  V30 53 1 50 16
M  V30 54 1 51 16
M  V30 55 1 52 17
M  V30 56 1 53 17
M  V30 57 1 54 18
M  V30 58 1 55 18
M  V30 59 1 56 18
M  V30 60 1 57 19
M  V30 61 1 58 19
M  V30 62 1 59 22
M  V30 63 1 60 22
M  V30 64 1 61 23
M  V30 65 1 24 62 CFG=3
M  V30 66 1 63 25
M  V30 67 1 64 26
M  V30 68 1 65 26
M  V30 69 1 66 27
M  V30 70 1 67 27
M  V30 71 1 68 29
M  V30 72 1 69 29
M  V30 73 1 70 30
M  V30 74 1 71 30
M  V30 75 1 12 72 CFG=3
M  V30 END BOND
M  V30 END CTAB
M  END
>  <i_epik_Tot_Q>  (1) 
0

>  <i_epik_Tot_abs_Q>  (1) 
2

>  <i_i_glide_confnum>  (1) 
604

>  <i_i_glide_lignum>  (1) 
227

>  <i_i_glide_posenum>  (1) 
390

>  <i_i_glide_rotatable_bonds>  (1) 
10

>  <i_lp_mmshare_version>  (1) 
72125

>  <i_m_source_file_index>  (1) 
89

>  <i_f3d_flags>  (1) 
0

>  <num_sample>  (1) 
100

>  <b_lp_Chiralities_Consistent>  (1) 
1

>  <r_epik_Charging_Adjusted_Penalty>  (1) 
0.0020242395650179774

>  <r_epik_Ionization_Penalty>  (1) 
0.0021859291232044671

>  <r_epik_Ionization_Penalty_Charging>  (1) 
0.0020242395650179774

>  <r_epik_Ionization_Penalty_Neutral>  (1) 
0.00016168955818648959

>  <r_epik_State_Penalty>  (1) 
-0

>  <r_glide_ring_energy>  (1) 
1.8266832637363264

>  <r_i_docking_score>  (1) 
-6.2712370543020457

>  <r_i_glide_ecoul>  (1) 
-2.9917837252919286

>  <r_i_glide_eff_state_penalty>  (1) 
-0

>  <r_i_glide_einternal>  (1) 
12.49779357677005

>  <r_i_glide_emodel>  (1) 
-46.655907511018022

>  <r_i_glide_emodel_strain>  (1) 
4.7624911508427772

>  <r_i_glide_energy>  (1) 
-39.954079016195962

>  <r_i_glide_erotb>  (1) 
0.71992511853168706

>  <r_i_glide_esite>  (1) 
-0.10000000000000001

>  <r_i_glide_evdw>  (1) 
-36.962295290904031

>  <r_i_glide_gscore>  (1) 
-6.2712370543020457

>  <r_i_glide_gscore_strain>  (1) 
0.1906227877106943

>  <r_i_glide_hbond>  (1) 
-0.20000000000000001

>  <r_i_glide_ligand_efficiency>  (1) 
-0.19597615794693893

>  <r_i_glide_ligand_efficiency_ln>  (1) 
-1.4043009239239577

>  <r_i_glide_ligand_efficiency_sa>  (1) 
-0.62218551857131388

>  <r_i_glide_lipo>  (1) 
-2.870095500269334

>  <r_i_glide_metal>  (1) 
-0

>  <r_i_glide_rewards>  (1) 
-1.7148071369361018

>  <r_lp_Energy>  (1) 
58.990349999999999

>  <r_lp_tautomer_probability>  (1) 
1

>  <s_epik_cmdline>  (1) 
J2VwaWtfcHl0aG9uJywgJy1waHQnLCAnMS4wJywgJy1waCcsICc3LjQnLCAnLXRuJywgJzgnLCAnLW1hJywgJzUwMCcsICctaW1hZScsICc8aW5maWxlLm1hZT4nLCAnLW9tYWUnLCAnPG91dGZpbGUubWFlPic=

>  <s_epik_input>  (1) 
W0NIMl0xW0NIXT1bQ0hdW0NIMl1bQ0gyXVtDQEBIXTFbQ0BdKEMjTikoW09IXSlbQ0gyXVtDSDJdW0NIMl1bQ0gyXU4oW0NASF0oW0NAXTIzNClbQ0gyXVtDQEBIXShbQ0gyXTMpW0NIMl1DND1bQ0gyXSlbQ0gyXVtDSDJdW0NASF0yW0NAQEhdKFtDSDNdKVtDSDJdQyg9TylbT0hd

>  <s_glide_docking_method>  (1) 
confgen

>  <s_i_glide_gridfile>  (1) 
gpcr_5ht2c_6bqh_protein_autoprepared_prepared

>  <s_lp_Force_Field>  (1) 
S-OPLS

>  <s_lp_Variant>  (1) 
DiffSBDD_88_num_sample_100-2

>  <s_m_source_file>  (1) 
generated__ligand_DiffSBDD_2026-05-06_prepared.sdf

>  <GenAI_Model>  (1) 
DiffSBDD

>  <Protein>  (1) 
GPCR_5HT2C

$$$$
DiffSBDD_23_num_sample_100
     RDKit          3D

  0  0  0  0  0  0  0  0  0  0999 V3000
M  V30 BEGIN CTAB
M  V30 COUNTS 83 87 0 0 1
M  V30 BEGIN ATOM
M  V30 1 C 38.330520 31.056383 56.452983 0
M  V30 2 C 40.750640 31.101299 64.963787 0
M  V30 3 C 42.667841 34.127306 65.331024 0
M  V30 4 O 39.645982 35.274732 68.003169 0
M  V30 5 N 45.436378 31.713549 66.225590 0
M  V30 6 C 39.428217 30.313561 62.960769 0
M  V30 7 C 37.686830 32.039649 60.140695 0
M  V30 8 N 41.949884 31.758660 65.515574 0
M  V30 9 C 40.844347 33.540916 66.815501 0
M  V30 10 C 42.446635 35.486010 65.593499 0
M  V30 11 C 42.504690 31.646991 68.515527 0
M  V30 12 C 43.875821 31.827747 67.876713 0
M  V30 13 C 37.856362 31.109908 58.932570 0 CFG=1
M  V30 14 C 44.962297 32.151078 68.445516 0
M  V30 15 N 37.867344 31.835020 57.624499 0 CFG=1 CHG=1
M  V30 16 C 40.366501 32.701861 62.970946 0
M  V30 17 C 39.473344 36.665920 68.279252 0
M  V30 18 C 40.634879 34.907357 67.108854 0
M  V30 19 C 40.578295 31.242880 63.420257 0 CFG=1
M  V30 20 C 37.646994 27.139601 56.992759 0
M  V30 21 C 44.183399 31.563579 66.506394 0
M  V30 22 C 39.633684 29.945036 60.533372 0
M  V30 23 C 39.376944 28.678146 54.820094 0
M  V30 24 O 40.692977 29.341086 60.680322 0
M  V30 25 C 39.729974 28.295291 56.271551 0
M  V30 26 C 41.841514 33.150775 65.918273 0
M  V30 27 C 43.129140 31.054554 65.520329 0
M  V30 28 C 38.445606 33.201526 57.631453 0
M  V30 29 C 46.142673 32.163299 67.528395 0
M  V30 30 C 38.644439 28.694896 58.599777 0
M  V30 31 C 37.717725 29.632505 56.302320 0 CFG=2
M  V30 32 C 41.436531 35.881315 66.474777 0
M  V30 33 C 37.682925 31.193766 61.404368 0
M  V30 34 C 38.430290 28.478616 57.078748 0 CFG=2
M  V30 35 C 37.940742 29.213077 54.842405 0
M  V30 36 O 43.341588 30.065353 64.814985 0
M  V30 37 N 38.951776 30.481370 61.578857 0
M  V30 38 C 39.029497 30.098537 59.107852 0 CFG=1
M  V30 39 H 38.022289 31.647910 55.588988 0
M  V30 40 H 39.421409 31.038281 56.410387 0
M  V30 41 H 39.863970 31.492507 65.456298 0
M  V30 42 H 40.762993 30.041226 65.233469 0
M  V30 43 H 43.450203 33.849444 64.654148 0
M  V30 44 H 38.583052 30.421432 63.639577 0
M  V30 45 H 39.757245 29.278294 63.072779 0
M  V30 46 H 38.496457 32.766087 60.216385 0
M  V30 47 H 36.752784 32.598300 60.065506 0
M  V30 48 H 40.267378 32.791101 67.289527 0
M  V30 49 H 43.065839 36.229162 65.119956 0
M  V30 50 H 42.089466 32.605600 68.818853 0
M  V30 51 H 42.645992 31.082305 69.437575 0
M  V30 52 H 41.784802 31.070595 67.937092 0
M  V30 53 H 36.933264 30.528738 58.892610 0
M  V30 54 H 45.061368 32.380351 69.496575 0
M  V30 55 H 39.468531 33.130050 63.414937 0
M  V30 56 H 40.277859 32.778843 61.888744 0
M  V30 57 H 41.207590 33.335277 63.241248 0
M  V30 58 H 38.680235 36.842150 68.995185 0
M  V30 59 H 39.194850 37.219423 67.381832 0
M  V30 60 H 40.375834 37.098021 68.713126 0
M  V30 61 H 41.491265 30.887589 62.938308 0
M  V30 62 H 36.667307 27.212419 57.461214 0
M  V30 63 H 38.178346 26.344071 57.517249 0
M  V30 64 H 37.499274 26.781086 55.974486 0
M  V30 65 H 39.466802 27.833885 54.135803 0
M  V30 66 H 40.048992 29.465532 54.477718 0
M  V30 67 H 40.515282 28.950458 56.647493 0
M  V30 68 H 40.122880 27.279747 56.337158 0
M  V30 69 H 39.467437 33.196787 58.005141 0
M  V30 70 H 37.852570 33.882826 58.241393 0
M  V30 71 H 38.456138 33.629426 56.627847 0
M  V30 72 H 46.913591 31.457801 67.845580 0
M  V30 73 H 46.502617 33.181578 67.452958 0
M  V30 74 H 37.733107 28.422925 59.127903 0
M  V30 75 H 39.378641 27.955938 58.929037 0
M  V30 76 H 36.655863 29.676572 56.528786 0
M  V30 77 H 41.289416 36.931225 66.673199 0
M  V30 78 H 37.490734 31.842387 62.261103 0
M  V30 79 H 36.871819 30.467028 61.369832 0
M  V30 80 H 37.793248 30.017590 54.120899 0
M  V30 81 H 37.239108 28.430206 54.556955 0
M  V30 82 H 39.867163 30.421389 58.503189 0
M  V30 83 H 36.871556 31.981658 57.418283 0
M  V30 END ATOM
M  V30 BEGIN BOND
M  V30 1 1 8 2
M  V30 2 1 10 3
M  V30 3 1 12 11
M  V30 4 1 13 7
M  V30 5 2 14 12
M  V30 6 1 15 1
M  V30 7 1 15 13
M  V30 8 1 17 4
M  V30 9 1 18 4
M  V30 10 2 18 9
M  V30 11 1 19 2
M  V30 12 1 19 6
M  V30 13 1 19 16
M  V30 14 2 21 5
M  V30 15 1 21 12
M  V30 16 2 24 22
M  V30 17 1 25 23
M  V30 18 2 26 3
M  V30 19 1 26 8
M  V30 20 1 26 9
M  V30 21 1 27 8
M  V30 22 1 27 21
M  V30 23 1 28 15
M  V30 24 1 29 5
M  V30 25 1 29 14
M  V30 26 1 31 1
M  V30 27 2 32 10
M  V30 28 1 32 18
M  V30 29 1 33 7
M  V30 30 1 34 20 CFG=1
M  V30 31 1 34 25
M  V30 32 1 34 30
M  V30 33 1 34 31
M  V30 34 1 35 23
M  V30 35 1 35 31
M  V30 36 2 36 27
M  V30 37 1 37 6
M  V30 38 1 37 22
M  V30 39 1 37 33
M  V30 40 1 38 13
M  V30 41 1 38 22
M  V30 42 1 38 30
M  V30 43 1 39 1
M  V30 44 1 40 1
M  V30 45 1 41 2
M  V30 46 1 42 2
M  V30 47 1 43 3
M  V30 48 1 44 6
M  V30 49 1 45 6
M  V30 50 1 46 7
M  V30 51 1 47 7
M  V30 52 1 48 9
M  V30 53 1 49 10
M  V30 54 1 50 11
M  V30 55 1 51 11
M  V30 56 1 52 11
M  V30 57 1 13 53 CFG=3
M  V30 58 1 54 14
M  V30 59 1 55 16
M  V30 60 1 56 16
M  V30 61 1 57 16
M  V30 62 1 58 17
M  V30 63 1 59 17
M  V30 64 1 60 17
M  V30 65 1 19 61 CFG=3
M  V30 66 1 62 20
M  V30 67 1 63 20
M  V30 68 1 64 20
M  V30 69 1 65 23
M  V30 70 1 66 23
M  V30 71 1 67 25
M  V30 72 1 68 25
M  V30 73 1 69 28
M  V30 74 1 70 28
M  V30 75 1 71 28
M  V30 76 1 72 29
M  V30 77 1 73 29
M  V30 78 1 74 30
M  V30 79 1 75 30
M  V30 80 1 31 76 CFG=1
M  V30 81 1 77 32
M  V30 82 1 78 33
M  V30 83 1 79 33
M  V30 84 1 80 35
M  V30 85 1 81 35
M  V30 86 1 38 82 CFG=3
M  V30 87 1 15 83 CFG=3
M  V30 END BOND
M  V30 END CTAB
M  END
>  <i_epik_Tot_Q>  (1) 
1

>  <i_epik_Tot_abs_Q>  (1) 
1

>  <i_i_glide_confnum>  (1) 
4

>  <i_i_glide_lignum>  (1) 
58

>  <i_i_glide_posenum>  (1) 
284

>  <i_i_glide_rotatable_bonds>  (1) 
8

>  <i_lp_mmshare_version>  (1) 
72125

>  <i_m_source_file_index>  (1) 
24

>  <i_f3d_flags>  (1) 
0

>  <num_sample>  (1) 
100

>  <b_lp_Chiralities_Consistent>  (1) 
1

>  <r_epik_Charging_Adjusted_Penalty>  (1) 
0.0029773975431382485

>  <r_epik_Ionization_Penalty>  (1) 
0.013183626931022738

>  <r_epik_Ionization_Penalty_Charging>  (1) 
0.0029773975431382485

>  <r_epik_Ionization_Penalty_Neutral>  (1) 
0.010206229387884489

>  <r_epik_State_Penalty>  (1) 
-0

>  <r_glide_ring_energy>  (1) 
0

>  <r_i_docking_score>  (1) 
-6.2699880501498253

>  <r_i_glide_ecoul>  (1) 
-6.043664159352824

>  <r_i_glide_eff_state_penalty>  (1) 
-0

>  <r_i_glide_einternal>  (1) 
20.673019258224357

>  <r_i_glide_emodel>  (1) 
-46.922829735735924

>  <r_i_glide_emodel_strain>  (1) 
2.6125791017790903

>  <r_i_glide_energy>  (1) 
-38.068982557701304

>  <r_i_glide_erotb>  (1) 
0.5287100460970352

>  <r_i_glide_esite>  (1) 
-0.10000000000000001

>  <r_i_glide_evdw>  (1) 
-32.025318398348482

>  <r_i_glide_gscore>  (1) 
-6.2699880501498253

>  <r_i_glide_gscore_strain>  (1) 
0

>  <r_i_glide_hbond>  (1) 
-0.39753794065004111

>  <r_i_glide_ligand_efficiency>  (1) 
-0.16499968553025857

>  <r_i_glide_ligand_efficiency_ln>  (1) 
-1.3519938679737111

>  <r_i_glide_ligand_efficiency_sa>  (1) 
-0.55472488488229221

>  <r_i_glide_lipo>  (1) 
-2.989409409207695

>  <r_i_glide_metal>  (1) 
-0

>  <r_i_glide_rewards>  (1) 
-0.80393520256877538

>  <r_lp_Energy>  (1) 
97.856698999999992

>  <r_lp_tautomer_probability>  (1) 
1

>  <s_epik_Chemistry_Notes>  (1) 
This compound has an imine and may undergo hydrolysis.

>  <s_epik_cmdline>  (1) 
J2VwaWtfcHl0aG9uJywgJy1waHQnLCAnMS4wJywgJy1waCcsICc3LjQnLCAnLXRuJywgJzgnLCAnLW1hJywgJzUwMCcsICctaW1hZScsICc8aW5maWxlLm1hZT4nLCAnLW9tYWUnLCAnPG91dGZpbGUubWFlPic=

>  <s_epik_input>  (1) 
W0NIMl0xW0NIMl1bQ0gyXVtDQEBIXShbQ0BAXTEyW0NIM10pW0NIMl1OKFtDSDNdKVtDQEhdM1tDQEhdKFtDSDJdMilDKD1PKU4oW0NIMl1bQ0gyXTMpW0NIMl1bQ0BASF0oW0NIM10pW0NIMl1OKGMoW2NIXVtjSF1bY0hdNClbY0hdYzRPW0NIM10pQyg9TylDNT1OW0NIMl1bQ0hdPUM1W0NIM10=

>  <s_glide_docking_method>  (1) 
confgen

>  <s_i_glide_gridfile>  (1) 
gpcr_5ht2c_6bqh_protein_autoprepared_prepared

>  <s_lp_Force_Field>  (1) 
S-OPLS

>  <s_lp_Variant>  (1) 
DiffSBDD_23_num_sample_100-1

>  <s_m_source_file>  (1) 
generated__ligand_DiffSBDD_2026-05-06_prepared.sdf

>  <GenAI_Model>  (1) 
DiffSBDD

>  <Protein>  (1) 
GPCR_5HT2C

$$$$
DiffSBDD_23_num_sample_100
     RDKit          3D

  0  0  0  0  0  0  0  0  0  0999 V3000
M  V30 BEGIN CTAB
M  V30 COUNTS 83 87 0 0 1
M  V30 BEGIN ATOM
M  V30 1 C 40.095271 35.961514 63.242269 0
M  V30 2 C 37.779908 31.373074 58.100165 0
M  V30 3 C 38.267405 28.381968 56.083721 0
M  V30 4 O 39.467204 31.033905 53.048049 0
M  V30 5 N 40.847713 28.421410 57.125796 0
M  V30 6 C 35.893338 32.411069 59.595294 0
M  V30 7 C 37.595134 35.693572 60.258287 0
M  V30 8 N 38.561208 30.174241 57.772408 0
M  V30 9 C 38.962487 30.622101 55.370194 0
M  V30 10 C 38.316644 27.938867 54.750306 0
M  V30 11 C 41.075154 28.140347 60.794342 0
M  V30 12 C 41.274568 28.021427 59.289455 0
M  V30 13 C 38.812828 35.334084 61.135503 0 CFG=1
M  V30 14 C 42.173112 27.375142 58.653501 0
M  V30 15 N 39.149255 36.366843 62.163214 0 CFG=1 CHG=1
M  V30 16 C 35.618556 30.019093 58.653509 0
M  V30 17 C 39.908536 30.491390 51.804201 0
M  V30 18 C 39.046408 30.166457 54.035555 0
M  V30 19 C 36.592055 31.113983 59.095915 0 CFG=1
M  V30 20 C 42.298998 32.747722 62.125754 0
M  V30 21 C 40.476418 28.668150 58.341031 0
M  V30 22 C 37.524780 33.020783 61.319701 0
M  V30 23 C 41.413245 33.795477 65.066975 0
M  V30 24 O 37.210300 32.055903 62.016312 0
M  V30 25 C 40.741952 32.866530 64.045440 0
M  V30 26 C 38.597177 29.725118 56.398839 0
M  V30 27 C 39.326227 29.621489 58.790420 0
M  V30 28 C 37.965722 37.029185 62.774211 0
M  V30 29 C 42.078569 27.506955 57.167054 0
M  V30 30 C 39.992212 33.124836 61.577420 0
M  V30 31 C 41.280480 34.992652 62.923026 0 CFG=2
M  V30 32 C 38.709421 28.821210 53.727859 0
M  V30 33 C 37.244502 34.504602 59.364480 0
M  V30 34 C 41.039520 33.463722 62.647389 0 CFG=2
M  V30 35 C 42.063416 34.913090 64.243619 0
M  V30 36 O 39.175854 29.914747 59.975197 0
M  V30 37 N 36.896775 33.318926 60.158506 0
M  V30 38 C 38.705607 33.912453 61.739986 0 CFG=1
M  V30 39 H 40.530267 36.902911 63.579203 0
M  V30 40 H 39.529912 35.621412 64.106925 0
M  V30 41 H 37.467424 31.873595 57.188668 0
M  V30 42 H 38.486355 32.071416 58.546123 0
M  V30 43 H 37.977775 27.697869 56.867854 0
M  V30 44 H 35.144042 32.175398 60.353214 0
M  V30 45 H 35.344779 32.898780 58.793959 0
M  V30 46 H 36.704192 35.917885 60.846144 0
M  V30 47 H 37.802713 36.576682 59.652186 0
M  V30 48 H 39.217206 31.644440 55.606282 0
M  V30 49 H 38.064737 26.916233 54.512442 0
M  V30 50 H 41.139659 29.172735 61.133919 0
M  V30 51 H 41.867265 27.621440 61.318283 0
M  V30 52 H 40.122358 27.709496 61.105988 0
M  V30 53 H 39.668752 35.347943 60.459278 0
M  V30 54 H 42.949654 26.784634 59.116162 0
M  V30 55 H 34.652441 30.420205 58.350955 0
M  V30 56 H 35.467399 29.297878 59.454127 0
M  V30 57 H 36.012316 29.453120 57.816863 0
M  V30 58 H 40.357667 31.281847 51.200787 0
M  V30 59 H 39.096496 30.054326 51.220685 0
M  V30 60 H 40.667433 29.724811 51.951020 0
M  V30 61 H 36.993373 30.670258 59.997562 0
M  V30 62 H 42.705138 33.221431 61.234834 0
M  V30 63 H 42.085227 31.705715 61.883240 0
M  V30 64 H 43.067361 32.706993 62.882600 0
M  V30 65 H 42.159454 33.272747 65.665901 0
M  V30 66 H 40.671497 34.199630 65.758457 0
M  V30 67 H 39.677582 32.815487 64.251912 0
M  V30 68 H 41.101596 31.841694 64.146980 0
M  V30 69 H 37.235959 36.298302 63.125472 0
M  V30 70 H 37.472014 37.703038 62.073282 0
M  V30 71 H 38.253977 37.621375 63.641965 0
M  V30 72 H 41.857749 26.579971 56.654222 0
M  V30 73 H 42.958565 28.003160 56.763349 0
M  V30 74 H 40.379824 33.279314 60.573773 0
M  V30 75 H 39.804241 32.050246 61.634404 0
M  V30 76 H 41.867352 35.444555 62.125453 0
M  V30 77 H 38.758105 28.464543 52.710679 0
M  V30 78 H 36.415340 34.789206 58.716483 0
M  V30 79 H 38.077093 34.261637 58.707597 0
M  V30 80 H 42.141838 35.858134 64.784471 0
M  V30 81 H 43.067399 34.596532 64.034081 0
M  V30 82 H 38.667402 33.989470 62.807078 0
M  V30 83 H 39.632097 37.095687 61.657617 0
M  V30 END ATOM
M  V30 BEGIN BOND
M  V30 1 1 8 2
M  V30 2 1 10 3
M  V30 3 1 12 11
M  V30 4 1 13 7
M  V30 5 2 14 12
M  V30 6 1 15 1
M  V30 7 1 15 13
M  V30 8 1 17 4
M  V30 9 1 18 4
M  V30 10 2 18 9
M  V30 11 1 19 2
M  V30 12 1 19 6
M  V30 13 1 19 16
M  V30 14 2 21 5
M  V30 15 1 21 12
M  V30 16 2 24 22
M  V30 17 1 25 23
M  V30 18 2 26 3
M  V30 19 1 26 8
M  V30 20 1 26 9
M  V30 21 1 27 8
M  V30 22 1 27 21
M  V30 23 1 28 15
M  V30 24 1 29 5
M  V30 25 1 29 14
M  V30 26 1 31 1
M  V30 27 2 32 10
M  V30 28 1 32 18
M  V30 29 1 33 7
M  V30 30 1 34 20 CFG=3
M  V30 31 1 34 25
M  V30 32 1 34 30
M  V30 33 1 34 31
M  V30 34 1 35 23
M  V30 35 1 35 31
M  V30 36 2 36 27
M  V30 37 1 37 6
M  V30 38 1 37 22
M  V30 39 1 37 33
M  V30 40 1 38 13
M  V30 41 1 38 22
M  V30 42 1 38 30
M  V30 43 1 39 1
M  V30 44 1 40 1
M  V30 45 1 41 2
M  V30 46 1 42 2
M  V30 47 1 43 3
M  V30 48 1 44 6
M  V30 49 1 45 6
M  V30 50 1 46 7
M  V30 51 1 47 7
M  V30 52 1 48 9
M  V30 53 1 49 10
M  V30 54 1 50 11
M  V30 55 1 51 11
M  V30 56 1 52 11
M  V30 57 1 13 53 CFG=3
M  V30 58 1 54 14
M  V30 59 1 55 16
M  V30 60 1 56 16
M  V30 61 1 57 16
M  V30 62 1 58 17
M  V30 63 1 59 17
M  V30 64 1 60 17
M  V30 65 1 19 61 CFG=1
M  V30 66 1 62 20
M  V30 67 1 63 20
M  V30 68 1 64 20
M  V30 69 1 65 23
M  V30 70 1 66 23
M  V30 71 1 67 25
M  V30 72 1 68 25
M  V30 73 1 69 28
M  V30 74 1 70 28
M  V30 75 1 71 28
M  V30 76 1 72 29
M  V30 77 1 73 29
M  V30 78 1 74 30
M  V30 79 1 75 30
M  V30 80 1 31 76 CFG=3
M  V30 81 1 77 32
M  V30 82 1 78 33
M  V30 83 1 79 33
M  V30 84 1 80 35
M  V30 85 1 81 35
M  V30 86 1 38 82 CFG=1
M  V30 87 1 15 83 CFG=3
M  V30 END BOND
M  V30 END CTAB
M  END
>  <i_epik_Tot_Q>  (1) 
1

>  <i_epik_Tot_abs_Q>  (1) 
1

>  <i_i_glide_confnum>  (1) 
238

>  <i_i_glide_lignum>  (1) 
58

>  <i_i_glide_posenum>  (1) 
400

>  <i_i_glide_rotatable_bonds>  (1) 
8

>  <i_lp_mmshare_version>  (1) 
72125

>  <i_m_source_file_index>  (1) 
24

>  <i_f3d_flags>  (1) 
0

>  <num_sample>  (1) 
100

>  <b_lp_Chiralities_Consistent>  (1) 
1

>  <r_epik_Charging_Adjusted_Penalty>  (1) 
0.0029773975431382485

>  <r_epik_Ionization_Penalty>  (1) 
0.013183626931022738

>  <r_epik_Ionization_Penalty_Charging>  (1) 
0.0029773975431382485

>  <r_epik_Ionization_Penalty_Neutral>  (1) 
0.010206229387884489

>  <r_epik_State_Penalty>  (1) 
-0

>  <r_glide_ring_energy>  (1) 
0

>  <r_i_docking_score>  (1) 
-6.2691644293017434

>  <r_i_glide_ecoul>  (1) 
-4.9504598004203704

>  <r_i_glide_eff_state_penalty>  (1) 
-0

>  <r_i_glide_einternal>  (1) 
53.288989355214866

>  <r_i_glide_emodel>  (1) 
-30.2938518877394

>  <r_i_glide_emodel_strain>  (1) 
5.3046339214600096

>  <r_i_glide_energy>  (1) 
-40.442908594912623

>  <r_i_glide_erotb>  (1) 
0.5287100460970352

>  <r_i_glide_esite>  (1) 
-0.051503886696942669

>  <r_i_glide_evdw>  (1) 
-35.492448794492255

>  <r_i_glide_gscore>  (1) 
-6.2691644293017434

>  <r_i_glide_gscore_strain>  (1) 
0.32615848036500239

>  <r_i_glide_hbond>  (1) 
-0.31547638006360906

>  <r_i_glide_ligand_efficiency>  (1) 
-0.1649780112974143

>  <r_i_glide_ligand_efficiency_ln>  (1) 
-1.351816271090394

>  <r_i_glide_ligand_efficiency_sa>  (1) 
-0.55465201664450858

>  <r_i_glide_lipo>  (1) 
-3.7076257805352197

>  <r_i_glide_metal>  (1) 
-0

>  <r_i_glide_rewards>  (1) 
-0.53223549868034004

>  <r_lp_Energy>  (1) 
97.856698999999992

>  <r_lp_tautomer_probability>  (1) 
1

>  <s_epik_Chemistry_Notes>  (1) 
This compound has an imine and may undergo hydrolysis.

>  <s_epik_cmdline>  (1) 
J2VwaWtfcHl0aG9uJywgJy1waHQnLCAnMS4wJywgJy1waCcsICc3LjQnLCAnLXRuJywgJzgnLCAnLW1hJywgJzUwMCcsICctaW1hZScsICc8aW5maWxlLm1hZT4nLCAnLW9tYWUnLCAnPG91dGZpbGUubWFlPic=

>  <s_epik_input>  (1) 
W0NIMl0xW0NIMl1bQ0gyXVtDQEBIXShbQ0BAXTEyW0NIM10pW0NIMl1OKFtDSDNdKVtDQEhdM1tDQEhdKFtDSDJdMilDKD1PKU4oW0NIMl1bQ0gyXTMpW0NIMl1bQ0BASF0oW0NIM10pW0NIMl1OKGMoW2NIXVtjSF1bY0hdNClbY0hdYzRPW0NIM10pQyg9TylDNT1OW0NIMl1bQ0hdPUM1W0NIM10=

>  <s_glide_docking_method>  (1) 
confgen

>  <s_i_glide_gridfile>  (1) 
gpcr_5ht2c_6bqh_protein_autoprepared_prepared

>  <s_lp_Force_Field>  (1) 
S-OPLS

>  <s_lp_Variant>  (1) 
DiffSBDD_23_num_sample_100-1

>  <s_m_source_file>  (1) 
generated__ligand_DiffSBDD_2026-05-06_prepared.sdf

>  <GenAI_Model>  (1) 
DiffSBDD

>  <Protein>  (1) 
GPCR_5HT2C

$$$$
DiffSBDD_21_num_sample_100
     RDKit          3D

  0  0  0  0  0  0  0  0  0  0999 V3000
M  V30 BEGIN CTAB
M  V30 COUNTS 40 40 0 0 1
M  V30 BEGIN ATOM
M  V30 1 C 39.587848 29.842735 51.187633 0
M  V30 2 C 40.388510 26.024916 54.072165 0
M  V30 3 C 39.060239 26.766797 54.367824 0 CFG=2
M  V30 4 C 37.807658 24.159786 57.485056 0
M  V30 5 N 38.275302 26.141382 55.439934 0
M  V30 6 N 37.820884 24.818246 55.108050 0
M  V30 7 C 38.137339 28.155358 52.493051 0
M  V30 8 C 37.038492 24.170960 56.161536 0
M  V30 9 C 38.916429 26.260028 56.769660 0
M  V30 10 C 39.860460 30.778622 52.384211 0
M  V30 11 N 38.179662 26.848496 53.179239 0 CHG=1
M  V30 12 C 39.390895 28.392389 51.636623 0
M  V30 13 C 38.104765 25.602295 57.889048 0
M  V30 14 C 40.728533 29.978710 50.174926 0
M  V30 15 H 38.684534 30.119198 50.653429 0
M  V30 16 H 41.067254 26.079477 54.921657 0
M  V30 17 H 40.267156 24.973731 53.853531 0
M  V30 18 H 40.924253 26.420383 53.219706 0
M  V30 19 H 39.290713 27.782296 54.694213 0
M  V30 20 H 38.748381 23.621445 57.368200 0
M  V30 21 H 37.246363 23.642979 58.253285 0
M  V30 22 H 38.630603 24.244174 54.876156 0
M  V30 23 H 37.254246 28.184456 51.853361 0
M  V30 24 H 37.991065 28.933542 53.240768 0
M  V30 25 H 36.094676 24.704862 56.278111 0
M  V30 26 H 36.787397 23.158314 55.844812 0
M  V30 27 H 39.901752 25.792781 56.740407 0
M  V30 28 H 39.072930 27.314723 57.000775 0
M  V30 29 H 40.667231 30.411709 53.013473 0
M  V30 30 H 40.150234 31.760722 52.026567 0
M  V30 31 H 39.001334 30.913465 53.041769 0
M  V30 32 H 38.415408 26.119144 52.524085 0
M  V30 33 H 40.271355 28.114725 52.195464 0
M  V30 34 H 39.352408 27.736648 50.766104 0
M  V30 35 H 38.655524 25.635980 58.828263 0
M  V30 36 H 37.174819 26.146837 58.048364 0
M  V30 37 H 41.686039 29.755010 50.647372 0
M  V30 38 H 40.589560 29.312440 49.322421 0
M  V30 39 H 40.787335 30.997024 49.787697 0
M  V30 40 H 37.246476 26.657512 53.516612 0
M  V30 END ATOM
M  V30 BEGIN BOND
M  V30 1 1 3 2
M  V30 2 1 5 3
M  V30 3 1 6 5
M  V30 4 1 8 4
M  V30 5 1 8 6
M  V30 6 1 9 5
M  V30 7 1 10 1
M  V30 8 1 11 3
M  V30 9 1 11 7
M  V30 10 1 12 1
M  V30 11 1 12 7
M  V30 12 1 13 4
M  V30 13 1 13 9
M  V30 14 1 14 1
M  V30 15 1 15 1
M  V30 16 1 16 2
M  V30 17 1 17 2
M  V30 18 1 18 2
M  V30 19 1 3 19 CFG=1
M  V30 20 1 20 4
M  V30 21 1 21 4
M  V30 22 1 22 6
M  V30 23 1 23 7
M  V30 24 1 24 7
M  V30 25 1 25 8
M  V30 26 1 26 8
M  V30 27 1 27 9
M  V30 28 1 28 9
M  V30 29 1 29 10
M  V30 30 1 30 10
M  V30 31 1 31 10
M  V30 32 1 32 11
M  V30 33 1 33 12
M  V30 34 1 34 12
M  V30 35 1 35 13
M  V30 36 1 36 13
M  V30 37 1 37 14
M  V30 38 1 38 14
M  V30 39 1 39 14
M  V30 40 1 40 11
M  V30 END BOND
M  V30 END CTAB
M  END
>  <i_epik_Tot_Q>  (1) 
1

>  <i_epik_Tot_abs_Q>  (1) 
1

>  <i_i_glide_confnum>  (1) 
86

>  <i_i_glide_lignum>  (1) 
57

>  <i_i_glide_posenum>  (1) 
278

>  <i_i_glide_rotatable_bonds>  (1) 
5

>  <i_lp_mmshare_version>  (1) 
72125

>  <i_m_source_file_index>  (1) 
22

>  <i_f3d_flags>  (1) 
0

>  <num_sample>  (1) 
100

>  <b_lp_Chiralities_Consistent>  (1) 
1

>  <r_epik_Charging_Adjusted_Penalty>  (1) 
0.0010092621186252495

>  <r_epik_Ionization_Penalty>  (1) 
0.001234333594752046

>  <r_epik_Ionization_Penalty_Charging>  (1) 
0.0010092621186252495

>  <r_epik_Ionization_Penalty_Neutral>  (1) 
0.0002250714761267966

>  <r_epik_State_Penalty>  (1) 
-0

>  <r_glide_ring_energy>  (1) 
0.34572335091878692

>  <r_i_docking_score>  (1) 
-6.2687260339164164

>  <r_i_glide_ecoul>  (1) 
-0.25460694762897695

>  <r_i_glide_eff_state_penalty>  (1) 
-0

>  <r_i_glide_einternal>  (1) 
3.1379552713037793

>  <r_i_glide_emodel>  (1) 
-31.582962897540515

>  <r_i_glide_emodel_strain>  (1) 
0.11621901925601108

>  <r_i_glide_energy>  (1) 
-22.149878191513004

>  <r_i_glide_erotb>  (1) 
1.2214352924196943

>  <r_i_glide_esite>  (1) 
0

>  <r_i_glide_evdw>  (1) 
-21.895271243884025

>  <r_i_glide_gscore>  (1) 
-6.2687260339164164

>  <r_i_glide_gscore_strain>  (1) 
0

>  <r_i_glide_hbond>  (1) 
0

>  <r_i_glide_ligand_efficiency>  (1) 
-0.44776614527974401

>  <r_i_glide_ligand_efficiency_ln>  (1) 
-1.7226235989470331

>  <r_i_glide_ligand_efficiency_sa>  (1) 
-1.0791801112055373

>  <r_i_glide_lipo>  (1) 
-3.1418674035005796

>  <r_i_glide_metal>  (1) 
-0

>  <r_i_glide_rewards>  (1) 
-3.2153393184969836

>  <r_lp_Energy>  (1) 
8.4597719999999992

>  <r_lp_tautomer_probability>  (1) 
1

>  <s_epik_Chemistry_Notes>  (1) 
This compound contains an acetal/aminal-like group ( X-CH(R)-Y where X, Y are N, S, or O) that may be acid/base labile, releasing an aldehyde.

>  <s_epik_cmdline>  (1) 
J2VwaWtfcHl0aG9uJywgJy1waHQnLCAnMS4wJywgJy1waCcsICc3LjQnLCAnLXRuJywgJzgnLCAnLW1hJywgJzUwMCcsICctaW1hZScsICc8aW5maWxlLm1hZT4nLCAnLW9tYWUnLCAnPG91dGZpbGUubWFlPic=

>  <s_epik_input>  (1) 
W0NIM11bQ0hdKFtDSDNdKVtDSDJdW0NIMl1bTkhdW0NASF0oW0NIM10pTjFbTkhdW0NIMl1bQ0gyXVtDSDJdW0NIMl0x

>  <s_glide_docking_method>  (1) 
confgen

>  <s_i_glide_gridfile>  (1) 
gpcr_5ht2c_6bqh_protein_autoprepared_prepared

>  <s_lp_Force_Field>  (1) 
S-OPLS

>  <s_lp_Variant>  (1) 
DiffSBDD_21_num_sample_100-1

>  <s_m_source_file>  (1) 
generated__ligand_DiffSBDD_2026-05-06_prepared.sdf

>  <GenAI_Model>  (1) 
DiffSBDD

>  <Protein>  (1) 
GPCR_5HT2C

$$$$
DiffSBDD_93_num_sample_100
     RDKit          3D

  0  0  0  0  0  0  0  0  0  0999 V3000
M  V30 BEGIN CTAB
M  V30 COUNTS 74 77 0 0 1
M  V30 BEGIN ATOM
M  V30 1 C 38.593219 27.966317 57.520215 0
M  V30 2 S 40.135042 33.394899 62.014844 0
M  V30 3 C 37.954489 25.872344 56.224658 0 CFG=2
M  V30 4 O 41.719375 29.453589 64.999127 0
M  V30 5 C 36.296282 37.218627 60.225257 0
M  V30 6 C 40.695134 29.980152 62.332474 0 CFG=1
M  V30 7 C 38.935540 36.411491 61.410207 0
M  V30 8 C 38.806366 34.438140 59.886593 0
M  V30 9 C 38.521199 26.548981 54.972412 0
M  V30 10 N 39.067405 32.129538 59.853729 0
M  V30 11 C 36.474863 37.885788 61.575120 0
M  V30 12 C 38.295551 26.643502 57.487650 0
M  V30 13 C 38.918708 28.607661 58.824779 0
M  V30 14 C 39.293501 30.732227 60.225194 0 CFG=1
M  V30 15 C 38.135467 28.025502 54.956113 0
M  V30 16 Cl 40.267346 29.221445 55.853487 0
M  V30 17 O 36.245662 37.221424 63.894897 0
M  V30 18 C 38.604488 28.777557 56.215602 0 CFG=2
M  V30 19 C 39.151080 27.753020 60.048736 0
M  V30 20 C 39.744994 32.161162 63.265175 0
M  V30 21 C 41.777791 28.928185 62.662325 0
M  V30 22 C 39.011918 29.957240 58.919003 0
M  V30 23 C 38.266601 36.522960 62.776836 0
M  V30 24 C 40.820082 31.086013 63.404983 0 CFG=1
M  V30 25 C 38.780952 33.194984 60.809527 0 CFG=1
M  V30 26 C 36.770330 36.822224 62.655085 0 CFG=2
M  V30 27 C 40.724974 30.451899 64.814133 0
M  V30 28 C 41.592190 28.377124 64.081172 0
M  V30 29 C 37.062946 36.213154 59.757182 0
M  V30 30 S 37.069852 32.961739 61.395932 0
M  V30 31 N 38.177991 35.664495 60.395057 0
M  V30 32 C 38.424919 24.421502 56.340601 0
M  V30 33 C 40.711383 30.474737 60.843634 0
M  V30 34 H 36.865151 25.862519 56.152926 0
M  V30 35 H 35.467859 37.563732 59.633070 0
M  V30 36 H 39.735970 29.487804 62.500274 0
M  V30 37 H 39.951049 36.032816 61.513516 0
M  V30 38 H 39.067367 37.429501 61.053493 0
M  V30 39 H 38.307489 34.187084 58.947866 0
M  V30 40 H 39.842575 34.655822 59.621441 0
M  V30 41 H 39.607697 26.451549 54.948708 0
M  V30 42 H 38.143625 26.054994 54.076471 0
M  V30 43 H 38.291459 32.137648 59.205496 0
M  V30 44 H 35.531853 38.386732 61.799534 0
M  V30 45 H 37.226793 38.673005 61.523899 0
M  V30 46 H 38.279510 26.073339 58.400931 0
M  V30 47 H 38.512425 30.436836 60.926347 0
M  V30 48 H 38.522076 28.507576 54.056855 0
M  V30 49 H 37.067404 28.107542 54.859532 0
M  V30 50 H 35.992872 36.446643 64.378501 0
M  V30 51 H 38.023237 29.695056 56.305771 0
M  V30 52 H 39.622162 26.821427 59.756734 0
M  V30 53 H 39.882300 28.143492 60.729825 0
M  V30 54 H 38.258355 27.621063 60.634794 0
M  V30 55 H 39.656869 32.716765 64.197345 0
M  V30 56 H 38.786922 31.692315 63.053506 0
M  V30 57 H 42.768746 29.376522 62.653495 0
M  V30 58 H 41.775580 28.110006 61.943020 0
M  V30 59 H 38.866925 30.559668 58.036749 0
M  V30 60 H 38.759704 37.321134 63.332578 0
M  V30 61 H 38.458335 35.621429 63.344027 0
M  V30 62 H 41.799788 31.560142 63.323433 0
M  V30 63 H 36.267345 35.888935 62.404912 0
M  V30 64 H 40.867399 31.210611 65.584867 0
M  V30 65 H 39.736604 30.021524 64.984047 0
M  V30 66 H 42.360895 27.635575 64.301017 0
M  V30 67 H 40.629324 27.880274 64.198737 0
M  V30 68 H 36.845557 35.750252 58.804047 0
M  V30 69 H 36.484314 33.553093 60.350612 0
M  V30 70 H 37.949789 23.925011 57.188372 0
M  V30 71 H 38.173125 23.865203 55.437691 0
M  V30 72 H 39.504800 24.375618 56.485938 0
M  V30 73 H 41.365254 31.338666 60.730862 0
M  V30 74 H 41.206450 29.728975 60.222647 0
M  V30 END ATOM
M  V30 BEGIN BOND
M  V30 1 1 9 3
M  V30 2 1 11 5
M  V30 3 2 12 1
M  V30 4 1 12 3
M  V30 5 1 13 1
M  V30 6 1 14 10
M  V30 7 1 15 9
M  V30 8 1 18 1
M  V30 9 1 18 15
M  V30 10 1 18 16
M  V30 11 1 19 13
M  V30 12 1 20 2
M  V30 13 1 21 6
M  V30 14 2 22 13
M  V30 15 1 22 14
M  V30 16 1 23 7
M  V30 17 1 24 6
M  V30 18 1 24 20
M  V30 19 1 25 2
M  V30 20 1 25 8
M  V30 21 1 25 10
M  V30 22 1 26 11
M  V30 23 1 26 17
M  V30 24 1 26 23
M  V30 25 1 27 4
M  V30 26 1 27 24
M  V30 27 1 28 4
M  V30 28 1 28 21
M  V30 29 2 29 5
M  V30 30 1 25 30 CFG=1
M  V30 31 1 31 7
M  V30 32 1 31 8
M  V30 33 1 31 29
M  V30 34 1 32 3
M  V30 35 1 33 6
M  V30 36 1 33 14
M  V30 37 1 3 34 CFG=3
M  V30 38 1 35 5
M  V30 39 1 6 36 CFG=1
M  V30 40 1 37 7
M  V30 41 1 38 7
M  V30 42 1 39 8
M  V30 43 1 40 8
M  V30 44 1 41 9
M  V30 45 1 42 9
M  V30 46 1 43 10
M  V30 47 1 44 11
M  V30 48 1 45 11
M  V30 49 1 46 12
M  V30 50 1 14 47 CFG=1
M  V30 51 1 48 15
M  V30 52 1 49 15
M  V30 53 1 50 17
M  V30 54 1 18 51 CFG=1
M  V30 55 1 52 19
M  V30 56 1 53 19
M  V30 57 1 54 19
M  V30 58 1 55 20
M  V30 59 1 56 20
M  V30 60 1 57 21
M  V30 61 1 58 21
M  V30 62 1 59 22
M  V30 63 1 60 23
M  V30 64 1 61 23
M  V30 65 1 24 62 CFG=1
M  V30 66 1 26 63 CFG=3
M  V30 67 1 64 27
M  V30 68 1 65 27
M  V30 69 1 66 28
M  V30 70 1 67 28
M  V30 71 1 68 29
M  V30 72 1 69 30
M  V30 73 1 70 32
M  V30 74 1 71 32
M  V30 75 1 72 32
M  V30 76 1 73 33
M  V30 77 1 74 33
M  V30 END BOND
M  V30 END CTAB
M  END
>  <i_epik_Tot_Q>  (1) 
0

>  <i_epik_Tot_abs_Q>  (1) 
0

>  <i_i_glide_confnum>  (1) 
46

>  <i_i_glide_lignum>  (1) 
249

>  <i_i_glide_posenum>  (1) 
34

>  <i_i_glide_rotatable_bonds>  (1) 
6

>  <i_lp_mmshare_version>  (1) 
72125

>  <i_m_source_file_index>  (1) 
94

>  <i_f3d_flags>  (1) 
0

>  <num_sample>  (1) 
100

>  <b_lp_Chiralities_Consistent>  (1) 
1

>  <r_epik_Charging_Adjusted_Penalty>  (1) 
0.20325292957253988

>  <r_epik_Ionization_Penalty>  (1) 
0.031936562948065232

>  <r_epik_Ionization_Penalty_Charging>  (1) 
3.6030848355623751e-07

>  <r_epik_Ionization_Penalty_Neutral>  (1) 
0.031936202639581676

>  <r_epik_State_Penalty>  (1) 
0.20325256926405633

>  <r_glide_ring_energy>  (1) 
0

>  <r_i_docking_score>  (1) 
-6.2672928695850016

>  <r_i_glide_ecoul>  (1) 
-4.085399528279261

>  <r_i_glide_eff_state_penalty>  (1) 
0.20325256926405633

>  <r_i_glide_einternal>  (1) 
22.599402865675369

>  <r_i_glide_emodel>  (1) 
-21.177418005287301

>  <r_i_glide_emodel_strain>  (1) 
3.4757097059725197

>  <r_i_glide_energy>  (1) 
-34.504397824742647

>  <r_i_glide_erotb>  (1) 
0.31140238833871409

>  <r_i_glide_esite>  (1) 
0

>  <r_i_glide_evdw>  (1) 
-30.418998296463386

>  <r_i_glide_gscore>  (1) 
-6.470545438849058

>  <r_i_glide_gscore_strain>  (1) 
0

>  <r_i_glide_hbond>  (1) 
-0.13785637218013644

>  <r_i_glide_ligand_efficiency>  (1) 
-0.18991796574500006

>  <r_i_glide_ligand_efficiency_ln>  (1) 
-1.3938134838899285

>  <r_i_glide_ligand_efficiency_sa>  (1) 
-0.60916839501005915

>  <r_i_glide_lipo>  (1) 
-3.9593939034896826

>  <r_i_glide_metal>  (1) 
-0

>  <r_i_glide_rewards>  (1) 
-0.55093770745289472

>  <r_lp_Energy>  (1) 
26.366080999999998

>  <s_epik_Chemistry_Notes>  (1) 
This compound has an imine and may undergo hydrolysis.

>  <s_epik_cmdline>  (1) 
J2VwaWtfcHl0aG9uJywgJy1waHQnLCAnMS4wJywgJy1waCcsICc3LjQnLCAnLXRuJywgJzgnLCAnLW1hJywgJzUwMCcsICctaW1hZScsICc8aW5maWxlLm1hZT4nLCAnLW9tYWUnLCAnPG91dGZpbGUubWFlPic=

>  <s_epik_input>  (1) 
Q2xbQ0BIXTFbQ0gyXVtDSDJdW0NAQEhdKFtDSDNdKVtDSF09QzEvQyhbQ0gzXSk9W0NIXS9bQ0BASF0oW0NIMl0yKVtOSF1bQ0BAXShbU0hdKShTW0NIMl1bQ0BIXShbQ0BASF0yMylbQ0gyXU9bQ0gyXVtDSDJdMylbQ0gyXU4oW0NIMl1bQ0gyXTQpW0NIXT1bQ0hdW0NIMl1bQ0BASF00W09IXQ==

>  <s_glide_docking_method>  (1) 
confgen

>  <s_i_glide_gridfile>  (1) 
gpcr_5ht2c_6bqh_protein_autoprepared_prepared

>  <s_lp_Force_Field>  (1) 
S-OPLS

>  <s_lp_Variant>  (1) 
DiffSBDD_93_num_sample_100-1

>  <s_m_source_file>  (1) 
generated__ligand_DiffSBDD_2026-05-06_prepared.sdf

>  <GenAI_Model>  (1) 
DiffSBDD

>  <Protein>  (1) 
GPCR_5HT2C

$$$$
DiffSBDD_60_num_sample_100
     RDKit          3D

  0  0  0  0  0  0  0  0  0  0999 V3000
M  V30 BEGIN CTAB
M  V30 COUNTS 75 77 0 0 1
M  V30 BEGIN ATOM
M  V30 1 C 38.303459 28.602383 54.407850 0
M  V30 2 C 35.973150 38.848670 62.524269 0
M  V30 3 C 35.754770 37.672481 63.261176 0
M  V30 4 C 38.598319 32.342722 59.192862 0
M  V30 5 N 39.038571 30.476414 53.828325 0
M  V30 6 C 37.987971 27.543335 57.239250 0
M  V30 7 C 40.503495 35.714582 62.369472 0
M  V30 8 C 37.633595 31.287527 61.305071 0
M  V30 9 C 38.912824 31.785015 60.590932 0 CFG=2
M  V30 10 C 38.924805 31.915727 55.864503 0
M  V30 11 C 39.235542 34.858279 62.501393 0 CFG=1
M  V30 12 O 39.827175 29.707281 58.031378 0
M  V30 13 C 40.418585 32.605248 63.492458 0 CFG=1
M  V30 14 C 41.903433 32.715201 63.084230 0
M  V30 15 C 37.955669 31.400817 58.154800 0 CFG=1
M  V30 16 N 37.867404 32.135185 56.868214 0 CHG=1
M  V30 17 C 38.110589 35.234544 61.498710 0
M  V30 18 C 38.727398 30.627544 55.147020 0
M  V30 19 C 37.771364 29.047476 56.972463 0 CFG=1
M  V30 20 C 38.429832 29.905647 58.078633 0 CFG=1
M  V30 21 O 34.865810 37.656997 64.296596 0
M  V30 22 C 36.447772 36.508260 62.929387 0
M  V30 23 C 38.248216 29.427566 55.583112 0
M  V30 24 C 40.581416 30.336908 64.448565 0
M  V30 25 C 40.013155 30.544714 65.854581 0
M  V30 26 C 36.882063 38.850093 61.453482 0
M  V30 27 C 39.404143 33.294670 62.531118 0 CFG=2
M  V30 28 O 39.629113 32.877742 61.184264 0
M  V30 29 N 38.785178 29.251207 53.347493 0
M  V30 30 C 41.284778 35.427868 61.105527 0
M  V30 31 C 37.363165 36.503647 61.856472 0
M  V30 32 C 37.574620 37.677286 61.115770 0
M  V30 33 O 40.022875 31.230069 63.487495 0
M  V30 34 H 38.015558 27.567158 54.297688 0
M  V30 35 H 35.467402 39.752221 62.783085 0
M  V30 36 H 37.916118 33.182631 59.330183 0
M  V30 37 H 39.477835 32.817874 58.767576 0
M  V30 38 H 37.439087 26.924031 56.531201 0
M  V30 39 H 37.652294 27.265460 58.237901 0
M  V30 40 H 39.040172 27.267268 57.155945 0
M  V30 41 H 41.139067 35.582004 63.243768 0
M  V30 42 H 40.230626 36.771666 62.381810 0
M  V30 43 H 37.138741 30.494907 60.746112 0
M  V30 44 H 36.904419 32.087417 61.434804 0
M  V30 45 H 37.866954 30.865192 62.282556 0
M  V30 46 H 39.613938 30.953628 60.514856 0
M  V30 47 H 38.885972 32.741537 55.152357 0
M  V30 48 H 39.905701 31.953596 56.333747 0
M  V30 49 H 38.878465 35.212955 63.453691 0
M  V30 50 H 40.000513 28.777375 58.045860 0
M  V30 51 H 40.280748 33.014717 64.492806 0
M  V30 52 H 42.265022 33.738153 63.116308 0
M  V30 53 H 42.069597 32.327170 62.079664 0
M  V30 54 H 42.559304 32.168323 63.757739 0
M  V30 55 H 36.916369 31.327008 58.473842 0
M  V30 56 H 36.938909 31.922250 56.489615 0
M  V30 57 H 38.488775 35.297800 60.478667 0
M  V30 58 H 37.356415 34.448184 61.471186 0
M  V30 59 H 36.701056 29.237184 57.053523 0
M  V30 60 H 38.134661 29.459404 59.027270 0
M  V30 61 H 36.267295 35.621433 63.488334 0
M  V30 62 H 41.668627 30.359743 64.458571 0
M  V30 63 H 40.319122 29.330749 64.123636 0
M  V30 64 H 40.422855 29.808254 66.545668 0
M  V30 65 H 38.931048 30.421201 65.853114 0
M  V30 66 H 40.256041 31.530086 66.248876 0
M  V30 67 H 37.050815 39.756321 60.891393 0
M  V30 68 H 38.434658 32.956144 62.876337 0
M  V30 69 H 39.422089 31.203959 53.238462 0
M  V30 70 H 42.182996 36.021429 61.056990 0
M  V30 71 H 40.665919 35.654892 60.251728 0
M  V30 72 H 41.584435 34.389863 61.053500 0
M  V30 73 H 38.267427 37.679316 60.291326 0
M  V30 74 H 34.720459 36.775944 64.628086 0
M  V30 75 H 37.839933 33.118816 57.088491 0
M  V30 END ATOM
M  V30 BEGIN BOND
M  V30 1 2 3 2
M  V30 2 1 9 4
M  V30 3 1 9 8
M  V30 4 1 11 7
M  V30 5 1 14 13
M  V30 6 1 15 4
M  V30 7 1 16 10
M  V30 8 1 16 15
M  V30 9 1 17 11
M  V30 10 1 18 5
M  V30 11 1 18 10
M  V30 12 1 19 6
M  V30 13 1 20 12
M  V30 14 1 20 15
M  V30 15 1 20 19
M  V30 16 1 21 3
M  V30 17 1 22 3
M  V30 18 1 23 1
M  V30 19 2 23 18
M  V30 20 1 23 19
M  V30 21 1 25 24
M  V30 22 1 26 2
M  V30 23 1 27 11
M  V30 24 1 27 13
M  V30 25 1 28 9
M  V30 26 1 28 27
M  V30 27 2 29 1
M  V30 28 1 29 5
M  V30 29 1 30 7
M  V30 30 1 31 17
M  V30 31 2 31 22
M  V30 32 2 32 26
M  V30 33 1 32 31
M  V30 34 1 33 13
M  V30 35 1 33 24
M  V30 36 1 34 1
M  V30 37 1 35 2
M  V30 38 1 36 4
M  V30 39 1 37 4
M  V30 40 1 38 6
M  V30 41 1 39 6
M  V30 42 1 40 6
M  V30 43 1 41 7
M  V30 44 1 42 7
M  V30 45 1 43 8
M  V30 46 1 44 8
M  V30 47 1 45 8
M  V30 48 1 9 46 CFG=3
M  V30 49 1 47 10
M  V30 50 1 48 10
M  V30 51 1 11 49 CFG=1
M  V30 52 1 50 12
M  V30 53 1 13 51 CFG=1
M  V30 54 1 52 14
M  V30 55 1 53 14
M  V30 56 1 54 14
M  V30 57 1 15 55 CFG=1
M  V30 58 1 56 16
M  V30 59 1 57 17
M  V30 60 1 58 17
M  V30 61 1 19 59 CFG=3
M  V30 62 1 20 60 CFG=1
M  V30 63 1 61 22
M  V30 64 1 62 24
M  V30 65 1 63 24
M  V30 66 1 64 25
M  V30 67 1 65 25
M  V30 68 1 66 25
M  V30 69 1 67 26
M  V30 70 1 27 68 CFG=1
M  V30 71 1 69 5
M  V30 72 1 70 30
M  V30 73 1 71 30
M  V30 74 1 72 30
M  V30 75 1 73 32
M  V30 76 1 74 21
M  V30 77 1 75 16
M  V30 END BOND
M  V30 END CTAB
M  END
>  <i_epik_Tot_Q>  (1) 
1

>  <i_epik_Tot_abs_Q>  (1) 
1

>  <i_i_glide_confnum>  (1) 
1522

>  <i_i_glide_lignum>  (1) 
153

>  <i_i_glide_posenum>  (1) 
109

>  <i_i_glide_rotatable_bonds>  (1) 
13

>  <i_lp_mmshare_version>  (1) 
72125

>  <i_m_source_file_index>  (1) 
61

>  <i_f3d_flags>  (1) 
0

>  <num_sample>  (1) 
100

>  <b_lp_Chiralities_Consistent>  (1) 
1

>  <r_epik_Charging_Adjusted_Penalty>  (1) 
1.0909141645048002

>  <r_epik_Ionization_Penalty>  (1) 
0.35907651910540517

>  <r_epik_Ionization_Penalty_Charging>  (1) 
0.3574178230480502

>  <r_epik_Ionization_Penalty_Neutral>  (1) 
0.0016586960573549945

>  <r_epik_State_Penalty>  (1) 
0.73349634145674991

>  <r_glide_ring_energy>  (1) 
0

>  <r_i_docking_score>  (1) 
-6.2642362354654795

>  <r_i_glide_ecoul>  (1) 
-11.12119202057456

>  <r_i_glide_eff_state_penalty>  (1) 
0.73349634145674991

>  <r_i_glide_einternal>  (1) 
10.062358937785438

>  <r_i_glide_emodel>  (1) 
-55.754242931110539

>  <r_i_glide_emodel_strain>  (1) 
2.8034780270572597

>  <r_i_glide_energy>  (1) 
-40.431509691891598

>  <r_i_glide_erotb>  (1) 
0.85380530184711001

>  <r_i_glide_esite>  (1) 
-0.10000000000000001

>  <r_i_glide_evdw>  (1) 
-29.310317671317041

>  <r_i_glide_gscore>  (1) 
-6.9977325769222292

>  <r_i_glide_gscore_strain>  (1) 
0

>  <r_i_glide_hbond>  (1) 
-0.49447572316125493

>  <r_i_glide_ligand_efficiency>  (1) 
-0.1898253404686509

>  <r_i_glide_ligand_efficiency_ln>  (1) 
-1.3931337042881513

>  <r_i_glide_ligand_efficiency_sa>  (1) 
-0.60887129625634384

>  <r_i_glide_lipo>  (1) 
-3.018069974066615

>  <r_i_glide_metal>  (1) 
-0

>  <r_i_glide_rewards>  (1) 
-1.1052974948894332

>  <r_lp_Energy>  (1) 
28.272465

>  <r_lp_tautomer_probability>  (1) 
0.49999999999868239

>  <s_epik_cmdline>  (1) 
J2VwaWtfcHl0aG9uJywgJy1waHQnLCAnMS4wJywgJy1waCcsICc3LjQnLCAnLXRuJywgJzgnLCAnLW1hJywgJzUwMCcsICctaW1hZScsICc8aW5maWxlLm1hZT4nLCAnLW9tYWUnLCAnPG91dGZpbGUubWFlPic=

>  <s_epik_input>  (1) 
bjFbbkhdW2NIXWMoYzEyKVtDQEBIXShbQ0gzXSlbQ0BASF0oW09IXSlbQ0BIXShbTkhdW0NIMl0yKVtDSDJdW0NASF0oW0NIM10pT1tDQEBIXShbQ0BIXShbQ0gzXSlPW0NIMl1bQ0gzXSlbQ0BASF0oW0NIMl1bQ0gzXSlbQ0gyXUMoPVtDSF0zKVtDSDJdW0NIXT1bQ0hdQzM9Tw==

>  <s_glide_docking_method>  (1) 
confgen

>  <s_i_glide_gridfile>  (1) 
gpcr_5ht2c_6bqh_protein_autoprepared_prepared

>  <s_lp_Force_Field>  (1) 
S-OPLS

>  <s_lp_Variant>  (1) 
DiffSBDD_60_num_sample_100-2

>  <s_m_source_file>  (1) 
generated__ligand_DiffSBDD_2026-05-06_prepared.sdf

>  <GenAI_Model>  (1) 
DiffSBDD

>  <Protein>  (1) 
GPCR_5HT2C

$$$$
DiffSBDD_44_num_sample_100
     RDKit          3D

  0  0  0  0  0  0  0  0  0  0999 V3000
M  V30 BEGIN CTAB
M  V30 COUNTS 58 59 0 0 1
M  V30 BEGIN ATOM
M  V30 1 C 35.219397 33.289235 61.138118 0
M  V30 2 O 38.667550 31.844448 60.174584 0 CHG=-1
M  V30 3 C 39.379657 29.931534 53.645464 0
M  V30 4 C 36.370562 33.613807 59.070078 0 CFG=1
M  V30 5 N 36.559409 32.189348 59.453530 0 CFG=2 CHG=1
M  V30 6 C 38.575047 27.792758 54.573419 0
M  V30 7 N 39.366024 29.551928 57.029888 0
M  V30 8 C 38.870004 29.288402 54.666694 0
M  V30 9 O 38.310691 31.407361 55.835741 0
M  V30 10 C 35.085955 34.019527 59.797909 0 CFG=1
M  V30 11 C 33.801402 33.620737 59.061636 0
M  V30 12 C 37.851482 30.029237 58.976887 0 CFG=1
M  V30 13 C 39.141209 29.504089 58.293933 0
M  V30 14 C 35.924570 31.972175 60.782168 0
M  V30 15 C 39.470288 32.229971 55.876808 0
M  V30 16 C 39.935078 28.811611 51.519257 0
M  V30 17 C 37.886218 31.577626 59.151197 0 CFG=2
M  V30 18 C 38.468812 29.989795 55.964550 0 CFG=2
M  V30 19 F 37.746410 28.021431 51.853495 0
M  V30 20 C 39.012536 27.630173 51.953304 0 CFG=2
M  V30 21 C 39.867391 30.021416 52.436624 0
M  V30 22 C 36.536264 29.435983 58.437022 0
M  V30 23 C 40.162783 28.919557 59.249209 0
M  V30 24 C 37.531477 34.542308 59.487780 0
M  V30 25 C 39.211355 27.024772 53.373646 0
M  V30 26 H 34.268684 33.154445 61.653763 0
M  V30 27 H 35.854189 33.868792 61.809441 0
M  V30 28 H 36.267282 33.683464 57.987053 0
M  V30 29 H 38.895851 27.314572 55.499322 0
M  V30 30 H 37.490790 27.679293 54.535616 0
M  V30 31 H 35.069154 35.099686 59.909138 0
M  V30 32 H 33.867380 32.613139 58.653538 0
M  V30 33 H 32.934878 33.645540 59.721823 0
M  V30 34 H 33.606348 34.320370 58.253502 0
M  V30 35 H 37.875088 29.608243 59.984543 0
M  V30 36 H 35.196260 31.169120 60.690174 0
M  V30 37 H 36.624162 31.689266 61.568271 0
M  V30 38 H 39.199824 33.242018 55.576667 0
M  V30 39 H 39.867399 32.289540 56.885881 0
M  V30 40 H 40.267415 31.885809 55.222303 0
M  V30 41 H 39.649930 29.134564 50.517147 0
M  V30 42 H 40.971959 28.481625 51.453468 0
M  V30 43 H 38.088516 31.980804 58.168649 0
M  V30 44 H 37.469962 29.599099 56.111261 0
M  V30 45 H 39.126060 26.831569 51.218609 0
M  V30 46 H 40.228255 30.960265 52.041684 0
M  V30 47 H 36.672569 28.413789 58.086662 0
M  V30 48 H 35.775267 29.403438 59.214954 0
M  V30 49 H 36.118226 30.021423 57.626863 0
M  V30 50 H 39.795944 27.981657 59.666248 0
M  V30 51 H 41.106347 28.725948 58.737430 0
M  V30 52 H 40.357230 29.612741 60.067990 0
M  V30 53 H 37.348303 35.565978 59.160901 0
M  V30 54 H 37.679002 34.557825 60.567259 0
M  V30 55 H 38.475337 34.223240 59.053380 0
M  V30 56 H 40.267384 26.821427 53.553050 0
M  V30 57 H 38.746005 26.039785 53.385244 0
M  V30 58 H 35.945266 31.734577 58.784443 0
M  V30 END ATOM
M  V30 BEGIN BOND
M  V30 1 1 5 4
M  V30 2 2 8 3
M  V30 3 1 8 6
M  V30 4 1 10 1
M  V30 5 1 10 4
M  V30 6 1 11 10
M  V30 7 2 13 7
M  V30 8 1 13 12
M  V30 9 1 14 1
M  V30 10 1 14 5
M  V30 11 1 15 9
M  V30 12 1 17 2
M  V30 13 1 17 5
M  V30 14 1 17 12
M  V30 15 1 18 7
M  V30 16 1 18 8
M  V30 17 1 18 9
M  V30 18 1 20 16
M  V30 19 1 20 19
M  V30 20 2 21 3
M  V30 21 1 21 16
M  V30 22 1 22 12
M  V30 23 1 23 13
M  V30 24 1 24 4
M  V30 25 1 25 6
M  V30 26 1 25 20
M  V30 27 1 26 1
M  V30 28 1 27 1
M  V30 29 1 4 28 CFG=3
M  V30 30 1 29 6
M  V30 31 1 30 6
M  V30 32 1 10 31 CFG=1
M  V30 33 1 32 11
M  V30 34 1 33 11
M  V30 35 1 34 11
M  V30 36 1 12 35 CFG=1
M  V30 37 1 36 14
M  V30 38 1 37 14
M  V30 39 1 38 15
M  V30 40 1 39 15
M  V30 41 1 40 15
M  V30 42 1 41 16
M  V30 43 1 42 16
M  V30 44 1 17 43 CFG=3
M  V30 45 1 18 44 CFG=1
M  V30 46 1 20 45 CFG=3
M  V30 47 1 46 21
M  V30 48 1 47 22
M  V30 49 1 48 22
M  V30 50 1 49 22
M  V30 51 1 50 23
M  V30 52 1 51 23
M  V30 53 1 52 23
M  V30 54 1 53 24
M  V30 55 1 54 24
M  V30 56 1 55 24
M  V30 57 1 56 25
M  V30 58 1 57 25
M  V30 59 1 5 58 CFG=3
M  V30 END BOND
M  V30 END CTAB
M  END
>  <i_epik_Tot_Q>  (1) 
0

>  <i_epik_Tot_abs_Q>  (1) 
2

>  <i_i_glide_confnum>  (1) 
14

>  <i_i_glide_lignum>  (1) 
119

>  <i_i_glide_posenum>  (1) 
29

>  <i_i_glide_rotatable_bonds>  (1) 
6

>  <i_lp_mmshare_version>  (1) 
72125

>  <i_m_source_file_index>  (1) 
45

>  <i_f3d_flags>  (1) 
0

>  <num_sample>  (1) 
100

>  <b_lp_Chiralities_Consistent>  (1) 
1

>  <r_epik_Charging_Adjusted_Penalty>  (1) 
0.41733257654759531

>  <r_epik_Ionization_Penalty>  (1) 
0.0069177268181324029

>  <r_epik_Ionization_Penalty_Charging>  (1) 
0.0066527375949913311

>  <r_epik_Ionization_Penalty_Neutral>  (1) 
0.00026498922314107146

>  <r_epik_State_Penalty>  (1) 
0.41067983895260396

>  <r_glide_ring_energy>  (1) 
0

>  <r_i_docking_score>  (1) 
-6.2606277712034144

>  <r_i_glide_ecoul>  (1) 
-2.4826951514230648

>  <r_i_glide_eff_state_penalty>  (1) 
0.41067983895260396

>  <r_i_glide_einternal>  (1) 
6.8057086960984456

>  <r_i_glide_emodel>  (1) 
-51.870352222716114

>  <r_i_glide_emodel_strain>  (1) 
1.8007098506253243

>  <r_i_glide_energy>  (1) 
-37.813776572562212

>  <r_i_glide_erotb>  (1) 
0.61440649929112812

>  <r_i_glide_esite>  (1) 
-0.16451092905895087

>  <r_i_glide_evdw>  (1) 
-35.331081421139146

>  <r_i_glide_gscore>  (1) 
-6.6713076101560187

>  <r_i_glide_gscore_strain>  (1) 
0

>  <r_i_glide_hbond>  (1) 
-0.17053718497901788

>  <r_i_glide_ligand_efficiency>  (1) 
-0.25042511084813657

>  <r_i_glide_ligand_efficiency_ln>  (1) 
-1.4839563976498404

>  <r_i_glide_ligand_efficiency_sa>  (1) 
-0.7322474662138746

>  <r_i_glide_lipo>  (1) 
-2.6201716520127158

>  <r_i_glide_metal>  (1) 
-0

>  <r_i_glide_rewards>  (1) 
-2.1915359996260451

>  <r_lp_Energy>  (1) 
16.849003

>  <r_lp_tautomer_probability>  (1) 
0.49999399997599986

>  <s_epik_Chemistry_Notes>  (1) 
This compound has an imine and may undergo hydrolysis. This compound contains an acetal/aminal-like group ( X-CH(R)-Y where X, Y are N, S, or O) that may be acid/base labile, releasing an aldehyde.

>  <s_epik_cmdline>  (1) 
J2VwaWtfcHl0aG9uJywgJy1waHQnLCAnMS4wJywgJy1waCcsICc3LjQnLCAnLXRuJywgJzgnLCAnLW1hJywgJzUwMCcsICctaW1hZScsICc8aW5maWxlLm1hZT4nLCAnLW9tYWUnLCAnPG91dGZpbGUubWFlPic=

>  <s_epik_input>  (1) 
W0NIM11bQ0BIXTFbQ0gyXVtDSDJdTihbQ0BASF0xW0NIM10pW0NAQEhdKFtPSF0pW0NAQEhdKFtDSDNdKS9DKFtDSDNdKT1OXFtDQEBIXShPW0NIM10pQzI9Qz1bQ0hdW0NIMl1bQ0BASF0oRilbQ0gyXVtDSDJdMg==

>  <s_glide_docking_method>  (1) 
confgen

>  <s_i_glide_gridfile>  (1) 
gpcr_5ht2c_6bqh_protein_autoprepared_prepared

>  <s_lp_Force_Field>  (1) 
S-OPLS

>  <s_lp_Variant>  (1) 
DiffSBDD_44_num_sample_100-12

>  <s_m_source_file>  (1) 
generated__ligand_DiffSBDD_2026-05-06_prepared.sdf

>  <GenAI_Model>  (1) 
DiffSBDD

>  <Protein>  (1) 
GPCR_5HT2C

$$$$
DiffSBDD_40_num_sample_100
     RDKit          3D

  0  0  0  0  0  0  0  0  0  0999 V3000
M  V30 BEGIN CTAB
M  V30 COUNTS 73 75 0 0 1
M  V30 BEGIN ATOM
M  V30 1 C 42.956984 28.176950 57.853602 0
M  V30 2 C 41.938125 29.752557 64.025184 0 CFG=1
M  V30 3 N 40.213073 29.662068 50.145244 0
M  V30 4 C 40.446224 31.632153 63.110487 0
M  V30 5 C 37.965963 26.286588 56.423510 0
M  V30 6 C 37.146159 30.030469 59.498941 0
M  V30 7 N 39.867138 29.906367 52.469904 0 CHG=1
M  V30 8 C 38.434328 32.642177 61.384201 0
M  V30 9 O 36.068852 31.998023 61.352794 0
M  V30 10 C 37.347057 31.555516 59.305973 0
M  V30 11 C 42.442304 29.086240 65.298968 0
M  V30 12 C 41.484968 28.661993 63.039387 0
M  V30 13 N 38.667429 28.441904 51.453466 0
M  V30 14 C 40.007832 29.038593 58.017332 0 CFG=2
M  V30 15 C 40.819544 30.789211 64.313336 0
M  V30 16 C 38.483232 28.799028 55.931538 0 CFG=1
M  V30 17 C 38.956950 27.318289 55.850438 0 CFG=1
M  V30 18 S 41.398390 32.901761 62.600708 0
M  V30 19 C 39.067586 29.337098 53.441444 0
M  V30 20 N 40.454484 27.626277 57.834464 0 CFG=2 CHG=1
M  V30 21 S 38.947492 31.154207 62.305802 0
M  V30 22 C 41.799756 27.327237 58.408636 0
M  V30 23 C 38.288016 28.400131 52.772546 0
M  V30 24 C 37.151733 32.438746 60.556098 0 CFG=2
M  V30 25 C 40.362846 27.153404 56.432538 0
M  V30 26 O 42.238044 29.708601 66.499475 0
M  V30 27 C 40.216610 29.506440 59.471346 0
M  V30 28 N 43.532169 29.454063 65.797595 0
M  V30 29 C 39.614957 29.352100 51.293329 0
M  V30 30 C 38.627858 29.385408 57.377065 0 CFG=1
M  V30 31 C 39.141467 29.750680 54.887496 0
M  V30 32 C 37.392648 29.122925 58.267831 0
M  V30 33 H 43.906374 27.730694 58.142755 0
M  V30 34 H 42.957419 28.253777 56.770517 0
M  V30 35 H 42.943410 29.190351 58.252184 0
M  V30 36 H 42.786773 30.272154 63.574453 0
M  V30 37 H 40.923699 30.377500 50.080344 0
M  V30 38 H 39.969462 29.218023 49.271226 0
M  V30 39 H 37.899190 26.320427 57.507975 0
M  V30 40 H 36.963627 26.421376 56.018181 0
M  V30 41 H 38.272842 25.272690 56.164757 0
M  V30 42 H 37.745547 29.676171 60.327055 0
M  V30 43 H 36.119902 29.857917 59.823708 0
M  V30 44 H 39.226257 32.965493 60.708569 0
M  V30 45 H 38.280365 33.446818 62.104788 0
M  V30 46 H 35.285140 32.042680 60.822888 0
M  V30 47 H 36.667537 31.902372 58.545793 0
M  V30 48 H 38.322773 31.791047 58.889176 0
M  V30 49 H 42.285846 27.947427 62.851189 0
M  V30 50 H 40.629592 28.108543 63.429337 0
M  V30 51 H 41.202088 29.080603 62.077885 0
M  V30 52 H 38.281198 27.867942 50.713252 0
M  V30 53 H 40.667407 29.621327 57.409881 0
M  V30 54 H 41.133061 31.472828 65.104439 0
M  V30 55 H 39.928887 30.286870 64.694577 0
M  V30 56 H 37.432935 28.815852 55.656724 0
M  V30 57 H 39.047266 27.032684 54.805940 0
M  V30 58 H 41.786430 27.455596 59.487182 0
M  V30 59 H 42.012645 26.274871 58.253509 0
M  V30 60 H 37.522754 27.725112 53.132317 0
M  V30 61 H 36.871153 33.427851 60.192543 0
M  V30 62 H 40.662871 26.105378 56.371467 0
M  V30 63 H 41.067257 27.710782 55.820052 0
M  V30 64 H 39.817880 30.494160 59.650095 0
M  V30 65 H 39.761550 28.818448 60.184027 0
M  V30 66 H 41.268786 29.592591 59.728854 0
M  V30 67 H 38.625789 30.464213 57.233065 0
M  V30 68 H 38.677834 30.735355 54.963616 0
M  V30 69 H 40.192098 29.899858 55.136890 0
M  V30 70 H 37.467259 28.099548 58.618437 0
M  V30 71 H 36.495329 29.200185 57.654858 0
M  V30 72 H 39.799589 27.061160 58.356256 0
M  V30 73 H 40.548362 30.638384 52.629330 0
M  V30 END ATOM
M  V30 BEGIN BOND
M  V30 1 1 10 6
M  V30 2 1 11 2
M  V30 3 1 12 2
M  V30 4 1 15 2
M  V30 5 1 15 4
M  V30 6 1 17 5
M  V30 7 1 17 16
M  V30 8 2 18 4
M  V30 9 1 19 7
M  V30 10 1 20 14
M  V30 11 1 21 4
M  V30 12 1 21 8
M  V30 13 1 22 1
M  V30 14 1 22 20
M  V30 15 1 23 13
M  V30 16 2 23 19
M  V30 17 1 24 8
M  V30 18 1 24 9
M  V30 19 1 24 10
M  V30 20 1 25 17
M  V30 21 1 25 20
M  V30 22 1 26 11
M  V30 23 1 27 14
M  V30 24 2 28 11
M  V30 25 1 28 26
M  V30 26 1 29 3
M  V30 27 2 29 7
M  V30 28 1 29 13
M  V30 29 1 30 14
M  V30 30 1 30 16
M  V30 31 1 31 16
M  V30 32 1 31 19
M  V30 33 1 32 6
M  V30 34 1 32 30
M  V30 35 1 33 1
M  V30 36 1 34 1
M  V30 37 1 35 1
M  V30 38 1 2 36 CFG=3
M  V30 39 1 37 3
M  V30 40 1 38 3
M  V30 41 1 39 5
M  V30 42 1 40 5
M  V30 43 1 41 5
M  V30 44 1 42 6
M  V30 45 1 43 6
M  V30 46 1 44 8
M  V30 47 1 45 8
M  V30 48 1 46 9
M  V30 49 1 47 10
M  V30 50 1 48 10
M  V30 51 1 49 12
M  V30 52 1 50 12
M  V30 53 1 51 12
M  V30 54 1 52 13
M  V30 55 1 14 53 CFG=3
M  V30 56 1 54 15
M  V30 57 1 55 15
M  V30 58 1 16 56 CFG=3
M  V30 59 1 17 57 CFG=3
M  V30 60 1 58 22
M  V30 61 1 59 22
M  V30 62 1 60 23
M  V30 63 1 24 61 CFG=3
M  V30 64 1 62 25
M  V30 65 1 63 25
M  V30 66 1 64 27
M  V30 67 1 65 27
M  V30 68 1 66 27
M  V30 69 1 30 67 CFG=3
M  V30 70 1 68 31
M  V30 71 1 69 31
M  V30 72 1 70 32
M  V30 73 1 71 32
M  V30 74 1 20 72 CFG=1
M  V30 75 1 73 7
M  V30 END BOND
M  V30 END CTAB
M  END
>  <i_epik_Tot_Q>  (1) 
2

>  <i_epik_Tot_abs_Q>  (1) 
2

>  <i_i_glide_confnum>  (1) 
961

>  <i_i_glide_lignum>  (1) 
103

>  <i_i_glide_posenum>  (1) 
57

>  <i_i_glide_rotatable_bonds>  (1) 
14

>  <i_lp_mmshare_version>  (1) 
72125

>  <i_m_source_file_index>  (1) 
41

>  <i_f3d_flags>  (1) 
0

>  <num_sample>  (1) 
100

>  <b_lp_Chiralities_Consistent>  (1) 
1

>  <r_epik_Charging_Adjusted_Penalty>  (1) 
0.0037096170623772918

>  <r_epik_Ionization_Penalty>  (1) 
0.054330814931534903

>  <r_epik_Ionization_Penalty_Charging>  (1) 
0.0037096170623772918

>  <r_epik_Ionization_Penalty_Neutral>  (1) 
0.050621197869157614

>  <r_epik_State_Penalty>  (1) 
-0

>  <r_glide_ring_energy>  (1) 
0

>  <r_i_docking_score>  (1) 
-6.2553514155212282

>  <r_i_glide_ecoul>  (1) 
-5.5656114849314591

>  <r_i_glide_eff_state_penalty>  (1) 
-0

>  <r_i_glide_einternal>  (1) 
12.131818724314954

>  <r_i_glide_emodel>  (1) 
-61.722679098359571

>  <r_i_glide_emodel_strain>  (1) 
1.7992586459610607

>  <r_i_glide_energy>  (1) 
-46.239787582336326

>  <r_i_glide_erotb>  (1) 
0.95438045441749597

>  <r_i_glide_esite>  (1) 
0

>  <r_i_glide_evdw>  (1) 
-40.674176097404867

>  <r_i_glide_gscore>  (1) 
-6.2553514155212282

>  <r_i_glide_gscore_strain>  (1) 
0

>  <r_i_glide_hbond>  (1) 
-0.25658163186382771

>  <r_i_glide_ligand_efficiency>  (1) 
-0.19547973173503838

>  <r_i_glide_ligand_efficiency_ln>  (1) 
-1.4007436963747741

>  <r_i_glide_ligand_efficiency_sa>  (1) 
-0.62060946358932279

>  <r_i_glide_lipo>  (1) 
-2.5389657703376209

>  <r_i_glide_metal>  (1) 
-0

>  <r_i_glide_rewards>  (1) 
-1.5456339401273145

>  <r_lp_Energy>  (1) 
39.041623999999999

>  <r_lp_tautomer_probability>  (1) 
1

>  <s_epik_Chemistry_Notes>  (1) 
This compound has an imine and may undergo hydrolysis.

>  <s_epik_cmdline>  (1) 
J2VwaWtfcHl0aG9uJywgJy1waHQnLCAnMS4wJywgJy1waCcsICc3LjQnLCAnLXRuJywgJzgnLCAnLW1hJywgJzUwMCcsICctaW1hZScsICc8aW5maWxlLm1hZT4nLCAnLW9tYWUnLCAnPG91dGZpbGUubWFlPic=

>  <s_epik_input>  (1) 
W2NIXTFbbkhdYyhbTkgyXSluYzFbQ0gyXVtDQEBIXShbQ0BIXShbQ0gzXSlbQ0gyXU4oW0NAQEhdMltDSDNdKVtDSDJdW0NIM10pW0NAQEhdMltDSDJdW0NIMl1bQ0gyXVtDQEBIXShbT0hdKVtDSDJdU0MoPVMpW0NIMl1bQ0BIXShbQ0gzXSlDMz1OTzM=

>  <s_glide_docking_method>  (1) 
confgen

>  <s_i_glide_gridfile>  (1) 
gpcr_5ht2c_6bqh_protein_autoprepared_prepared

>  <s_lp_Force_Field>  (1) 
S-OPLS

>  <s_lp_Variant>  (1) 
DiffSBDD_40_num_sample_100-4

>  <s_m_source_file>  (1) 
generated__ligand_DiffSBDD_2026-05-06_prepared.sdf

>  <GenAI_Model>  (1) 
DiffSBDD

>  <Protein>  (1) 
GPCR_5HT2C

$$$$
DiffSBDD_85_num_sample_100
     RDKit          3D

  0  0  0  0  0  0  0  0  0  0999 V3000
M  V30 BEGIN CTAB
M  V30 COUNTS 83 87 0 0 1
M  V30 BEGIN ATOM
M  V30 1 C 39.878916 30.747180 50.903602 0
M  V30 2 N 39.757715 31.603890 63.055857 0
M  V30 3 C 42.263151 33.308871 65.385338 0
M  V30 4 Cl 38.749849 31.508317 54.819288 0
M  V30 5 C 39.659055 28.500889 52.056813 0 CFG=1
M  V30 6 C 36.381073 31.163552 60.297561 0
M  V30 7 C 41.051225 31.930440 63.629688 0
M  V30 8 C 42.798148 32.019731 66.031088 0
M  V30 9 O 39.683076 26.146391 54.253552 0
M  V30 10 S 37.860564 28.879959 57.932409 0
M  V30 11 C 42.897386 30.868233 65.016440 0
M  V30 12 O 37.480274 26.451103 54.107318 0 CHG=-1
M  V30 13 C 40.928545 33.068804 64.664399 0
M  V30 14 C 39.069354 27.815578 57.104786 0 CFG=1
M  V30 15 C 40.264393 28.645614 59.095439 0 CFG=1
M  V30 16 C 38.849920 30.646964 59.929672 0 CFG=1
M  V30 17 C 40.480196 29.356365 51.084758 0
M  V30 18 N 39.264005 32.638201 62.137426 0 CHG=1
M  V30 19 C 39.467908 29.206006 53.454893 0 CFG=2
M  V30 20 C 36.607915 32.511231 59.605367 0 CFG=1
M  V30 21 C 41.562283 30.639445 64.296723 0
M  V30 22 C 38.357040 28.078121 51.347096 0
M  V30 23 C 37.891133 32.345598 61.670484 0 CFG=2
M  V30 24 C 38.905534 31.735364 58.823223 0
M  V30 25 C 37.739187 30.969582 60.980489 0 CFG=1
M  V30 26 C 39.598473 31.408172 52.266481 0
M  V30 27 C 38.649937 26.853413 54.287996 0
M  V30 28 C 38.833290 28.354245 54.601022 0 CFG=1
M  V30 29 C 37.286258 33.374260 60.689655 0
M  V30 30 O 40.999698 28.353109 60.270791 0
M  V30 31 C 39.681404 28.491450 55.876162 0
M  V30 32 C 40.158844 27.461649 58.110394 0 CFG=1
M  V30 33 C 38.829754 30.564531 53.303351 0 CFG=2
M  V30 34 C 37.531923 32.265972 58.403716 0
M  V30 35 C 38.854832 29.171512 59.422179 0 CFG=1
M  V30 36 O 39.738574 26.238275 58.653701 0
M  V30 37 H 40.584940 31.362564 50.345839 0
M  V30 38 H 38.998477 30.691524 50.266148 0
M  V30 39 H 39.851735 30.825353 62.418008 0
M  V30 40 H 42.987454 33.701336 64.674211 0
M  V30 41 H 42.134475 34.074590 66.149816 0
M  V30 42 H 40.261309 27.604242 52.202395 0
M  V30 43 H 35.576507 31.246911 61.029578 0
M  V30 44 H 36.108557 30.365648 59.606801 0
M  V30 45 H 41.742049 32.219144 62.837467 0
M  V30 46 H 43.776428 32.202799 66.476458 0
M  V30 47 H 42.142320 31.724584 66.851723 0
M  V30 48 H 43.672072 31.072116 64.278740 0
M  V30 49 H 43.196118 29.953368 65.529200 0
M  V30 50 H 40.613201 33.996541 64.186395 0
M  V30 51 H 40.166316 32.816533 65.403858 0
M  V30 52 H 38.520199 26.916747 56.823961 0
M  V30 53 H 40.806676 29.431164 58.570236 0
M  V30 54 H 39.796688 30.723885 60.461325 0
M  V30 55 H 41.493023 29.436638 51.453163 0
M  V30 56 H 40.567193 28.865501 50.113526 0
M  V30 57 H 39.899740 32.662852 61.354981 0
M  V30 58 H 40.408989 29.621403 53.804613 0
M  V30 59 H 35.672890 32.948433 59.252026 0
M  V30 60 H 40.824588 30.274971 65.014308 0
M  V30 61 H 41.681278 29.849209 63.552921 0
M  V30 62 H 37.563254 28.811021 51.457543 0
M  V30 63 H 38.544487 27.957539 50.282281 0
M  V30 64 H 37.973150 27.121464 51.688402 0
M  V30 65 H 37.255555 32.344529 62.556859 0
M  V30 66 H 39.467264 32.588907 59.200863 0
M  V30 67 H 39.438418 31.379947 57.937843 0
M  V30 68 H 37.730890 30.192430 61.740033 0
M  V30 69 H 40.568844 31.621318 52.702426 0
M  V30 70 H 39.067401 32.349253 52.115588 0
M  V30 71 H 37.834138 28.741114 54.806302 0
M  V30 72 H 38.019031 34.063036 60.265410 0
M  V30 73 H 36.535309 33.981435 61.199717 0
M  V30 74 H 41.740411 27.806433 60.043682 0
M  V30 75 H 39.876508 29.531394 56.118432 0
M  V30 76 H 40.664730 28.066842 55.671521 0
M  V30 77 H 41.123250 27.268209 57.640418 0
M  V30 78 H 37.819242 30.344995 53.053689 0
M  V30 79 H 37.638540 33.160247 57.788635 0
M  V30 80 H 37.067406 31.512580 57.780727 0
M  V30 81 H 38.442627 28.519131 60.193156 0
M  V30 82 H 39.647929 25.617967 57.945212 0
M  V30 83 H 39.293235 33.513685 62.641126 0
M  V30 END ATOM
M  V30 BEGIN BOND
M  V30 1 1 7 2
M  V30 2 1 8 3
M  V30 3 1 11 8
M  V30 4 1 13 3
M  V30 5 1 13 7
M  V30 6 1 14 10
M  V30 7 1 17 1
M  V30 8 1 17 5
M  V30 9 1 18 2
M  V30 10 1 19 5
M  V30 11 1 20 6
M  V30 12 1 21 7
M  V30 13 1 21 11
M  V30 14 1 22 5
M  V30 15 1 23 18
M  V30 16 1 24 16
M  V30 17 1 25 6
M  V30 18 1 25 16
M  V30 19 1 25 23
M  V30 20 1 26 1
M  V30 21 2 27 9
M  V30 22 1 27 12
M  V30 23 1 28 19
M  V30 24 1 28 27
M  V30 25 1 29 20
M  V30 26 1 29 23
M  V30 27 1 30 15
M  V30 28 1 31 14
M  V30 29 1 31 28
M  V30 30 1 32 14
M  V30 31 1 32 15
M  V30 32 1 33 4
M  V30 33 1 33 19
M  V30 34 1 33 26
M  V30 35 1 34 20
M  V30 36 1 34 24
M  V30 37 1 35 10
M  V30 38 1 35 15
M  V30 39 1 35 16
M  V30 40 1 36 32
M  V30 41 1 37 1
M  V30 42 1 38 1
M  V30 43 1 39 2
M  V30 44 1 40 3
M  V30 45 1 41 3
M  V30 46 1 5 42 CFG=1
M  V30 47 1 43 6
M  V30 48 1 44 6
M  V30 49 1 45 7
M  V30 50 1 46 8
M  V30 51 1 47 8
M  V30 52 1 48 11
M  V30 53 1 49 11
M  V30 54 1 50 13
M  V30 55 1 51 13
M  V30 56 1 14 52 CFG=3
M  V30 57 1 15 53 CFG=3
M  V30 58 1 16 54 CFG=1
M  V30 59 1 55 17
M  V30 60 1 56 17
M  V30 61 1 57 18
M  V30 62 1 19 58 CFG=1
M  V30 63 1 20 59 CFG=3
M  V30 64 1 60 21
M  V30 65 1 61 21
M  V30 66 1 62 22
M  V30 67 1 63 22
M  V30 68 1 64 22
M  V30 69 1 23 65 CFG=1
M  V30 70 1 66 24
M  V30 71 1 67 24
M  V30 72 1 25 68 CFG=1
M  V30 73 1 69 26
M  V30 74 1 70 26
M  V30 75 1 28 71 CFG=1
M  V30 76 1 72 29
M  V30 77 1 73 29
M  V30 78 1 74 30
M  V30 79 1 75 31
M  V30 80 1 76 31
M  V30 81 1 32 77 CFG=3
M  V30 82 1 33 78 CFG=3
M  V30 83 1 79 34
M  V30 84 1 80 34
M  V30 85 1 35 81 CFG=1
M  V30 86 1 82 36
M  V30 87 1 83 18
M  V30 END BOND
M  V30 END CTAB
M  END
>  <i_epik_Tot_Q>  (1) 
0

>  <i_epik_Tot_abs_Q>  (1) 
2

>  <i_i_glide_confnum>  (1) 
1574

>  <i_i_glide_lignum>  (1) 
220

>  <i_i_glide_posenum>  (1) 
320

>  <i_i_glide_rotatable_bonds>  (1) 
10

>  <i_lp_mmshare_version>  (1) 
72125

>  <i_m_source_file_index>  (1) 
86

>  <i_f3d_flags>  (1) 
0

>  <num_sample>  (1) 
100

>  <b_lp_Chiralities_Consistent>  (1) 
1

>  <r_epik_Charging_Adjusted_Penalty>  (1) 
0.24139881983135253

>  <r_epik_Ionization_Penalty>  (1) 
0.013577590547947769

>  <r_epik_Ionization_Penalty_Charging>  (1) 
0.013577468157686226

>  <r_epik_Ionization_Penalty_Neutral>  (1) 
1.223902615442005e-07

>  <r_epik_State_Penalty>  (1) 
0.22782135167366629

>  <r_glide_ring_energy>  (1) 
0.40281320993934461

>  <r_i_docking_score>  (1) 
-6.2496987530145942

>  <r_i_glide_ecoul>  (1) 
-0.12884874159255005

>  <r_i_glide_eff_state_penalty>  (1) 
0.22782135167366629

>  <r_i_glide_einternal>  (1) 
9.437706877441741

>  <r_i_glide_emodel>  (1) 
-36.748819350072431

>  <r_i_glide_emodel_strain>  (1) 
0.45389462684786963

>  <r_i_glide_energy>  (1) 
-25.9144954505656

>  <r_i_glide_erotb>  (1) 
0.49083612240102314

>  <r_i_glide_esite>  (1) 
0

>  <r_i_glide_evdw>  (1) 
-25.785646708973051

>  <r_i_glide_gscore>  (1) 
-6.4775201046882609

>  <r_i_glide_gscore_strain>  (1) 
0

>  <r_i_glide_hbond>  (1) 
-0.015261441607747709

>  <r_i_glide_ligand_efficiency>  (1) 
-0.17360274313929427

>  <r_i_glide_ligand_efficiency_ln>  (1) 
-1.3635154205601934

>  <r_i_glide_ligand_efficiency_sa>  (1) 
-0.57322362805449056

>  <r_i_glide_lipo>  (1) 
-4.3668072354503424

>  <r_i_glide_metal>  (1) 
-0

>  <r_i_glide_rewards>  (1) 
-1.2776779033436589

>  <r_lp_Energy>  (1) 
69.240732999999992

>  <s_epik_cmdline>  (1) 
J2VwaWtfcHl0aG9uJywgJy1waHQnLCAnMS4wJywgJy1waCcsICc3LjQnLCAnLXRuJywgJzgnLCAnLW1hJywgJzUwMCcsICctaW1hZScsICc8aW5maWxlLm1hZT4nLCAnLW9tYWUnLCAnPG91dGZpbGUubWFlPic=

>  <s_epik_input>  (1) 
W0NIM11bQ0BIXTFbQ0gyXVtDSDJdW0NIMl1bQ0BIXShDbClbQ0BIXTFbQ0BASF0oQyg9TylbT0hdKVtDSDJdW0NAQEhdMlNbQ0BASF0oW0NAQEhdKFtPSF0pW0NASF0yW09IXSlbQ0BASF0oW0NIMl1bQ0gyXTMpW0NASF0oW0NIMl1bQ0BIXTM0KVtDQEhdKFtDSDJdNClbTkhdW05IXVtDSF01W0NIMl1bQ0gyXVtDSDJdW0NIMl1bQ0gyXTU=

>  <s_glide_docking_method>  (1) 
confgen

>  <s_i_glide_gridfile>  (1) 
gpcr_5ht2c_6bqh_protein_autoprepared_prepared

>  <s_lp_Force_Field>  (1) 
S-OPLS

>  <s_lp_Variant>  (1) 
DiffSBDD_85_num_sample_100-1

>  <s_m_source_file>  (1) 
generated__ligand_DiffSBDD_2026-05-06_prepared.sdf

>  <GenAI_Model>  (1) 
DiffSBDD

>  <Protein>  (1) 
GPCR_5HT2C

$$$$
DiffSBDD_50_num_sample_100
     RDKit          3D

  0  0  0  0  0  0  0  0  0  0999 V3000
M  V30 BEGIN CTAB
M  V30 COUNTS 53 55 0 0 1
M  V30 BEGIN ATOM
M  V30 1 C 37.944376 25.379748 54.934008 0 CFG=1
M  V30 2 N 39.283704 25.013429 55.364060 0
M  V30 3 C 39.672571 29.895340 55.497574 0
M  V30 4 C 38.199729 30.321461 55.349425 0 CFG=1
M  V30 5 N 38.641805 29.891031 58.565729 0
M  V30 6 C 39.963385 29.045701 60.491432 0
M  V30 7 O 38.267407 32.711426 55.934470 0
M  V30 8 C 39.968625 30.528221 62.529581 0
M  V30 9 C 37.455040 30.476494 57.938869 0 CFG=1
M  V30 10 C 38.393341 31.079768 60.769915 0
M  V30 11 C 40.418409 29.434686 61.894375 0
M  V30 12 C 36.980564 24.572534 55.808987 0
M  V30 13 C 40.160719 26.051804 54.844777 0
M  V30 14 C 39.350981 27.358798 54.835261 0 CFG=1
M  V30 15 C 37.924223 26.881630 55.148565 0
M  V30 16 S 37.743220 24.421432 57.435476 0
M  V30 17 C 38.989012 31.398206 61.927375 0
M  V30 18 F 41.326846 28.661711 62.511007 0
M  V30 19 C 39.354461 24.959123 56.826365 0
M  V30 20 C 38.673833 29.778519 60.019127 0 CFG=1
M  V30 21 C 39.930115 28.405495 55.823603 0
M  V30 22 C 37.272911 29.909344 56.518865 0
M  V30 23 O 36.317926 30.021451 58.653501 0
M  V30 24 C 38.043611 31.787605 54.894107 0
M  V30 25 H 37.799279 25.175462 53.874102 0
M  V30 26 H 40.202010 30.138554 54.575946 0
M  V30 27 H 40.134974 30.512582 56.265841 0
M  V30 28 H 37.835627 29.747907 54.496399 0
M  V30 29 H 39.462478 30.363710 58.218143 0
M  V30 30 H 39.823215 27.965657 60.440468 0
M  V30 31 H 40.792829 29.278334 59.822733 0
M  V30 32 H 37.426864 32.835009 56.363415 0
M  V30 33 H 40.347582 30.760364 63.513886 0
M  V30 34 H 37.478702 31.563671 57.976252 0
M  V30 35 H 37.659088 31.746513 60.342421 0
M  V30 36 H 36.856463 23.571431 55.395524 0
M  V30 37 H 35.995221 25.028822 55.881284 0
M  V30 38 H 40.448022 25.787768 53.826628 0
M  V30 39 H 41.067406 26.109860 55.439354 0
M  V30 40 H 39.387430 27.759627 53.821335 0
M  V30 41 H 37.694135 26.995486 56.200639 0
M  V30 42 H 37.152996 27.384028 54.564113 0
M  V30 43 H 38.726495 32.322390 62.421482 0
M  V30 44 H 40.145238 24.284266 57.150375 0
M  V30 45 H 39.562765 25.936247 57.262742 0
M  V30 46 H 37.852918 29.108611 60.253510 0
M  V30 47 H 41.014017 28.291728 55.853501 0
M  V30 48 H 39.608963 28.170862 56.836177 0
M  V30 49 H 36.247225 30.021426 56.177616 0
M  V30 50 H 37.350876 28.854526 56.673045 0
M  V30 51 H 35.596691 30.544974 58.314303 0
M  V30 52 H 37.039338 31.956448 54.508854 0
M  V30 53 H 38.726520 32.006903 54.072307 0
M  V30 END ATOM
M  V30 BEGIN BOND
M  V30 1 1 2 1
M  V30 2 1 4 3
M  V30 3 1 9 5
M  V30 4 1 11 6
M  V30 5 2 11 8
M  V30 6 1 12 1
M  V30 7 1 13 2
M  V30 8 1 14 13
M  V30 9 1 15 1
M  V30 10 1 15 14
M  V30 11 1 16 12
M  V30 12 1 17 8
M  V30 13 2 17 10
M  V30 14 1 18 11
M  V30 15 1 19 2
M  V30 16 1 19 16
M  V30 17 1 20 5
M  V30 18 1 20 6
M  V30 19 1 20 10
M  V30 20 1 21 3
M  V30 21 1 21 14
M  V30 22 1 22 4
M  V30 23 1 22 9
M  V30 24 1 23 9
M  V30 25 1 24 4
M  V30 26 1 24 7
M  V30 27 1 1 25 CFG=3
M  V30 28 1 26 3
M  V30 29 1 27 3
M  V30 30 1 4 28 CFG=3
M  V30 31 1 29 5
M  V30 32 1 30 6
M  V30 33 1 31 6
M  V30 34 1 32 7
M  V30 35 1 33 8
M  V30 36 1 9 34 CFG=3
M  V30 37 1 35 10
M  V30 38 1 36 12
M  V30 39 1 37 12
M  V30 40 1 38 13
M  V30 41 1 39 13
M  V30 42 1 14 40 CFG=3
M  V30 43 1 41 15
M  V30 44 1 42 15
M  V30 45 1 43 17
M  V30 46 1 44 19
M  V30 47 1 45 19
M  V30 48 1 20 46 CFG=1
M  V30 49 1 47 21
M  V30 50 1 48 21
M  V30 51 1 49 22
M  V30 52 1 50 22
M  V30 53 1 51 23
M  V30 54 1 52 24
M  V30 55 1 53 24
M  V30 END BOND
M  V30 END CTAB
M  END
>  <i_epik_Tot_Q>  (1) 
0

>  <i_epik_Tot_abs_Q>  (1) 
0

>  <i_i_glide_confnum>  (1) 
41

>  <i_i_glide_lignum>  (1) 
134

>  <i_i_glide_posenum>  (1) 
356

>  <i_i_glide_rotatable_bonds>  (1) 
10

>  <i_lp_mmshare_version>  (1) 
72125

>  <i_m_source_file_index>  (1) 
51

>  <i_f3d_flags>  (1) 
0

>  <num_sample>  (1) 
100

>  <b_lp_Chiralities_Consistent>  (1) 
1

>  <r_epik_Charging_Adjusted_Penalty>  (1) 
0.070623884543316251

>  <r_epik_Ionization_Penalty>  (1) 
0.082390450655877454

>  <r_epik_Ionization_Penalty_Charging>  (1) 
0

>  <r_epik_Ionization_Penalty_Neutral>  (1) 
0.082390450655877454

>  <r_epik_State_Penalty>  (1) 
0.070623884543316251

>  <r_glide_ring_energy>  (1) 
0

>  <r_i_docking_score>  (1) 
-6.2469758422645505

>  <r_i_glide_ecoul>  (1) 
-4.9335550294707975

>  <r_i_glide_eff_state_penalty>  (1) 
0.070623884543316251

>  <r_i_glide_einternal>  (1) 
10.667002384993614

>  <r_i_glide_emodel>  (1) 
-49.53915169465288

>  <r_i_glide_emodel_strain>  (1) 
3.9407597437455166

>  <r_i_glide_energy>  (1) 
-40.64817142611701

>  <r_i_glide_erotb>  (1) 
0.90323980524591641

>  <r_i_glide_esite>  (1) 
-0.11625459375755548

>  <r_i_glide_evdw>  (1) 
-35.714616396646214

>  <r_i_glide_gscore>  (1) 
-6.3175997268078667

>  <r_i_glide_gscore_strain>  (1) 
0

>  <r_i_glide_hbond>  (1) 
-0.15378337388216648

>  <r_i_glide_ligand_efficiency>  (1) 
-0.26029066009435625

>  <r_i_glide_ligand_efficiency_ln>  (1) 
-1.4951879740966159

>  <r_i_glide_ligand_efficiency_sa>  (1) 
-0.75080818535223404

>  <r_i_glide_lipo>  (1) 
-3.1794938412939828

>  <r_i_glide_metal>  (1) 
-0

>  <r_i_glide_rewards>  (1) 
-1.2455436488671481

>  <r_lp_Energy>  (1) 
-4.9771999999999998

>  <s_epik_Chemistry_Notes>  (1) 
This compound contains an acetal/aminal-like group ( X-CH(R)-Y where X, Y are N, S, or O) that may be acid/base labile, releasing an aldehyde.

>  <s_epik_cmdline>  (1) 
J2VwaWtfcHl0aG9uJywgJy1waHQnLCAnMS4wJywgJy1waCcsICc3LjQnLCAnLXRuJywgJzgnLCAnLW1hJywgJzUwMCcsICctaW1hZScsICc8aW5maWxlLm1hZT4nLCAnLW9tYWUnLCAnPG91dGZpbGUubWFlPic=

>  <s_epik_input>  (1) 
W0NIMl0xU1tDSDJdTihbQ0BASF0xMilbQ0gyXVtDQEBIXShbQ0gyXTIpW0NIMl1bQ0gyXVtDQEhdKFtDSDJdW09IXSlbQ0gyXVtDQEBIXShbT0hdKVtOSF1bQ0BASF0oW0NIMl0zKVtDSF09W0NIXVtDSF09QzNG

>  <s_glide_docking_method>  (1) 
confgen

>  <s_i_glide_gridfile>  (1) 
gpcr_5ht2c_6bqh_protein_autoprepared_prepared

>  <s_lp_Force_Field>  (1) 
S-OPLS

>  <s_lp_Variant>  (1) 
DiffSBDD_50_num_sample_100-1

>  <s_m_source_file>  (1) 
generated__ligand_DiffSBDD_2026-05-06_prepared.sdf

>  <GenAI_Model>  (1) 
DiffSBDD

>  <Protein>  (1) 
GPCR_5HT2C

$$$$
DiffSBDD_44_num_sample_100
     RDKit          3D

  0  0  0  0  0  0  0  0  0  0999 V3000
M  V30 BEGIN CTAB
M  V30 COUNTS 58 59 0 0 1
M  V30 BEGIN ATOM
M  V30 1 C 39.780857 28.629357 50.235963 0
M  V30 2 O 36.873909 28.021542 53.260519 0 CHG=-1
M  V30 3 C 38.907767 30.662621 56.936376 0
M  V30 4 C 39.781348 29.739593 52.330141 0 CFG=1
M  V30 5 N 38.633904 28.802814 52.335811 0 CFG=1 CHG=1
M  V30 6 C 38.111087 29.143414 58.695920 0
M  V30 7 N 38.600378 27.114400 56.612749 0
M  V30 8 C 38.877389 29.443443 57.408993 0
M  V30 9 O 40.812703 27.914318 57.120424 0
M  V30 10 C 40.060207 29.982992 50.855608 0 CFG=1
M  V30 11 C 41.486781 30.421064 50.569006 0
M  V30 12 C 38.659995 26.831826 54.118858 0 CFG=1
M  V30 13 C 38.201460 26.488284 55.561689 0
M  V30 14 C 38.783316 27.929147 51.153805 0
M  V30 15 C 40.974067 27.596670 58.492529 0
M  V30 16 C 37.948922 32.576614 58.173930 0
M  V30 17 C 38.111868 28.227623 53.607242 0 CFG=2
M  V30 18 C 39.507597 28.261924 56.655694 0 CFG=1
M  V30 19 F 36.805853 32.283449 60.186324 0
M  V30 20 C 37.213128 31.581519 59.127095 0 CFG=2
M  V30 21 C 38.667571 31.946416 56.989183 0
M  V30 22 C 40.148966 26.462232 53.967937 0
M  V30 23 C 37.233522 25.325466 55.660100 0
M  V30 24 C 39.634796 31.026290 53.158043 0
M  V30 25 C 38.017695 30.363552 59.659949 0
M  V30 26 H 40.666200 28.000476 50.220149 0
M  V30 27 H 39.441032 28.821051 49.221050 0
M  V30 28 H 40.655701 29.222854 52.653501 0
M  V30 29 H 37.105489 28.829789 58.414044 0
M  V30 30 H 38.549722 28.302589 59.228613 0
M  V30 31 H 39.359614 30.718999 50.457960 0
M  V30 32 H 42.183931 29.626028 50.808547 0
M  V30 33 H 41.634210 30.735445 49.535551 0
M  V30 34 H 41.755724 31.221451 51.226766 0
M  V30 35 H 38.200322 26.092128 53.460416 0
M  V30 36 H 39.111440 26.921303 51.399056 0
M  V30 37 H 37.839642 27.839151 50.656594 0
M  V30 38 H 41.987620 27.232830 58.659036 0
M  V30 39 H 40.851009 28.481677 59.116393 0
M  V30 40 H 40.275761 26.822336 58.812884 0
M  V30 41 H 38.686317 33.149667 58.736583 0
M  V30 42 H 37.228388 33.299737 57.788555 0
M  V30 43 H 38.275873 28.981419 54.359759 0
M  V30 44 H 39.778626 28.619290 55.669341 0
M  V30 45 H 36.302556 31.213915 58.655115 0
M  V30 46 H 39.007929 32.614723 56.212276 0
M  V30 47 H 40.267242 25.380006 53.981206 0
M  V30 48 H 40.579287 26.817563 53.039511 0
M  V30 49 H 40.757429 26.821387 54.789299 0
M  V30 50 H 36.667605 25.195883 54.738559 0
M  V30 51 H 37.778863 24.403702 55.862669 0
M  V30 52 H 36.523339 25.494110 56.470195 0
M  V30 53 H 40.626775 31.430141 53.335370 0
M  V30 54 H 39.067376 31.802378 52.653556 0
M  V30 55 H 39.198506 30.878062 54.139320 0
M  V30 56 H 37.534169 30.022006 60.574122 0
M  V30 57 H 39.016286 30.680082 59.964087 0
M  V30 58 H 37.844177 29.378242 52.092422 0
M  V30 END ATOM
M  V30 BEGIN BOND
M  V30 1 1 5 4
M  V30 2 2 8 3
M  V30 3 1 8 6
M  V30 4 1 10 1
M  V30 5 1 10 4
M  V30 6 1 11 10
M  V30 7 2 13 7
M  V30 8 1 13 12
M  V30 9 1 14 1
M  V30 10 1 14 5
M  V30 11 1 15 9
M  V30 12 1 17 2
M  V30 13 1 17 5
M  V30 14 1 17 12
M  V30 15 1 18 7
M  V30 16 1 18 8
M  V30 17 1 18 9
M  V30 18 1 20 16
M  V30 19 1 20 19
M  V30 20 2 21 3
M  V30 21 1 21 16
M  V30 22 1 22 12
M  V30 23 1 23 13
M  V30 24 1 24 4
M  V30 25 1 25 6
M  V30 26 1 25 20
M  V30 27 1 26 1
M  V30 28 1 27 1
M  V30 29 1 4 28 CFG=1
M  V30 30 1 29 6
M  V30 31 1 30 6
M  V30 32 1 10 31 CFG=3
M  V30 33 1 32 11
M  V30 34 1 33 11
M  V30 35 1 34 11
M  V30 36 1 12 35 CFG=3
M  V30 37 1 36 14
M  V30 38 1 37 14
M  V30 39 1 38 15
M  V30 40 1 39 15
M  V30 41 1 40 15
M  V30 42 1 41 16
M  V30 43 1 42 16
M  V30 44 1 17 43 CFG=1
M  V30 45 1 18 44 CFG=3
M  V30 46 1 20 45 CFG=3
M  V30 47 1 46 21
M  V30 48 1 47 22
M  V30 49 1 48 22
M  V30 50 1 49 22
M  V30 51 1 50 23
M  V30 52 1 51 23
M  V30 53 1 52 23
M  V30 54 1 53 24
M  V30 55 1 54 24
M  V30 56 1 55 24
M  V30 57 1 56 25
M  V30 58 1 57 25
M  V30 59 1 5 58 CFG=3
M  V30 END BOND
M  V30 END CTAB
M  END
>  <i_epik_Tot_Q>  (1) 
0

>  <i_epik_Tot_abs_Q>  (1) 
2

>  <i_i_glide_confnum>  (1) 
28

>  <i_i_glide_lignum>  (1) 
122

>  <i_i_glide_posenum>  (1) 
59

>  <i_i_glide_rotatable_bonds>  (1) 
6

>  <i_lp_mmshare_version>  (1) 
72125

>  <i_m_source_file_index>  (1) 
45

>  <i_f3d_flags>  (1) 
0

>  <num_sample>  (1) 
100

>  <b_lp_Chiralities_Consistent>  (1) 
1

>  <r_epik_Charging_Adjusted_Penalty>  (1) 
0.41733257654759531

>  <r_epik_Ionization_Penalty>  (1) 
0.0069177268181324029

>  <r_epik_Ionization_Penalty_Charging>  (1) 
0.0066527375949913311

>  <r_epik_Ionization_Penalty_Neutral>  (1) 
0.00026498922314107146

>  <r_epik_State_Penalty>  (1) 
0.41067983895260396

>  <r_glide_ring_energy>  (1) 
0

>  <r_i_docking_score>  (1) 
-6.2454349682374657

>  <r_i_glide_ecoul>  (1) 
-0.85143141137910483

>  <r_i_glide_eff_state_penalty>  (1) 
0.41067983895260396

>  <r_i_glide_einternal>  (1) 
12.16290961679195

>  <r_i_glide_emodel>  (1) 
-34.349770933262533

>  <r_i_glide_emodel_strain>  (1) 
3.6641233324913571

>  <r_i_glide_energy>  (1) 
-26.95410277905426

>  <r_i_glide_erotb>  (1) 
0.61440649929112812

>  <r_i_glide_esite>  (1) 
-0.045319011127227214

>  <r_i_glide_evdw>  (1) 
-26.102671367675153

>  <r_i_glide_gscore>  (1) 
-6.65611480719007

>  <r_i_glide_gscore_strain>  (1) 
0

>  <r_i_glide_hbond>  (1) 
0

>  <r_i_glide_ligand_efficiency>  (1) 
-0.24981739872949862

>  <r_i_glide_ligand_efficiency_ln>  (1) 
-1.4803552480553455

>  <r_i_glide_ligand_efficiency_sa>  (1) 
-0.73047050519925039

>  <r_i_glide_lipo>  (1) 
-2.8266081720079486

>  <r_i_glide_metal>  (1) 
-0

>  <r_i_glide_rewards>  (1) 
-2.9657458432553985

>  <r_lp_Energy>  (1) 
11.862836999999999

>  <r_lp_tautomer_probability>  (1) 
0.49999399997599986

>  <s_epik_Chemistry_Notes>  (1) 
This compound has an imine and may undergo hydrolysis. This compound contains an acetal/aminal-like group ( X-CH(R)-Y where X, Y are N, S, or O) that may be acid/base labile, releasing an aldehyde.

>  <s_epik_cmdline>  (1) 
J2VwaWtfcHl0aG9uJywgJy1waHQnLCAnMS4wJywgJy1waCcsICc3LjQnLCAnLXRuJywgJzgnLCAnLW1hJywgJzUwMCcsICctaW1hZScsICc8aW5maWxlLm1hZT4nLCAnLW9tYWUnLCAnPG91dGZpbGUubWFlPic=

>  <s_epik_input>  (1) 
W0NIM11bQ0BIXTFbQ0gyXVtDSDJdTihbQ0BASF0xW0NIM10pW0NAQEhdKFtPSF0pW0NAQEhdKFtDSDNdKS9DKFtDSDNdKT1OXFtDQEBIXShPW0NIM10pQzI9Qz1bQ0hdW0NIMl1bQ0BASF0oRilbQ0gyXVtDSDJdMg==

>  <s_glide_docking_method>  (1) 
confgen

>  <s_i_glide_gridfile>  (1) 
gpcr_5ht2c_6bqh_protein_autoprepared_prepared

>  <s_lp_Force_Field>  (1) 
S-OPLS

>  <s_lp_Variant>  (1) 
DiffSBDD_44_num_sample_100-15

>  <s_m_source_file>  (1) 
generated__ligand_DiffSBDD_2026-05-06_prepared.sdf

>  <GenAI_Model>  (1) 
DiffSBDD

>  <Protein>  (1) 
GPCR_5HT2C

$$$$
DiffSBDD_40_num_sample_100
     RDKit          3D

  0  0  0  0  0  0  0  0  0  0999 V3000
M  V30 BEGIN CTAB
M  V30 COUNTS 73 75 0 0 1
M  V30 BEGIN ATOM
M  V30 1 C 34.132970 34.271127 58.608460 0
M  V30 2 C 38.456053 25.701553 56.269956 0 CFG=1
M  V30 3 N 41.870951 33.807484 65.678464 0
M  V30 4 C 39.367981 27.979074 57.029383 0
M  V30 5 C 38.068363 36.209588 61.787416 0
M  V30 6 C 38.539027 32.009350 57.522216 0
M  V30 7 N 41.057841 33.682911 63.460669 0 CHG=1
M  V30 8 C 38.205798 29.934858 55.393169 0
M  V30 9 O 39.067164 31.513574 53.835330 0
M  V30 10 C 39.056442 32.292965 56.107723 0
M  V30 11 C 37.145060 24.932669 56.191524 0
M  V30 12 C 39.282308 25.646849 54.962076 0
M  V30 13 N 41.627179 35.621457 64.186680 0
M  V30 14 C 36.959236 32.293558 60.110288 0 CFG=2
M  V30 15 C 38.135734 27.145664 56.712633 0
M  V30 16 C 38.781139 33.803320 61.068035 0 CFG=1
M  V30 17 C 37.876332 35.037042 60.808997 0 CFG=1
M  V30 18 S 40.247998 27.751666 58.417738 0
M  V30 19 C 40.827332 34.557550 62.418612 0
M  V30 20 N 36.143456 33.492270 59.800035 0 CFG=1 CHG=1
M  V30 21 S 39.809229 29.184649 55.828220 0
M  V30 22 C 34.716411 33.206602 59.532020 0
M  V30 23 C 41.198361 35.805237 62.897303 0
M  V30 24 C 38.349842 31.424565 55.040620 0 CFG=2
M  V30 25 C 36.391358 34.628611 60.735150 0
M  V30 26 O 37.067358 23.718294 56.802869 0
M  V30 27 C 36.576325 31.615525 61.435644 0
M  V30 28 N 36.998515 24.021546 55.342660 0
M  V30 29 C 41.537013 34.342548 64.505883 0
M  V30 30 C 38.451155 32.694728 60.017215 0 CFG=2
M  V30 31 C 40.292051 34.115083 61.091452 0
M  V30 32 C 38.819860 33.105495 58.558243 0
M  V30 33 H 33.072153 34.126777 58.407938 0
M  V30 34 H 34.267359 35.221431 59.053511 0
M  V30 35 H 34.666849 34.421404 57.675320 0
M  V30 36 H 39.044408 25.213814 57.049518 0
M  V30 37 H 41.781746 32.817912 65.869356 0
M  V30 38 H 42.231669 34.361357 66.441998 0
M  V30 39 H 38.060242 35.897796 62.829582 0
M  V30 40 H 39.009783 36.719579 61.596403 0
M  V30 41 H 37.288057 36.961606 61.660846 0
M  V30 42 H 37.467379 31.890023 57.426550 0
M  V30 43 H 38.927919 31.056883 57.880886 0
M  V30 44 H 37.511777 29.840264 56.230158 0
M  V30 45 H 37.763177 29.393507 54.555800 0
M  V30 46 H 39.947691 31.204223 53.982764 0
M  V30 47 H 40.135044 32.137097 56.087061 0
M  V30 48 H 38.898515 33.343368 55.857769 0
M  V30 49 H 39.478832 24.620245 54.654738 0
M  V30 50 H 38.764294 26.144210 54.141253 0
M  V30 51 H 40.255174 26.124376 55.080247 0
M  V30 52 H 41.961894 36.356178 64.803508 0
M  V30 53 H 36.746900 31.534319 59.359743 0
M  V30 54 H 37.504465 27.126908 57.603188 0
M  V30 55 H 37.530343 27.594402 55.933791 0
M  V30 56 H 38.540907 33.401627 62.051452 0
M  V30 57 H 38.137711 35.452562 59.841587 0
M  V30 58 H 34.593637 32.231871 59.057374 0
M  V30 59 H 34.164376 33.179390 60.469990 0
M  V30 60 H 41.188364 36.777889 62.425951 0
M  V30 61 H 37.352183 31.830124 54.861457 0
M  V30 62 H 35.995450 34.400421 61.726330 0
M  V30 63 H 35.867429 35.509298 60.380699 0
M  V30 64 H 37.218826 30.753747 61.614773 0
M  V30 65 H 36.680406 32.291198 62.276365 0
M  V30 66 H 35.545617 31.258993 61.418640 0
M  V30 67 H 39.043380 31.810241 60.262547 0
M  V30 68 H 40.830755 33.202114 60.842515 0
M  V30 69 H 40.540434 34.860093 60.334701 0
M  V30 70 H 39.867397 33.383627 58.505063 0
M  V30 71 H 38.272907 33.991862 58.240534 0
M  V30 72 H 36.488685 33.787375 58.897188 0
M  V30 73 H 40.889713 32.685432 63.435091 0
M  V30 END ATOM
M  V30 BEGIN BOND
M  V30 1 1 10 6
M  V30 2 1 11 2
M  V30 3 1 12 2
M  V30 4 1 15 2
M  V30 5 1 15 4
M  V30 6 1 17 5
M  V30 7 1 17 16
M  V30 8 2 18 4
M  V30 9 1 19 7
M  V30 10 1 20 14
M  V30 11 1 21 4
M  V30 12 1 21 8
M  V30 13 1 22 1
M  V30 14 1 22 20
M  V30 15 1 23 13
M  V30 16 2 23 19
M  V30 17 1 24 8
M  V30 18 1 24 9
M  V30 19 1 24 10
M  V30 20 1 25 17
M  V30 21 1 25 20
M  V30 22 1 26 11
M  V30 23 1 27 14
M  V30 24 2 28 11
M  V30 25 1 28 26
M  V30 26 1 29 3
M  V30 27 2 29 7
M  V30 28 1 29 13
M  V30 29 1 30 14
M  V30 30 1 30 16
M  V30 31 1 31 16
M  V30 32 1 31 19
M  V30 33 1 32 6
M  V30 34 1 32 30
M  V30 35 1 33 1
M  V30 36 1 34 1
M  V30 37 1 35 1
M  V30 38 1 2 36 CFG=1
M  V30 39 1 37 3
M  V30 40 1 38 3
M  V30 41 1 39 5
M  V30 42 1 40 5
M  V30 43 1 41 5
M  V30 44 1 42 6
M  V30 45 1 43 6
M  V30 46 1 44 8
M  V30 47 1 45 8
M  V30 48 1 46 9
M  V30 49 1 47 10
M  V30 50 1 48 10
M  V30 51 1 49 12
M  V30 52 1 50 12
M  V30 53 1 51 12
M  V30 54 1 52 13
M  V30 55 1 14 53 CFG=3
M  V30 56 1 54 15
M  V30 57 1 55 15
M  V30 58 1 16 56 CFG=1
M  V30 59 1 17 57 CFG=3
M  V30 60 1 58 22
M  V30 61 1 59 22
M  V30 62 1 60 23
M  V30 63 1 24 61 CFG=3
M  V30 64 1 62 25
M  V30 65 1 63 25
M  V30 66 1 64 27
M  V30 67 1 65 27
M  V30 68 1 66 27
M  V30 69 1 30 67 CFG=1
M  V30 70 1 68 31
M  V30 71 1 69 31
M  V30 72 1 70 32
M  V30 73 1 71 32
M  V30 74 1 20 72 CFG=3
M  V30 75 1 73 7
M  V30 END BOND
M  V30 END CTAB
M  END
>  <i_epik_Tot_Q>  (1) 
2

>  <i_epik_Tot_abs_Q>  (1) 
2

>  <i_i_glide_confnum>  (1) 
2158

>  <i_i_glide_lignum>  (1) 
100

>  <i_i_glide_posenum>  (1) 
344

>  <i_i_glide_rotatable_bonds>  (1) 
14

>  <i_lp_mmshare_version>  (1) 
72125

>  <i_m_source_file_index>  (1) 
41

>  <i_f3d_flags>  (1) 
0

>  <num_sample>  (1) 
100

>  <b_lp_Chiralities_Consistent>  (1) 
1

>  <r_epik_Charging_Adjusted_Penalty>  (1) 
0.0037096170623772918

>  <r_epik_Ionization_Penalty>  (1) 
0.054330814931534903

>  <r_epik_Ionization_Penalty_Charging>  (1) 
0.0037096170623772918

>  <r_epik_Ionization_Penalty_Neutral>  (1) 
0.050621197869157614

>  <r_epik_State_Penalty>  (1) 
-0

>  <r_glide_ring_energy>  (1) 
0

>  <r_i_docking_score>  (1) 
-6.2312678878456014

>  <r_i_glide_ecoul>  (1) 
-3.6831631353151897

>  <r_i_glide_eff_state_penalty>  (1) 
-0

>  <r_i_glide_einternal>  (1) 
11.641849764414065

>  <r_i_glide_emodel>  (1) 
-58.684713574056424

>  <r_i_glide_emodel_strain>  (1) 
0.41120931235670355

>  <r_i_glide_energy>  (1) 
-46.552281619090273

>  <r_i_glide_erotb>  (1) 
0.95438045441749597

>  <r_i_glide_esite>  (1) 
-0.046011557043263498

>  <r_i_glide_evdw>  (1) 
-42.869118483775082

>  <r_i_glide_gscore>  (1) 
-6.2312678878456014

>  <r_i_glide_gscore_strain>  (1) 
0

>  <r_i_glide_hbond>  (1) 
0

>  <r_i_glide_ligand_efficiency>  (1) 
-0.19472712149517504

>  <r_i_glide_ligand_efficiency_ln>  (1) 
-1.3953507380360313

>  <r_i_glide_ligand_efficiency_sa>  (1) 
-0.61822007501636056

>  <r_i_glide_lipo>  (1) 
-2.4870126878658563

>  <r_i_glide_metal>  (1) 
-0

>  <r_i_glide_rewards>  (1) 
-1.9566937028679452

>  <r_lp_Energy>  (1) 
35.145339999999997

>  <r_lp_tautomer_probability>  (1) 
1

>  <s_epik_Chemistry_Notes>  (1) 
This compound has an imine and may undergo hydrolysis.

>  <s_epik_cmdline>  (1) 
J2VwaWtfcHl0aG9uJywgJy1waHQnLCAnMS4wJywgJy1waCcsICc3LjQnLCAnLXRuJywgJzgnLCAnLW1hJywgJzUwMCcsICctaW1hZScsICc8aW5maWxlLm1hZT4nLCAnLW9tYWUnLCAnPG91dGZpbGUubWFlPic=

>  <s_epik_input>  (1) 
W2NIXTFbbkhdYyhbTkgyXSluYzFbQ0gyXVtDQEBIXShbQ0BIXShbQ0gzXSlbQ0gyXU4oW0NAQEhdMltDSDNdKVtDSDJdW0NIM10pW0NAQEhdMltDSDJdW0NIMl1bQ0gyXVtDQEBIXShbT0hdKVtDSDJdU0MoPVMpW0NIMl1bQ0BIXShbQ0gzXSlDMz1OTzM=

>  <s_glide_docking_method>  (1) 
confgen

>  <s_i_glide_gridfile>  (1) 
gpcr_5ht2c_6bqh_protein_autoprepared_prepared

>  <s_lp_Force_Field>  (1) 
S-OPLS

>  <s_lp_Variant>  (1) 
DiffSBDD_40_num_sample_100-1

>  <s_m_source_file>  (1) 
generated__ligand_DiffSBDD_2026-05-06_prepared.sdf

>  <GenAI_Model>  (1) 
DiffSBDD

>  <Protein>  (1) 
GPCR_5HT2C

$$$$
DiffSBDD_90_num_sample_100
     RDKit          3D

  0  0  0  0  0  0  0  0  0  0999 V3000
M  V30 BEGIN CTAB
M  V30 COUNTS 85 88 0 0 1
M  V30 BEGIN ATOM
M  V30 1 C 35.997669 30.339691 59.263783 0
M  V30 2 O 41.061673 35.148207 63.931547 0
M  V30 3 F 41.837629 29.931451 61.936695 0
M  V30 4 C 39.317300 26.503312 57.309204 0 CFG=1
M  V30 5 C 39.367097 37.125203 62.434568 0 CFG=2
M  V30 6 C 38.821634 34.995492 61.391873 0 CFG=1
M  V30 7 C 37.610735 26.615883 54.012343 0
M  V30 8 C 37.914003 32.660602 61.100601 0
M  V30 9 C 38.725000 25.838344 56.044809 0
M  V30 10 N 41.645188 36.141204 63.052447 0
M  V30 11 C 39.623727 29.572484 61.813829 0
M  V30 12 C 39.866396 25.230540 55.222187 0
M  V30 13 C 38.428920 35.941537 62.514861 0
M  V30 14 C 40.315901 35.235763 61.143979 0
M  V30 15 O 37.862492 37.939544 60.738930 0
M  V30 16 N 37.485223 30.399435 59.232440 0 CFG=1 CHG=1
M  V30 17 C 38.521244 33.588099 61.845826 0
M  V30 18 F 40.687488 31.543652 61.088793 0
M  V30 19 C 41.098534 28.233618 59.499752 0 CFG=1
M  V30 20 N 38.122515 29.293762 58.470413 0
M  V30 21 C 39.640605 28.077143 61.550887 0
M  V30 22 C 37.956561 31.724251 58.756701 0
M  V30 23 O 38.050654 26.880360 55.337562 0
M  V30 24 C 37.717262 24.712610 56.419512 0
M  V30 25 C 35.338352 31.545769 59.998086 0
M  V30 26 C 41.068341 29.698214 59.655396 0
M  V30 27 C 37.451630 32.859080 59.664437 0 CFG=1
M  V30 28 C 40.700732 36.476791 61.970448 0 CFG=1
M  V30 29 C 40.378106 27.616520 57.020858 0
M  V30 30 O 39.467352 39.315552 61.453441 0 CHG=-1
M  V30 31 C 38.471262 28.075351 59.221154 0 CFG=1
M  V30 32 C 35.932655 32.908611 59.632609 0
M  V30 33 O 39.468299 37.621367 63.750755 0
M  V30 34 C 38.173232 26.917514 58.263010 0
M  V30 35 C 39.761130 27.829400 60.026463 0 CFG=1
M  V30 36 C 41.480951 27.705206 58.096748 0
M  V30 37 C 40.822941 30.219719 61.119102 0
M  V30 38 C 38.851092 38.221626 61.453507 0
M  V30 39 H 35.685834 29.409928 59.730345 0
M  V30 40 H 35.620035 30.273565 58.254410 0
M  V30 41 H 41.682611 34.436608 63.865414 0
M  V30 42 H 39.860454 25.706837 57.823510 0
M  V30 43 H 38.257659 35.309706 60.517813 0
M  V30 44 H 36.951530 27.424255 53.691687 0
M  V30 45 H 38.447817 26.582963 53.314376 0
M  V30 46 H 37.060627 25.681256 53.938348 0
M  V30 47 H 37.725008 31.698269 61.533281 0
M  V30 48 H 41.841201 36.928648 63.670875 0
M  V30 49 H 39.613745 29.782181 62.883581 0
M  V30 50 H 38.692186 29.952228 61.432675 0
M  V30 51 H 40.649148 24.826711 55.859662 0
M  V30 52 H 39.474512 24.416822 54.636033 0
M  V30 53 H 40.330434 25.924730 54.527186 0
M  V30 54 H 37.367555 36.198532 62.535100 0
M  V30 55 H 38.667135 35.463256 63.453938 0
M  V30 56 H 40.459021 35.427085 60.085538 0
M  V30 57 H 40.925947 34.365373 61.390924 0
M  V30 58 H 38.820908 33.335724 62.854312 0
M  V30 59 H 41.866765 27.868548 60.181117 0
M  V30 60 H 38.958484 29.740737 58.130024 0
M  V30 61 H 40.485722 27.624930 62.062961 0
M  V30 62 H 38.749302 27.621029 61.979309 0
M  V30 63 H 37.633827 31.889568 57.725317 0
M  V30 64 H 39.043046 31.762423 58.746453 0
M  V30 65 H 38.168558 24.008076 57.119979 0
M  V30 66 H 36.811071 25.101138 56.885745 0
M  V30 67 H 37.389379 24.135806 55.553669 0
M  V30 68 H 35.407726 31.397204 61.073972 0
M  V30 69 H 34.271239 31.621406 59.767447 0
M  V30 70 H 41.960236 30.021567 59.142737 0
M  V30 71 H 40.298970 30.021428 58.990877 0
M  V30 72 H 37.838669 33.780809 59.233496 0
M  V30 73 H 41.234913 37.177642 61.328373 0
M  V30 74 H 40.907833 27.393046 56.096393 0
M  V30 75 H 39.927428 28.585840 56.823164 0
M  V30 76 H 37.867350 28.026239 60.087488 0
M  V30 77 H 35.566430 33.676388 60.313878 0
M  V30 78 H 35.590028 33.222584 58.652586 0
M  V30 79 H 39.916971 36.952963 64.251187 0
M  V30 80 H 37.936297 26.037860 58.855392 0
M  V30 81 H 37.262321 27.140237 57.715316 0
M  V30 82 H 39.874652 26.809996 59.883579 0
M  V30 83 H 41.909403 26.712065 58.205452 0
M  V30 84 H 42.311069 28.297167 57.713955 0
M  V30 85 H 37.808199 30.287804 60.178797 0
M  V30 END ATOM
M  V30 BEGIN BOND
M  V30 1 1 9 4
M  V30 2 1 10 2
M  V30 3 1 12 9
M  V30 4 1 13 5
M  V30 5 1 13 6
M  V30 6 1 14 6
M  V30 7 1 16 1
M  V30 8 1 17 6
M  V30 9 2 17 8
M  V30 10 1 20 16
M  V30 11 1 21 11
M  V30 12 1 22 16
M  V30 13 1 23 7
M  V30 14 1 23 9
M  V30 15 1 24 9
M  V30 16 1 25 1
M  V30 17 1 26 19
M  V30 18 1 27 8
M  V30 19 1 27 22
M  V30 20 1 28 5
M  V30 21 1 28 10
M  V30 22 1 28 14
M  V30 23 1 29 4
M  V30 24 1 31 20
M  V30 25 1 32 25
M  V30 26 1 32 27
M  V30 27 1 5 33 CFG=1
M  V30 28 1 34 4
M  V30 29 1 34 31
M  V30 30 1 35 19
M  V30 31 1 35 21
M  V30 32 1 35 31
M  V30 33 1 36 19
M  V30 34 1 36 29
M  V30 35 1 37 3
M  V30 36 1 37 11
M  V30 37 1 37 18
M  V30 38 1 37 26
M  V30 39 1 38 5
M  V30 40 2 38 15
M  V30 41 1 38 30
M  V30 42 1 39 1
M  V30 43 1 40 1
M  V30 44 1 41 2
M  V30 45 1 4 42 CFG=1
M  V30 46 1 6 43 CFG=3
M  V30 47 1 44 7
M  V30 48 1 45 7
M  V30 49 1 46 7
M  V30 50 1 47 8
M  V30 51 1 48 10
M  V30 52 1 49 11
M  V30 53 1 50 11
M  V30 54 1 51 12
M  V30 55 1 52 12
M  V30 56 1 53 12
M  V30 57 1 54 13
M  V30 58 1 55 13
M  V30 59 1 56 14
M  V30 60 1 57 14
M  V30 61 1 58 17
M  V30 62 1 19 59 CFG=1
M  V30 63 1 60 20
M  V30 64 1 61 21
M  V30 65 1 62 21
M  V30 66 1 63 22
M  V30 67 1 64 22
M  V30 68 1 65 24
M  V30 69 1 66 24
M  V30 70 1 67 24
M  V30 71 1 68 25
M  V30 72 1 69 25
M  V30 73 1 70 26
M  V30 74 1 71 26
M  V30 75 1 27 72 CFG=3
M  V30 76 1 28 73 CFG=3
M  V30 77 1 74 29
M  V30 78 1 75 29
M  V30 79 1 31 76 CFG=1
M  V30 80 1 77 32
M  V30 81 1 78 32
M  V30 82 1 79 33
M  V30 83 1 80 34
M  V30 84 1 81 34
M  V30 85 1 35 82 CFG=1
M  V30 86 1 83 36
M  V30 87 1 84 36
M  V30 88 1 16 85 CFG=1
M  V30 END BOND
M  V30 END CTAB
M  END
>  <i_epik_Tot_Q>  (1) 
0

>  <i_epik_Tot_abs_Q>  (1) 
2

>  <i_i_glide_confnum>  (1) 
466

>  <i_i_glide_lignum>  (1) 
241

>  <i_i_glide_posenum>  (1) 
176

>  <i_i_glide_rotatable_bonds>  (1) 
10

>  <i_lp_mmshare_version>  (1) 
72125

>  <i_m_source_file_index>  (1) 
91

>  <i_f3d_flags>  (1) 
0

>  <num_sample>  (1) 
100

>  <b_lp_Chiralities_Consistent>  (1) 
1

>  <r_epik_Charging_Adjusted_Penalty>  (1) 
1.5083745474312953

>  <r_epik_Ionization_Penalty>  (1) 
0.65750586125956467

>  <r_epik_Ionization_Penalty_Charging>  (1) 
0.6544614066189578

>  <r_epik_Ionization_Penalty_Neutral>  (1) 
0.0030444546406068235

>  <r_epik_State_Penalty>  (1) 
0.8539131408123376

>  <r_glide_ring_energy>  (1) 
0.5227007341330594

>  <r_i_docking_score>  (1) 
-6.2303898197798873

>  <r_i_glide_ecoul>  (1) 
-10.097206087068423

>  <r_i_glide_eff_state_penalty>  (1) 
0.8539131408123376

>  <r_i_glide_einternal>  (1) 
32.327676958276015

>  <r_i_glide_emodel>  (1) 
-10.431504081189161

>  <r_i_glide_emodel_strain>  (1) 
2.752309166072493

>  <r_i_glide_energy>  (1) 
-22.541120304898818

>  <r_i_glide_erotb>  (1) 
0.42002339013477186

>  <r_i_glide_esite>  (1) 
-0.14568110703902412

>  <r_i_glide_evdw>  (1) 
-12.443914217830395

>  <r_i_glide_gscore>  (1) 
-7.0843029605922245

>  <r_i_glide_gscore_strain>  (1) 
0

>  <r_i_glide_hbond>  (1) 
-0.47999999999999998

>  <r_i_glide_ligand_efficiency>  (1) 
-0.16395762683631282

>  <r_i_glide_ligand_efficiency_ln>  (1) 
-1.3434553246440333

>  <r_i_glide_ligand_efficiency_sa>  (1) 
-0.55122150918080559

>  <r_i_glide_lipo>  (1) 
-4.2021077491200698

>  <r_i_glide_metal>  (1) 
-0

>  <r_i_glide_rewards>  (1) 
-0.53976087061611933

>  <r_lp_Energy>  (1) 
49.266497000000001

>  <s_epik_Chemistry_Notes>  (1) 
This compound has a N-S or N-O group and may undergo hydrolysis at high or low pH.

>  <s_epik_cmdline>  (1) 
J2VwaWtfcHl0aG9uJywgJy1waHQnLCAnMS4wJywgJy1waCcsICc3LjQnLCAnLXRuJywgJzgnLCAnLW1hJywgJzUwMCcsICctaW1hZScsICc8aW5maWxlLm1hZT4nLCAnLW9tYWUnLCAnPG91dGZpbGUubWFlPic=

>  <s_epik_input>  (1) 
RkMoRikoW0NIMl0xKVtDSDJdW0NIMl1bQ0BIXShbQ0BASF0xMilbQ0BIXShbQ0gyXVtDQEhdKFtDSDJdW0NIMl0yKUMoW0NIM10pKFtDSDNdKU9bQ0gzXSlbTkhdTjNbQ0gyXVtDSDJdW0NIMl1bQ0BIXShbQ0gyXTMpL1tDSF09W0NIXVxbQ0BASF0oW0NIMl1bQ0BdNChbT0hdKUMoPU8pW09IXSlbQ0gyXVtDQEBIXTRbTkhdW09IXQ==

>  <s_glide_docking_method>  (1) 
confgen

>  <s_i_glide_gridfile>  (1) 
gpcr_5ht2c_6bqh_protein_autoprepared_prepared

>  <s_lp_Force_Field>  (1) 
S-OPLS

>  <s_lp_Variant>  (1) 
DiffSBDD_90_num_sample_100-13

>  <s_m_source_file>  (1) 
generated__ligand_DiffSBDD_2026-05-06_prepared.sdf

>  <GenAI_Model>  (1) 
DiffSBDD

>  <Protein>  (1) 
GPCR_5HT2C

$$$$
DiffSBDD_60_num_sample_100
     RDKit          3D

  0  0  0  0  0  0  0  0  0  0999 V3000
M  V30 BEGIN CTAB
M  V30 COUNTS 74 76 0 0 1
M  V30 BEGIN ATOM
M  V30 1 C 37.899675 28.103778 52.987033 0
M  V30 2 C 41.539194 35.621434 65.007032 0
M  V30 3 C 40.550311 35.870988 64.032180 0
M  V30 4 C 39.019991 29.970112 58.495276 0
M  V30 5 N 37.791436 26.203481 54.207145 0
M  V30 6 C 39.067349 30.789675 53.590591 0
M  V30 7 C 39.314303 30.713681 63.053345 0
M  V30 8 C 36.474070 29.726726 59.021257 0
M  V30 9 C 37.913894 29.658508 59.538546 0 CFG=2
M  V30 10 C 38.965455 26.851207 56.262720 0
M  V30 11 C 39.258536 31.996140 62.182915 0 CFG=1
M  V30 12 O 37.131483 30.021467 55.885882 0
M  V30 13 C 37.625990 32.796877 60.264545 0 CFG=1
M  V30 14 C 38.320007 34.020275 59.659518 0
M  V30 15 C 39.089158 29.189942 57.164867 0 CFG=1
M  V30 16 N 38.536320 27.825812 57.273352 0
M  V30 17 C 40.658163 32.642453 62.000819 0
M  V30 18 C 38.442908 27.148768 54.886814 0
M  V30 19 C 39.177824 29.651716 54.613016 0 CFG=1
M  V30 20 C 38.550894 30.035189 55.969243 0 CFG=1
M  V30 21 O 39.867383 37.049083 64.037308 0
M  V30 22 C 40.268005 34.905386 63.055900 0
M  V30 23 C 38.541286 28.375570 54.155383 0
M  V30 24 C 35.381966 32.784847 61.171266 0
M  V30 25 C 34.650727 33.356724 59.950344 0
M  V30 26 C 42.245562 34.406163 64.996978 0
M  V30 27 C 38.611686 31.718149 60.792316 0 CFG=2
M  V30 28 O 38.000532 30.421522 60.757729 0
M  V30 29 N 37.469394 26.821475 53.058628 0
M  V30 30 C 40.051755 30.821405 64.398406 0
M  V30 31 C 40.970814 33.685591 63.048034 0
M  V30 32 C 41.962286 33.438739 64.017373 0
M  V30 33 O 36.724596 33.252742 61.271562 0
M  V30 34 H 37.707738 28.721742 52.122501 0
M  V30 35 H 41.756675 36.364956 65.761691 0
M  V30 36 H 38.988058 31.027710 58.242014 0
M  V30 37 H 39.972826 29.809583 58.999881 0
M  V30 38 H 39.486330 30.504480 52.625165 0
M  V30 39 H 39.608871 31.670313 53.931596 0
M  V30 40 H 38.028769 31.080235 53.453709 0
M  V30 41 H 39.754987 29.889709 62.489972 0
M  V30 42 H 38.285482 30.421415 63.261361 0
M  V30 43 H 36.273070 28.966797 58.266933 0
M  V30 44 H 36.259712 30.687715 58.574927 0
M  V30 45 H 35.767440 29.576553 59.833409 0
M  V30 46 H 38.068548 28.628159 59.855649 0
M  V30 47 H 38.626291 25.859903 56.566344 0
M  V30 48 H 40.054419 26.792659 56.240888 0
M  V30 49 H 38.616861 32.703552 62.705819 0
M  V30 50 H 36.747584 30.699193 56.437588 0
M  V30 51 H 37.082700 32.380162 59.426888 0
M  V30 52 H 38.997295 33.719793 58.860164 0
M  V30 53 H 38.893052 34.579446 60.390615 0
M  V30 54 H 37.582842 34.700766 59.233096 0
M  V30 55 H 40.160115 29.090349 56.985846 0
M  V30 56 H 38.713320 27.450722 58.198357 0
M  V30 57 H 41.436548 31.878813 61.963833 0
M  V30 58 H 40.724462 33.176218 61.053447 0
M  V30 59 H 40.244930 29.494224 54.768908 0
M  V30 60 H 38.837420 31.074274 56.131956 0
M  V30 61 H 39.508660 35.098382 62.318046 0
M  V30 62 H 34.848060 33.123596 62.058973 0
M  V30 63 H 35.349312 31.694178 61.176402 0
M  V30 64 H 33.572281 33.220995 60.027499 0
M  V30 65 H 34.970955 32.869167 59.035293 0
M  V30 66 H 34.841491 34.422069 59.844890 0
M  V30 67 H 43.004291 34.214949 65.741360 0
M  V30 68 H 39.466915 31.698724 60.129592 0
M  V30 69 H 36.937127 26.347764 52.329102 0
M  V30 70 H 39.743859 30.021965 65.071326 0
M  V30 71 H 39.867399 31.766775 64.907083 0
M  V30 72 H 41.127052 30.720414 64.260551 0
M  V30 73 H 42.504812 32.505774 64.010574 0
M  V30 74 H 40.408168 37.715541 64.450772 0
M  V30 END ATOM
M  V30 BEGIN BOND
M  V30 1 2 3 2
M  V30 2 1 9 4
M  V30 3 1 9 8
M  V30 4 1 11 7
M  V30 5 1 14 13
M  V30 6 1 15 4
M  V30 7 1 16 10
M  V30 8 1 16 15
M  V30 9 1 17 11
M  V30 10 2 18 5
M  V30 11 1 18 10
M  V30 12 1 19 6
M  V30 13 1 20 12
M  V30 14 1 20 15
M  V30 15 1 20 19
M  V30 16 1 21 3
M  V30 17 1 22 3
M  V30 18 2 23 1
M  V30 19 1 23 18
M  V30 20 1 23 19
M  V30 21 1 25 24
M  V30 22 1 26 2
M  V30 23 1 27 11
M  V30 24 1 27 13
M  V30 25 1 28 9
M  V30 26 1 28 27
M  V30 27 1 29 1
M  V30 28 1 29 5
M  V30 29 1 30 7
M  V30 30 1 31 17
M  V30 31 2 31 22
M  V30 32 2 32 26
M  V30 33 1 32 31
M  V30 34 1 33 13
M  V30 35 1 33 24
M  V30 36 1 34 1
M  V30 37 1 35 2
M  V30 38 1 36 4
M  V30 39 1 37 4
M  V30 40 1 38 6
M  V30 41 1 39 6
M  V30 42 1 40 6
M  V30 43 1 41 7
M  V30 44 1 42 7
M  V30 45 1 43 8
M  V30 46 1 44 8
M  V30 47 1 45 8
M  V30 48 1 9 46 CFG=1
M  V30 49 1 47 10
M  V30 50 1 48 10
M  V30 51 1 11 49 CFG=1
M  V30 52 1 50 12
M  V30 53 1 13 51 CFG=3
M  V30 54 1 52 14
M  V30 55 1 53 14
M  V30 56 1 54 14
M  V30 57 1 15 55 CFG=3
M  V30 58 1 56 16
M  V30 59 1 57 17
M  V30 60 1 58 17
M  V30 61 1 19 59 CFG=1
M  V30 62 1 20 60 CFG=1
M  V30 63 1 61 22
M  V30 64 1 62 24
M  V30 65 1 63 24
M  V30 66 1 64 25
M  V30 67 1 65 25
M  V30 68 1 66 25
M  V30 69 1 67 26
M  V30 70 1 27 68 CFG=3
M  V30 71 1 69 29
M  V30 72 1 70 30
M  V30 73 1 71 30
M  V30 74 1 72 30
M  V30 75 1 73 32
M  V30 76 1 74 21
M  V30 END BOND
M  V30 END CTAB
M  END
>  <i_epik_Tot_Q>  (1) 
0

>  <i_epik_Tot_abs_Q>  (1) 
0

>  <i_i_glide_confnum>  (1) 
568

>  <i_i_glide_lignum>  (1) 
155

>  <i_i_glide_posenum>  (1) 
150

>  <i_i_glide_rotatable_bonds>  (1) 
13

>  <i_lp_mmshare_version>  (1) 
72125

>  <i_m_source_file_index>  (1) 
61

>  <i_f3d_flags>  (1) 
0

>  <num_sample>  (1) 
100

>  <b_lp_Chiralities_Consistent>  (1) 
1

>  <r_epik_Charging_Adjusted_Penalty>  (1) 
1.0946962456901577

>  <r_epik_Ionization_Penalty>  (1) 
0.79333375819973251

>  <r_epik_Ionization_Penalty_Charging>  (1) 
0

>  <r_epik_Ionization_Penalty_Neutral>  (1) 
0.79333375819973251

>  <r_epik_State_Penalty>  (1) 
1.0946962456901577

>  <r_glide_ring_energy>  (1) 
0

>  <r_i_docking_score>  (1) 
-6.2282320385084562

>  <r_i_glide_ecoul>  (1) 
-12.92920578397656

>  <r_i_glide_eff_state_penalty>  (1) 
1.0946962456901577

>  <r_i_glide_einternal>  (1) 
24.663860356369486

>  <r_i_glide_emodel>  (1) 
-62.152727525186016

>  <r_i_glide_emodel_strain>  (1) 
1.6914676424970025

>  <r_i_glide_energy>  (1) 
-52.917115703403951

>  <r_i_glide_erotb>  (1) 
0.85721886193159891

>  <r_i_glide_esite>  (1) 
0

>  <r_i_glide_evdw>  (1) 
-39.987909919427388

>  <r_i_glide_gscore>  (1) 
-7.3229282841986141

>  <r_i_glide_gscore_strain>  (1) 
0

>  <r_i_glide_hbond>  (1) 
-0.71999999999999997

>  <r_i_glide_ligand_efficiency>  (1) 
-0.18873430419722595

>  <r_i_glide_ligand_efficiency_ln>  (1) 
-1.3851265573046643

>  <r_i_glide_ligand_efficiency_sa>  (1) 
-0.60537175996047765

>  <r_i_glide_lipo>  (1) 
-3.0396051717122918

>  <r_i_glide_metal>  (1) 
-0

>  <r_i_glide_rewards>  (1) 
-0.48176561085006758

>  <r_lp_Energy>  (1) 
28.843152999999997

>  <r_lp_tautomer_probability>  (1) 
0.49999999999868239

>  <s_epik_cmdline>  (1) 
J2VwaWtfcHl0aG9uJywgJy1waHQnLCAnMS4wJywgJy1waCcsICc3LjQnLCAnLXRuJywgJzgnLCAnLW1hJywgJzUwMCcsICctaW1hZScsICc8aW5maWxlLm1hZT4nLCAnLW9tYWUnLCAnPG91dGZpbGUubWFlPic=

>  <s_epik_input>  (1) 
bjFbbkhdW2NIXWMoYzEyKVtDQEBIXShbQ0gzXSlbQ0BASF0oW09IXSlbQ0BIXShbTkhdW0NIMl0yKVtDSDJdW0NASF0oW0NIM10pT1tDQEBIXShbQ0BIXShbQ0gzXSlPW0NIMl1bQ0gzXSlbQ0BASF0oW0NIMl1bQ0gzXSlbQ0gyXUMoPVtDSF0zKVtDSDJdW0NIXT1bQ0hdQzM9Tw==

>  <s_glide_docking_method>  (1) 
confgen

>  <s_i_glide_gridfile>  (1) 
gpcr_5ht2c_6bqh_protein_autoprepared_prepared

>  <s_lp_Force_Field>  (1) 
S-OPLS

>  <s_lp_Variant>  (1) 
DiffSBDD_60_num_sample_100-4

>  <s_m_source_file>  (1) 
generated__ligand_DiffSBDD_2026-05-06_prepared.sdf

>  <GenAI_Model>  (1) 
DiffSBDD

>  <Protein>  (1) 
GPCR_5HT2C

$$$$
DiffSBDD_79_num_sample_100
     RDKit          3D

  0  0  0  0  0  0  0  0  0  0999 V3000
M  V30 BEGIN CTAB
M  V30 COUNTS 85 87 0 0 1
M  V30 BEGIN ATOM
M  V30 1 C 35.145279 33.231548 60.224246 0
M  V30 2 C 38.083317 31.267571 57.733373 0
M  V30 3 C 41.579026 34.632274 65.244685 0
M  V30 4 C 39.732911 30.274139 51.181662 0
M  V30 5 C 36.673811 34.035165 61.892465 0
M  V30 6 C 40.477447 34.751389 67.456428 0
M  V30 7 C 36.644323 33.438665 60.559617 0
M  V30 8 C 40.134861 31.066620 62.694722 0
M  V30 9 F 40.860298 34.174646 68.595553 0
M  V30 10 C 41.177981 30.174382 50.685326 0
M  V30 11 C 37.070589 31.748683 58.729921 0
M  V30 12 C 40.777479 31.635462 65.148680 0
M  V30 13 F 40.908792 36.011689 67.453634 0
M  V30 14 C 40.999440 33.961986 66.248352 0
M  V30 15 C 41.438416 33.086513 63.260306 0
M  V30 16 C 38.562714 29.114428 56.602394 0
M  V30 17 C 39.209756 28.159597 52.381846 0
M  V30 18 N 39.532593 29.483233 52.413121 0
M  V30 19 C 37.802656 33.958382 59.695679 0
M  V30 20 C 40.813913 31.991074 63.710526 0
M  V30 21 C 39.760615 30.186434 53.685736 0
M  V30 22 C 38.640418 29.258887 59.277792 0 CFG=2
M  V30 23 C 37.616202 32.448814 59.902958 0
M  V30 24 C 39.120492 34.556293 60.197620 0
M  V30 25 O 38.238559 30.083958 60.372810 0
M  V30 26 O 39.085516 27.478493 53.397128 0
M  V30 27 C 40.164994 29.162532 59.120354 0
M  V30 28 C 37.346231 34.774892 58.494803 0
M  V30 29 C 39.001963 27.520667 51.019554 0
M  V30 30 N 38.088573 29.807958 57.834439 0 CFG=1 CHG=1
M  V30 31 F 39.149293 34.821465 67.459001 0
M  V30 32 C 40.861237 32.478787 66.238466 0
M  V30 33 C 38.479927 30.610545 54.422647 0
M  V30 34 C 42.228940 34.018017 64.085164 0
M  V30 35 C 37.779561 29.543413 55.320566 0
M  V30 36 C 38.814443 31.636366 62.125541 0
M  V30 37 C 38.623508 31.467959 60.589713 0 CFG=2
M  V30 38 H 34.508181 34.021368 60.610661 0
M  V30 39 H 34.903705 33.196772 59.163871 0
M  V30 40 H 34.796471 32.303562 60.677334 0
M  V30 41 H 39.065271 31.720197 57.847213 0
M  V30 42 H 37.702178 31.611334 56.778086 0
M  V30 43 H 41.655117 35.710005 65.303988 0
M  V30 44 H 39.067028 29.977013 50.376210 0
M  V30 45 H 39.488063 31.324618 51.358446 0
M  V30 46 H 35.823267 34.678790 62.103236 0
M  V30 47 H 36.667267 33.221208 62.607557 0
M  V30 48 H 37.548681 34.653340 62.071478 0
M  V30 49 H 40.847586 30.897101 61.889075 0
M  V30 50 H 39.950946 30.084506 63.128658 0
M  V30 51 H 41.240528 30.193154 49.597092 0
M  V30 52 H 41.771997 31.008046 51.054099 0
M  V30 53 H 41.645801 29.261043 51.053355 0
M  V30 54 H 36.569647 32.540011 58.253526 0
M  V30 55 H 36.305193 31.019963 59.007009 0
M  V30 56 H 40.610083 30.590450 65.372948 0
M  V30 57 H 41.431704 33.291000 62.199521 0
M  V30 58 H 39.636368 29.253996 56.470499 0
M  V30 59 H 38.410717 28.043934 56.764310 0
M  V30 60 H 40.345609 31.084802 53.480062 0
M  V30 61 H 40.379580 29.621291 54.371264 0
M  V30 62 H 38.216246 28.271496 59.453617 0
M  V30 63 H 39.008071 35.623108 60.388043 0
M  V30 64 H 39.482814 34.098466 61.110693 0
M  V30 65 H 39.897535 34.421186 59.452430 0
M  V30 66 H 40.424070 28.275510 58.542172 0
M  V30 67 H 40.559635 30.019569 58.597991 0
M  V30 68 H 40.630739 29.076020 60.103555 0
M  V30 69 H 37.467297 35.843415 58.664903 0
M  V30 70 H 37.867510 34.461409 57.588148 0
M  V30 71 H 36.283296 34.658608 58.309033 0
M  V30 72 H 38.057050 27.904382 50.653777 0
M  V30 73 H 39.810567 27.744316 50.322560 0
M  V30 74 H 38.928728 26.434550 51.098836 0
M  V30 75 H 40.748950 32.006424 67.206429 0
M  V30 76 H 37.766067 31.004457 53.704833 0
M  V30 77 H 38.766399 31.473422 55.021858 0
M  V30 78 H 43.067323 33.475507 64.501039 0
M  V30 79 H 42.623581 34.808967 63.454109 0
M  V30 80 H 37.530048 28.662113 54.737441 0
M  V30 81 H 36.791992 29.920044 55.605091 0
M  V30 82 H 37.968826 31.188820 62.644886 0
M  V30 83 H 38.784605 32.679063 62.403943 0
M  V30 84 H 39.593114 31.648300 60.132436 0
M  V30 85 H 37.097854 29.617429 57.824540 0
M  V30 END ATOM
M  V30 BEGIN BOND
M  V30 1 1 7 1
M  V30 2 1 7 5
M  V30 3 1 9 6
M  V30 4 1 10 4
M  V30 5 1 11 2
M  V30 6 1 13 6
M  V30 7 2 14 3
M  V30 8 1 14 6
M  V30 9 1 18 4
M  V30 10 1 18 17
M  V30 11 1 19 7
M  V30 12 1 20 8
M  V30 13 1 20 12
M  V30 14 2 20 15
M  V30 15 1 21 18
M  V30 16 1 23 7
M  V30 17 1 23 11
M  V30 18 1 23 19
M  V30 19 1 24 19
M  V30 20 1 25 22
M  V30 21 2 26 17
M  V30 22 1 27 22
M  V30 23 1 28 19
M  V30 24 1 29 17
M  V30 25 1 30 2
M  V30 26 1 30 16
M  V30 27 1 30 22
M  V30 28 1 31 6
M  V30 29 2 32 12
M  V30 30 1 32 14
M  V30 31 1 33 21
M  V30 32 1 34 3
M  V30 33 1 34 15
M  V30 34 1 35 16
M  V30 35 1 35 33
M  V30 36 1 36 8
M  V30 37 1 37 23
M  V30 38 1 37 25
M  V30 39 1 37 36
M  V30 40 1 38 1
M  V30 41 1 39 1
M  V30 42 1 40 1
M  V30 43 1 41 2
M  V30 44 1 42 2
M  V30 45 1 43 3
M  V30 46 1 44 4
M  V30 47 1 45 4
M  V30 48 1 46 5
M  V30 49 1 47 5
M  V30 50 1 48 5
M  V30 51 1 49 8
M  V30 52 1 50 8
M  V30 53 1 51 10
M  V30 54 1 52 10
M  V30 55 1 53 10
M  V30 56 1 54 11
M  V30 57 1 55 11
M  V30 58 1 56 12
M  V30 59 1 57 15
M  V30 60 1 58 16
M  V30 61 1 59 16
M  V30 62 1 60 21
M  V30 63 1 61 21
M  V30 64 1 22 62 CFG=1
M  V30 65 1 63 24
M  V30 66 1 64 24
M  V30 67 1 65 24
M  V30 68 1 66 27
M  V30 69 1 67 27
M  V30 70 1 68 27
M  V30 71 1 69 28
M  V30 72 1 70 28
M  V30 73 1 71 28
M  V30 74 1 72 29
M  V30 75 1 73 29
M  V30 76 1 74 29
M  V30 77 1 75 32
M  V30 78 1 76 33
M  V30 79 1 77 33
M  V30 80 1 78 34
M  V30 81 1 79 34
M  V30 82 1 80 35
M  V30 83 1 81 35
M  V30 84 1 82 36
M  V30 85 1 83 36
M  V30 86 1 37 84 CFG=3
M  V30 87 1 30 85 CFG=1
M  V30 END BOND
M  V30 END CTAB
M  END
>  <i_epik_Tot_Q>  (1) 
1

>  <i_epik_Tot_abs_Q>  (1) 
1

>  <i_i_glide_confnum>  (1) 
831

>  <i_i_glide_lignum>  (1) 
203

>  <i_i_glide_posenum>  (1) 
212

>  <i_i_glide_rotatable_bonds>  (1) 
11

>  <i_lp_mmshare_version>  (1) 
72125

>  <i_m_source_file_index>  (1) 
80

>  <i_f3d_flags>  (1) 
0

>  <num_sample>  (1) 
100

>  <b_lp_Chiralities_Consistent>  (1) 
1

>  <r_epik_Charging_Adjusted_Penalty>  (1) 
1.4563538393833728

>  <r_epik_Ionization_Penalty>  (1) 
0.72817750760685918

>  <r_epik_Ionization_Penalty_Charging>  (1) 
0.72817691969168641

>  <r_epik_Ionization_Penalty_Neutral>  (1) 
5.8791517278497126e-07

>  <r_epik_State_Penalty>  (1) 
0.72817691969168641

>  <r_glide_ring_energy>  (1) 
0

>  <r_i_docking_score>  (1) 
-6.2239963191454235

>  <r_i_glide_ecoul>  (1) 
-2.4371035212462488

>  <r_i_glide_eff_state_penalty>  (1) 
0.72817691969168641

>  <r_i_glide_einternal>  (1) 
8.4270334551967778

>  <r_i_glide_emodel>  (1) 
-40.698728329174529

>  <r_i_glide_emodel_strain>  (1) 
2.1018885166005248

>  <r_i_glide_energy>  (1) 
-32.216717310957669

>  <r_i_glide_erotb>  (1) 
0.59581955881290138

>  <r_i_glide_esite>  (1) 
-0.040999486637047222

>  <r_i_glide_evdw>  (1) 
-29.779613789711419

>  <r_i_glide_gscore>  (1) 
-6.9521732388371102

>  <r_i_glide_gscore_strain>  (1) 
0

>  <r_i_glide_hbond>  (1) 
0

>  <r_i_glide_ligand_efficiency>  (1) 
-0.1682161167336601

>  <r_i_glide_ligand_efficiency_ln>  (1) 
-1.3498388904469019

>  <r_i_glide_ligand_efficiency_sa>  (1) 
-0.56053341997892869

>  <r_i_glide_lipo>  (1) 
-3.6510780938276861

>  <r_i_glide_metal>  (1) 
-0

>  <r_i_glide_rewards>  (1) 
-2.0013689995127706

>  <r_lp_Energy>  (1) 
66.61177099999999

>  <s_epik_Chemistry_Notes>  (1) 
This compound contains an acetal/aminal-like group ( X-CH(R)-Y where X, Y are N, S, or O) that may be acid/base labile, releasing an aldehyde.

>  <s_epik_cmdline>  (1) 
J2VwaWtfcHl0aG9uJywgJy1waHQnLCAnMS4wJywgJy1waCcsICc3LjQnLCAnLXRuJywgJzgnLCAnLW1hJywgJzUwMCcsICctaW1hZScsICc8aW5maWxlLm1hZT4nLCAnLW9tYWUnLCAnPG91dGZpbGUubWFlPic=

>  <s_epik_input>  (1) 
W0NIM11bQ0gyXU4oQyg9TylbQ0gzXSlbQ0gyXVtDSDJdW0NIMl1bQ0gyXU4oW0NIMl1bQ0gyXUMxMkMoW0NIM10pKFtDSDNdKUMxKFtDSDNdKVtDSDNdKVtDQEBIXShbQ0gzXSlPW0NASF0yW0NIMl1bQ0gyXUMoW0NIXT1bQ0hdMyk9W0NIXVtDSDJdW0NIXT1DM0MoRikoRilG

>  <s_glide_docking_method>  (1) 
confgen

>  <s_i_glide_gridfile>  (1) 
gpcr_5ht2c_6bqh_protein_autoprepared_prepared

>  <s_lp_Force_Field>  (1) 
S-OPLS

>  <s_lp_Variant>  (1) 
DiffSBDD_79_num_sample_100-5

>  <s_m_source_file>  (1) 
generated__ligand_DiffSBDD_2026-05-06_prepared.sdf

>  <GenAI_Model>  (1) 
DiffSBDD

>  <Protein>  (1) 
GPCR_5HT2C

$$$$
DiffSBDD_18_num_sample_100
     RDKit          3D

  0  0  0  0  0  0  0  0  0  0999 V3000
M  V30 BEGIN CTAB
M  V30 COUNTS 70 72 0 0 1
M  V30 BEGIN ATOM
M  V30 1 O 39.760033 33.846459 62.707537 0
M  V30 2 C 38.571579 26.615681 55.055644 0
M  V30 3 C 38.002067 30.589612 58.484015 0
M  V30 4 C 37.867414 26.640456 53.978930 0
M  V30 5 O 36.667402 31.076030 60.919168 0
M  V30 6 C 39.489135 28.158453 56.820966 0 CFG=2
M  V30 7 C 43.358149 29.873172 64.450383 0
M  V30 8 N 38.922498 27.854313 55.511863 0
M  V30 9 N 40.473700 27.143413 57.200273 0
M  V30 10 C 41.617598 33.785064 64.245309 0
M  V30 11 C 42.839586 31.118339 66.555698 0
M  V30 12 O 44.522946 29.594397 64.165189 0
M  V30 13 O 37.067404 28.421429 52.653498 0
M  V30 14 C 40.267404 29.456475 65.891958 0
M  V30 15 C 39.931003 29.296881 59.647236 0
M  V30 16 C 37.684364 28.007744 53.626949 0
M  V30 17 C 41.830507 27.422253 65.651113 0
M  V30 18 C 42.463657 32.294236 65.997946 0
M  V30 19 C 37.538832 31.860596 60.545873 0
M  V30 20 N 42.395185 30.261496 63.575461 0
M  V30 21 C 38.524904 29.225641 59.007646 0 CFG=2
M  V30 22 C 41.124391 34.204812 62.861374 0 CFG=2
M  V30 23 C 38.395054 28.144143 57.900516 0 CFG=2
M  V30 24 C 38.512758 26.707797 58.405463 0
M  V30 25 O 40.835819 26.891224 65.108144 0 CHG=-1
M  V30 26 C 38.382526 28.972883 54.665186 0
M  V30 27 C 41.877202 31.426651 63.540793 0
M  V30 28 C 37.893582 33.078757 61.402152 0
M  V30 29 C 39.388608 33.457807 61.394944 0
M  V30 30 C 41.247077 35.724758 62.679387 0
M  V30 31 C 41.992876 32.528071 64.601453 0
M  V30 32 C 42.877410 29.784550 65.878079 0 CFG=1
M  V30 33 C 41.657877 28.858050 66.213010 0 CFG=1
M  V30 34 N 38.220684 31.709178 59.397202 0
M  V30 35 N 39.874311 26.256345 58.138012 0
M  V30 36 O 42.955277 26.891258 65.788323 0
M  V30 37 H 38.891470 25.752701 55.620057 0
M  V30 38 H 36.938154 30.518812 58.248771 0
M  V30 39 H 38.498995 30.843868 57.547856 0
M  V30 40 H 37.463081 25.804932 53.431553 0
M  V30 41 H 39.988249 29.125338 56.749850 0
M  V30 42 H 40.795950 26.625334 56.385051 0
M  V30 43 H 41.676674 34.574714 64.980915 0
M  V30 44 H 43.148642 31.118471 67.590916 0
M  V30 45 H 37.663144 29.596091 55.197576 0
M  V30 46 H 39.467690 28.821422 66.274789 0
M  V30 47 H 40.136109 30.434634 66.352598 0
M  V30 48 H 40.105079 29.569360 64.821506 0
M  V30 49 H 40.689252 29.621430 58.936370 0
M  V30 50 H 39.954180 29.983075 60.493523 0
M  V30 51 H 40.238888 28.324657 60.032861 0
M  V30 52 H 42.500268 33.159959 66.643259 0
M  V30 53 H 37.849824 28.928772 59.810517 0
M  V30 54 H 41.754299 33.738226 62.101722 0
M  V30 55 H 37.407190 28.265069 57.453500 0
M  V30 56 H 38.267412 26.602044 59.453502 0
M  V30 57 H 37.828236 26.066488 57.849469 0
M  V30 58 H 39.171047 29.571353 54.209061 0
M  V30 59 H 41.295946 31.721912 62.670241 0
M  V30 60 H 37.600601 32.821424 62.420164 0
M  V30 61 H 37.277500 33.929748 61.111187 0
M  V30 62 H 39.569026 34.270572 60.689923 0
M  V30 63 H 40.011637 32.617512 61.086655 0
M  V30 64 H 42.267401 36.060897 62.861602 0
M  V30 65 H 40.975200 36.029471 61.668781 0
M  V30 66 H 40.598558 36.259724 63.374036 0
M  V30 67 H 43.720160 29.307241 66.382483 0
M  V30 68 H 41.672500 28.718533 67.294574 0
M  V30 69 H 38.915918 32.394080 59.143847 0
M  V30 70 H 39.882315 25.305747 57.773484 0
M  V30 END ATOM
M  V30 BEGIN BOND
M  V30 1 2 4 2
M  V30 2 1 8 2
M  V30 3 1 8 6
M  V30 4 1 9 6
M  V30 5 2 12 7
M  V30 6 1 16 4
M  V30 7 2 16 13
M  V30 8 2 18 11
M  V30 9 2 19 5
M  V30 10 1 20 7
M  V30 11 1 21 3
M  V30 12 1 21 15
M  V30 13 1 22 1
M  V30 14 1 22 10
M  V30 15 1 23 6
M  V30 16 1 23 21
M  V30 17 1 24 23
M  V30 18 1 25 17
M  V30 19 1 26 8
M  V30 20 1 26 16
M  V30 21 2 27 20
M  V30 22 1 28 19
M  V30 23 1 29 1
M  V30 24 1 29 28
M  V30 25 1 30 22
M  V30 26 2 31 10
M  V30 27 1 31 18
M  V30 28 1 31 27
M  V30 29 1 32 7
M  V30 30 1 32 11
M  V30 31 1 33 14
M  V30 32 1 33 17
M  V30 33 1 33 32
M  V30 34 1 34 3
M  V30 35 1 34 19
M  V30 36 1 35 9
M  V30 37 1 35 24
M  V30 38 2 36 17
M  V30 39 1 37 2
M  V30 40 1 38 3
M  V30 41 1 39 3
M  V30 42 1 40 4
M  V30 43 1 6 41 CFG=3
M  V30 44 1 42 9
M  V30 45 1 43 10
M  V30 46 1 44 11
M  V30 47 1 45 26
M  V30 48 1 46 14
M  V30 49 1 47 14
M  V30 50 1 48 14
M  V30 51 1 49 15
M  V30 52 1 50 15
M  V30 53 1 51 15
M  V30 54 1 52 18
M  V30 55 1 21 53 CFG=1
M  V30 56 1 22 54 CFG=3
M  V30 57 1 23 55 CFG=3
M  V30 58 1 56 24
M  V30 59 1 57 24
M  V30 60 1 58 26
M  V30 61 1 59 27
M  V30 62 1 60 28
M  V30 63 1 61 28
M  V30 64 1 62 29
M  V30 65 1 63 29
M  V30 66 1 64 30
M  V30 67 1 65 30
M  V30 68 1 66 30
M  V30 69 1 32 67 CFG=1
M  V30 70 1 33 68 CFG=1
M  V30 71 1 69 34
M  V30 72 1 70 35
M  V30 END BOND
M  V30 END CTAB
M  END
>  <i_epik_Tot_Q>  (1) 
-1

>  <i_epik_Tot_abs_Q>  (1) 
1

>  <i_i_glide_confnum>  (1) 
2629

>  <i_i_glide_lignum>  (1) 
42

>  <i_i_glide_posenum>  (1) 
49

>  <i_i_glide_rotatable_bonds>  (1) 
12

>  <i_lp_mmshare_version>  (1) 
72125

>  <i_m_source_file_index>  (1) 
19

>  <i_f3d_flags>  (1) 
0

>  <num_sample>  (1) 
100

>  <b_lp_Chiralities_Consistent>  (1) 
1

>  <r_epik_Charging_Adjusted_Penalty>  (1) 
0.37971815023500188

>  <r_epik_Ionization_Penalty>  (1) 
0.19445293645399606

>  <r_epik_Ionization_Penalty_Charging>  (1) 
0.18991606969001057

>  <r_epik_Ionization_Penalty_Neutral>  (1) 
0.004536866763985496

>  <r_epik_State_Penalty>  (1) 
0.18980208054499129

>  <r_glide_ring_energy>  (1) 
1.7561163794185952

>  <r_i_docking_score>  (1) 
-6.2223356927368654

>  <r_i_glide_ecoul>  (1) 
-1.10305548080906

>  <r_i_glide_eff_state_penalty>  (1) 
0.18980208054499129

>  <r_i_glide_einternal>  (1) 
21.116097007041709

>  <r_i_glide_emodel>  (1) 
-62.487509811994002

>  <r_i_glide_emodel_strain>  (1) 
0.028451022968909001

>  <r_i_glide_energy>  (1) 
-52.54709596031126

>  <r_i_glide_erotb>  (1) 
0.89642714384868305

>  <r_i_glide_esite>  (1) 
-0.042612807590670349

>  <r_i_glide_evdw>  (1) 
-51.444040479502199

>  <r_i_glide_gscore>  (1) 
-6.4121377732818567

>  <r_i_glide_gscore_strain>  (1) 
0

>  <r_i_glide_hbond>  (1) 
-0.24886818761250218

>  <r_i_glide_ligand_efficiency>  (1) 
-0.17284265813157959

>  <r_i_glide_ligand_efficiency_ln>  (1) 
-1.3575455400720493

>  <r_i_glide_ligand_efficiency_sa>  (1) 
-0.57071388265604117

>  <r_i_glide_lipo>  (1) 
-2.8389653774415402

>  <r_i_glide_metal>  (1) 
-0

>  <r_i_glide_rewards>  (1) 
-1.4404581983893581

>  <r_lp_Energy>  (1) 
20.917635000000001

>  <r_lp_tautomer_probability>  (1) 
0.98846045845713826

>  <s_epik_Chemistry_Notes>  (1) 
This compound has an imine and may undergo hydrolysis. This compound contains an acetal/aminal-like group ( X-CH(R)-Y where X, Y are N, S, or O) that may be acid/base labile, releasing an aldehyde.

>  <s_epik_cmdline>  (1) 
J2VwaWtfcHl0aG9uJywgJy1waHQnLCAnMS4wJywgJy1waCcsICc3LjQnLCAnLXRuJywgJzgnLCAnLW1hJywgJzUwMCcsICctaW1hZScsICc8aW5maWxlLm1hZT4nLCAnLW9tYWUnLCAnPG91dGZpbGUubWFlPic=

>  <s_epik_input>  (1) 
W09IXUMoPU8pW0NASF0oW0NIM10pW0NAQEhdMVtDSF09W0NIXVxDKFtDSF09TkMxPU8pPVtDSF1cW0NASF0oW0NIM10pT1tDSDJdW0NIMl1DKD1PKVtOSF1bQ0gyXVtDQEhdKFtDSDNdKVtDQEBIXTJbQ0gyXVtOSF1bTkhdW0NASF0ybjNbY0hdW2NIXWMoW09IXSlbY0hdMw==

>  <s_glide_docking_method>  (1) 
confgen

>  <s_i_glide_gridfile>  (1) 
gpcr_5ht2c_6bqh_protein_autoprepared_prepared

>  <s_lp_Force_Field>  (1) 
S-OPLS

>  <s_lp_Variant>  (1) 
DiffSBDD_18_num_sample_100-2

>  <s_m_source_file>  (1) 
generated__ligand_DiffSBDD_2026-05-06_prepared.sdf

>  <GenAI_Model>  (1) 
DiffSBDD

>  <Protein>  (1) 
GPCR_5HT2C

$$$$
DiffSBDD_32_num_sample_100
     RDKit          3D

  0  0  0  0  0  0  0  0  0  0999 V3000
M  V30 BEGIN CTAB
M  V30 COUNTS 84 87 0 0 1
M  V30 BEGIN ATOM
M  V30 1 C 39.416193 32.632406 58.222329 0 CFG=2
M  V30 2 O 39.066263 31.507894 62.255262 0 CHG=-1
M  V30 3 O 40.267383 29.221463 49.388266 0
M  V30 4 C 39.867754 30.964090 51.443117 0
M  V30 5 C 40.116253 27.604074 57.965967 0
M  V30 6 C 38.397821 35.035839 61.845997 0
M  V30 7 O 38.220721 30.489527 57.622240 0
M  V30 8 C 37.915720 37.221278 62.796601 0
M  V30 9 C 38.512337 30.690717 54.895758 0 CFG=1
M  V30 10 C 36.300109 33.577794 58.998082 0
M  V30 11 C 39.318089 29.533425 51.456705 0 CFG=2
M  V30 12 C 37.155353 36.140480 60.041942 0
M  V30 13 C 38.625841 33.245779 55.888305 0
M  V30 14 C 36.988995 37.730255 61.970350 0
M  V30 15 O 36.138745 38.648318 62.444246 0
M  V30 16 C 36.875388 37.342523 60.570639 0
M  V30 17 C 37.210609 28.453428 57.842698 0
M  V30 18 C 38.025156 31.665399 61.585203 0
M  V30 19 O 36.902975 31.221401 61.853316 0
M  V30 20 C 38.110089 32.463392 60.326607 0 CFG=2
M  V30 21 O 39.854959 35.996985 63.456087 0
M  V30 22 C 37.878798 32.096865 55.157433 0
M  V30 23 C 37.595564 34.956947 60.765452 0
M  V30 24 C 38.987406 36.282381 62.380168 0 CFG=1
M  V30 25 C 37.670935 29.559937 55.578155 0
M  V30 26 C 39.467393 31.083570 57.853534 0
M  V30 27 N 37.067408 33.053017 57.857561 0 CHG=1
M  V30 28 C 39.208275 29.233288 52.939878 0
M  V30 29 C 39.467386 31.509099 52.796902 0
M  V30 30 C 40.169919 28.590758 50.641696 0
M  V30 31 C 39.700712 26.122199 57.938356 0
M  V30 32 N 38.653735 30.480982 53.453608 0 CFG=2 CHG=1
M  V30 33 C 38.213415 29.218053 56.976549 0 CFG=1
M  V30 34 C 39.467440 32.829601 59.757473 0
M  V30 35 C 39.542117 28.398647 56.779154 0
M  V30 36 C 37.085452 33.604583 60.310786 0 CFG=1
M  V30 37 C 38.384212 33.406604 57.427144 0 CFG=1
M  V30 38 H 40.266879 33.221319 57.866489 0
M  V30 39 H 40.570922 30.107162 49.511955 0
M  V30 40 H 39.465891 31.560544 50.620483 0
M  V30 41 H 40.956643 30.983281 51.361301 0
M  V30 42 H 41.204151 27.641754 57.903070 0
M  V30 43 H 39.862231 28.063406 58.920890 0
M  V30 44 H 38.677653 34.131733 62.361744 0
M  V30 45 H 37.946508 37.550717 63.825332 0
M  V30 46 H 39.545184 30.656006 55.204305 0
M  V30 47 H 35.522229 32.823612 59.136309 0
M  V30 48 H 35.709493 34.455310 58.740745 0
M  V30 49 H 38.307479 29.517105 51.052153 0
M  V30 50 H 36.950222 36.028358 58.991490 0
M  V30 51 H 38.287597 34.176637 55.431686 0
M  V30 52 H 39.689916 33.203995 55.667480 0
M  V30 53 H 35.579928 38.913884 61.729819 0
M  V30 54 H 36.468916 38.047687 59.899886 0
M  V30 55 H 37.053143 27.439166 57.478210 0
M  V30 56 H 37.570312 28.421318 58.868816 0
M  V30 57 H 36.255837 28.970442 57.882629 0
M  V30 58 H 37.722122 31.649755 59.719371 0
M  V30 59 H 40.492230 36.689890 63.540501 0
M  V30 60 H 37.067376 31.878130 55.791577 0
M  V30 61 H 37.396852 32.493234 54.263558 0
M  V30 62 H 39.587985 36.747801 61.598026 0
M  V30 63 H 36.620734 29.853135 55.637649 0
M  V30 64 H 37.634280 28.638579 55.001675 0
M  V30 65 H 39.867316 30.421417 58.634811 0
M  V30 66 H 40.153128 30.991594 57.028311 0
M  V30 67 H 37.161191 32.065771 58.061968 0
M  V30 68 H 40.195264 29.221472 53.369973 0
M  V30 69 H 38.653187 28.323103 53.156149 0
M  V30 70 H 38.881736 32.420790 52.704683 0
M  V30 71 H 40.362340 31.621417 53.406359 0
M  V30 72 H 41.148017 28.467161 51.102466 0
M  V30 73 H 39.708984 27.609023 50.541012 0
M  V30 74 H 40.266800 25.538798 58.654891 0
M  V30 75 H 38.649507 25.980795 58.180736 0
M  V30 76 H 39.882578 25.665900 56.966192 0
M  V30 77 H 40.244534 32.233580 60.253420 0
M  V30 78 H 39.765329 33.852791 59.971760 0
M  V30 79 H 39.372633 27.675918 55.980137 0
M  V30 80 H 40.342158 29.005342 56.365387 0
M  V30 81 H 36.311444 33.425649 61.061980 0
M  V30 82 H 38.323528 34.421354 57.684531 0
M  V30 83 H 37.722657 30.553052 53.070133 0
M  V30 84 H 36.417696 33.009711 57.071810 0
M  V30 END ATOM
M  V30 BEGIN BOND
M  V30 1 1 11 4
M  V30 2 2 14 8
M  V30 3 1 15 14
M  V30 4 2 16 12
M  V30 5 1 16 14
M  V30 6 1 18 2
M  V30 7 2 19 18
M  V30 8 1 20 18
M  V30 9 1 22 9
M  V30 10 1 22 13
M  V30 11 2 23 6
M  V30 12 1 23 12
M  V30 13 1 24 6
M  V30 14 1 24 8
M  V30 15 1 24 21
M  V30 16 1 25 9
M  V30 17 1 26 1
M  V30 18 1 26 7
M  V30 19 1 27 10
M  V30 20 1 28 11
M  V30 21 1 29 4
M  V30 22 1 30 3
M  V30 23 1 30 11
M  V30 24 1 31 5
M  V30 25 1 32 9
M  V30 26 1 32 28
M  V30 27 1 32 29
M  V30 28 1 33 7
M  V30 29 1 33 17 CFG=1
M  V30 30 1 33 25
M  V30 31 1 34 1
M  V30 32 1 34 20
M  V30 33 1 35 5
M  V30 34 1 35 33
M  V30 35 1 36 10
M  V30 36 1 36 20
M  V30 37 1 36 23
M  V30 38 1 37 1
M  V30 39 1 37 13
M  V30 40 1 37 27
M  V30 41 1 1 38 CFG=3
M  V30 42 1 39 3
M  V30 43 1 40 4
M  V30 44 1 41 4
M  V30 45 1 42 5
M  V30 46 1 43 5
M  V30 47 1 44 6
M  V30 48 1 45 8
M  V30 49 1 9 46 CFG=1
M  V30 50 1 47 10
M  V30 51 1 48 10
M  V30 52 1 11 49 CFG=3
M  V30 53 1 50 12
M  V30 54 1 51 13
M  V30 55 1 52 13
M  V30 56 1 53 15
M  V30 57 1 54 16
M  V30 58 1 55 17
M  V30 59 1 56 17
M  V30 60 1 57 17
M  V30 61 1 20 58 CFG=3
M  V30 62 1 59 21
M  V30 63 1 60 22
M  V30 64 1 61 22
M  V30 65 1 24 62 CFG=3
M  V30 66 1 63 25
M  V30 67 1 64 25
M  V30 68 1 65 26
M  V30 69 1 66 26
M  V30 70 1 67 27
M  V30 71 1 68 28
M  V30 72 1 69 28
M  V30 73 1 70 29
M  V30 74 1 71 29
M  V30 75 1 72 30
M  V30 76 1 73 30
M  V30 77 1 74 31
M  V30 78 1 75 31
M  V30 79 1 76 31
M  V30 80 1 77 34
M  V30 81 1 78 34
M  V30 82 1 79 35
M  V30 83 1 80 35
M  V30 84 1 36 81 CFG=1
M  V30 85 1 37 82 CFG=1
M  V30 86 1 32 83 CFG=3
M  V30 87 1 84 27
M  V30 END BOND
M  V30 END CTAB
M  END
>  <i_epik_Tot_Q>  (1) 
1

>  <i_epik_Tot_abs_Q>  (1) 
3

>  <i_i_glide_confnum>  (1) 
141

>  <i_i_glide_lignum>  (1) 
87

>  <i_i_glide_posenum>  (1) 
203

>  <i_i_glide_rotatable_bonds>  (1) 
9

>  <i_lp_mmshare_version>  (1) 
72125

>  <i_m_source_file_index>  (1) 
33

>  <i_f3d_flags>  (1) 
0

>  <num_sample>  (1) 
100

>  <b_lp_Chiralities_Consistent>  (1) 
1

>  <r_epik_Charging_Adjusted_Penalty>  (1) 
0.016900800142501185

>  <r_epik_Ionization_Penalty>  (1) 
0.019380071947909534

>  <r_epik_Ionization_Penalty_Charging>  (1) 
0.016900800142501185

>  <r_epik_Ionization_Penalty_Neutral>  (1) 
0.0024792718054083493

>  <r_epik_State_Penalty>  (1) 
-0

>  <r_glide_ring_energy>  (1) 
0

>  <r_i_docking_score>  (1) 
-6.2187327149649834

>  <r_i_glide_ecoul>  (1) 
-11.054433619174398

>  <r_i_glide_eff_state_penalty>  (1) 
-0

>  <r_i_glide_einternal>  (1) 
10.550466486884067

>  <r_i_glide_emodel>  (1) 
-62.829653762978111

>  <r_i_glide_emodel_strain>  (1) 
5.0073551727759593

>  <r_i_glide_energy>  (1) 
-7.5402569528138574

>  <r_i_glide_erotb>  (1) 
0.30428459818937692

>  <r_i_glide_esite>  (1) 
-0.10000000000000001

>  <r_i_glide_evdw>  (1) 
3.5141766663605414

>  <r_i_glide_gscore>  (1) 
-6.2187327149649834

>  <r_i_glide_gscore_strain>  (1) 
0.25183879319398983

>  <r_i_glide_hbond>  (1) 
-0.41144200578038959

>  <r_i_glide_ligand_efficiency>  (1) 
-0.16807385716121576

>  <r_i_glide_ligand_efficiency_ln>  (1) 
-1.3486973380965539

>  <r_i_glide_ligand_efficiency_sa>  (1) 
-0.56005937952302398

>  <r_i_glide_lipo>  (1) 
-3.6385734719264597

>  <r_i_glide_metal>  (1) 
-0

>  <r_i_glide_rewards>  (1) 
-1.1423844190833685

>  <r_lp_Energy>  (1) 
56.582617999999997

>  <r_lp_tautomer_probability>  (1) 
1

>  <s_epik_cmdline>  (1) 
J2VwaWtfcHl0aG9uJywgJy1waHQnLCAnMS4wJywgJy1waCcsICc3LjQnLCAnLXRuJywgJzgnLCAnLW1hJywgJzUwMCcsICctaW1hZScsICc8aW5maWxlLm1hZT4nLCAnLW9tYWUnLCAnPG91dGZpbGUubWFlPic=

>  <s_epik_input>  (1) 
W09IXUMxPVtDSF1bQ0BASF0oW09IXSlbQ0hdPUMoW0NIXT1bQ0hdMSlbQ0BIXShbQ0BASF0oW0NIMl0yKUMoPU8pW09IXSlbQ0gyXVtOSF1bQ0BASF0oW0NAQEhdMjMpW0NIMl1bQ0gyXVtDQEBIXShbQ0gyXVtDQF0oW0NIM10pKE9bQ0gyXTMpW0NIMl1bQ0gyXVtDSDNdKU4oW0NIMl00KVtDSDJdW0NIMl1bQ0BIXTRbQ0gyXVtPSF0=

>  <s_glide_docking_method>  (1) 
confgen

>  <s_i_glide_gridfile>  (1) 
gpcr_5ht2c_6bqh_protein_autoprepared_prepared

>  <s_lp_Force_Field>  (1) 
S-OPLS

>  <s_lp_Variant>  (1) 
DiffSBDD_32_num_sample_100-2

>  <s_m_source_file>  (1) 
generated__ligand_DiffSBDD_2026-05-06_prepared.sdf

>  <GenAI_Model>  (1) 
DiffSBDD

>  <Protein>  (1) 
GPCR_5HT2C

$$$$
DiffSBDD_20_num_sample_100
     RDKit          3D

  0  0  0  0  0  0  0  0  0  0999 V3000
M  V30 BEGIN CTAB
M  V30 COUNTS 55 55 0 0 1
M  V30 BEGIN ATOM
M  V30 1 C 38.074019 25.959694 56.120230 0 CFG=1
M  V30 2 C 38.727154 28.116698 54.642192 0 CFG=2
M  V30 3 C 39.415327 28.628367 58.377897 0
M  V30 4 C 37.454669 23.683572 55.064148 0
M  V30 5 N 39.051871 28.383426 53.264637 0
M  V30 6 C 39.796453 30.687892 53.744557 0
M  V30 7 O 37.458420 32.099642 62.070701 0
M  V30 8 C 37.239161 32.123267 59.702079 0
M  V30 9 C 39.234763 30.465021 60.001284 0
M  V30 10 C 40.357839 28.752635 50.646810 0
M  V30 11 N 38.670242 29.496413 59.073990 0
M  V30 12 O 40.639976 28.543808 58.467082 0
M  V30 13 C 36.933578 25.732123 57.149629 0
M  V30 14 C 38.574062 24.580577 55.641405 0
M  V30 15 C 39.415340 29.522217 52.827536 0
M  V30 16 C 36.673696 31.934002 61.110802 0
M  V30 17 O 39.467436 31.470527 49.555039 0
M  V30 18 N 38.673454 27.869749 57.566654 0
M  V30 19 C 39.886073 27.534411 55.459350 0
M  V30 20 S 37.467406 26.844801 54.653523 0
M  V30 21 C 39.888333 31.221081 50.883820 0
M  V30 22 O 35.467760 31.621568 61.202130 0 CHG=-1
M  V30 23 C 39.232715 26.845994 56.677555 0 CFG=2
M  V30 24 C 39.480349 29.800105 51.325699 0 CFG=1
M  V30 25 C 38.764772 31.886804 59.618805 0
M  V30 26 H 38.296203 28.986990 55.141909 0
M  V30 27 H 37.867319 22.821390 54.560261 0
M  V30 28 H 36.793844 23.303417 55.843376 0
M  V30 29 H 36.838038 24.197092 54.326982 0
M  V30 30 H 40.667115 31.220114 53.365171 0
M  V30 31 H 37.007591 33.138401 59.378929 0
M  V30 32 H 36.710383 31.461099 59.016711 0
M  V30 33 H 38.914625 30.204755 61.009483 0
M  V30 34 H 40.323000 30.421359 60.028712 0
M  V30 35 H 39.985536 27.737486 50.798902 0
M  V30 36 H 40.400054 28.921223 49.571012 0
M  V30 37 H 41.368281 28.817594 51.053513 0
M  V30 38 H 37.670505 29.505727 58.940123 0
M  V30 39 H 37.272186 25.105172 57.974691 0
M  V30 40 H 36.553213 26.650717 57.585831 0
M  V30 41 H 36.069104 25.247408 56.699110 0
M  V30 42 H 39.341841 24.716370 54.879205 0
M  V30 43 H 39.060563 24.058748 56.467004 0
M  V30 44 H 38.689203 30.959110 49.361848 0
M  V30 45 H 37.674099 28.005592 57.549801 0
M  V30 46 H 40.430823 26.795818 54.870363 0
M  V30 47 H 40.608364 28.296294 55.752318 0
M  V30 48 H 40.972372 31.318725 50.936193 0
M  V30 49 H 39.467085 31.999475 51.514671 0
M  V30 50 H 39.957425 26.243343 57.229749 0
M  V30 51 H 38.468814 29.621422 50.975773 0
M  V30 52 H 39.283677 32.618492 60.239573 0
M  V30 53 H 39.067411 32.103223 58.594176 0
M  V30 54 H 38.966050 31.388762 53.833362 0
M  V30 55 H 40.071475 30.357139 54.744639 0
M  V30 END ATOM
M  V30 BEGIN BOND
M  V30 1 1 5 2
M  V30 2 1 11 3
M  V30 3 1 11 9
M  V30 4 2 12 3
M  V30 5 1 1 13 CFG=1
M  V30 6 1 14 1
M  V30 7 1 14 4
M  V30 8 2 15 5
M  V30 9 1 15 6
M  V30 10 2 16 7
M  V30 11 1 16 8
M  V30 12 1 18 3
M  V30 13 1 19 2
M  V30 14 1 20 1
M  V30 15 1 20 2
M  V30 16 1 21 17
M  V30 17 1 22 16
M  V30 18 1 23 1
M  V30 19 1 23 18
M  V30 20 1 23 19
M  V30 21 1 24 10
M  V30 22 1 24 15
M  V30 23 1 24 21
M  V30 24 1 25 8
M  V30 25 1 25 9
M  V30 26 1 2 26 CFG=1
M  V30 27 1 27 4
M  V30 28 1 28 4
M  V30 29 1 29 4
M  V30 30 1 30 6
M  V30 31 1 31 8
M  V30 32 1 32 8
M  V30 33 1 33 9
M  V30 34 1 34 9
M  V30 35 1 35 10
M  V30 36 1 36 10
M  V30 37 1 37 10
M  V30 38 1 38 11
M  V30 39 1 39 13
M  V30 40 1 40 13
M  V30 41 1 41 13
M  V30 42 1 42 14
M  V30 43 1 43 14
M  V30 44 1 44 17
M  V30 45 1 45 18
M  V30 46 1 46 19
M  V30 47 1 47 19
M  V30 48 1 48 21
M  V30 49 1 49 21
M  V30 50 1 23 50 CFG=1
M  V30 51 1 24 51 CFG=3
M  V30 52 1 52 25
M  V30 53 1 53 25
M  V30 54 1 54 6
M  V30 55 1 55 6
M  V30 END BOND
M  V30 END CTAB
M  END
>  <i_epik_Tot_Q>  (1) 
-1

>  <i_epik_Tot_abs_Q>  (1) 
1

>  <i_i_glide_confnum>  (1) 
74

>  <i_i_glide_lignum>  (1) 
55

>  <i_i_glide_posenum>  (1) 
48

>  <i_i_glide_rotatable_bonds>  (1) 
12

>  <i_lp_mmshare_version>  (1) 
72125

>  <i_m_source_file_index>  (1) 
21

>  <i_f3d_flags>  (1) 
0

>  <num_sample>  (1) 
100

>  <b_lp_Chiralities_Consistent>  (1) 
1

>  <r_epik_Charging_Adjusted_Penalty>  (1) 
0.43743025276339681

>  <r_epik_Ionization_Penalty>  (1) 
0.026773266926762091

>  <r_epik_Ionization_Penalty_Charging>  (1) 
0.0015534882308521432

>  <r_epik_Ionization_Penalty_Neutral>  (1) 
0.025219778695909949

>  <r_epik_State_Penalty>  (1) 
0.43587676453254465

>  <r_glide_ring_energy>  (1) 
0

>  <r_i_docking_score>  (1) 
-6.2134910852073544

>  <r_i_glide_ecoul>  (1) 
-4.9338614170852582

>  <r_i_glide_eff_state_penalty>  (1) 
0.43587676453254465

>  <r_i_glide_einternal>  (1) 
6.1332407873989236

>  <r_i_glide_emodel>  (1) 
-46.60914208237692

>  <r_i_glide_emodel_strain>  (1) 
1.4677210354377372

>  <r_i_glide_energy>  (1) 
-36.405687811559751

>  <r_i_glide_erotb>  (1) 
1.2527341714622291

>  <r_i_glide_esite>  (1) 
-0.047913472537470636

>  <r_i_glide_evdw>  (1) 
-31.471826394474494

>  <r_i_glide_gscore>  (1) 
-6.6493678497398987

>  <r_i_glide_gscore_strain>  (1) 
0

>  <r_i_glide_hbond>  (1) 
-0.53778015956429981

>  <r_i_glide_ligand_efficiency>  (1) 
-0.24853964340829418

>  <r_i_glide_ligand_efficiency_ln>  (1) 
-1.4727835904962825

>  <r_i_glide_ligand_efficiency_sa>  (1) 
-0.72673432597495269

>  <r_i_glide_lipo>  (1) 
-3.240799295473678

>  <r_i_glide_metal>  (1) 
-0

>  <r_i_glide_rewards>  (1) 
-1.7619385613401655

>  <r_lp_Energy>  (1) 
19.180076

>  <r_lp_tautomer_probability>  (1) 
0.49999399997599986

>  <s_epik_Chemistry_Notes>  (1) 
This compound has an imine and may undergo hydrolysis. This compound contains an acetal/aminal-like group ( X-CH(R)-Y where X, Y are N, S, or O) that may be acid/base labile, releasing an aldehyde.

>  <s_epik_cmdline>  (1) 
J2VwaWtfcHl0aG9uJywgJy1waHQnLCAnMS4wJywgJy1waCcsICc3LjQnLCAnLXRuJywgJzgnLCAnLW1hJywgJzUwMCcsICctaW1hZScsICc8aW5maWxlLm1hZT4nLCAnLW9tYWUnLCAnPG91dGZpbGUubWFlPic=

>  <s_epik_input>  (1) 
W09IXVtDSDJdW0NAQEhdKFtDSDNdKUMoPVtDSDJdKVtOSF1bQ0BASF0oU1tDQEBdMShbQ0gzXSlbQ0gyXVtDSDNdKVtDSDJdW0NASF0xW05IXUMoPU8pW05IXVtDSDJdW0NIMl1bQ0gyXUMoPU8pW09IXQ==

>  <s_glide_docking_method>  (1) 
confgen

>  <s_i_glide_gridfile>  (1) 
gpcr_5ht2c_6bqh_protein_autoprepared_prepared

>  <s_lp_Force_Field>  (1) 
S-OPLS

>  <s_lp_Variant>  (1) 
DiffSBDD_20_num_sample_100-3

>  <s_m_source_file>  (1) 
generated__ligand_DiffSBDD_2026-05-06_prepared.sdf

>  <GenAI_Model>  (1) 
DiffSBDD

>  <Protein>  (1) 
GPCR_5HT2C

$$$$
DiffSBDD_1_num_sample_100
     RDKit          3D

  0  0  0  0  0  0  0  0  0  0999 V3000
M  V30 BEGIN CTAB
M  V30 COUNTS 63 66 0 0 1
M  V30 BEGIN ATOM
M  V30 1 C 38.116721 26.175449 56.101930 0
M  V30 2 C 38.490834 34.426226 60.203924 0
M  V30 3 O 37.067441 24.824136 54.653711 0
M  V30 4 C 38.065330 32.520250 58.568989 0 CFG=1
M  V30 5 C 38.888407 27.374755 56.519587 0
M  V30 6 C 37.505162 30.243859 57.973875 0
M  V30 7 C 40.774703 33.303762 62.184489 0
M  V30 8 C 37.354913 36.422521 60.502914 0
M  V30 9 N 38.499794 36.382596 61.444119 0 CHG=1
M  V30 10 C 38.574843 32.003156 54.819606 0
M  V30 11 C 39.211547 28.442260 55.458631 0
M  V30 12 C 39.925852 34.574670 62.419636 0 CFG=2
M  V30 13 C 39.393813 35.242120 61.115289 0 CFG=1
M  V30 14 C 37.880173 30.487303 56.486238 0 CFG=2
M  V30 15 C 39.635899 30.889708 54.843841 0
M  V30 16 C 37.774500 25.943600 54.872598 0
M  V30 17 N 38.267460 31.104936 58.879056 0
M  V30 18 C 38.919497 33.345572 59.519937 0
M  V30 19 O 39.274596 27.541658 57.675573 0
M  V30 20 C 40.734763 35.605292 63.243369 0
M  V30 21 C 36.869017 24.334823 56.038026 0
M  V30 22 C 38.513929 32.801398 57.121878 0
M  V30 23 C 37.096822 34.972305 60.094051 0
M  V30 24 N 37.867922 31.921725 56.113523 0 CFG=1 CHG=1
M  V30 25 O 36.828720 30.021431 55.666020 0
M  V30 26 C 37.704117 25.195430 57.109281 0
M  V30 27 C 39.223505 29.911130 55.965787 0 CFG=2
M  V30 28 O 41.215263 32.744718 63.403412 0
M  V30 29 H 37.008925 32.767022 58.678128 0
M  V30 30 H 37.640139 29.201496 58.247801 0
M  V30 31 H 36.442583 30.421424 58.135153 0
M  V30 32 H 41.636833 33.512471 61.549941 0
M  V30 33 H 40.185385 32.523971 61.706550 0
M  V30 34 H 37.649411 37.005225 59.628273 0
M  V30 35 H 36.483181 36.905462 60.943988 0
M  V30 36 H 38.126606 36.216685 62.368532 0
M  V30 37 H 39.006874 32.985452 54.655905 0
M  V30 38 H 37.863932 31.823738 54.012509 0
M  V30 39 H 38.510173 28.386515 54.629360 0
M  V30 40 H 40.191212 28.194415 55.054287 0
M  V30 41 H 39.067466 34.270050 63.015902 0
M  V30 42 H 40.224287 35.613770 60.512427 0
M  V30 43 H 40.623000 31.302983 55.053533 0
M  V30 44 H 39.700583 30.407168 53.867759 0
M  V30 45 H 37.974873 26.530064 53.988912 0
M  V30 46 H 37.959827 30.922082 59.829659 0
M  V30 47 H 39.939750 33.029435 59.627946 0
M  V30 48 H 41.612987 35.951802 62.697101 0
M  V30 49 H 40.144262 36.482899 63.504543 0
M  V30 50 H 41.081134 35.191704 64.190663 0
M  V30 51 H 35.808241 24.440745 56.253487 0
M  V30 52 H 37.071363 23.267671 56.104376 0
M  V30 53 H 38.288281 33.837235 56.864431 0
M  V30 54 H 39.597277 32.692766 57.052734 0
M  V30 55 H 36.667799 34.902407 59.093738 0
M  V30 56 H 36.444239 34.466945 60.807395 0
M  V30 57 H 36.016727 30.345092 56.051916 0
M  V30 58 H 38.558701 24.658958 57.523641 0
M  V30 59 H 37.083769 25.628655 57.893655 0
M  V30 60 H 39.953851 29.999845 56.770908 0
M  V30 61 H 41.772816 33.367241 63.846416 0
M  V30 62 H 39.008592 37.255036 61.448122 0
M  V30 63 H 36.894138 32.215431 56.044831 0
M  V30 END ATOM
M  V30 BEGIN BOND
M  V30 1 1 5 1
M  V30 2 1 9 8
M  V30 3 1 11 5
M  V30 4 1 12 7
M  V30 5 1 13 2
M  V30 6 1 13 9
M  V30 7 1 13 12
M  V30 8 1 14 6
M  V30 9 1 15 10
M  V30 10 2 16 1
M  V30 11 1 16 3
M  V30 12 1 17 4
M  V30 13 1 17 6
M  V30 14 2 18 2
M  V30 15 1 18 4
M  V30 16 2 19 5
M  V30 17 1 20 12
M  V30 18 1 21 3
M  V30 19 1 22 4
M  V30 20 1 23 2
M  V30 21 1 23 8
M  V30 22 1 24 10
M  V30 23 1 24 14
M  V30 24 1 24 22
M  V30 25 1 14 25 CFG=3
M  V30 26 1 26 1
M  V30 27 1 26 21
M  V30 28 1 27 11
M  V30 29 1 27 14
M  V30 30 1 27 15
M  V30 31 1 28 7
M  V30 32 1 4 29 CFG=3
M  V30 33 1 30 6
M  V30 34 1 31 6
M  V30 35 1 32 7
M  V30 36 1 33 7
M  V30 37 1 34 8
M  V30 38 1 35 8
M  V30 39 1 36 9
M  V30 40 1 37 10
M  V30 41 1 38 10
M  V30 42 1 39 11
M  V30 43 1 40 11
M  V30 44 1 12 41 CFG=1
M  V30 45 1 13 42 CFG=3
M  V30 46 1 43 15
M  V30 47 1 44 15
M  V30 48 1 45 16
M  V30 49 1 46 17
M  V30 50 1 47 18
M  V30 51 1 48 20
M  V30 52 1 49 20
M  V30 53 1 50 20
M  V30 54 1 51 21
M  V30 55 1 52 21
M  V30 56 1 53 22
M  V30 57 1 54 22
M  V30 58 1 55 23
M  V30 59 1 56 23
M  V30 60 1 57 25
M  V30 61 1 58 26
M  V30 62 1 59 26
M  V30 63 1 27 60 CFG=1
M  V30 64 1 61 28
M  V30 65 1 62 9
M  V30 66 1 24 63 CFG=3
M  V30 END BOND
M  V30 END CTAB
M  END
>  <i_epik_Tot_Q>  (1) 
2

>  <i_epik_Tot_abs_Q>  (1) 
2

>  <i_i_glide_confnum>  (1) 
267

>  <i_i_glide_lignum>  (1) 
12

>  <i_i_glide_posenum>  (1) 
205

>  <i_i_glide_rotatable_bonds>  (1) 
8

>  <i_lp_mmshare_version>  (1) 
72125

>  <i_m_source_file_index>  (1) 
2

>  <i_f3d_flags>  (1) 
0

>  <num_sample>  (1) 
100

>  <b_lp_Chiralities_Consistent>  (1) 
1

>  <r_epik_Charging_Adjusted_Penalty>  (1) 
2.3622130296898831

>  <r_epik_Ionization_Penalty>  (1) 
1.4312966064593899

>  <r_epik_Ionization_Penalty_Charging>  (1) 
1.1852885594971458

>  <r_epik_Ionization_Penalty_Neutral>  (1) 
0.24600804696224418

>  <r_epik_State_Penalty>  (1) 
1.176924470192737

>  <r_glide_ring_energy>  (1) 
0

>  <r_i_docking_score>  (1) 
-6.2109452212986929

>  <r_i_glide_ecoul>  (1) 
-6.6710742998088151

>  <r_i_glide_eff_state_penalty>  (1) 
1.176924470192737

>  <r_i_glide_einternal>  (1) 
19.535296860064925

>  <r_i_glide_emodel>  (1) 
-52.873652365852507

>  <r_i_glide_emodel_strain>  (1) 
0.5307393495834134

>  <r_i_glide_energy>  (1) 
-39.185521971328747

>  <r_i_glide_erotb>  (1) 
0.75687532201182384

>  <r_i_glide_esite>  (1) 
-0.19036682619420686

>  <r_i_glide_evdw>  (1) 
-32.514447671519932

>  <r_i_glide_gscore>  (1) 
-7.3878696914914297

>  <r_i_glide_gscore_strain>  (1) 
0

>  <r_i_glide_hbond>  (1) 
-0.44526765451913075

>  <r_i_glide_ligand_efficiency>  (1) 
-0.22181947218923903

>  <r_i_glide_ligand_efficiency_ln>  (1) 
-1.4336685183515281

>  <r_i_glide_ligand_efficiency_sa>  (1) 
-0.67357456299712359

>  <r_i_glide_lipo>  (1) 
-3.2336863955483786

>  <r_i_glide_metal>  (1) 
-0

>  <r_i_glide_rewards>  (1) 
-1.6490406086942193

>  <r_lp_Energy>  (1) 
21.512373

>  <s_epik_cmdline>  (1) 
J2VwaWtfcHl0aG9uJywgJy1waHQnLCAnMS4wJywgJy1waCcsICc3LjQnLCAnLXRuJywgJzgnLCAnLW1hJywgJzUwMCcsICctaW1hZScsICc8aW5maWxlLm1hZT4nLCAnLW9tYWUnLCAnPG91dGZpbGUubWFlPic=

>  <s_epik_input>  (1) 
W0NIMl0xW0NIMl1PW0NIXT1DMUMoPU8pW0NIMl1bQ0BIXTJbQ0gyXVtDSDJdTihbQ0BAXTIzW09IXSlbQ0gyXVtDQEBIXShbTkhdW0NIMl0zKVxbQ0hdPUM0XFtDQEBIXShbTkhdW0NIMl1bQ0gyXTQpW0NASF0oW0NIM10pW0NIMl1bT0hd

>  <s_glide_docking_method>  (1) 
confgen

>  <s_i_glide_gridfile>  (1) 
gpcr_5ht2c_6bqh_protein_autoprepared_prepared

>  <s_lp_Force_Field>  (1) 
S-OPLS

>  <s_lp_Variant>  (1) 
DiffSBDD_1_num_sample_100-6

>  <s_m_source_file>  (1) 
generated__ligand_DiffSBDD_2026-05-06_prepared.sdf

>  <GenAI_Model>  (1) 
DiffSBDD

>  <Protein>  (1) 
GPCR_5HT2C

$$$$
DiffSBDD_83_num_sample_100
     RDKit          3D

  0  0  0  0  0  0  0  0  0  0999 V3000
M  V30 BEGIN CTAB
M  V30 COUNTS 66 69 0 0 1
M  V30 BEGIN ATOM
M  V30 1 C 41.302195 28.668956 58.554087 0
M  V30 2 C 37.993477 28.668421 54.851130 0
M  V30 3 O 39.731747 29.325026 51.631864 0
M  V30 4 O 39.074218 36.446550 61.453517 0
M  V30 5 C 40.026057 29.232161 58.429978 0
M  V30 6 N 40.267401 33.709848 63.235252 0
M  V30 7 C 39.169834 27.128158 57.557780 0
M  V30 8 C 41.067401 33.239951 64.221409 0
M  V30 9 O 41.153803 32.045457 64.501075 0
M  V30 10 C 36.030761 31.996513 60.135624 0
M  V30 11 C 40.008996 33.220225 61.959910 0 CFG=1
M  V30 12 C 39.210957 29.503020 52.898425 0
M  V30 13 C 39.371497 28.174169 50.880458 0
M  V30 14 N 37.898644 33.612428 60.896105 0
M  V30 15 C 41.870108 34.273855 65.007861 0
M  V30 16 C 36.995510 29.772689 58.990486 0 CFG=2
M  V30 17 C 41.525018 27.345611 58.166018 0
M  V30 18 O 38.068769 31.860234 62.312921 0
M  V30 19 C 38.516526 28.459101 53.559873 0
M  V30 20 C 39.375447 30.744924 53.540895 0
M  V30 21 O 42.208426 32.421431 61.453508 0
M  V30 22 C 38.157667 29.920390 55.488612 0
M  V30 23 C 40.455662 26.564652 57.675634 0
M  V30 24 O 37.902626 30.400644 59.902192 0
M  V30 25 C 37.588094 29.120337 57.735987 0 CFG=1
M  V30 26 C 40.998218 32.195677 61.453501 0
M  V30 27 C 39.547003 35.907245 62.663527 0
M  V30 28 C 38.846719 30.954085 54.828344 0
M  V30 29 C 36.472124 33.423589 60.577381 0 CFG=1
M  V30 30 C 38.576587 32.826451 61.751807 0
M  V30 31 O 42.778913 26.821431 58.253506 0
M  V30 32 C 36.996896 31.273063 59.218008 0 CFG=2
M  V30 33 O 37.646014 30.149779 56.748038 0
M  V30 34 C 36.079715 34.465838 59.518872 0
M  V30 35 C 38.958604 28.473394 57.924920 0
M  V30 36 C 40.480690 34.743736 62.368900 0 CFG=1
M  V30 37 H 42.119273 29.263363 58.929357 0
M  V30 38 H 37.467409 27.871075 55.348278 0
M  V30 39 H 39.803829 36.830253 60.991063 0
M  V30 40 H 39.867391 30.258943 58.706526 0
M  V30 41 H 38.354315 26.536984 57.167278 0
M  V30 42 H 35.065259 32.050425 59.631378 0
M  V30 43 H 35.860009 31.371646 61.013226 0
M  V30 44 H 39.741887 28.290820 49.862401 0
M  V30 45 H 39.817601 27.270472 51.296830 0
M  V30 46 H 38.289165 28.051673 50.821649 0
M  V30 47 H 38.373900 34.397702 60.471560 0
M  V30 48 H 42.718491 34.621156 64.419391 0
M  V30 49 H 41.252778 35.134342 65.267060 0
M  V30 50 H 42.250934 33.837356 65.931486 0
M  V30 51 H 36.197011 29.221433 59.477118 0
M  V30 52 H 38.384746 27.501460 53.082199 0
M  V30 53 H 39.902891 31.542605 53.040623 0
M  V30 54 H 40.624188 25.540700 57.379132 0
M  V30 55 H 36.881374 28.348720 57.453518 0
M  V30 56 H 40.571723 31.258324 61.093683 0
M  V30 57 H 38.688581 35.612445 63.264918 0
M  V30 58 H 40.085846 36.669836 63.228224 0
M  V30 59 H 38.970937 31.911752 55.312768 0
M  V30 60 H 35.914529 33.668315 61.483538 0
M  V30 61 H 42.889690 26.051602 57.698506 0
M  V30 62 H 37.464368 31.898705 58.459860 0
M  V30 63 H 35.010951 34.424511 59.302298 0
M  V30 64 H 36.303565 35.478664 59.856253 0
M  V30 65 H 36.612032 34.297125 58.581578 0
M  V30 66 H 41.502784 35.018300 62.115953 0
M  V30 END ATOM
M  V30 BEGIN BOND
M  V30 1 2 5 1
M  V30 2 1 8 6
M  V30 3 2 9 8
M  V30 4 1 11 6
M  V30 5 1 12 3
M  V30 6 1 13 3
M  V30 7 1 15 8
M  V30 8 1 17 1
M  V30 9 2 19 2
M  V30 10 1 19 12
M  V30 11 2 20 12
M  V30 12 1 22 2
M  V30 13 1 23 7
M  V30 14 2 23 17
M  V30 15 1 24 16
M  V30 16 1 25 16
M  V30 17 1 11 26 CFG=3
M  V30 18 2 26 21
M  V30 19 1 27 4
M  V30 20 1 28 20
M  V30 21 2 28 22
M  V30 22 1 29 10
M  V30 23 1 29 14
M  V30 24 1 30 11
M  V30 25 1 30 14
M  V30 26 2 30 18
M  V30 27 1 31 17
M  V30 28 1 32 10
M  V30 29 1 32 16
M  V30 30 1 32 24
M  V30 31 1 33 22
M  V30 32 1 33 25
M  V30 33 1 34 29
M  V30 34 1 35 5
M  V30 35 2 35 7
M  V30 36 1 35 25
M  V30 37 1 36 6
M  V30 38 1 36 11
M  V30 39 1 36 27
M  V30 40 1 37 1
M  V30 41 1 38 2
M  V30 42 1 39 4
M  V30 43 1 40 5
M  V30 44 1 41 7
M  V30 45 1 42 10
M  V30 46 1 43 10
M  V30 47 1 44 13
M  V30 48 1 45 13
M  V30 49 1 46 13
M  V30 50 1 47 14
M  V30 51 1 48 15
M  V30 52 1 49 15
M  V30 53 1 50 15
M  V30 54 1 16 51 CFG=1
M  V30 55 1 52 19
M  V30 56 1 53 20
M  V30 57 1 54 23
M  V30 58 1 25 55 CFG=3
M  V30 59 1 56 26
M  V30 60 1 57 27
M  V30 61 1 58 27
M  V30 62 1 59 28
M  V30 63 1 29 60 CFG=1
M  V30 64 1 61 31
M  V30 65 1 32 62 CFG=3
M  V30 66 1 63 34
M  V30 67 1 64 34
M  V30 68 1 65 34
M  V30 69 1 36 66 CFG=3
M  V30 END BOND
M  V30 END CTAB
M  END
>  <i_epik_Tot_Q>  (1) 
0

>  <i_epik_Tot_abs_Q>  (1) 
0

>  <i_i_glide_confnum>  (1) 
353

>  <i_i_glide_lignum>  (1) 
217

>  <i_i_glide_posenum>  (1) 
220

>  <i_i_glide_rotatable_bonds>  (1) 
15

>  <i_lp_mmshare_version>  (1) 
72125

>  <i_m_source_file_index>  (1) 
84

>  <i_f3d_flags>  (1) 
0

>  <num_sample>  (1) 
100

>  <b_lp_Chiralities_Consistent>  (1) 
1

>  <r_epik_Charging_Adjusted_Penalty>  (1) 
0.0031499927794813721

>  <r_epik_Ionization_Penalty>  (1) 
0.0031524718426135371

>  <r_epik_Ionization_Penalty_Charging>  (1) 
0

>  <r_epik_Ionization_Penalty_Neutral>  (1) 
0.0031524718426135371

>  <r_epik_State_Penalty>  (1) 
0.0031499927794813721

>  <r_glide_ring_energy>  (1) 
0

>  <r_i_docking_score>  (1) 
-6.210686664399498

>  <r_i_glide_ecoul>  (1) 
-7.9997717577400351

>  <r_i_glide_eff_state_penalty>  (1) 
0.0031499927794813721

>  <r_i_glide_einternal>  (1) 
17.524584208097806

>  <r_i_glide_emodel>  (1) 
-60.026229552235669

>  <r_i_glide_emodel_strain>  (1) 
3.0435384604786861

>  <r_i_glide_energy>  (1) 
-53.1804998468549

>  <r_i_glide_erotb>  (1) 
0.82106346531741226

>  <r_i_glide_esite>  (1) 
0

>  <r_i_glide_evdw>  (1) 
-45.180728089114865

>  <r_i_glide_gscore>  (1) 
-6.2138366571789794

>  <r_i_glide_gscore_strain>  (1) 
0

>  <r_i_glide_hbond>  (1) 
-0.34522966130150268

>  <r_i_glide_ligand_efficiency>  (1) 
-0.17251907401109717

>  <r_i_glide_ligand_efficiency_ln>  (1) 
-1.3550040368092109

>  <r_i_glide_ligand_efficiency_sa>  (1) 
-0.56964543143131063

>  <r_i_glide_lipo>  (1) 
-3.3414541797513255

>  <r_i_glide_metal>  (1) 
-0

>  <r_i_glide_rewards>  (1) 
0.11078588667318434

>  <r_lp_Energy>  (1) 
25.148723999999998

>  <r_lp_tautomer_probability>  (1) 
0.99999999999736477

>  <s_epik_cmdline>  (1) 
J2VwaWtfcHl0aG9uJywgJy1waHQnLCAnMS4wJywgJy1waCcsICc3LjQnLCAnLXRuJywgJzgnLCAnLW1hJywgJzUwMCcsICctaW1hZScsICc8aW5maWxlLm1hZT4nLCAnLW9tYWUnLCAnPG91dGZpbGUubWFlPic=

>  <s_epik_input>  (1) 
W0NIM11PYzFbY0hdW2NIXWMoW2NIXVtjSF0xKU9bQ0BASF0oYyhbY0hdW2NIXTIpW2NIXVtjSF1jMltPSF0pW0NASF0zT1tDSF0zW0NIMl1bQ0BIXShbQ0gzXSlbTkhdQyg9TylDNChbQ0hdPU8pTihDKD1PKVtDSDNdKVtDQEBIXTRbQ0gyXVtPSF0=

>  <s_glide_docking_method>  (1) 
confgen

>  <s_i_glide_gridfile>  (1) 
gpcr_5ht2c_6bqh_protein_autoprepared_prepared

>  <s_lp_Force_Field>  (1) 
S-OPLS

>  <s_lp_Variant>  (1) 
DiffSBDD_83_num_sample_100-1

>  <s_m_source_file>  (1) 
generated__ligand_DiffSBDD_2026-05-06_prepared.sdf

>  <GenAI_Model>  (1) 
DiffSBDD

>  <Protein>  (1) 
GPCR_5HT2C

$$$$
DiffSBDD_81_num_sample_100
     RDKit          3D

  0  0  0  0  0  0  0  0  0  0999 V3000
M  V30 BEGIN CTAB
M  V30 COUNTS 56 57 0 0 1
M  V30 BEGIN ATOM
M  V30 1 N 42.311899 27.221459 58.253512 0 CHG=1
M  V30 2 C 37.521866 26.202602 54.342948 0
M  V30 3 C 40.482323 28.963250 58.301197 0
M  V30 4 C 38.069915 29.853322 58.223774 0
M  V30 5 S 37.988285 32.573705 58.862483 0
M  V30 6 C 38.267497 30.647597 60.608600 0
M  V30 7 C 39.279256 29.197039 56.022706 0
M  V30 8 C 38.126293 30.905597 59.320727 0
M  V30 9 C 38.532981 28.108034 53.290887 0 CFG=2
M  V30 10 O 40.201019 26.542772 58.253139 0
M  V30 11 O 38.172870 34.149028 61.060309 0
M  V30 12 C 38.256511 27.825055 51.799737 0
M  V30 13 C 39.412076 29.728471 57.465101 0 CFG=2
M  V30 14 C 38.304643 31.774051 61.601108 0
M  V30 15 C 39.446833 27.931728 50.843351 0
M  V30 16 O 37.446921 27.588438 54.052628 0
M  V30 17 O 40.464825 28.820723 51.274897 0
M  V30 18 C 40.981453 27.602111 57.752555 0 CFG=2
M  V30 19 C 38.163791 32.992510 60.644985 0
M  V30 20 C 38.368531 29.991997 55.077188 0
M  V30 21 C 38.561757 29.629795 53.583127 0 CFG=1
M  V30 22 C 39.770434 30.381556 52.982582 0
M  V30 23 C 43.411349 28.058655 57.738332 0
M  V30 24 C 40.036360 30.153391 51.484400 0
M  V30 25 H 42.325404 27.221653 59.264448 0
M  V30 26 H 36.759973 25.946559 55.078733 0
M  V30 27 H 37.332940 25.607160 53.453596 0
M  V30 28 H 38.489668 25.925552 54.762913 0
M  V30 29 H 40.150824 28.836423 59.332290 0
M  V30 30 H 41.337350 29.621405 58.398586 0
M  V30 31 H 37.265683 30.155872 57.553812 0
M  V30 32 H 37.765641 28.890817 58.636121 0
M  V30 33 H 38.358226 29.635996 60.974914 0
M  V30 34 H 40.272330 29.199458 55.575520 0
M  V30 35 H 38.935204 28.164805 56.049700 0
M  V30 36 H 39.467702 27.646447 53.609112 0
M  V30 37 H 39.375178 26.529670 57.790365 0
M  V30 38 H 37.467530 28.484829 51.453590 0
M  V30 39 H 37.867413 26.821442 51.674216 0
M  V30 40 H 39.781679 30.746533 57.339760 0
M  V30 41 H 37.470282 31.721074 62.299875 0
M  V30 42 H 39.247773 31.801137 62.146487 0
M  V30 43 H 39.096487 28.229274 49.853706 0
M  V30 44 H 39.867592 26.936839 50.719223 0
M  V30 45 H 41.039767 27.527162 56.668461 0
M  V30 46 H 37.327313 29.812787 55.347535 0
M  V30 47 H 38.521968 31.062724 55.218906 0
M  V30 48 H 37.681972 30.021423 53.100505 0
M  V30 49 H 39.619334 31.450670 53.134009 0
M  V30 50 H 40.667348 30.135699 53.543291 0
M  V30 51 H 44.358996 27.535906 57.852816 0
M  V30 52 H 43.267497 28.294590 56.689575 0
M  V30 53 H 43.467034 29.013904 58.253339 0
M  V30 54 H 39.187689 30.411704 50.850078 0
M  V30 55 H 40.853071 30.806457 51.174228 0
M  V30 56 H 42.479682 26.276476 57.924810 0
M  V30 END ATOM
M  V30 BEGIN BOND
M  V30 1 1 8 4
M  V30 2 1 8 5
M  V30 3 2 8 6
M  V30 4 1 12 9
M  V30 5 1 13 3
M  V30 6 1 13 4
M  V30 7 1 13 7
M  V30 8 1 14 6
M  V30 9 1 15 12
M  V30 10 1 16 2
M  V30 11 1 16 9
M  V30 12 1 17 15
M  V30 13 1 18 1
M  V30 14 1 18 3
M  V30 15 1 18 10
M  V30 16 1 19 5
M  V30 17 2 19 11
M  V30 18 1 19 14
M  V30 19 1 20 7
M  V30 20 1 21 9
M  V30 21 1 21 20
M  V30 22 1 22 21
M  V30 23 1 23 1
M  V30 24 1 24 17
M  V30 25 1 24 22
M  V30 26 1 25 1
M  V30 27 1 26 2
M  V30 28 1 27 2
M  V30 29 1 28 2
M  V30 30 1 29 3
M  V30 31 1 30 3
M  V30 32 1 31 4
M  V30 33 1 32 4
M  V30 34 1 33 6
M  V30 35 1 34 7
M  V30 36 1 35 7
M  V30 37 1 9 36 CFG=1
M  V30 38 1 37 10
M  V30 39 1 38 12
M  V30 40 1 39 12
M  V30 41 1 13 40 CFG=3
M  V30 42 1 41 14
M  V30 43 1 42 14
M  V30 44 1 43 15
M  V30 45 1 44 15
M  V30 46 1 18 45 CFG=3
M  V30 47 1 46 20
M  V30 48 1 47 20
M  V30 49 1 21 48 CFG=3
M  V30 50 1 49 22
M  V30 51 1 50 22
M  V30 52 1 51 23
M  V30 53 1 52 23
M  V30 54 1 53 23
M  V30 55 1 54 24
M  V30 56 1 55 24
M  V30 57 1 56 1
M  V30 END BOND
M  V30 END CTAB
M  END
>  <i_epik_Tot_Q>  (1) 
1

>  <i_epik_Tot_abs_Q>  (1) 
1

>  <i_i_glide_confnum>  (1) 
548

>  <i_i_glide_lignum>  (1) 
213

>  <i_i_glide_posenum>  (1) 
132

>  <i_i_glide_rotatable_bonds>  (1) 
10

>  <i_lp_mmshare_version>  (1) 
72125

>  <i_m_source_file_index>  (1) 
82

>  <i_f3d_flags>  (1) 
0

>  <num_sample>  (1) 
100

>  <b_lp_Chiralities_Consistent>  (1) 
1

>  <r_epik_Charging_Adjusted_Penalty>  (1) 
0.12825581378160511

>  <r_epik_Ionization_Penalty>  (1) 
0.099187303221023815

>  <r_epik_Ionization_Penalty_Charging>  (1) 
0.032441492902706343

>  <r_epik_Ionization_Penalty_Neutral>  (1) 
0.066745810318317472

>  <r_epik_State_Penalty>  (1) 
0.095814320878898754

>  <r_glide_ring_energy>  (1) 
0

>  <r_i_docking_score>  (1) 
-6.2094361112275616

>  <r_i_glide_ecoul>  (1) 
-3.8861389582133521

>  <r_i_glide_eff_state_penalty>  (1) 
0.095814320878898754

>  <r_i_glide_einternal>  (1) 
8.9516107656169392

>  <r_i_glide_emodel>  (1) 
-46.944860977815175

>  <r_i_glide_emodel_strain>  (1) 
3.7064927699982633

>  <r_i_glide_energy>  (1) 
-38.531284873222511

>  <r_i_glide_erotb>  (1) 
0.89420468902182859

>  <r_i_glide_esite>  (1) 
-0.0091234423797601893

>  <r_i_glide_evdw>  (1) 
-34.645145915009159

>  <r_i_glide_gscore>  (1) 
-6.30525043210646

>  <r_i_glide_gscore_strain>  (1) 
0

>  <r_i_glide_hbond>  (1) 
0

>  <r_i_glide_ligand_efficiency>  (1) 
-0.25872650463448171

>  <r_i_glide_ligand_efficiency_ln>  (1) 
-1.4862029938734524

>  <r_i_glide_ligand_efficiency_sa>  (1) 
-0.74629638027243794

>  <r_i_glide_lipo>  (1) 
-2.8470507835637981

>  <r_i_glide_metal>  (1) 
-0

>  <r_i_glide_rewards>  (1) 
-2.0281027557022693

>  <r_lp_Energy>  (1) 
15.540376999999999

>  <s_epik_Chemistry_Notes>  (1) 
This compound contains an acetal/aminal-like group ( X-CH(R)-Y where X, Y are N, S, or O) that may be acid/base labile, releasing an aldehyde.

>  <s_epik_cmdline>  (1) 
J2VwaWtfcHl0aG9uJywgJy1waHQnLCAnMS4wJywgJy1waCcsICc3LjQnLCAnLXRuJywgJzgnLCAnLW1hJywgJzUwMCcsICctaW1hZScsICc8aW5maWxlLm1hZT4nLCAnLW9tYWUnLCAnPG91dGZpbGUubWFlPic=

>  <s_epik_input>  (1) 
UzFDKD1PKVtDSDJdW0NIXT1DMVtDSDJdW0NAQEhdKFtDSDJdW0NASF0oW09IXSlbTkhdW0NIM10pW0NIMl1bQ0gyXVtDQEhdMltDSDJdW0NIMl1PW0NIMl1bQ0gyXVtDQEBIXTJPW0NIM10=

>  <s_glide_docking_method>  (1) 
confgen

>  <s_i_glide_gridfile>  (1) 
gpcr_5ht2c_6bqh_protein_autoprepared_prepared

>  <s_lp_Force_Field>  (1) 
S-OPLS

>  <s_lp_Variant>  (1) 
DiffSBDD_81_num_sample_100-1

>  <s_m_source_file>  (1) 
generated__ligand_DiffSBDD_2026-05-06_prepared.sdf

>  <GenAI_Model>  (1) 
DiffSBDD

>  <Protein>  (1) 
GPCR_5HT2C

$$$$
DiffSBDD_50_num_sample_100
     RDKit          3D

  0  0  0  0  0  0  0  0  0  0999 V3000
M  V30 BEGIN CTAB
M  V30 COUNTS 54 56 0 0 1
M  V30 BEGIN ATOM
M  V30 1 C 38.697013 27.972677 51.638050 0 CFG=1
M  V30 2 N 38.194331 28.920161 52.620867 0
M  V30 3 C 38.730050 26.798413 56.393265 0
M  V30 4 C 39.119687 28.124762 57.111618 0 CFG=1
M  V30 5 N 36.795484 30.773833 58.758793 0 CHG=1
M  V30 6 C 37.832557 32.979784 59.460777 0
M  V30 7 O 41.499713 27.621456 57.327601 0
M  V30 8 C 36.416441 34.283377 61.078493 0
M  V30 9 C 37.990895 30.264257 58.049882 0 CFG=1
M  V30 10 C 35.770855 31.986442 60.647366 0
M  V30 11 C 37.505829 34.205963 60.303971 0
M  V30 12 C 39.614458 28.703604 50.656722 0
M  V30 13 C 37.754433 28.136124 53.770466 0
M  V30 14 C 38.579630 26.835306 53.770426 0 CFG=1
M  V30 15 C 39.399889 26.924655 52.475679 0
M  V30 16 S 40.267386 30.149781 51.497380 0
M  V30 17 C 35.497064 33.180652 61.191452 0
M  V30 18 F 38.333942 35.260505 60.253509 0
M  V30 19 C 39.259632 29.852353 52.982063 0
M  V30 20 C 37.062502 31.689273 59.891289 0 CFG=1
M  V30 21 C 39.444146 26.590438 55.033636 0
M  V30 22 C 37.936025 28.730866 57.905032 0
M  V30 23 O 37.867399 30.906380 56.791944 0
M  V30 24 C 40.335297 27.942741 58.050430 0
M  V30 25 H 37.867241 27.501756 51.113682 0
M  V30 26 H 38.960697 25.959632 57.051265 0
M  V30 27 H 37.653425 26.733123 56.234644 0
M  V30 28 H 39.395037 28.846137 56.341407 0
M  V30 29 H 36.155567 31.229350 58.095338 0
M  V30 30 H 38.910604 32.813457 59.460651 0
M  V30 31 H 37.556964 33.245121 58.438221 0
M  V30 32 H 42.176882 27.352624 57.931774 0
M  V30 33 H 36.227905 35.189125 61.635295 0
M  V30 34 H 38.918452 30.571912 58.534413 0
M  V30 35 H 35.067446 31.175606 60.754512 0
M  V30 36 H 39.067382 29.041009 49.784280 0
M  V30 37 H 40.408134 28.055467 50.295248 0
M  V30 38 H 36.702394 27.887736 53.622863 0
M  V30 39 H 37.813767 28.706847 54.696407 0
M  V30 40 H 37.868331 26.013881 53.677127 0
M  V30 41 H 40.424367 27.221608 52.653540 0
M  V30 42 H 39.467297 26.021427 51.895696 0
M  V30 43 H 34.573409 33.315621 61.735461 0
M  V30 44 H 38.849039 30.782061 53.376725 0
M  V30 45 H 39.869865 29.419016 53.768720 0
M  V30 46 H 37.685088 31.143842 60.602459 0
M  V30 47 H 40.334560 27.213676 54.999929 0
M  V30 48 H 39.818541 25.567032 54.988928 0
M  V30 49 H 36.986909 28.465241 57.453501 0
M  V30 50 H 37.908064 28.277490 58.895541 0
M  V30 51 H 36.971739 31.221470 56.653581 0
M  V30 52 H 40.139799 27.161477 58.786238 0
M  V30 53 H 40.541250 28.857253 58.606741 0
M  V30 54 H 36.306718 29.972958 59.128239 0
M  V30 END ATOM
M  V30 BEGIN BOND
M  V30 1 1 2 1
M  V30 2 1 4 3
M  V30 3 1 9 5
M  V30 4 1 11 6
M  V30 5 2 11 8
M  V30 6 1 12 1
M  V30 7 1 13 2
M  V30 8 1 14 13
M  V30 9 1 15 1
M  V30 10 1 15 14
M  V30 11 1 16 12
M  V30 12 1 17 8
M  V30 13 2 17 10
M  V30 14 1 18 11
M  V30 15 1 19 2
M  V30 16 1 19 16
M  V30 17 1 20 5
M  V30 18 1 20 6
M  V30 19 1 20 10
M  V30 20 1 21 3
M  V30 21 1 21 14
M  V30 22 1 22 4
M  V30 23 1 22 9
M  V30 24 1 23 9
M  V30 25 1 24 4
M  V30 26 1 24 7
M  V30 27 1 1 25 CFG=3
M  V30 28 1 26 3
M  V30 29 1 27 3
M  V30 30 1 4 28 CFG=3
M  V30 31 1 29 5
M  V30 32 1 30 6
M  V30 33 1 31 6
M  V30 34 1 32 7
M  V30 35 1 33 8
M  V30 36 1 9 34 CFG=1
M  V30 37 1 35 10
M  V30 38 1 36 12
M  V30 39 1 37 12
M  V30 40 1 38 13
M  V30 41 1 39 13
M  V30 42 1 14 40 CFG=3
M  V30 43 1 41 15
M  V30 44 1 42 15
M  V30 45 1 43 17
M  V30 46 1 44 19
M  V30 47 1 45 19
M  V30 48 1 20 46 CFG=1
M  V30 49 1 47 21
M  V30 50 1 48 21
M  V30 51 1 49 22
M  V30 52 1 50 22
M  V30 53 1 51 23
M  V30 54 1 52 24
M  V30 55 1 53 24
M  V30 56 1 54 5
M  V30 END BOND
M  V30 END CTAB
M  END
>  <i_epik_Tot_Q>  (1) 
1

>  <i_epik_Tot_abs_Q>  (1) 
1

>  <i_i_glide_confnum>  (1) 
527

>  <i_i_glide_lignum>  (1) 
135

>  <i_i_glide_posenum>  (1) 
232

>  <i_i_glide_rotatable_bonds>  (1) 
10

>  <i_lp_mmshare_version>  (1) 
72125

>  <i_m_source_file_index>  (1) 
51

>  <i_f3d_flags>  (1) 
0

>  <num_sample>  (1) 
100

>  <b_lp_Chiralities_Consistent>  (1) 
1

>  <r_epik_Charging_Adjusted_Penalty>  (1) 
2.5903076652609913

>  <r_epik_Ionization_Penalty>  (1) 
1.4636165094899594

>  <r_epik_Ionization_Penalty_Charging>  (1) 
1.2951538326304957

>  <r_epik_Ionization_Penalty_Neutral>  (1) 
0.1684626768594637

>  <r_epik_State_Penalty>  (1) 
1.2951538326304957

>  <r_glide_ring_energy>  (1) 
0

>  <r_i_docking_score>  (1) 
-6.204850802823719

>  <r_i_glide_ecoul>  (1) 
-9.2972513740817622

>  <r_i_glide_eff_state_penalty>  (1) 
1.2951538326304957

>  <r_i_glide_einternal>  (1) 
10.632510560431246

>  <r_i_glide_emodel>  (1) 
-59.311400700924587

>  <r_i_glide_emodel_strain>  (1) 
0.31282767783828547

>  <r_i_glide_energy>  (1) 
-42.446057458322393

>  <r_i_glide_erotb>  (1) 
0.89870886967847008

>  <r_i_glide_esite>  (1) 
-0.15686468144302249

>  <r_i_glide_evdw>  (1) 
-33.148806084240633

>  <r_i_glide_gscore>  (1) 
-7.5000046354542151

>  <r_i_glide_gscore_strain>  (1) 
0

>  <r_i_glide_hbond>  (1) 
-0.35999999999999999

>  <r_i_glide_ligand_efficiency>  (1) 
-0.25853545011765494

>  <r_i_glide_ligand_efficiency_ln>  (1) 
-1.4851055191663205

>  <r_i_glide_ligand_efficiency_sa>  (1) 
-0.74574528368284054

>  <r_i_glide_lipo>  (1) 
-3.2710381944857927

>  <r_i_glide_metal>  (1) 
-0

>  <r_i_glide_rewards>  (1) 
-1.5587826188795733

>  <r_lp_Energy>  (1) 
5.0849209999999996

>  <s_epik_Chemistry_Notes>  (1) 
This compound contains an acetal/aminal-like group ( X-CH(R)-Y where X, Y are N, S, or O) that may be acid/base labile, releasing an aldehyde.

>  <s_epik_cmdline>  (1) 
J2VwaWtfcHl0aG9uJywgJy1waHQnLCAnMS4wJywgJy1waCcsICc3LjQnLCAnLXRuJywgJzgnLCAnLW1hJywgJzUwMCcsICctaW1hZScsICc8aW5maWxlLm1hZT4nLCAnLW9tYWUnLCAnPG91dGZpbGUubWFlPic=

>  <s_epik_input>  (1) 
W0NIMl0xU1tDSDJdTihbQ0BASF0xMilbQ0gyXVtDQEBIXShbQ0gyXTIpW0NIMl1bQ0gyXVtDQEhdKFtDSDJdW09IXSlbQ0gyXVtDQEBIXShbT0hdKVtOSF1bQ0BASF0oW0NIMl0zKVtDSF09W0NIXVtDSF09QzNG

>  <s_glide_docking_method>  (1) 
confgen

>  <s_i_glide_gridfile>  (1) 
gpcr_5ht2c_6bqh_protein_autoprepared_prepared

>  <s_lp_Force_Field>  (1) 
S-OPLS

>  <s_lp_Variant>  (1) 
DiffSBDD_50_num_sample_100-2

>  <s_m_source_file>  (1) 
generated__ligand_DiffSBDD_2026-05-06_prepared.sdf

>  <GenAI_Model>  (1) 
DiffSBDD

>  <Protein>  (1) 
GPCR_5HT2C

$$$$
DiffSBDD_93_num_sample_100
     RDKit          3D

  0  0  0  0  0  0  0  0  0  0999 V3000
M  V30 BEGIN CTAB
M  V30 COUNTS 74 77 0 0 1
M  V30 BEGIN ATOM
M  V30 1 C 38.803290 28.429679 56.586472 0
M  V30 2 S 40.040960 32.695354 62.080681 0
M  V30 3 C 38.451305 27.928431 54.124065 0 CFG=2
M  V30 4 O 41.731076 28.673218 64.908038 0
M  V30 5 C 40.173211 36.822561 61.453516 0
M  V30 6 C 40.340273 29.299604 62.432626 0 CFG=1
M  V30 7 C 37.459604 35.517296 61.453870 0
M  V30 8 C 38.510382 33.758805 60.024496 0
M  V30 9 C 38.825492 26.479255 54.419420 0
M  V30 10 N 39.067392 31.431042 59.858417 0
M  V30 11 C 39.128634 37.826866 61.886435 0
M  V30 12 C 38.252597 28.738939 55.387821 0
M  V30 13 C 38.551867 29.314903 57.749114 0
M  V30 14 C 39.173922 29.994870 60.170601 0 CFG=1
M  V30 15 C 39.975274 26.410387 55.420450 0
M  V30 16 Cl 38.923323 26.004747 57.853865 0
M  V30 17 O 37.389802 39.240940 61.053508 0
M  V30 18 C 39.682448 27.168889 56.730245 0 CFG=2
M  V30 19 C 37.490404 30.405147 57.659588 0
M  V30 20 C 39.767723 31.532801 63.436125 0
M  V30 21 C 41.147186 28.021404 62.663222 0
M  V30 22 C 39.274604 29.139098 58.888134 0
M  V30 23 C 36.910791 36.882528 61.021524 0
M  V30 24 C 40.768823 30.379171 63.445620 0 CFG=1
M  V30 25 C 38.687604 32.441324 60.858348 0 CFG=1
M  V30 26 C 37.965484 37.969524 60.880086 0 CFG=2
M  V30 27 C 40.862618 29.796800 64.873418 0
M  V30 28 C 41.231058 27.596276 64.134208 0
M  V30 29 C 39.912051 35.612659 60.926167 0
M  V30 30 S 37.020051 32.035708 61.453496 0
M  V30 31 N 38.652984 35.032023 60.750865 0
M  V30 32 C 37.252657 28.027443 53.183632 0
M  V30 33 C 40.494029 29.747959 60.961767 0
M  V30 34 H 39.288446 28.398405 53.606724 0
M  V30 35 H 41.200537 37.140846 61.542889 0
M  V30 36 H 39.298515 29.047232 62.618658 0
M  V30 37 H 36.652840 34.788464 61.395243 0
M  V30 38 H 37.717065 35.597568 62.509438 0
M  V30 39 H 37.563204 33.759156 59.481903 0
M  V30 40 H 39.271272 33.780264 59.241433 0
M  V30 41 H 37.964626 25.928286 54.798785 0
M  V30 42 H 39.129965 26.021441 53.482036 0
M  V30 43 H 38.408742 31.505518 59.094592 0
M  V30 44 H 39.661834 38.777008 61.934785 0
M  V30 45 H 38.784179 37.616815 62.898887 0
M  V30 46 H 37.646003 29.625100 55.286242 0
M  V30 47 H 38.303120 29.645208 60.722461 0
M  V30 48 H 40.230127 25.371465 55.634285 0
M  V30 49 H 40.860592 26.821450 54.948687 0
M  V30 50 H 37.952377 39.881655 60.650286 0
M  V30 51 H 40.649921 27.436098 57.153589 0
M  V30 52 H 36.649409 30.021429 57.083542 0
M  V30 53 H 37.033778 30.646980 58.616962 0
M  V30 54 H 37.868608 31.310889 57.183693 0
M  V30 55 H 39.867656 32.112767 64.354332 0
M  V30 56 H 38.758634 31.130542 63.416283 0
M  V30 57 H 42.164470 28.141183 62.287084 0
M  V30 58 H 40.667404 27.239331 62.077401 0
M  V30 59 H 39.997622 28.344807 58.920563 0
M  V30 60 H 36.231395 37.211322 61.803911 0
M  V30 61 H 36.332163 36.796426 60.100307 0
M  V30 62 H 41.761330 30.751683 63.184501 0
M  V30 63 H 38.267376 37.944464 59.838217 0
M  V30 64 H 41.262321 30.548192 65.554934 0
M  V30 65 H 39.876661 29.528514 65.256826 0
M  V30 66 H 41.902701 26.743859 64.235984 0
M  V30 67 H 40.267380 27.271552 64.516898 0
M  V30 68 H 40.717275 34.976120 60.597117 0
M  V30 69 H 36.419467 32.092775 60.260296 0
M  V30 70 H 37.067315 29.068185 52.932933 0
M  V30 71 H 37.457309 27.494542 52.254184 0
M  V30 72 H 36.346633 27.621438 53.631449 0
M  V30 73 H 41.155440 30.604886 60.877161 0
M  V30 74 H 41.100153 28.991467 60.466333 0
M  V30 END ATOM
M  V30 BEGIN BOND
M  V30 1 1 9 3
M  V30 2 1 11 5
M  V30 3 2 12 1
M  V30 4 1 12 3
M  V30 5 1 13 1
M  V30 6 1 14 10
M  V30 7 1 15 9
M  V30 8 1 18 1
M  V30 9 1 18 15
M  V30 10 1 18 16
M  V30 11 1 19 13
M  V30 12 1 20 2
M  V30 13 1 21 6
M  V30 14 2 22 13
M  V30 15 1 22 14
M  V30 16 1 23 7
M  V30 17 1 24 6
M  V30 18 1 24 20
M  V30 19 1 25 2
M  V30 20 1 25 8
M  V30 21 1 25 10
M  V30 22 1 26 11
M  V30 23 1 26 17
M  V30 24 1 26 23
M  V30 25 1 27 4
M  V30 26 1 27 24
M  V30 27 1 28 4
M  V30 28 1 28 21
M  V30 29 2 29 5
M  V30 30 1 25 30 CFG=1
M  V30 31 1 31 7
M  V30 32 1 31 8
M  V30 33 1 31 29
M  V30 34 1 32 3
M  V30 35 1 33 6
M  V30 36 1 33 14
M  V30 37 1 3 34 CFG=3
M  V30 38 1 35 5
M  V30 39 1 6 36 CFG=1
M  V30 40 1 37 7
M  V30 41 1 38 7
M  V30 42 1 39 8
M  V30 43 1 40 8
M  V30 44 1 41 9
M  V30 45 1 42 9
M  V30 46 1 43 10
M  V30 47 1 44 11
M  V30 48 1 45 11
M  V30 49 1 46 12
M  V30 50 1 14 47 CFG=1
M  V30 51 1 48 15
M  V30 52 1 49 15
M  V30 53 1 50 17
M  V30 54 1 18 51 CFG=1
M  V30 55 1 52 19
M  V30 56 1 53 19
M  V30 57 1 54 19
M  V30 58 1 55 20
M  V30 59 1 56 20
M  V30 60 1 57 21
M  V30 61 1 58 21
M  V30 62 1 59 22
M  V30 63 1 60 23
M  V30 64 1 61 23
M  V30 65 1 24 62 CFG=3
M  V30 66 1 26 63 CFG=3
M  V30 67 1 64 27
M  V30 68 1 65 27
M  V30 69 1 66 28
M  V30 70 1 67 28
M  V30 71 1 68 29
M  V30 72 1 69 30
M  V30 73 1 70 32
M  V30 74 1 71 32
M  V30 75 1 72 32
M  V30 76 1 73 33
M  V30 77 1 74 33
M  V30 END BOND
M  V30 END CTAB
M  END
>  <i_epik_Tot_Q>  (1) 
0

>  <i_epik_Tot_abs_Q>  (1) 
0

>  <i_i_glide_confnum>  (1) 
56

>  <i_i_glide_lignum>  (1) 
249

>  <i_i_glide_posenum>  (1) 
274

>  <i_i_glide_rotatable_bonds>  (1) 
6

>  <i_lp_mmshare_version>  (1) 
72125

>  <i_m_source_file_index>  (1) 
94

>  <i_f3d_flags>  (1) 
0

>  <num_sample>  (1) 
100

>  <b_lp_Chiralities_Consistent>  (1) 
1

>  <r_epik_Charging_Adjusted_Penalty>  (1) 
0.20325292957253988

>  <r_epik_Ionization_Penalty>  (1) 
0.031936562948065232

>  <r_epik_Ionization_Penalty_Charging>  (1) 
3.6030848355623751e-07

>  <r_epik_Ionization_Penalty_Neutral>  (1) 
0.031936202639581676

>  <r_epik_State_Penalty>  (1) 
0.20325256926405633

>  <r_glide_ring_energy>  (1) 
0

>  <r_i_docking_score>  (1) 
-6.2021385315266215

>  <r_i_glide_ecoul>  (1) 
-1.4544080040526193

>  <r_i_glide_eff_state_penalty>  (1) 
0.20325256926405633

>  <r_i_glide_einternal>  (1) 
18.516237241102846

>  <r_i_glide_emodel>  (1) 
-27.932751367595415

>  <r_i_glide_emodel_strain>  (1) 
2.9510434937249812

>  <r_i_glide_energy>  (1) 
-38.708066958300783

>  <r_i_glide_erotb>  (1) 
0.31140238833871409

>  <r_i_glide_esite>  (1) 
-0.03441134996066144

>  <r_i_glide_evdw>  (1) 
-37.253658954248166

>  <r_i_glide_gscore>  (1) 
-6.4053911007906779

>  <r_i_glide_gscore_strain>  (1) 
0

>  <r_i_glide_hbond>  (1) 
0

>  <r_i_glide_ligand_efficiency>  (1) 
-0.18794359186444307

>  <r_i_glide_ligand_efficiency_ln>  (1) 
-1.3793234964568528

>  <r_i_glide_ligand_efficiency_sa>  (1) 
-0.60283552300792553

>  <r_i_glide_lipo>  (1) 
-4.0545174024379227

>  <r_i_glide_metal>  (1) 
-0

>  <r_i_glide_rewards>  (1) 
-0.54702058841050571

>  <r_lp_Energy>  (1) 
26.366080999999998

>  <s_epik_Chemistry_Notes>  (1) 
This compound has an imine and may undergo hydrolysis.

>  <s_epik_cmdline>  (1) 
J2VwaWtfcHl0aG9uJywgJy1waHQnLCAnMS4wJywgJy1waCcsICc3LjQnLCAnLXRuJywgJzgnLCAnLW1hJywgJzUwMCcsICctaW1hZScsICc8aW5maWxlLm1hZT4nLCAnLW9tYWUnLCAnPG91dGZpbGUubWFlPic=

>  <s_epik_input>  (1) 
Q2xbQ0BIXTFbQ0gyXVtDSDJdW0NAQEhdKFtDSDNdKVtDSF09QzEvQyhbQ0gzXSk9W0NIXS9bQ0BASF0oW0NIMl0yKVtOSF1bQ0BAXShbU0hdKShTW0NIMl1bQ0BIXShbQ0BASF0yMylbQ0gyXU9bQ0gyXVtDSDJdMylbQ0gyXU4oW0NIMl1bQ0gyXTQpW0NIXT1bQ0hdW0NIMl1bQ0BASF00W09IXQ==

>  <s_glide_docking_method>  (1) 
confgen

>  <s_i_glide_gridfile>  (1) 
gpcr_5ht2c_6bqh_protein_autoprepared_prepared

>  <s_lp_Force_Field>  (1) 
S-OPLS

>  <s_lp_Variant>  (1) 
DiffSBDD_93_num_sample_100-1

>  <s_m_source_file>  (1) 
generated__ligand_DiffSBDD_2026-05-06_prepared.sdf

>  <GenAI_Model>  (1) 
DiffSBDD

>  <Protein>  (1) 
GPCR_5HT2C

$$$$
DiffSBDD_44_num_sample_100
     RDKit          3D

  0  0  0  0  0  0  0  0  0  0999 V3000
M  V30 BEGIN CTAB
M  V30 COUNTS 58 59 0 0 1
M  V30 BEGIN ATOM
M  V30 1 C 36.756430 35.624586 61.727167 0
M  V30 2 O 37.329315 31.583068 61.447293 0 CHG=-1
M  V30 3 C 38.373320 27.055377 56.678122 0
M  V30 4 C 38.895364 34.451463 61.417113 0 CFG=1
M  V30 5 N 37.780971 33.694815 60.779689 0 CFG=2 CHG=1
M  V30 6 C 39.519402 28.965361 55.617349 0
M  V30 7 N 38.926285 30.091064 58.404857 0
M  V30 8 C 39.023941 28.179106 56.831409 0
M  V30 9 O 40.778470 28.682916 58.439314 0
M  V30 10 C 38.246680 35.689892 62.075883 0 CFG=1
M  V30 11 C 38.878546 37.025252 61.690859 0
M  V30 12 C 37.387243 31.876254 59.103058 0 CFG=1
M  V30 13 C 37.736698 30.433314 58.734141 0
M  V30 14 C 36.499184 34.169212 61.352627 0
M  V30 15 C 41.384500 27.407107 58.271742 0
M  V30 16 C 38.026266 26.016065 54.480084 0
M  V30 17 C 37.973337 32.237082 60.500570 0 CFG=2
M  V30 18 C 39.369937 28.722775 58.217624 0 CFG=1
M  V30 19 F 39.132718 26.822598 52.587962 0
M  V30 20 C 39.129685 26.964181 53.912624 0 CFG=1
M  V30 21 C 37.879225 26.069116 55.985170 0
M  V30 22 C 37.867818 32.838074 57.989690 0
M  V30 23 C 36.571629 29.459240 58.808850 0
M  V30 24 C 39.718275 33.641085 62.441531 0
M  V30 25 C 38.962815 28.479009 54.239584 0
M  V30 26 H 36.534356 36.262846 60.870317 0
M  V30 27 H 36.142972 35.948768 62.569800 0
M  V30 28 H 39.565126 34.763277 60.614505 0
M  V30 29 H 39.254436 30.015752 55.743135 0
M  V30 30 H 40.608456 28.926604 55.612170 0
M  V30 31 H 38.354801 35.621440 63.154332 0
M  V30 32 H 38.667368 37.250277 60.653475 0
M  V30 33 H 38.450846 37.834746 62.276296 0
M  V30 34 H 39.958684 37.026025 61.844238 0
M  V30 35 H 36.300371 31.968268 59.146012 0
M  V30 36 H 35.677963 34.054134 60.643949 0
M  V30 37 H 36.236919 33.620543 62.253446 0
M  V30 38 H 42.334742 27.374159 58.804866 0
M  V30 39 H 40.748744 26.607758 58.653562 0
M  V30 40 H 41.586029 27.206478 57.218877 0
M  V30 41 H 38.267513 24.980294 54.253522 0
M  V30 42 H 37.067373 26.233022 54.013174 0
M  V30 43 H 39.046562 32.103480 60.360841 0
M  V30 44 H 38.926222 28.082916 58.985166 0
M  V30 45 H 40.114703 26.625924 54.238745 0
M  V30 46 H 37.381031 25.237690 56.461072 0
M  V30 47 H 37.502134 32.519906 57.012219 0
M  V30 48 H 37.497627 33.852697 58.135876 0
M  V30 49 H 38.956156 32.880602 57.933950 0
M  V30 50 H 35.673466 29.920653 58.398988 0
M  V30 51 H 36.730749 28.541442 58.253658 0
M  V30 52 H 36.376848 29.221801 59.852963 0
M  V30 53 H 40.384568 34.290158 63.009556 0
M  V30 54 H 39.067578 33.129598 63.149301 0
M  V30 55 H 40.347153 32.886859 61.970080 0
M  V30 56 H 37.908828 28.748501 54.154898 0
M  V30 57 H 39.463089 29.060717 53.464371 0
M  V30 58 H 37.763165 34.080157 59.847859 0
M  V30 END ATOM
M  V30 BEGIN BOND
M  V30 1 1 5 4
M  V30 2 2 8 3
M  V30 3 1 8 6
M  V30 4 1 10 1
M  V30 5 1 10 4
M  V30 6 1 11 10
M  V30 7 2 13 7
M  V30 8 1 13 12
M  V30 9 1 14 1
M  V30 10 1 14 5
M  V30 11 1 15 9
M  V30 12 1 17 2
M  V30 13 1 17 5
M  V30 14 1 17 12
M  V30 15 1 18 7
M  V30 16 1 18 8
M  V30 17 1 18 9
M  V30 18 1 20 16
M  V30 19 1 20 19
M  V30 20 2 21 3
M  V30 21 1 21 16
M  V30 22 1 22 12
M  V30 23 1 23 13
M  V30 24 1 24 4
M  V30 25 1 25 6
M  V30 26 1 25 20
M  V30 27 1 26 1
M  V30 28 1 27 1
M  V30 29 1 4 28 CFG=3
M  V30 30 1 29 6
M  V30 31 1 30 6
M  V30 32 1 10 31 CFG=1
M  V30 33 1 32 11
M  V30 34 1 33 11
M  V30 35 1 34 11
M  V30 36 1 12 35 CFG=1
M  V30 37 1 36 14
M  V30 38 1 37 14
M  V30 39 1 38 15
M  V30 40 1 39 15
M  V30 41 1 40 15
M  V30 42 1 41 16
M  V30 43 1 42 16
M  V30 44 1 17 43 CFG=3
M  V30 45 1 18 44 CFG=1
M  V30 46 1 20 45 CFG=1
M  V30 47 1 46 21
M  V30 48 1 47 22
M  V30 49 1 48 22
M  V30 50 1 49 22
M  V30 51 1 50 23
M  V30 52 1 51 23
M  V30 53 1 52 23
M  V30 54 1 53 24
M  V30 55 1 54 24
M  V30 56 1 55 24
M  V30 57 1 56 25
M  V30 58 1 57 25
M  V30 59 1 5 58 CFG=3
M  V30 END BOND
M  V30 END CTAB
M  END
>  <i_epik_Tot_Q>  (1) 
0

>  <i_epik_Tot_abs_Q>  (1) 
2

>  <i_i_glide_confnum>  (1) 
30

>  <i_i_glide_lignum>  (1) 
113

>  <i_i_glide_posenum>  (1) 
259

>  <i_i_glide_rotatable_bonds>  (1) 
6

>  <i_lp_mmshare_version>  (1) 
72125

>  <i_m_source_file_index>  (1) 
45

>  <i_f3d_flags>  (1) 
0

>  <num_sample>  (1) 
100

>  <b_lp_Chiralities_Consistent>  (1) 
1

>  <r_epik_Charging_Adjusted_Penalty>  (1) 
0.41733257654759531

>  <r_epik_Ionization_Penalty>  (1) 
0.0069177268181324029

>  <r_epik_Ionization_Penalty_Charging>  (1) 
0.0066527375949913311

>  <r_epik_Ionization_Penalty_Neutral>  (1) 
0.00026498922314107146

>  <r_epik_State_Penalty>  (1) 
0.41067983895260396

>  <r_glide_ring_energy>  (1) 
0

>  <r_i_docking_score>  (1) 
-6.2004088602781939

>  <r_i_glide_ecoul>  (1) 
-4.081817143629479

>  <r_i_glide_eff_state_penalty>  (1) 
0.41067983895260396

>  <r_i_glide_einternal>  (1) 
4.4573227245373062

>  <r_i_glide_emodel>  (1) 
-48.746740593646734

>  <r_i_glide_emodel_strain>  (1) 
1.1936144709496332

>  <r_i_glide_energy>  (1) 
-34.144116926033178

>  <r_i_glide_erotb>  (1) 
0.61440649929112812

>  <r_i_glide_esite>  (1) 
-0.054198386932200963

>  <r_i_glide_evdw>  (1) 
-30.062299782403695

>  <r_i_glide_gscore>  (1) 
-6.6110886992307982

>  <r_i_glide_gscore_strain>  (1) 
0

>  <r_i_glide_hbond>  (1) 
-0.11498155719514326

>  <r_i_glide_ligand_efficiency>  (1) 
-0.24801635441112777

>  <r_i_glide_ligand_efficiency_ln>  (1) 
-1.4696827111454263

>  <r_i_glide_ligand_efficiency_sa>  (1) 
-0.72520421966502646

>  <r_i_glide_lipo>  (1) 
-2.6735245815149038

>  <r_i_glide_metal>  (1) 
-0

>  <r_i_glide_rewards>  (1) 
-2.2674031122150708

>  <r_lp_Energy>  (1) 
18.805842999999999

>  <r_lp_tautomer_probability>  (1) 
0.49999399997599986

>  <s_epik_Chemistry_Notes>  (1) 
This compound has an imine and may undergo hydrolysis. This compound contains an acetal/aminal-like group ( X-CH(R)-Y where X, Y are N, S, or O) that may be acid/base labile, releasing an aldehyde.

>  <s_epik_cmdline>  (1) 
J2VwaWtfcHl0aG9uJywgJy1waHQnLCAnMS4wJywgJy1waCcsICc3LjQnLCAnLXRuJywgJzgnLCAnLW1hJywgJzUwMCcsICctaW1hZScsICc8aW5maWxlLm1hZT4nLCAnLW9tYWUnLCAnPG91dGZpbGUubWFlPic=

>  <s_epik_input>  (1) 
W0NIM11bQ0BIXTFbQ0gyXVtDSDJdTihbQ0BASF0xW0NIM10pW0NAQEhdKFtPSF0pW0NAQEhdKFtDSDNdKVxDKFtDSDNdKT1OXFtDQEBIXShPW0NIM10pQzI9Qz1bQ0hdW0NIMl1bQ0BASF0oRilbQ0gyXVtDSDJdMg==

>  <s_glide_docking_method>  (1) 
confgen

>  <s_i_glide_gridfile>  (1) 
gpcr_5ht2c_6bqh_protein_autoprepared_prepared

>  <s_lp_Force_Field>  (1) 
S-OPLS

>  <s_lp_Variant>  (1) 
DiffSBDD_44_num_sample_100-6

>  <s_m_source_file>  (1) 
generated__ligand_DiffSBDD_2026-05-06_prepared.sdf

>  <GenAI_Model>  (1) 
DiffSBDD

>  <Protein>  (1) 
GPCR_5HT2C

$$$$
DiffSBDD_84_num_sample_100
     RDKit          3D

  0  0  0  0  0  0  0  0  0  0999 V3000
M  V30 BEGIN CTAB
M  V30 COUNTS 48 50 0 0 1
M  V30 BEGIN ATOM
M  V30 1 C 39.693066 30.531234 60.989443 0
M  V30 2 C 38.623010 27.431474 52.538709 0
M  V30 3 C 38.956772 28.807063 51.964940 0 CFG=2
M  V30 4 C 38.903272 29.597004 58.043871 0
M  V30 5 C 38.571500 28.961654 54.402116 0 CFG=1
M  V30 6 C 40.491258 29.470378 60.421352 0
M  V30 7 C 38.926338 32.421282 62.253502 0
M  V30 8 N 38.339631 30.611423 57.529705 0
M  V30 9 Cl 41.525676 31.623994 62.685772 0
M  V30 10 C 37.836259 27.755789 53.803528 0
M  V30 11 C 36.182036 31.008626 59.909297 0
M  V30 12 O 40.147138 29.991151 50.227415 0
M  V30 13 C 38.831225 29.279657 59.530454 0 CFG=1
M  V30 14 C 38.606913 30.405815 60.415942 0
M  V30 15 C 39.977446 31.510841 61.936203 0
M  V30 16 C 37.492690 31.221369 60.640270 0
M  V30 17 C 40.111171 28.781331 50.953463 0
M  V30 18 C 37.652150 32.271353 61.592653 0
M  V30 19 C 38.445953 30.885817 56.117904 0 CFG=1
M  V30 20 C 39.200202 29.695894 53.199333 0
M  V30 21 C 37.664374 29.854362 55.267003 0
M  V30 22 N 37.867420 32.224933 55.955508 0 CHG=1
M  V30 23 H 38.053477 26.822223 51.837738 0
M  V30 24 H 39.534634 26.889099 52.793872 0
M  V30 25 H 38.055749 29.156741 51.460660 0
M  V30 26 H 39.480421 28.886872 57.445384 0
M  V30 27 H 39.380668 28.568557 55.019603 0
M  V30 28 H 40.738281 28.682374 61.134090 0
M  V30 29 H 41.317182 29.817855 59.802762 0
M  V30 30 H 39.079792 33.206900 62.978466 0
M  V30 31 H 36.813552 28.024325 53.533546 0
M  V30 32 H 37.784473 26.911094 54.491445 0
M  V30 33 H 35.339979 31.221489 60.567914 0
M  V30 34 H 36.119874 31.680574 59.054011 0
M  V30 35 H 36.080805 29.984053 59.551013 0
M  V30 36 H 39.353008 30.056869 49.713004 0
M  V30 37 H 38.267375 28.384373 59.790240 0
M  V30 38 H 39.974970 27.957662 50.253237 0
M  V30 39 H 41.067411 28.622554 51.452440 0
M  V30 40 H 36.835524 32.943232 61.813944 0
M  V30 41 H 39.493186 30.941326 55.812117 0
M  V30 42 H 40.264455 29.859440 53.371511 0
M  V30 43 H 38.767192 30.684163 53.054124 0
M  V30 44 H 36.934549 30.349748 54.623929 0
M  V30 45 H 37.067518 29.221865 55.921554 0
M  V30 46 H 37.901878 32.523004 54.993043 0
M  V30 47 H 36.886634 32.181892 56.253518 0
M  V30 48 H 38.352321 32.883001 56.545487 0
M  V30 END ATOM
M  V30 BEGIN BOND
M  V30 1 1 3 2
M  V30 2 1 6 1
M  V30 3 2 8 4
M  V30 4 1 10 2
M  V30 5 1 10 5
M  V30 6 1 13 4
M  V30 7 1 13 6
M  V30 8 1 14 1
M  V30 9 1 14 13
M  V30 10 2 15 1
M  V30 11 1 15 7
M  V30 12 1 15 9
M  V30 13 1 16 11
M  V30 14 2 16 14
M  V30 15 1 17 3
M  V30 16 1 17 12
M  V30 17 2 18 7
M  V30 18 1 18 16
M  V30 19 1 19 8
M  V30 20 1 20 3
M  V30 21 1 20 5
M  V30 22 1 21 5
M  V30 23 1 21 19
M  V30 24 1 22 19
M  V30 25 1 23 2
M  V30 26 1 24 2
M  V30 27 1 3 25 CFG=3
M  V30 28 1 26 4
M  V30 29 1 5 27 CFG=1
M  V30 30 1 28 6
M  V30 31 1 29 6
M  V30 32 1 30 7
M  V30 33 1 31 10
M  V30 34 1 32 10
M  V30 35 1 33 11
M  V30 36 1 34 11
M  V30 37 1 35 11
M  V30 38 1 36 12
M  V30 39 1 13 37 CFG=3
M  V30 40 1 38 17
M  V30 41 1 39 17
M  V30 42 1 40 18
M  V30 43 1 19 41 CFG=3
M  V30 44 1 42 20
M  V30 45 1 43 20
M  V30 46 1 44 21
M  V30 47 1 45 21
M  V30 48 1 46 22
M  V30 49 1 47 22
M  V30 50 1 48 22
M  V30 END BOND
M  V30 END CTAB
M  END
>  <i_epik_Tot_Q>  (1) 
1

>  <i_epik_Tot_abs_Q>  (1) 
1

>  <i_i_glide_confnum>  (1) 
451

>  <i_i_glide_lignum>  (1) 
218

>  <i_i_glide_posenum>  (1) 
157

>  <i_i_glide_rotatable_bonds>  (1) 
6

>  <i_lp_mmshare_version>  (1) 
72125

>  <i_m_source_file_index>  (1) 
85

>  <i_f3d_flags>  (1) 
0

>  <num_sample>  (1) 
100

>  <b_lp_Chiralities_Consistent>  (1) 
1

>  <r_epik_Charging_Adjusted_Penalty>  (1) 
0.46451758934955678

>  <r_epik_Ionization_Penalty>  (1) 
0.053840736014893024

>  <r_epik_Ionization_Penalty_Charging>  (1) 
0.053837750396952835

>  <r_epik_Ionization_Penalty_Neutral>  (1) 
2.9856179401856363e-06

>  <r_epik_State_Penalty>  (1) 
0.41067983895260396

>  <r_glide_ring_energy>  (1) 
0

>  <r_i_docking_score>  (1) 
-6.1988040552062058

>  <r_i_glide_ecoul>  (1) 
-5.3778211088662724

>  <r_i_glide_eff_state_penalty>  (1) 
0.41067983895260396

>  <r_i_glide_einternal>  (1) 
5.8786628979509938

>  <r_i_glide_emodel>  (1) 
-51.851270468661227

>  <r_i_glide_emodel_strain>  (1) 
1.5288475136366628

>  <r_i_glide_energy>  (1) 
-39.806972318135138

>  <r_i_glide_erotb>  (1) 
0.90212786361762021

>  <r_i_glide_esite>  (1) 
-0.16076688631959057

>  <r_i_glide_evdw>  (1) 
-34.429151209268866

>  <r_i_glide_gscore>  (1) 
-6.6094838941588101

>  <r_i_glide_gscore_strain>  (1) 
0

>  <r_i_glide_hbond>  (1) 
-0.44618405675331829

>  <r_i_glide_ligand_efficiency>  (1) 
-0.28176382069119116

>  <r_i_glide_ligand_efficiency_ln>  (1) 
-1.5152138179640837

>  <r_i_glide_ligand_efficiency_sa>  (1) 
-0.78951330753244986

>  <r_i_glide_lipo>  (1) 
-2.6441687026825238

>  <r_i_glide_metal>  (1) 
-0

>  <r_i_glide_rewards>  (1) 
-1.7323613852276134

>  <r_lp_Energy>  (1) 
11.505056

>  <r_lp_tautomer_probability>  (1) 
0.49999300000000002

>  <s_epik_Chemistry_Notes>  (1) 
This compound has an imine and may undergo hydrolysis. This compound contains an acetal/aminal-like group ( X-CH(R)-Y where X, Y are N, S, or O) that may be acid/base labile, releasing an aldehyde.

>  <s_epik_cmdline>  (1) 
J2VwaWtfcHl0aG9uJywgJy1waHQnLCAnMS4wJywgJy1waCcsICc3LjQnLCAnLXRuJywgJzgnLCAnLW1hJywgJzUwMCcsICctaW1hZScsICc8aW5maWxlLm1hZT4nLCAnLW9tYWUnLCAnPG91dGZpbGUubWFlPic=

>  <s_epik_input>  (1) 
Q2xjMVtjSF1bY0hdYyhbQ0gzXSljKGMxMilbQ0BIXShbQ0gyXTIpL1tDSF09Ti9bQ0BIXShbTkgyXSlbQ0gyXVtDQEhdKFtDSDJdMylbQ0gyXVtDSDJdW0NAQEhdM1tDSDJdW09IXQ==

>  <s_glide_docking_method>  (1) 
confgen

>  <s_i_glide_gridfile>  (1) 
gpcr_5ht2c_6bqh_protein_autoprepared_prepared

>  <s_lp_Force_Field>  (1) 
S-OPLS

>  <s_lp_Variant>  (1) 
DiffSBDD_84_num_sample_100-1

>  <s_m_source_file>  (1) 
generated__ligand_DiffSBDD_2026-05-06_prepared.sdf

>  <GenAI_Model>  (1) 
DiffSBDD

>  <Protein>  (1) 
GPCR_5HT2C

$$$$
DiffSBDD_35_num_sample_100
     RDKit          3D

  0  0  0  0  0  0  0  0  0  0999 V3000
M  V30 BEGIN CTAB
M  V30 COUNTS 23 23 0 0 1
M  V30 BEGIN ATOM
M  V30 1 C 39.643907 28.441212 50.653503 0
M  V30 2 C 39.483598 29.624769 52.778475 0
M  V30 3 C 38.084841 31.054824 55.310197 0
M  V30 4 N 37.867418 31.829338 56.367756 0
M  V30 5 O 39.700184 30.774071 53.517612 0
M  V30 6 C 39.546111 30.790945 54.933849 0
M  V30 7 C 40.473636 30.821386 50.766317 0
M  V30 8 O 37.170376 30.561540 54.653706 0
M  V30 9 C 38.695525 27.318393 52.593526 0
M  V30 10 C 39.853784 29.600015 51.415322 0
M  V30 11 C 38.901650 28.471740 53.366019 0
M  V30 12 C 39.067403 27.304138 51.238890 0
M  V30 13 H 39.924109 28.426622 49.612675 0
M  V30 14 H 38.637620 32.221743 56.882394 0
M  V30 15 H 36.894243 32.021186 56.653561 0
M  V30 16 H 39.917165 29.883301 55.409147 0
M  V30 17 H 40.169870 31.599823 55.317948 0
M  V30 18 H 40.666862 31.621402 51.478522 0
M  V30 19 H 41.420201 30.560658 50.292872 0
M  V30 20 H 39.807134 31.211171 49.996474 0
M  V30 21 H 38.247638 26.442516 53.040044 0
M  V30 22 H 38.611991 28.471004 54.403767 0
M  V30 23 H 38.904286 26.421403 50.646112 0
M  V30 END ATOM
M  V30 BEGIN BOND
M  V30 1 1 4 3
M  V30 2 1 5 2
M  V30 3 1 6 3
M  V30 4 1 6 5
M  V30 5 2 8 3
M  V30 6 2 10 1
M  V30 7 1 10 2
M  V30 8 1 10 7
M  V30 9 2 11 2
M  V30 10 1 11 9
M  V30 11 1 12 1
M  V30 12 2 12 9
M  V30 13 1 13 1
M  V30 14 1 14 4
M  V30 15 1 15 4
M  V30 16 1 16 6
M  V30 17 1 17 6
M  V30 18 1 18 7
M  V30 19 1 19 7
M  V30 20 1 20 7
M  V30 21 1 21 9
M  V30 22 1 22 11
M  V30 23 1 23 12
M  V30 END BOND
M  V30 END CTAB
M  END
>  <i_epik_Tot_Q>  (1) 
0

>  <i_epik_Tot_abs_Q>  (1) 
0

>  <i_i_glide_confnum>  (1) 
4

>  <i_i_glide_lignum>  (1) 
90

>  <i_i_glide_posenum>  (1) 
10

>  <i_i_glide_rotatable_bonds>  (1) 
3

>  <i_lp_mmshare_version>  (1) 
72125

>  <i_m_source_file_index>  (1) 
36

>  <i_f3d_flags>  (1) 
0

>  <num_sample>  (1) 
100

>  <b_lp_Chiralities_Consistent>  (1) 
1

>  <r_epik_Charging_Adjusted_Penalty>  (1) 
0

>  <r_epik_Ionization_Penalty>  (1) 
6.1062296302935647e-07

>  <r_epik_Ionization_Penalty_Charging>  (1) 
0

>  <r_epik_Ionization_Penalty_Neutral>  (1) 
6.1062296302935647e-07

>  <r_epik_State_Penalty>  (1) 
-0

>  <r_glide_ring_energy>  (1) 
0

>  <r_i_docking_score>  (1) 
-6.1983333133202283

>  <r_i_glide_ecoul>  (1) 
-6.3685423768425196

>  <r_i_glide_eff_state_penalty>  (1) 
-0

>  <r_i_glide_einternal>  (1) 
0.48878245433376488

>  <r_i_glide_emodel>  (1) 
-40.233721120745059

>  <r_i_glide_emodel_strain>  (1) 
0.7594334681428716

>  <r_i_glide_energy>  (1) 
-29.027154745580621

>  <r_i_glide_erotb>  (1) 
1.1185107559780281

>  <r_i_glide_esite>  (1) 
-0.15971061859878199

>  <r_i_glide_evdw>  (1) 
-22.658612368738101

>  <r_i_glide_gscore>  (1) 
-6.1983333133202283

>  <r_i_glide_gscore_strain>  (1) 
0

>  <r_i_glide_hbond>  (1) 
-0.16

>  <r_i_glide_ligand_efficiency>  (1) 
-0.51652777611001899

>  <r_i_glide_ligand_efficiency_ln>  (1) 
-1.7786224815225096

>  <r_i_glide_ligand_efficiency_sa>  (1) 
-1.1825534039750749

>  <r_i_glide_lipo>  (1) 
-2.392254809069525

>  <r_i_glide_metal>  (1) 
-0

>  <r_i_glide_rewards>  (1) 
-2.5166666666666666

>  <r_lp_Energy>  (1) 
12.862938

>  <r_lp_tautomer_probability>  (1) 
1

>  <s_epik_cmdline>  (1) 
J2VwaWtfcHl0aG9uJywgJy1waHQnLCAnMS4wJywgJy1waCcsICc3LjQnLCAnLXRuJywgJzgnLCAnLW1hJywgJzUwMCcsICctaW1hZScsICc8aW5maWxlLm1hZT4nLCAnLW9tYWUnLCAnPG91dGZpbGUubWFlPic=

>  <s_epik_input>  (1) 
W2NIXTFbY0hdW2NIXVtjSF1jKFtDSDNdKWMxT1tDSDJdQyg9TylbTkgyXQ==

>  <s_glide_docking_method>  (1) 
confgen

>  <s_i_glide_gridfile>  (1) 
gpcr_5ht2c_6bqh_protein_autoprepared_prepared

>  <s_lp_Force_Field>  (1) 
S-OPLS

>  <s_lp_Variant>  (1) 
DiffSBDD_35_num_sample_100-1

>  <s_m_source_file>  (1) 
generated__ligand_DiffSBDD_2026-05-06_prepared.sdf

>  <GenAI_Model>  (1) 
DiffSBDD

>  <Protein>  (1) 
GPCR_5HT2C

$$$$
DiffSBDD_44_num_sample_100
     RDKit          3D

  0  0  0  0  0  0  0  0  0  0999 V3000
M  V30 BEGIN CTAB
M  V30 COUNTS 58 59 0 0 1
M  V30 BEGIN ATOM
M  V30 1 C 35.974006 34.293993 61.443950 0
M  V30 2 O 39.037837 31.556683 61.564205 0 CHG=-1
M  V30 3 C 39.763126 27.458537 56.121309 0
M  V30 4 C 36.784359 33.268943 59.395496 0 CFG=1
M  V30 5 N 37.277737 32.481721 60.547167 0 CFG=2 CHG=1
M  V30 6 C 39.455145 25.707715 57.823235 0
M  V30 7 N 39.850971 29.019755 58.616567 0
M  V30 8 C 40.002478 27.045748 57.340031 0
M  V30 9 O 41.981719 28.421416 57.894526 0
M  V30 10 C 35.624449 34.097728 59.957455 0 CFG=1
M  V30 11 C 34.287067 33.376379 59.721214 0
M  V30 12 C 38.138701 30.209199 59.903839 0 CFG=1
M  V30 13 C 39.346563 29.277109 59.754101 0
M  V30 14 C 37.175176 33.387489 61.713733 0
M  V30 15 C 43.055107 27.507170 57.872247 0
M  V30 16 C 38.265278 26.253033 54.581716 0
M  V30 17 C 38.515513 31.652699 60.364733 0 CFG=2
M  V30 18 C 40.743901 27.910757 58.359162 0 CFG=1
M  V30 19 F 37.496569 24.113762 55.059146 0
M  V30 20 C 38.425371 24.978583 55.470367 0 CFG=2
M  V30 21 C 39.155524 27.418596 54.967720 0
M  V30 22 C 37.263285 30.139956 58.627658 0
M  V30 23 C 39.876331 28.679871 61.053024 0
M  V30 24 C 37.846858 34.169030 58.751311 0
M  V30 25 C 38.240398 25.160831 57.007830 0
M  V30 26 H 35.134678 34.047184 62.096634 0
M  V30 27 H 36.267168 35.325371 61.647743 0
M  V30 28 H 36.401317 32.592823 58.653499 0
M  V30 29 H 40.267424 24.981951 57.826444 0
M  V30 30 H 39.138829 25.823903 58.859992 0
M  V30 31 H 35.563913 35.067405 59.459962 0
M  V30 32 H 34.267739 32.397466 60.197207 0
M  V30 33 H 33.450394 33.951414 60.100987 0
M  V30 34 H 34.107948 33.230550 58.654515 0
M  V30 35 H 37.499107 29.773615 60.653501 0
M  V30 36 H 37.067514 32.821211 62.638664 0
M  V30 37 H 38.083317 33.988419 61.792407 0
M  V30 38 H 43.986467 28.043684 57.695160 0
M  V30 39 H 43.147655 26.943258 58.800643 0
M  V30 40 H 42.914837 26.821438 57.053504 0
M  V30 41 H 37.232509 26.601082 54.622581 0
M  V30 42 H 38.462919 26.021438 53.536381 0
M  V30 43 H 39.111438 32.063918 59.557703 0
M  V30 44 H 40.934996 27.304333 59.241557 0
M  V30 45 H 39.385385 24.501377 55.270518 0
M  V30 46 H 39.227399 28.235258 54.264821 0
M  V30 47 H 37.168763 29.118885 58.256018 0
M  V30 48 H 36.242906 30.465522 58.821057 0
M  V30 49 H 37.672509 30.743145 57.815837 0
M  V30 50 H 39.391184 29.102964 61.930963 0
M  V30 51 H 39.678705 27.621430 61.085163 0
M  V30 52 H 40.949833 28.846098 61.144638 0
M  V30 53 H 37.397835 34.821439 58.006683 0
M  V30 54 H 38.319764 34.804510 59.498471 0
M  V30 55 H 38.618297 33.619740 58.214750 0
M  V30 56 H 37.983742 24.191430 57.437269 0
M  V30 57 H 37.368712 25.792568 57.185409 0
M  V30 58 H 36.560151 31.794927 60.712679 0
M  V30 END ATOM
M  V30 BEGIN BOND
M  V30 1 1 5 4
M  V30 2 2 8 3
M  V30 3 1 8 6
M  V30 4 1 10 1
M  V30 5 1 10 4
M  V30 6 1 11 10
M  V30 7 2 13 7
M  V30 8 1 13 12
M  V30 9 1 14 1
M  V30 10 1 14 5
M  V30 11 1 15 9
M  V30 12 1 17 2
M  V30 13 1 17 5
M  V30 14 1 17 12
M  V30 15 1 18 7
M  V30 16 1 18 8
M  V30 17 1 18 9
M  V30 18 1 20 16
M  V30 19 1 20 19
M  V30 20 2 21 3
M  V30 21 1 21 16
M  V30 22 1 22 12
M  V30 23 1 23 13
M  V30 24 1 24 4
M  V30 25 1 25 6
M  V30 26 1 25 20
M  V30 27 1 26 1
M  V30 28 1 27 1
M  V30 29 1 4 28 CFG=3
M  V30 30 1 29 6
M  V30 31 1 30 6
M  V30 32 1 10 31 CFG=3
M  V30 33 1 32 11
M  V30 34 1 33 11
M  V30 35 1 34 11
M  V30 36 1 12 35 CFG=1
M  V30 37 1 36 14
M  V30 38 1 37 14
M  V30 39 1 38 15
M  V30 40 1 39 15
M  V30 41 1 40 15
M  V30 42 1 41 16
M  V30 43 1 42 16
M  V30 44 1 17 43 CFG=3
M  V30 45 1 18 44 CFG=1
M  V30 46 1 20 45 CFG=1
M  V30 47 1 46 21
M  V30 48 1 47 22
M  V30 49 1 48 22
M  V30 50 1 49 22
M  V30 51 1 50 23
M  V30 52 1 51 23
M  V30 53 1 52 23
M  V30 54 1 53 24
M  V30 55 1 54 24
M  V30 56 1 55 24
M  V30 57 1 56 25
M  V30 58 1 57 25
M  V30 59 1 5 58 CFG=1
M  V30 END BOND
M  V30 END CTAB
M  END
>  <i_epik_Tot_Q>  (1) 
0

>  <i_epik_Tot_abs_Q>  (1) 
2

>  <i_i_glide_confnum>  (1) 
24

>  <i_i_glide_lignum>  (1) 
121

>  <i_i_glide_posenum>  (1) 
189

>  <i_i_glide_rotatable_bonds>  (1) 
6

>  <i_lp_mmshare_version>  (1) 
72125

>  <i_m_source_file_index>  (1) 
45

>  <i_f3d_flags>  (1) 
0

>  <num_sample>  (1) 
100

>  <b_lp_Chiralities_Consistent>  (1) 
1

>  <r_epik_Charging_Adjusted_Penalty>  (1) 
0.41733257654759531

>  <r_epik_Ionization_Penalty>  (1) 
0.0069177268181324029

>  <r_epik_Ionization_Penalty_Charging>  (1) 
0.0066527375949913311

>  <r_epik_Ionization_Penalty_Neutral>  (1) 
0.00026498922314107146

>  <r_epik_State_Penalty>  (1) 
0.41067983895260396

>  <r_glide_ring_energy>  (1) 
0

>  <r_i_docking_score>  (1) 
-6.18904539158956

>  <r_i_glide_ecoul>  (1) 
-1.7146356504870166

>  <r_i_glide_eff_state_penalty>  (1) 
0.41067983895260396

>  <r_i_glide_einternal>  (1) 
61.168611684006834

>  <r_i_glide_emodel>  (1) 
-17.659869301300006

>  <r_i_glide_emodel_strain>  (1) 
3.9265255380056914

>  <r_i_glide_energy>  (1) 
-33.992850114111796

>  <r_i_glide_erotb>  (1) 
0.61440649929112812

>  <r_i_glide_esite>  (1) 
-0.0090704558782149277

>  <r_i_glide_evdw>  (1) 
-32.278214463624778

>  <r_i_glide_gscore>  (1) 
-6.5997252305421643

>  <r_i_glide_gscore_strain>  (1) 
0

>  <r_i_glide_hbond>  (1) 
0

>  <r_i_glide_ligand_efficiency>  (1) 
-0.2475618156635824

>  <r_i_glide_ligand_efficiency_ln>  (1) 
-1.4669892285305428

>  <r_i_glide_ligand_efficiency_sa>  (1) 
-0.72387514030449873

>  <r_i_glide_lipo>  (1) 
-2.8577348797954745

>  <r_i_glide_metal>  (1) 
-0

>  <r_i_glide_rewards>  (1) 
-2.4762203234053115

>  <r_lp_Energy>  (1) 
12.967366999999999

>  <r_lp_tautomer_probability>  (1) 
0.49999399997599986

>  <s_epik_Chemistry_Notes>  (1) 
This compound has an imine and may undergo hydrolysis. This compound contains an acetal/aminal-like group ( X-CH(R)-Y where X, Y are N, S, or O) that may be acid/base labile, releasing an aldehyde.

>  <s_epik_cmdline>  (1) 
J2VwaWtfcHl0aG9uJywgJy1waHQnLCAnMS4wJywgJy1waCcsICc3LjQnLCAnLXRuJywgJzgnLCAnLW1hJywgJzUwMCcsICctaW1hZScsICc8aW5maWxlLm1hZT4nLCAnLW9tYWUnLCAnPG91dGZpbGUubWFlPic=

>  <s_epik_input>  (1) 
W0NIM11bQ0BIXTFbQ0gyXVtDSDJdTihbQ0BASF0xW0NIM10pW0NAQEhdKFtPSF0pW0NAQEhdKFtDSDNdKVxDKFtDSDNdKT1OXFtDQEBIXShPW0NIM10pQzI9Qz1bQ0hdW0NIMl1bQ0BASF0oRilbQ0gyXVtDSDJdMg==

>  <s_glide_docking_method>  (1) 
confgen

>  <s_i_glide_gridfile>  (1) 
gpcr_5ht2c_6bqh_protein_autoprepared_prepared

>  <s_lp_Force_Field>  (1) 
S-OPLS

>  <s_lp_Variant>  (1) 
DiffSBDD_44_num_sample_100-14

>  <s_m_source_file>  (1) 
generated__ligand_DiffSBDD_2026-05-06_prepared.sdf

>  <GenAI_Model>  (1) 
DiffSBDD

>  <Protein>  (1) 
GPCR_5HT2C

$$$$
DiffSBDD_39_num_sample_100
     RDKit          3D

  0  0  0  0  0  0  0  0  0  0999 V3000
M  V30 BEGIN CTAB
M  V30 COUNTS 61 64 0 0 1
M  V30 BEGIN ATOM
M  V30 1 C 38.863090 34.615589 60.257074 0
M  V30 2 C 38.626291 30.065835 54.972668 0
M  V30 3 C 38.074927 30.821461 60.848651 0
M  V30 4 C 38.089187 31.168712 55.898679 0
M  V30 5 C 38.299734 32.832029 58.544716 0
M  V30 6 C 40.687175 28.801374 55.853498 0
M  V30 7 N 39.774628 25.839542 57.978692 0
M  V30 8 O 39.226336 30.363402 60.673633 0 CHG=-1
M  V30 9 C 40.014537 27.566299 56.268597 0
M  V30 10 C 36.582159 33.711051 60.265319 0
M  V30 11 O 37.605837 31.221417 61.934581 0
M  V30 12 C 36.267392 34.563369 61.333085 0
M  V30 13 C 37.227017 35.442054 61.853504 0
M  V30 14 N 37.723811 31.593641 58.469125 0
M  V30 15 C 39.573553 36.395455 61.955088 0
M  V30 16 C 35.715774 31.329139 59.865609 0
M  V30 17 C 38.229671 24.006821 57.635030 0
M  V30 18 C 38.131495 30.678230 57.377728 0
M  V30 19 C 41.129038 34.745218 63.170335 0
M  V30 20 C 39.072325 26.895598 55.450137 0
M  V30 21 C 37.151200 30.854712 59.615730 0 CFG=2
M  V30 22 C 37.055041 23.864332 56.610607 0
M  V30 23 O 41.871895 34.973751 64.149485 0 CHG=-1
M  V30 24 C 37.900098 33.727507 59.713998 0
M  V30 25 S 37.360751 24.804751 55.053624 0
M  V30 26 C 38.510977 25.725076 55.943258 0
M  V30 27 O 38.764390 27.339583 54.195491 0
M  V30 28 C 38.527088 35.462459 61.335566 0
M  V30 29 Cl 41.511889 27.765858 58.531904 0
M  V30 30 C 41.012611 35.850266 62.114002 0
M  V30 31 C 40.348273 26.980874 57.524260 0
M  V30 32 C 40.114467 29.879972 55.256472 0
M  V30 33 C 35.498552 32.826893 59.694707 0
M  V30 34 O 39.137896 33.221434 57.743671 0
M  V30 35 C 38.871714 25.257476 57.172103 0
M  V30 36 O 40.481589 33.696437 62.974695 0
M  V30 37 H 39.863638 34.631661 59.853375 0
M  V30 38 H 38.481398 30.331496 53.924806 0
M  V30 39 H 37.983203 29.226966 55.205103 0
M  V30 40 H 38.660529 32.077414 55.722893 0
M  V30 41 H 37.067403 31.402226 55.608472 0
M  V30 42 H 41.745481 28.821428 56.054241 0
M  V30 43 H 35.275574 34.547299 61.753893 0
M  V30 44 H 36.966095 36.090578 62.676186 0
M  V30 45 H 39.587363 37.353977 61.447202 0
M  V30 46 H 39.224521 36.648150 62.956775 0
M  V30 47 H 35.378590 31.018342 60.855160 0
M  V30 48 H 35.067428 30.821470 59.153934 0
M  V30 49 H 38.976424 23.221447 57.571404 0
M  V30 50 H 37.867360 24.082711 58.656306 0
M  V30 51 H 37.520753 29.776300 57.399164 0
M  V30 52 H 39.138917 30.352697 57.641696 0
M  V30 53 H 37.057923 29.791600 59.397488 0
M  V30 54 H 36.667400 22.855178 56.461577 0
M  V30 55 H 36.267418 24.452552 57.053778 0
M  V30 56 H 39.131386 28.197214 54.043433 0
M  V30 57 H 41.418788 35.496985 61.168430 0
M  V30 58 H 41.657924 36.670388 62.427243 0
M  V30 59 H 40.747512 30.709221 54.973707 0
M  V30 60 H 34.535976 33.091553 60.135327 0
M  V30 61 H 35.397327 33.108829 58.653580 0
M  V30 END ATOM
M  V30 BEGIN BOND
M  V30 1 1 4 2
M  V30 2 1 8 3
M  V30 3 1 9 6
M  V30 4 2 11 3
M  V30 5 1 12 10
M  V30 6 2 13 12
M  V30 7 1 14 5
M  V30 8 1 18 4
M  V30 9 1 18 14
M  V30 10 2 20 9
M  V30 11 1 21 3
M  V30 12 1 21 14
M  V30 13 1 21 16
M  V30 14 1 22 17
M  V30 15 1 23 19
M  V30 16 1 24 1
M  V30 17 1 24 5
M  V30 18 2 24 10
M  V30 19 1 25 22
M  V30 20 1 26 20
M  V30 21 1 26 25
M  V30 22 1 27 20
M  V30 23 2 28 1
M  V30 24 1 28 13
M  V30 25 1 28 15
M  V30 26 1 30 15
M  V30 27 1 30 19
M  V30 28 2 31 7
M  V30 29 1 31 9
M  V30 30 1 31 29
M  V30 31 1 32 2
M  V30 32 2 32 6
M  V30 33 1 33 10
M  V30 34 1 33 16
M  V30 35 2 34 5
M  V30 36 1 35 7
M  V30 37 1 35 17
M  V30 38 2 35 26
M  V30 39 2 36 19
M  V30 40 1 37 1
M  V30 41 1 38 2
M  V30 42 1 39 2
M  V30 43 1 40 4
M  V30 44 1 41 4
M  V30 45 1 42 6
M  V30 46 1 43 12
M  V30 47 1 44 13
M  V30 48 1 45 15
M  V30 49 1 46 15
M  V30 50 1 47 16
M  V30 51 1 48 16
M  V30 52 1 49 17
M  V30 53 1 50 17
M  V30 54 1 51 18
M  V30 55 1 52 18
M  V30 56 1 21 53 CFG=3
M  V30 57 1 54 22
M  V30 58 1 55 22
M  V30 59 1 56 27
M  V30 60 1 57 30
M  V30 61 1 58 30
M  V30 62 1 59 32
M  V30 63 1 60 33
M  V30 64 1 61 33
M  V30 END BOND
M  V30 END CTAB
M  END
>  <i_epik_Tot_Q>  (1) 
-2

>  <i_epik_Tot_abs_Q>  (1) 
2

>  <i_i_glide_confnum>  (1) 
300

>  <i_i_glide_lignum>  (1) 
97

>  <i_i_glide_posenum>  (1) 
49

>  <i_i_glide_rotatable_bonds>  (1) 
10

>  <i_lp_mmshare_version>  (1) 
72125

>  <i_m_source_file_index>  (1) 
40

>  <i_f3d_flags>  (1) 
0

>  <num_sample>  (1) 
100

>  <b_lp_Chiralities_Consistent>  (1) 
1

>  <r_epik_Charging_Adjusted_Penalty>  (1) 
1.1553041349672681

>  <r_epik_Ionization_Penalty>  (1) 
1.0836065631352982

>  <r_epik_Ionization_Penalty_Charging>  (1) 
0.00098582723969229671

>  <r_epik_Ionization_Penalty_Neutral>  (1) 
1.0826207358956059

>  <r_epik_State_Penalty>  (1) 
1.1543183077275758

>  <r_glide_ring_energy>  (1) 
0

>  <r_i_docking_score>  (1) 
-6.1833534659881035

>  <r_i_glide_ecoul>  (1) 
-1.6119394225446451

>  <r_i_glide_eff_state_penalty>  (1) 
1.1543183077275758

>  <r_i_glide_einternal>  (1) 
6.3600143437338872

>  <r_i_glide_emodel>  (1) 
-54.599306959666563

>  <r_i_glide_emodel_strain>  (1) 
2.8818704580305621

>  <r_i_glide_energy>  (1) 
-44.779714672740724

>  <r_i_glide_erotb>  (1) 
0.51538728504810294

>  <r_i_glide_esite>  (1) 
-0.12453674733950898

>  <r_i_glide_evdw>  (1) 
-43.16777525019608

>  <r_i_glide_gscore>  (1) 
-7.3376717737156794

>  <r_i_glide_gscore_strain>  (1) 
0

>  <r_i_glide_hbond>  (1) 
-0.1452928316405355

>  <r_i_glide_ligand_efficiency>  (1) 
-0.17175981849966954

>  <r_i_glide_ligand_efficiency_ln>  (1) 
-1.3490406713735263

>  <r_i_glide_ligand_efficiency_sa>  (1) 
-0.56713842496925437

>  <r_i_glide_lipo>  (1) 
-4.0113348950982637

>  <r_i_glide_metal>  (1) 
-0

>  <r_i_glide_rewards>  (1) 
-1.1717149087939733

>  <r_lp_Energy>  (1) 
49.855823000000001

>  <s_epik_cmdline>  (1) 
J2VwaWtfcHl0aG9uJywgJy1waHQnLCAnMS4wJywgJy1waCcsICc3LjQnLCAnLXRuJywgJzgnLCAnLW1hJywgJzUwMCcsICctaW1hZScsICc8aW5maWxlLm1hZT4nLCAnLW9tYWUnLCAnPG91dGZpbGUubWFlPic=

>  <s_epik_input>  (1) 
W09IXUMoPU8pW0NIMl1bQ0gyXWMoW2NIXVtjSF0xKVtjSF1jKGMxMilDKD1PKU4oW0NAQEhdKEMoPU8pW09IXSlbQ0gyXVtDSDJdMilbQ0gyXVtDSDJdW0NIMl0vW0NIXT1bQ0hdXGMoYzNbT0hdKWMoQ2wpbmMoYzM0KVtDSDJdW0NIMl1TNA==

>  <s_glide_docking_method>  (1) 
confgen

>  <s_i_glide_gridfile>  (1) 
gpcr_5ht2c_6bqh_protein_autoprepared_prepared

>  <s_lp_Force_Field>  (1) 
S-OPLS

>  <s_lp_Variant>  (1) 
DiffSBDD_39_num_sample_100-4

>  <s_m_source_file>  (1) 
generated__ligand_DiffSBDD_2026-05-06_prepared.sdf

>  <GenAI_Model>  (1) 
DiffSBDD

>  <Protein>  (1) 
GPCR_5HT2C

$$$$
DiffSBDD_1_num_sample_100
     RDKit          3D

  0  0  0  0  0  0  0  0  0  0999 V3000
M  V30 BEGIN CTAB
M  V30 COUNTS 63 66 0 0 1
M  V30 BEGIN ATOM
M  V30 1 C 38.339332 28.084604 55.569738 0
M  V30 2 C 39.567184 34.685580 62.129048 0
M  V30 3 O 37.467369 28.598168 53.566938 0
M  V30 4 C 37.496621 33.393255 61.319233 0 CFG=1
M  V30 5 C 38.517344 28.200987 57.042168 0
M  V30 6 C 37.865341 31.025369 60.713398 0
M  V30 7 C 37.579514 36.878989 63.383048 0
M  V30 8 C 41.444021 36.040244 62.341547 0
M  V30 9 N 40.267464 36.884399 62.050314 0 CHG=1
M  V30 10 C 38.204772 32.938770 57.531080 0
M  V30 11 C 37.646661 29.204388 57.812973 0
M  V30 12 C 37.783754 36.657111 61.872897 0 CFG=2
M  V30 13 C 39.166140 36.032918 61.536725 0 CFG=2
M  V30 14 C 37.669736 31.361405 59.230461 0 CFG=2
M  V30 15 C 38.440922 31.531562 56.950273 0
M  V30 16 C 37.514183 28.821181 54.890573 0
M  V30 17 N 37.075022 31.992332 61.511106 0
M  V30 18 C 38.847481 33.545665 62.020617 0
M  V30 19 O 39.332089 27.521037 57.664034 0
M  V30 20 C 37.568602 37.957631 61.073625 0
M  V30 21 C 38.468073 27.511221 53.418969 0
M  V30 22 C 37.413056 33.764512 59.804383 0
M  V30 23 C 40.880014 34.723804 62.849850 0
M  V30 24 N 38.115727 32.747051 58.989127 0 CFG=2 CHG=1
M  V30 25 O 36.266801 31.385082 59.053501 0
M  V30 26 C 39.121472 27.093426 54.827568 0
M  V30 27 C 38.357240 30.537648 58.134146 0 CFG=2
M  V30 28 O 36.242748 37.221348 63.684993 0
M  V30 29 H 36.779353 34.005769 61.857404 0
M  V30 30 H 38.921051 31.035256 60.985067 0
M  V30 31 H 37.506158 30.021429 60.904178 0
M  V30 32 H 38.261235 37.621432 63.765784 0
M  V30 33 H 37.867439 36.021430 63.958635 0
M  V30 34 H 42.132365 36.503957 63.049496 0
M  V30 35 H 41.957240 35.873868 61.396018 0
M  V30 36 H 40.500492 37.621476 61.400302 0
M  V30 37 H 39.013846 33.621413 57.279896 0
M  V30 38 H 37.274931 33.360299 57.145264 0
M  V30 39 H 37.398540 28.721627 58.756957 0
M  V30 40 H 36.689021 29.375926 57.324468 0
M  V30 41 H 36.997191 35.996446 61.526945 0
M  V30 42 H 39.316356 35.979484 60.459995 0
M  V30 43 H 39.401196 31.457202 56.438037 0
M  V30 44 H 37.665164 31.341842 56.210992 0
M  V30 45 H 36.851468 29.598520 55.240353 0
M  V30 46 H 36.127758 31.920559 61.139451 0
M  V30 47 H 39.238793 32.649990 62.483337 0
M  V30 48 H 38.286308 38.730902 61.346078 0
M  V30 49 H 37.661971 37.782213 60.001340 0
M  V30 50 H 36.571041 38.365829 61.243610 0
M  V30 51 H 37.981032 26.650195 52.960405 0
M  V30 52 H 39.243616 27.839142 52.725804 0
M  V30 53 H 36.368013 33.836537 59.497964 0
M  V30 54 H 37.829663 34.741794 59.585915 0
M  V30 55 H 40.701115 34.764105 63.925148 0
M  V30 56 H 41.517761 33.867835 62.624572 0
M  V30 57 H 36.001338 31.582501 58.132456 0
M  V30 58 H 40.194826 27.269550 54.892430 0
M  V30 59 H 38.875344 26.073878 55.126551 0
M  V30 60 H 39.374115 30.328383 58.471001 0
M  V30 61 H 35.738609 36.432590 63.841207 0
M  V30 62 H 39.976663 37.293091 62.927406 0
M  V30 63 H 39.070171 32.755673 59.313611 0
M  V30 END ATOM
M  V30 BEGIN BOND
M  V30 1 1 5 1
M  V30 2 1 9 8
M  V30 3 1 11 5
M  V30 4 1 12 7
M  V30 5 1 13 2
M  V30 6 1 13 9
M  V30 7 1 13 12
M  V30 8 1 14 6
M  V30 9 1 15 10
M  V30 10 2 16 1
M  V30 11 1 16 3
M  V30 12 1 17 4
M  V30 13 1 17 6
M  V30 14 2 18 2
M  V30 15 1 18 4
M  V30 16 2 19 5
M  V30 17 1 20 12
M  V30 18 1 21 3
M  V30 19 1 22 4
M  V30 20 1 23 2
M  V30 21 1 23 8
M  V30 22 1 24 10
M  V30 23 1 24 14
M  V30 24 1 24 22
M  V30 25 1 14 25 CFG=3
M  V30 26 1 26 1
M  V30 27 1 26 21
M  V30 28 1 27 11
M  V30 29 1 27 14
M  V30 30 1 27 15
M  V30 31 1 28 7
M  V30 32 1 4 29 CFG=1
M  V30 33 1 30 6
M  V30 34 1 31 6
M  V30 35 1 32 7
M  V30 36 1 33 7
M  V30 37 1 34 8
M  V30 38 1 35 8
M  V30 39 1 36 9
M  V30 40 1 37 10
M  V30 41 1 38 10
M  V30 42 1 39 11
M  V30 43 1 40 11
M  V30 44 1 12 41 CFG=3
M  V30 45 1 13 42 CFG=3
M  V30 46 1 43 15
M  V30 47 1 44 15
M  V30 48 1 45 16
M  V30 49 1 46 17
M  V30 50 1 47 18
M  V30 51 1 48 20
M  V30 52 1 49 20
M  V30 53 1 50 20
M  V30 54 1 51 21
M  V30 55 1 52 21
M  V30 56 1 53 22
M  V30 57 1 54 22
M  V30 58 1 55 23
M  V30 59 1 56 23
M  V30 60 1 57 25
M  V30 61 1 58 26
M  V30 62 1 59 26
M  V30 63 1 27 60 CFG=1
M  V30 64 1 61 28
M  V30 65 1 62 9
M  V30 66 1 24 63 CFG=1
M  V30 END BOND
M  V30 END CTAB
M  END
>  <i_epik_Tot_Q>  (1) 
2

>  <i_epik_Tot_abs_Q>  (1) 
2

>  <i_i_glide_confnum>  (1) 
244

>  <i_i_glide_lignum>  (1) 
17

>  <i_i_glide_posenum>  (1) 
34

>  <i_i_glide_rotatable_bonds>  (1) 
8

>  <i_lp_mmshare_version>  (1) 
72125

>  <i_m_source_file_index>  (1) 
2

>  <i_f3d_flags>  (1) 
0

>  <num_sample>  (1) 
100

>  <b_lp_Chiralities_Consistent>  (1) 
1

>  <r_epik_Charging_Adjusted_Penalty>  (1) 
2.3622130296898831

>  <r_epik_Ionization_Penalty>  (1) 
1.4312966064593899

>  <r_epik_Ionization_Penalty_Charging>  (1) 
1.1852885594971458

>  <r_epik_Ionization_Penalty_Neutral>  (1) 
0.24600804696224418

>  <r_epik_State_Penalty>  (1) 
1.176924470192737

>  <r_glide_ring_energy>  (1) 
0

>  <r_i_docking_score>  (1) 
-6.1824935008338304

>  <r_i_glide_ecoul>  (1) 
-13.384630043741634

>  <r_i_glide_eff_state_penalty>  (1) 
1.176924470192737

>  <r_i_glide_einternal>  (1) 
11.521905066783345

>  <r_i_glide_emodel>  (1) 
-53.8460752308903

>  <r_i_glide_emodel_strain>  (1) 
1.512146886263352

>  <r_i_glide_energy>  (1) 
-40.458184430554979

>  <r_i_glide_erotb>  (1) 
0.75687532201182384

>  <r_i_glide_esite>  (1) 
-0.094718638396961069

>  <r_i_glide_evdw>  (1) 
-27.073554386813349

>  <r_i_glide_gscore>  (1) 
-7.3594179710265673

>  <r_i_glide_gscore_strain>  (1) 
0

>  <r_i_glide_hbond>  (1) 
-0.39485003601702484

>  <r_i_glide_ligand_efficiency>  (1) 
-0.22080333931549395

>  <r_i_glide_ligand_efficiency_ln>  (1) 
-1.4271010258894257

>  <r_i_glide_ligand_efficiency_sa>  (1) 
-0.67048898511874888

>  <r_i_glide_lipo>  (1) 
-2.7569390834467185

>  <r_i_glide_metal>  (1) 
-0

>  <r_i_glide_rewards>  (1) 
-1.5084133092757739

>  <r_lp_Energy>  (1) 
22.123918

>  <s_epik_cmdline>  (1) 
J2VwaWtfcHl0aG9uJywgJy1waHQnLCAnMS4wJywgJy1waCcsICc3LjQnLCAnLXRuJywgJzgnLCAnLW1hJywgJzUwMCcsICctaW1hZScsICc8aW5maWxlLm1hZT4nLCAnLW9tYWUnLCAnPG91dGZpbGUubWFlPic=

>  <s_epik_input>  (1) 
W0NIMl0xW0NIMl1PW0NIXT1DMUMoPU8pW0NIMl1bQ0BIXTJbQ0gyXVtDSDJdTihbQ0BAXTIzW09IXSlbQ0gyXVtDQEBIXShbTkhdW0NIMl0zKS9bQ0hdPUM0XFtDQEBIXShbTkhdW0NIMl1bQ0gyXTQpW0NASF0oW0NIM10pW0NIMl1bT0hd

>  <s_glide_docking_method>  (1) 
confgen

>  <s_i_glide_gridfile>  (1) 
gpcr_5ht2c_6bqh_protein_autoprepared_prepared

>  <s_lp_Force_Field>  (1) 
S-OPLS

>  <s_lp_Variant>  (1) 
DiffSBDD_1_num_sample_100-11

>  <s_m_source_file>  (1) 
generated__ligand_DiffSBDD_2026-05-06_prepared.sdf

>  <GenAI_Model>  (1) 
DiffSBDD

>  <Protein>  (1) 
GPCR_5HT2C

$$$$
DiffSBDD_87_num_sample_100
     RDKit          3D

  0  0  0  0  0  0  0  0  0  0999 V3000
M  V30 BEGIN CTAB
M  V30 COUNTS 53 56 0 0 1
M  V30 BEGIN ATOM
M  V30 1 C 36.844097 33.362965 59.876907 0 CFG=1
M  V30 2 C 35.327630 33.096804 59.862077 0
M  V30 3 C 35.346689 37.337602 63.477089 0
M  V30 4 C 38.036708 31.647449 58.242638 0 CFG=1
M  V30 5 C 37.211499 37.221472 59.839046 0
M  V30 6 C 36.861049 37.070364 63.475925 0
M  V30 7 C 38.975022 32.805502 58.466824 0
M  V30 8 C 37.479580 33.015659 58.543050 0 CFG=2
M  V30 9 C 39.097754 36.700996 62.229312 0 CFG=1
M  V30 10 N 37.867404 31.295294 56.827835 0 CHG=1
M  V30 11 O 39.470762 38.021426 61.928902 0
M  V30 12 C 40.301175 35.357907 61.621629 0
M  V30 13 C 37.079298 35.118470 61.766033 0
M  V30 14 C 40.545074 36.021430 65.709475 0
M  V30 15 C 37.236812 34.803771 60.272181 0 CFG=2
M  V30 16 C 40.561658 35.397815 63.034934 0
M  V30 17 F 42.273555 34.360852 66.082348 0
M  V30 18 C 41.445681 35.004048 65.227348 0
M  V30 19 C 41.452680 34.685619 63.836355 0
M  V30 20 C 39.683978 36.679456 64.777632 0
M  V30 21 C 39.781436 36.267149 63.444137 0
M  V30 22 C 37.527782 36.559151 62.166511 0 CFG=1
M  V30 23 C 36.602667 35.894790 59.428434 0
M  V30 24 O 36.972939 37.476041 61.211144 0
M  V30 25 F 34.996787 37.937323 64.612997 0
M  V30 26 H 37.279675 32.690537 60.617644 0
M  V30 27 H 34.817039 33.703570 59.114003 0
M  V30 28 H 35.118541 32.053747 59.621770 0
M  V30 29 H 34.870817 33.305968 60.829416 0
M  V30 30 H 35.035699 38.003798 62.669811 0
M  V30 31 H 34.765418 36.421423 63.453501 0
M  V30 32 H 37.907623 30.846144 58.967777 0
M  V30 33 H 36.804463 38.021401 59.242015 0
M  V30 34 H 38.267403 37.220871 59.628225 0
M  V30 35 H 37.087903 36.421436 64.312870 0
M  V30 36 H 37.320580 38.021382 63.711359 0
M  V30 37 H 39.496127 33.221434 57.607981 0
M  V30 38 H 39.522214 32.831801 59.406269 0
M  V30 39 H 37.043027 33.554147 57.703093 0
M  V30 40 H 38.365934 31.943611 56.237244 0
M  V30 41 H 38.154923 30.345351 56.650660 0
M  V30 42 H 40.256212 38.183063 62.430314 0
M  V30 43 H 39.907108 34.383799 61.338089 0
M  V30 44 H 41.144527 35.709709 61.026543 0
M  V30 45 H 37.706928 34.378661 62.253497 0
M  V30 46 H 36.050809 34.936132 62.075302 0
M  V30 47 H 40.524902 36.284812 66.756488 0
M  V30 48 H 38.294931 34.884843 60.049409 0
M  V30 49 H 42.112837 33.935341 63.427996 0
M  V30 50 H 39.000880 37.453797 65.089226 0
M  V30 51 H 35.517138 35.912794 59.515965 0
M  V30 52 H 36.856656 35.724067 58.388407 0
M  V30 53 H 36.859027 31.399952 56.653494 0
M  V30 END ATOM
M  V30 BEGIN BOND
M  V30 1 1 2 1
M  V30 2 1 6 3
M  V30 3 1 7 4
M  V30 4 1 8 1
M  V30 5 1 8 4
M  V30 6 1 8 7
M  V30 7 1 10 4
M  V30 8 1 9 11 CFG=3
M  V30 9 1 12 9
M  V30 10 1 15 1
M  V30 11 1 15 13
M  V30 12 1 16 12
M  V30 13 1 18 14
M  V30 14 1 18 17
M  V30 15 1 19 16
M  V30 16 2 19 18
M  V30 17 2 20 14
M  V30 18 1 21 9
M  V30 19 2 21 16
M  V30 20 1 21 20
M  V30 21 1 22 6 CFG=1
M  V30 22 1 22 9
M  V30 23 1 22 13
M  V30 24 1 23 5
M  V30 25 1 23 15
M  V30 26 1 24 5
M  V30 27 1 24 22
M  V30 28 1 25 3
M  V30 29 1 1 26 CFG=1
M  V30 30 1 27 2
M  V30 31 1 28 2
M  V30 32 1 29 2
M  V30 33 1 30 3
M  V30 34 1 31 3
M  V30 35 1 4 32 CFG=1
M  V30 36 1 33 5
M  V30 37 1 34 5
M  V30 38 1 35 6
M  V30 39 1 36 6
M  V30 40 1 37 7
M  V30 41 1 38 7
M  V30 42 1 8 39 CFG=3
M  V30 43 1 40 10
M  V30 44 1 41 10
M  V30 45 1 42 11
M  V30 46 1 43 12
M  V30 47 1 44 12
M  V30 48 1 45 13
M  V30 49 1 46 13
M  V30 50 1 47 14
M  V30 51 1 15 48 CFG=3
M  V30 52 1 49 19
M  V30 53 1 50 20
M  V30 54 1 51 23
M  V30 55 1 52 23
M  V30 56 1 53 10
M  V30 END BOND
M  V30 END CTAB
M  END
>  <i_epik_Tot_Q>  (1) 
1

>  <i_epik_Tot_abs_Q>  (1) 
1

>  <i_i_glide_confnum>  (1) 
131

>  <i_i_glide_lignum>  (1) 
225

>  <i_i_glide_posenum>  (1) 
297

>  <i_i_glide_rotatable_bonds>  (1) 
6

>  <i_lp_mmshare_version>  (1) 
72125

>  <i_m_source_file_index>  (1) 
88

>  <i_f3d_flags>  (1) 
0

>  <num_sample>  (1) 
100

>  <b_lp_Chiralities_Consistent>  (1) 
1

>  <r_epik_Charging_Adjusted_Penalty>  (1) 
0.053606202930604946

>  <r_epik_Ionization_Penalty>  (1) 
0.026803441766302651

>  <r_epik_Ionization_Penalty_Charging>  (1) 
0.026803101465302424

>  <r_epik_Ionization_Penalty_Neutral>  (1) 
3.4030100022513842e-07

>  <r_epik_State_Penalty>  (1) 
0.026803101465302525

>  <r_glide_ring_energy>  (1) 
0

>  <r_i_docking_score>  (1) 
-6.1804362148935192

>  <r_i_glide_ecoul>  (1) 
-6.8333978037829421

>  <r_i_glide_eff_state_penalty>  (1) 
0.026803101465302525

>  <r_i_glide_einternal>  (1) 
34.698242726963656

>  <r_i_glide_emodel>  (1) 
-26.841022017863693

>  <r_i_glide_emodel_strain>  (1) 
0.57996692728551125

>  <r_i_glide_energy>  (1) 
-28.309629767729838

>  <r_i_glide_erotb>  (1) 
0.61455583154011373

>  <r_i_glide_esite>  (1) 
-0.10000000000000001

>  <r_i_glide_evdw>  (1) 
-21.476231963946894

>  <r_i_glide_gscore>  (1) 
-6.2072393163588222

>  <r_i_glide_gscore_strain>  (1) 
0

>  <r_i_glide_hbond>  (1) 
-0.20000000000000001

>  <r_i_glide_ligand_efficiency>  (1) 
-0.24721744859574077

>  <r_i_glide_ligand_efficiency_ln>  (1) 
-1.4649485956573747

>  <r_i_glide_ligand_efficiency_sa>  (1) 
-0.7228682048896734

>  <r_i_glide_lipo>  (1) 
-2.2587906105381621

>  <r_i_glide_metal>  (1) 
-0

>  <r_i_glide_rewards>  (1) 
-2.1641832685959868

>  <r_lp_Energy>  (1) 
36.003222999999998

>  <s_epik_cmdline>  (1) 
J2VwaWtfcHl0aG9uJywgJy1waHQnLCAnMS4wJywgJy1waCcsICc3LjQnLCAnLXRuJywgJzgnLCAnLW1hJywgJzUwMCcsICctaW1hZScsICc8aW5maWxlLm1hZT4nLCAnLW9tYWUnLCAnPG91dGZpbGUubWFlPic=

>  <s_epik_input>  (1) 
W05IMl1bQ0BIXTFbQ0gyXVtDQEBIXTFbQ0BIXShbQ0gzXSlbQ0BASF0oW0NIMl1bQ0gyXU8yKVtDSDJdW0NAQF0yKFtDSDJdW0NIMl1GKVtDQF0oW09IXSkoW0NIMl0zKWMoYzM0KVtjSF1bY0hdYyhGKVtjSF00

>  <s_glide_docking_method>  (1) 
confgen

>  <s_i_glide_gridfile>  (1) 
gpcr_5ht2c_6bqh_protein_autoprepared_prepared

>  <s_lp_Force_Field>  (1) 
S-OPLS

>  <s_lp_Variant>  (1) 
DiffSBDD_87_num_sample_100-1

>  <s_m_source_file>  (1) 
generated__ligand_DiffSBDD_2026-05-06_prepared.sdf

>  <GenAI_Model>  (1) 
DiffSBDD

>  <Protein>  (1) 
GPCR_5HT2C

$$$$
DiffSBDD_20_num_sample_100
     RDKit          3D

  0  0  0  0  0  0  0  0  0  0999 V3000
M  V30 BEGIN CTAB
M  V30 COUNTS 55 55 0 0 1
M  V30 BEGIN ATOM
M  V30 1 C 38.965277 26.975927 57.176072 0 CFG=1
M  V30 2 C 38.856499 28.610931 55.059813 0 CFG=2
M  V30 3 C 39.616614 29.400118 59.433026 0
M  V30 4 C 39.112173 24.392664 57.092216 0
M  V30 5 N 39.067399 28.588579 53.627598 0
M  V30 6 C 39.456735 31.015373 53.523119 0
M  V30 7 O 35.860258 33.809677 61.453487 0
M  V30 8 C 38.049465 33.093554 60.881551 0
M  V30 9 C 39.119528 30.744989 61.425039 0
M  V30 10 C 40.993120 29.683883 50.998869 0
M  V30 11 N 38.992438 30.433375 60.005164 0
M  V30 12 O 40.353372 28.622940 60.040894 0
M  V30 13 C 37.867388 26.920557 58.249686 0
M  V30 14 C 39.852031 25.720561 57.252305 0
M  V30 15 C 39.325462 29.621721 52.927173 0
M  V30 16 C 36.601634 32.817228 61.297689 0
M  V30 17 O 39.467384 27.097416 51.053537 0
M  V30 18 N 39.347502 29.301612 58.121604 0
M  V30 19 C 40.157569 28.720145 55.862674 0
M  V30 20 S 38.157110 27.032845 55.548002 0
M  V30 21 C 38.849285 28.322012 50.747904 0
M  V30 22 O 36.266746 31.621560 61.453525 0 CHG=-1
M  V30 23 C 39.891031 28.227297 57.286309 0 CFG=2
M  V30 24 C 39.528195 29.543894 51.406276 0 CFG=2
M  V30 25 C 39.101927 32.268504 61.664731 0
M  V30 26 H 38.147048 29.384742 55.359707 0
M  V30 27 H 39.840658 23.606036 57.218432 0
M  V30 28 H 38.345546 24.233720 57.849622 0
M  V30 29 H 38.658444 24.285663 56.106915 0
M  V30 30 H 39.467496 31.759670 52.730587 0
M  V30 31 H 38.246014 34.152880 61.050237 0
M  V30 32 H 38.140031 32.940387 59.806700 0
M  V30 33 H 38.301767 30.260744 61.959689 0
M  V30 34 H 40.033968 30.332000 61.854105 0
M  V30 35 H 41.386511 30.661193 51.277322 0
M  V30 36 H 41.597434 28.898985 51.453285 0
M  V30 37 H 41.079440 29.621413 49.915011 0
M  V30 38 H 38.392418 31.022174 59.446462 0
M  V30 39 H 38.290863 26.822389 59.248700 0
M  V30 40 H 37.253701 27.821124 58.224622 0
M  V30 41 H 37.184642 26.087581 58.089735 0
M  V30 42 H 40.625548 25.776560 56.484993 0
M  V30 43 H 40.375814 25.706203 58.208688 0
M  V30 44 H 39.087581 26.418261 50.513054 0
M  V30 45 H 38.731233 29.973537 57.690085 0
M  V30 46 H 40.896968 28.038429 55.453505 0
M  V30 47 H 40.590658 29.714491 55.835311 0
M  V30 48 H 38.871912 28.421433 49.666379 0
M  V30 49 H 37.808396 28.259004 51.053971 0
M  V30 50 H 40.861588 27.943121 57.702753 0
M  V30 51 H 39.067425 30.417502 50.955812 0
M  V30 52 H 38.987147 32.455729 62.733212 0
M  V30 53 H 40.084420 32.661944 61.405263 0
M  V30 54 H 38.617990 31.252201 54.177777 0
M  V30 55 H 40.389309 31.111423 54.076280 0
M  V30 END ATOM
M  V30 BEGIN BOND
M  V30 1 1 5 2
M  V30 2 1 11 3
M  V30 3 1 11 9
M  V30 4 2 12 3
M  V30 5 1 1 13 CFG=1
M  V30 6 1 14 1
M  V30 7 1 14 4
M  V30 8 2 15 5
M  V30 9 1 15 6
M  V30 10 2 16 7
M  V30 11 1 16 8
M  V30 12 1 18 3
M  V30 13 1 19 2
M  V30 14 1 20 1
M  V30 15 1 20 2
M  V30 16 1 21 17
M  V30 17 1 22 16
M  V30 18 1 23 1
M  V30 19 1 23 18
M  V30 20 1 23 19
M  V30 21 1 24 10
M  V30 22 1 24 15
M  V30 23 1 24 21
M  V30 24 1 25 8
M  V30 25 1 25 9
M  V30 26 1 2 26 CFG=3
M  V30 27 1 27 4
M  V30 28 1 28 4
M  V30 29 1 29 4
M  V30 30 1 30 6
M  V30 31 1 31 8
M  V30 32 1 32 8
M  V30 33 1 33 9
M  V30 34 1 34 9
M  V30 35 1 35 10
M  V30 36 1 36 10
M  V30 37 1 37 10
M  V30 38 1 38 11
M  V30 39 1 39 13
M  V30 40 1 40 13
M  V30 41 1 41 13
M  V30 42 1 42 14
M  V30 43 1 43 14
M  V30 44 1 44 17
M  V30 45 1 45 18
M  V30 46 1 46 19
M  V30 47 1 47 19
M  V30 48 1 48 21
M  V30 49 1 49 21
M  V30 50 1 23 50 CFG=1
M  V30 51 1 24 51 CFG=3
M  V30 52 1 52 25
M  V30 53 1 53 25
M  V30 54 1 54 6
M  V30 55 1 55 6
M  V30 END BOND
M  V30 END CTAB
M  END
>  <i_epik_Tot_Q>  (1) 
-1

>  <i_epik_Tot_abs_Q>  (1) 
1

>  <i_i_glide_confnum>  (1) 
444

>  <i_i_glide_lignum>  (1) 
56

>  <i_i_glide_posenum>  (1) 
345

>  <i_i_glide_rotatable_bonds>  (1) 
12

>  <i_lp_mmshare_version>  (1) 
72125

>  <i_m_source_file_index>  (1) 
21

>  <i_f3d_flags>  (1) 
0

>  <num_sample>  (1) 
100

>  <b_lp_Chiralities_Consistent>  (1) 
1

>  <r_epik_Charging_Adjusted_Penalty>  (1) 
0.43743025276339681

>  <r_epik_Ionization_Penalty>  (1) 
0.026773266926762091

>  <r_epik_Ionization_Penalty_Charging>  (1) 
0.0015534882308521432

>  <r_epik_Ionization_Penalty_Neutral>  (1) 
0.025219778695909949

>  <r_epik_State_Penalty>  (1) 
0.43587676453254465

>  <r_glide_ring_energy>  (1) 
0

>  <r_i_docking_score>  (1) 
-6.1790889922003096

>  <r_i_glide_ecoul>  (1) 
-5.3143702153319934

>  <r_i_glide_eff_state_penalty>  (1) 
0.43587676453254465

>  <r_i_glide_einternal>  (1) 
4.6790606351660919

>  <r_i_glide_emodel>  (1) 
-48.864648428676034

>  <r_i_glide_emodel_strain>  (1) 
1.1756197723498296

>  <r_i_glide_energy>  (1) 
-37.497193185855679

>  <r_i_glide_erotb>  (1) 
1.2527341714622291

>  <r_i_glide_esite>  (1) 
0

>  <r_i_glide_evdw>  (1) 
-32.182822970523688

>  <r_i_glide_gscore>  (1) 
-6.6149657567328539

>  <r_i_glide_gscore_strain>  (1) 
0

>  <r_i_glide_hbond>  (1) 
-0.33516418591522146

>  <r_i_glide_ligand_efficiency>  (1) 
-0.24716355968801237

>  <r_i_glide_ligand_efficiency_ln>  (1) 
-1.4646292635060778

>  <r_i_glide_ligand_efficiency_sa>  (1) 
-0.72271063276758274

>  <r_i_glide_lipo>  (1) 
-3.3505207581425211

>  <r_i_glide_metal>  (1) 
-0

>  <r_i_glide_rewards>  (1) 
-1.7757183033113582

>  <r_lp_Energy>  (1) 
19.737282

>  <r_lp_tautomer_probability>  (1) 
0.49999399997599986

>  <s_epik_Chemistry_Notes>  (1) 
This compound has an imine and may undergo hydrolysis. This compound contains an acetal/aminal-like group ( X-CH(R)-Y where X, Y are N, S, or O) that may be acid/base labile, releasing an aldehyde.

>  <s_epik_cmdline>  (1) 
J2VwaWtfcHl0aG9uJywgJy1waHQnLCAnMS4wJywgJy1waCcsICc3LjQnLCAnLXRuJywgJzgnLCAnLW1hJywgJzUwMCcsICctaW1hZScsICc8aW5maWxlLm1hZT4nLCAnLW9tYWUnLCAnPG91dGZpbGUubWFlPic=

>  <s_epik_input>  (1) 
W09IXVtDSDJdW0NAQEhdKFtDSDNdKUMoPVtDSDJdKVtOSF1bQ0BASF0oU1tDQEBdMShbQ0gzXSlbQ0gyXVtDSDNdKVtDSDJdW0NASF0xW05IXUMoPU8pW05IXVtDSDJdW0NIMl1bQ0gyXUMoPU8pW09IXQ==

>  <s_glide_docking_method>  (1) 
confgen

>  <s_i_glide_gridfile>  (1) 
gpcr_5ht2c_6bqh_protein_autoprepared_prepared

>  <s_lp_Force_Field>  (1) 
S-OPLS

>  <s_lp_Variant>  (1) 
DiffSBDD_20_num_sample_100-4

>  <s_m_source_file>  (1) 
generated__ligand_DiffSBDD_2026-05-06_prepared.sdf

>  <GenAI_Model>  (1) 
DiffSBDD

>  <Protein>  (1) 
GPCR_5HT2C

$$$$
DiffSBDD_80_num_sample_100
     RDKit          3D

  0  0  0  0  0  0  0  0  0  0999 V3000
M  V30 BEGIN CTAB
M  V30 COUNTS 73 76 0 0 1
M  V30 BEGIN ATOM
M  V30 1 C 36.732518 33.662082 60.964821 0
M  V30 2 C 37.484181 30.528639 57.948015 0
M  V30 3 N 38.286567 29.296322 57.787380 0 CFG=1 CHG=1
M  V30 4 O 39.233436 32.382484 61.467590 0
M  V30 5 O 38.267437 32.851504 56.306494 0
M  V30 6 O 35.507126 34.021409 60.364247 0
M  V30 7 C 40.447643 27.351172 57.751910 0 CFG=2
M  V30 8 C 39.983366 28.067262 56.452161 0 CFG=1
M  V30 9 C 41.453898 29.087576 62.869304 0
M  V30 10 C 40.696670 33.823822 62.574435 0
M  V30 11 O 40.885090 32.354333 65.426283 0
M  V30 12 C 41.068991 31.293026 64.584945 0
M  V30 13 O 38.861028 24.421367 57.187098 0
M  V30 14 C 40.778891 30.231309 62.400477 0
M  V30 15 C 39.442714 25.796203 55.312366 0
M  V30 16 C 41.744566 30.146679 65.047141 0
M  V30 17 O 40.559404 35.661937 61.053316 0
M  V30 18 C 39.336351 27.296795 58.812080 0
M  V30 19 O 42.589765 27.935247 64.639744 0
M  V30 20 C 39.039129 27.239738 55.550311 0
M  V30 21 C 41.936372 29.044990 64.190067 0
M  V30 22 C 39.278003 33.584505 60.693272 0 CFG=1
M  V30 23 C 38.299797 31.693391 58.488335 0 CFG=2
M  V30 24 C 37.914510 33.864081 59.991216 0 CFG=1
M  V30 25 C 39.432295 29.453116 56.855048 0
M  V30 26 C 39.800929 34.648827 61.670860 0 CFG=1
M  V30 27 C 38.519478 24.869301 56.096842 0
M  V30 28 C 37.693616 33.068713 58.691403 0 CFG=1
M  V30 29 C 37.922665 27.755975 54.993539 0
M  V30 30 C 42.799223 27.563271 58.077166 0
M  V30 31 C 38.754448 32.862386 57.633973 0 CFG=2
M  V30 32 C 39.845459 32.572068 62.744208 0 CFG=2
M  V30 33 C 40.583063 31.338576 63.254372 0
M  V30 34 C 38.712614 28.673156 59.065306 0
M  V30 35 O 41.512684 28.109935 58.311620 0
M  V30 36 H 36.667802 32.624728 61.293330 0
M  V30 37 H 36.861421 34.277001 61.853549 0
M  V30 38 H 36.640405 30.341319 58.613482 0
M  V30 39 H 37.067439 30.765150 56.972591 0
M  V30 40 H 37.314617 32.821513 56.317383 0
M  V30 41 H 34.813606 33.962355 61.004322 0
M  V30 42 H 40.787150 26.332851 57.562359 0
M  V30 43 H 40.877353 28.233266 55.852839 0
M  V30 44 H 41.602670 28.241272 62.213583 0
M  V30 45 H 42.861917 27.998450 65.542003 0
M  V30 46 H 40.935799 34.323899 63.513457 0
M  V30 47 H 41.632910 33.574589 62.070890 0
M  V30 48 H 40.404905 33.072807 65.047369 0
M  V30 49 H 40.410678 30.258674 61.387213 0
M  V30 50 H 39.322975 25.572529 54.253776 0
M  V30 51 H 40.490296 25.619741 55.555166 0
M  V30 52 H 42.114209 30.113165 66.061275 0
M  V30 53 H 41.330119 35.281938 60.661624 0
M  V30 54 H 39.766794 26.918336 59.737073 0
M  V30 55 H 38.555820 26.597787 58.517101 0
M  V30 56 H 40.053851 33.432285 59.947649 0
M  V30 57 H 39.003789 31.388795 59.252627 0
M  V30 58 H 37.917613 34.913199 59.693994 0
M  V30 59 H 39.159255 30.038268 55.976531 0
M  V30 60 H 40.212584 30.030759 57.349547 0
M  V30 61 H 38.988551 35.095085 62.244945 0
M  V30 62 H 37.562011 24.647640 55.626225 0
M  V30 63 H 36.698221 33.221132 58.276150 0
M  V30 64 H 37.286948 27.147623 54.365271 0
M  V30 65 H 37.630714 28.780934 55.152957 0
M  V30 66 H 43.557637 28.322503 58.253466 0
M  V30 67 H 42.990213 26.720275 58.741383 0
M  V30 68 H 42.919380 27.223353 57.053437 0
M  V30 69 H 39.772854 33.221334 57.739717 0
M  V30 70 H 39.059827 32.811201 63.453503 0
M  V30 71 H 39.449786 29.298035 59.565998 0
M  V30 72 H 37.867522 28.582208 59.745766 0
M  V30 73 H 37.661822 28.634603 57.348799 0
M  V30 END ATOM
M  V30 BEGIN BOND
M  V30 1 1 3 2
M  V30 2 1 6 1
M  V30 3 1 8 7
M  V30 4 1 12 11
M  V30 5 2 14 9
M  V30 6 1 16 12
M  V30 7 1 18 7
M  V30 8 1 20 8
M  V30 9 1 20 15
M  V30 10 1 21 9
M  V30 11 2 21 16
M  V30 12 1 21 19
M  V30 13 1 22 4
M  V30 14 1 23 2
M  V30 15 1 24 1
M  V30 16 1 24 22
M  V30 17 1 25 3
M  V30 18 1 25 8
M  V30 19 1 26 10
M  V30 20 1 26 17
M  V30 21 1 26 22
M  V30 22 2 27 13
M  V30 23 1 27 15
M  V30 24 1 28 23
M  V30 25 1 28 24
M  V30 26 2 29 20
M  V30 27 1 31 5
M  V30 28 1 31 23
M  V30 29 1 31 28
M  V30 30 1 32 4
M  V30 31 1 32 10
M  V30 32 2 33 12
M  V30 33 1 33 14
M  V30 34 1 33 32
M  V30 35 1 34 3
M  V30 36 1 34 18
M  V30 37 1 35 7
M  V30 38 1 35 30
M  V30 39 1 36 1
M  V30 40 1 37 1
M  V30 41 1 38 2
M  V30 42 1 39 2
M  V30 43 1 40 5
M  V30 44 1 41 6
M  V30 45 1 7 42 CFG=3
M  V30 46 1 8 43 CFG=3
M  V30 47 1 44 9
M  V30 48 1 45 19
M  V30 49 1 46 10
M  V30 50 1 47 10
M  V30 51 1 48 11
M  V30 52 1 49 14
M  V30 53 1 50 15
M  V30 54 1 51 15
M  V30 55 1 52 16
M  V30 56 1 53 17
M  V30 57 1 54 18
M  V30 58 1 55 18
M  V30 59 1 22 56 CFG=3
M  V30 60 1 23 57 CFG=1
M  V30 61 1 24 58 CFG=3
M  V30 62 1 59 25
M  V30 63 1 60 25
M  V30 64 1 26 61 CFG=1
M  V30 65 1 62 27
M  V30 66 1 28 63 CFG=3
M  V30 67 1 64 29
M  V30 68 1 65 29
M  V30 69 1 66 30
M  V30 70 1 67 30
M  V30 71 1 68 30
M  V30 72 1 31 69 CFG=3
M  V30 73 1 32 70 CFG=1
M  V30 74 1 71 34
M  V30 75 1 72 34
M  V30 76 1 3 73 CFG=3
M  V30 END BOND
M  V30 END CTAB
M  END
>  <i_epik_Tot_Q>  (1) 
1

>  <i_epik_Tot_abs_Q>  (1) 
1

>  <i_i_glide_confnum>  (1) 
1581

>  <i_i_glide_lignum>  (1) 
212

>  <i_i_glide_posenum>  (1) 
380

>  <i_i_glide_rotatable_bonds>  (1) 
15

>  <i_lp_mmshare_version>  (1) 
72125

>  <i_m_source_file_index>  (1) 
81

>  <i_f3d_flags>  (1) 
0

>  <num_sample>  (1) 
100

>  <b_lp_Chiralities_Consistent>  (1) 
1

>  <r_epik_Charging_Adjusted_Penalty>  (1) 
0.034071705691259377

>  <r_epik_Ionization_Penalty>  (1) 
0.043305258844254187

>  <r_epik_Ionization_Penalty_Charging>  (1) 
0.034071705691259377

>  <r_epik_Ionization_Penalty_Neutral>  (1) 
0.009233553152994808

>  <r_epik_State_Penalty>  (1) 
-0

>  <r_glide_ring_energy>  (1) 
0

>  <r_i_docking_score>  (1) 
-6.1700616552442273

>  <r_i_glide_ecoul>  (1) 
-2.2923910716988578

>  <r_i_glide_eff_state_penalty>  (1) 
-0

>  <r_i_glide_einternal>  (1) 
14.086064763723449

>  <r_i_glide_emodel>  (1) 
-58.124024365692939

>  <r_i_glide_emodel_strain>  (1) 
0.75499323954667119

>  <r_i_glide_energy>  (1) 
-46.739241724845776

>  <r_i_glide_erotb>  (1) 
0.67144220787932085

>  <r_i_glide_esite>  (1) 
-0.013879518357188049

>  <r_i_glide_evdw>  (1) 
-44.446850653146917

>  <r_i_glide_gscore>  (1) 
-6.1700616552442273

>  <r_i_glide_gscore_strain>  (1) 
0

>  <r_i_glide_hbond>  (1) 
-0.11752582001411424

>  <r_i_glide_ligand_efficiency>  (1) 
-0.17628747586412077

>  <r_i_glide_ligand_efficiency_ln>  (1) 
-1.3544654704665682

>  <r_i_glide_ligand_efficiency_sa>  (1) 
-0.57664802320730968

>  <r_i_glide_lipo>  (1) 
-3.1833393734178204

>  <r_i_glide_metal>  (1) 
-0

>  <r_i_glide_rewards>  (1) 
-0.96055795792225052

>  <r_lp_Energy>  (1) 
34.886631000000001

>  <r_lp_tautomer_probability>  (1) 
1

>  <s_epik_cmdline>  (1) 
J2VwaWtfcHl0aG9uJywgJy1waHQnLCAnMS4wJywgJy1waCcsICc3LjQnLCAnLXRuJywgJzgnLCAnLW1hJywgJzUwMCcsICctaW1hZScsICc8aW5maWxlLm1hZT4nLCAnLW9tYWUnLCAnPG91dGZpbGUubWFlPic=

>  <s_epik_input>  (1) 
Tz1bQ0hdW0NIMl1DKD1bQ0gyXSlbQ0BASF0oW0NASF0oW0NIMl1bQ0gyXTEpT1tDSDNdKVtDSDJdTjFbQ0gyXVtDQEBIXTJbQ0BASF0oW0NAQEhdMltPSF0pW0NAQEhdKFtDSDJdW09IXSlbQ0BASF0zT1tDQEhdKFtDSDJdW0NASF0zW09IXSlDND1bQ0hdW0NIMl1DKD1PKVtDSF09QzRbT0hd

>  <s_glide_docking_method>  (1) 
confgen

>  <s_i_glide_gridfile>  (1) 
gpcr_5ht2c_6bqh_protein_autoprepared_prepared

>  <s_lp_Force_Field>  (1) 
S-OPLS

>  <s_lp_Variant>  (1) 
DiffSBDD_80_num_sample_100-8

>  <s_m_source_file>  (1) 
generated__ligand_DiffSBDD_2026-05-06_prepared.sdf

>  <GenAI_Model>  (1) 
DiffSBDD

>  <Protein>  (1) 
GPCR_5HT2C

$$$$
DiffSBDD_1_num_sample_100
     RDKit          3D

  0  0  0  0  0  0  0  0  0  0999 V3000
M  V30 BEGIN CTAB
M  V30 COUNTS 63 66 0 0 1
M  V30 BEGIN ATOM
M  V30 1 C 38.002998 25.664374 56.431930 0
M  V30 2 C 38.881434 33.455978 60.795282 0
M  V30 3 O 37.067405 23.647419 56.686173 0
M  V30 4 C 37.497012 32.305696 58.993643 0 CFG=1
M  V30 5 C 38.649720 26.909312 56.899358 0
M  V30 6 C 37.702413 29.871743 58.483004 0
M  V30 7 C 41.324900 31.336351 61.897390 0
M  V30 8 C 38.774647 35.576126 61.789425 0
M  V30 9 N 39.616491 34.673062 62.610375 0 CHG=1
M  V30 10 C 39.415617 31.750479 55.697800 0
M  V30 11 C 38.985901 27.976636 55.849186 0
M  V30 12 C 40.264513 32.209607 62.591123 0 CFG=2
M  V30 13 C 40.033560 33.518434 61.781733 0 CFG=1
M  V30 14 C 38.176423 30.196135 57.041455 0 CFG=2
M  V30 15 C 39.812138 30.326786 55.263890 0
M  V30 16 C 37.652047 24.719334 57.240851 0
M  V30 17 N 36.879764 30.966798 59.053501 0
M  V30 18 C 38.659318 32.401651 59.978362 0
M  V30 19 O 38.924921 27.114312 58.082263 0
M  V30 20 C 40.683592 32.424670 64.059201 0
M  V30 21 C 37.031336 24.042164 55.255894 0
M  V30 22 C 37.915022 32.650239 57.540972 0
M  V30 23 C 37.999976 34.673009 60.825408 0
M  V30 24 N 38.744897 31.559725 56.991682 0 CFG=2 CHG=1
M  V30 25 O 37.093193 30.209693 56.116803 0
M  V30 26 C 37.736205 25.465423 55.005225 0
M  V30 27 C 39.326023 29.382122 56.396177 0 CFG=2
M  V30 28 O 41.067403 29.967913 62.121615 0
M  V30 29 H 36.743286 33.034309 59.290629 0
M  V30 30 H 38.566567 29.683656 59.119798 0
M  V30 31 H 37.124920 28.946971 58.483573 0
M  V30 32 H 42.323920 31.593468 62.253494 0
M  V30 33 H 41.340540 31.495183 60.820714 0
M  V30 34 H 39.430058 36.242782 61.227477 0
M  V30 35 H 38.120929 36.193168 62.406737 0
M  V30 36 H 39.042753 34.317771 63.361751 0
M  V30 37 H 40.268998 32.411987 55.829912 0
M  V30 38 H 38.735604 32.202844 54.973732 0
M  V30 39 H 38.155390 28.063752 55.149738 0
M  V30 40 H 39.834334 27.604126 55.274615 0
M  V30 41 H 39.318892 31.663563 62.615853 0
M  V30 42 H 40.938213 33.823115 61.253941 0
M  V30 43 H 40.877221 30.229701 55.053501 0
M  V30 44 H 39.294302 30.091892 54.332480 0
M  V30 45 H 37.760748 24.674719 58.314828 0
M  V30 46 H 36.026034 31.034800 58.489310 0
M  V30 47 H 39.326906 31.557154 60.011012 0
M  V30 48 H 41.537739 33.097752 64.143686 0
M  V30 49 H 39.867421 32.821425 64.658964 0
M  V30 50 H 40.964892 31.480162 64.527061 0
M  V30 51 H 37.501655 23.265165 54.653657 0
M  V30 52 H 35.987482 24.082679 54.942661 0
M  V30 53 H 37.067426 32.853660 56.894835 0
M  V30 54 H 38.498219 33.571862 57.539617 0
M  V30 55 H 37.865019 35.127788 59.843429 0
M  V30 56 H 37.024902 34.409234 61.237676 0
M  V30 57 H 36.390179 30.776190 56.454776 0
M  V30 58 H 37.067404 26.210858 54.578681 0
M  V30 59 H 38.658948 25.388615 54.430340 0
M  V30 60 H 40.134432 29.290726 57.124144 0
M  V30 61 H 41.028695 29.800185 63.053394 0
M  V30 62 H 40.411409 35.158725 63.002762 0
M  V30 63 H 39.507454 31.497215 57.646890 0
M  V30 END ATOM
M  V30 BEGIN BOND
M  V30 1 1 5 1
M  V30 2 1 9 8
M  V30 3 1 11 5
M  V30 4 1 12 7
M  V30 5 1 13 2
M  V30 6 1 13 9
M  V30 7 1 13 12
M  V30 8 1 14 6
M  V30 9 1 15 10
M  V30 10 2 16 1
M  V30 11 1 16 3
M  V30 12 1 17 4
M  V30 13 1 17 6
M  V30 14 2 18 2
M  V30 15 1 18 4
M  V30 16 2 19 5
M  V30 17 1 20 12
M  V30 18 1 21 3
M  V30 19 1 22 4
M  V30 20 1 23 2
M  V30 21 1 23 8
M  V30 22 1 24 10
M  V30 23 1 24 14
M  V30 24 1 24 22
M  V30 25 1 14 25 CFG=3
M  V30 26 1 26 1
M  V30 27 1 26 21
M  V30 28 1 27 11
M  V30 29 1 27 14
M  V30 30 1 27 15
M  V30 31 1 28 7
M  V30 32 1 4 29 CFG=1
M  V30 33 1 30 6
M  V30 34 1 31 6
M  V30 35 1 32 7
M  V30 36 1 33 7
M  V30 37 1 34 8
M  V30 38 1 35 8
M  V30 39 1 36 9
M  V30 40 1 37 10
M  V30 41 1 38 10
M  V30 42 1 39 11
M  V30 43 1 40 11
M  V30 44 1 12 41 CFG=1
M  V30 45 1 13 42 CFG=3
M  V30 46 1 43 15
M  V30 47 1 44 15
M  V30 48 1 45 16
M  V30 49 1 46 17
M  V30 50 1 47 18
M  V30 51 1 48 20
M  V30 52 1 49 20
M  V30 53 1 50 20
M  V30 54 1 51 21
M  V30 55 1 52 21
M  V30 56 1 53 22
M  V30 57 1 54 22
M  V30 58 1 55 23
M  V30 59 1 56 23
M  V30 60 1 57 25
M  V30 61 1 58 26
M  V30 62 1 59 26
M  V30 63 1 27 60 CFG=1
M  V30 64 1 61 28
M  V30 65 1 62 9
M  V30 66 1 24 63 CFG=1
M  V30 END BOND
M  V30 END CTAB
M  END
>  <i_epik_Tot_Q>  (1) 
2

>  <i_epik_Tot_abs_Q>  (1) 
2

>  <i_i_glide_confnum>  (1) 
251

>  <i_i_glide_lignum>  (1) 
11

>  <i_i_glide_posenum>  (1) 
217

>  <i_i_glide_rotatable_bonds>  (1) 
8

>  <i_lp_mmshare_version>  (1) 
72125

>  <i_m_source_file_index>  (1) 
2

>  <i_f3d_flags>  (1) 
0

>  <num_sample>  (1) 
100

>  <b_lp_Chiralities_Consistent>  (1) 
1

>  <r_epik_Charging_Adjusted_Penalty>  (1) 
2.3622130296898831

>  <r_epik_Ionization_Penalty>  (1) 
1.4312966064593899

>  <r_epik_Ionization_Penalty_Charging>  (1) 
1.1852885594971458

>  <r_epik_Ionization_Penalty_Neutral>  (1) 
0.24600804696224418

>  <r_epik_State_Penalty>  (1) 
1.176924470192737

>  <r_glide_ring_energy>  (1) 
0

>  <r_i_docking_score>  (1) 
-6.1686880549486078

>  <r_i_glide_ecoul>  (1) 
-11.454642497985493

>  <r_i_glide_eff_state_penalty>  (1) 
1.176924470192737

>  <r_i_glide_einternal>  (1) 
6.5149871590714827

>  <r_i_glide_emodel>  (1) 
-55.93539391804773

>  <r_i_glide_emodel_strain>  (1) 
0.45790045729906126

>  <r_i_glide_energy>  (1) 
-38.260586740050144

>  <r_i_glide_erotb>  (1) 
0.75687532201182384

>  <r_i_glide_esite>  (1) 
-0.12029972418557842

>  <r_i_glide_evdw>  (1) 
-26.805944242064651

>  <r_i_glide_gscore>  (1) 
-7.3456125251413447

>  <r_i_glide_gscore_strain>  (1) 
0

>  <r_i_glide_hbond>  (1) 
-0.56047398967666051

>  <r_i_glide_ligand_efficiency>  (1) 
-0.22031028767673599

>  <r_i_glide_ligand_efficiency_ln>  (1) 
-1.4239143236336116

>  <r_i_glide_ligand_efficiency_sa>  (1) 
-0.66899178994993125

>  <r_i_glide_lipo>  (1) 
-2.8470755310323868

>  <r_i_glide_metal>  (1) 
-0

>  <r_i_glide_rewards>  (1) 
-1.5161450154574876

>  <r_lp_Energy>  (1) 
17.137563

>  <s_epik_cmdline>  (1) 
J2VwaWtfcHl0aG9uJywgJy1waHQnLCAnMS4wJywgJy1waCcsICc3LjQnLCAnLXRuJywgJzgnLCAnLW1hJywgJzUwMCcsICctaW1hZScsICc8aW5maWxlLm1hZT4nLCAnLW9tYWUnLCAnPG91dGZpbGUubWFlPic=

>  <s_epik_input>  (1) 
W0NIMl0xW0NIMl1PW0NIXT1DMUMoPU8pW0NIMl1bQ0BIXTJbQ0gyXVtDSDJdTihbQ0BAXTIzW09IXSlbQ0gyXVtDQEBIXShbTkhdW0NIMl0zKVxbQ0hdPUM0XFtDQEBIXShbTkhdW0NIMl1bQ0gyXTQpW0NASF0oW0NIM10pW0NIMl1bT0hd

>  <s_glide_docking_method>  (1) 
confgen

>  <s_i_glide_gridfile>  (1) 
gpcr_5ht2c_6bqh_protein_autoprepared_prepared

>  <s_lp_Force_Field>  (1) 
S-OPLS

>  <s_lp_Variant>  (1) 
DiffSBDD_1_num_sample_100-5

>  <s_m_source_file>  (1) 
generated__ligand_DiffSBDD_2026-05-06_prepared.sdf

>  <GenAI_Model>  (1) 
DiffSBDD

>  <Protein>  (1) 
GPCR_5HT2C

$$$$
DiffSBDD_79_num_sample_100
     RDKit          3D

  0  0  0  0  0  0  0  0  0  0999 V3000
M  V30 BEGIN CTAB
M  V30 COUNTS 84 86 0 0 1
M  V30 BEGIN ATOM
M  V30 1 C 37.665655 33.633422 59.331610 0
M  V30 2 C 39.199695 32.155102 62.276693 0
M  V30 3 C 37.904786 26.000576 55.456732 0
M  V30 4 C 43.409982 32.429380 68.555495 0
M  V30 5 C 38.294914 31.946306 57.703699 0
M  V30 6 C 38.664148 27.302855 53.482495 0
M  V30 7 C 37.662307 32.123840 59.085882 0
M  V30 8 C 39.843468 27.806689 59.083541 0
M  V30 9 F 38.904892 28.610287 53.573750 0
M  V30 10 C 42.122066 33.268329 68.650557 0
M  V30 11 C 37.861931 31.653268 61.720629 0
M  V30 12 C 40.524027 26.885444 56.778240 0
M  V30 13 F 39.488561 26.821298 52.559497 0
M  V30 14 C 38.906781 26.647623 54.839679 0
M  V30 15 C 38.416869 26.212323 57.835539 0
M  V30 16 C 40.526336 31.386312 64.180107 0
M  V30 17 C 44.957695 31.462919 66.866820 0
M  V30 18 N 43.698978 31.815416 67.237018 0
M  V30 19 C 36.506860 31.225612 59.536146 0
M  V30 20 C 39.557410 26.920231 57.878854 0
M  V30 21 C 42.566310 31.557540 66.340790 0
M  V30 22 C 40.407544 30.065119 62.070990 0 CFG=2
M  V30 23 C 37.881009 31.153480 60.267786 0
M  V30 24 C 35.957504 30.034187 58.741135 0
M  V30 25 O 39.405334 29.442572 61.337518 0
M  V30 26 O 45.210472 30.942303 65.781377 0
M  V30 27 C 41.196763 28.906252 62.699759 0
M  V30 28 C 35.281778 31.867801 60.202611 0
M  V30 29 C 46.083918 31.736687 67.853500 0
M  V30 30 N 39.813660 31.029933 62.959519 0
M  V30 31 F 37.415892 27.156906 53.053574 0
M  V30 32 C 40.238377 26.761190 55.449024 0
M  V30 33 C 42.353299 32.695161 65.317958 0
M  V30 34 C 38.036307 25.280053 56.746600 0
M  V30 35 C 41.817746 32.189597 63.970460 0
M  V30 36 C 38.701019 28.823424 59.262992 0
M  V30 37 C 39.006636 30.062325 60.114452 0 CFG=1
M  V30 38 H 37.025467 34.133765 58.604059 0
M  V30 39 H 37.325247 33.922401 60.321028 0
M  V30 40 H 38.677455 34.021363 59.222298 0
M  V30 41 H 39.004615 32.953380 62.993855 0
M  V30 42 H 39.845909 32.572916 61.502794 0
M  V30 43 H 36.937425 25.946340 54.983654 0
M  V30 44 H 43.380758 31.639705 69.306241 0
M  V30 45 H 44.212309 33.104409 68.850446 0
M  V30 46 H 37.710694 32.485600 56.956880 0
M  V30 47 H 39.306542 32.351413 57.691610 0
M  V30 48 H 38.352371 30.921013 57.368397 0
M  V30 49 H 39.983954 27.221449 59.988513 0
M  V30 50 H 40.779780 28.339578 58.915343 0
M  V30 51 H 42.072788 33.769101 69.616738 0
M  V30 52 H 42.099848 34.047244 67.890894 0
M  V30 53 H 41.216869 32.668040 68.561332 0
M  V30 54 H 37.467509 30.847091 62.333244 0
M  V30 55 H 37.152231 32.460726 61.859664 0
M  V30 56 H 41.561247 27.043245 57.035854 0
M  V30 57 H 37.728467 26.278956 58.653503 0
M  V30 58 H 39.867379 31.965966 64.822401 0
M  V30 59 H 40.727628 30.472160 64.736874 0
M  V30 60 H 41.649374 31.349660 66.890100 0
M  V30 61 H 42.757204 30.622588 65.809933 0
M  V30 62 H 41.078442 30.591022 61.393489 0
M  V30 63 H 34.944390 30.217877 58.386887 0
M  V30 64 H 36.525396 29.811701 57.844692 0
M  V30 65 H 35.882392 29.167169 59.385726 0
M  V30 66 H 42.078280 29.271901 63.226123 0
M  V30 67 H 40.561612 28.357206 63.395569 0
M  V30 68 H 41.528023 28.223738 61.916171 0
M  V30 69 H 34.483441 32.025656 59.475864 0
M  V30 70 H 34.911735 31.221866 60.998826 0
M  V30 71 H 35.477305 32.847610 60.627803 0
M  V30 72 H 45.850769 31.403551 68.864111 0
M  V30 73 H 46.989752 31.221460 67.531228 0
M  V30 74 H 46.267400 32.808328 67.853476 0
M  V30 75 H 41.067374 26.821379 54.772358 0
M  V30 76 H 43.269450 33.260304 65.160042 0
M  V30 77 H 41.646249 33.416149 65.726375 0
M  V30 78 H 38.778073 24.484499 56.661754 0
M  V30 79 H 37.086130 24.805288 56.992546 0
M  V30 80 H 42.574816 31.579570 63.476654 0
M  V30 81 H 41.639283 33.045325 63.317980 0
M  V30 82 H 38.413058 29.106626 58.263376 0
M  V30 83 H 37.867607 28.311231 59.717669 0
M  V30 84 H 39.867405 30.541807 59.659209 0
M  V30 END ATOM
M  V30 BEGIN BOND
M  V30 1 1 7 1
M  V30 2 1 7 5
M  V30 3 1 9 6
M  V30 4 1 10 4
M  V30 5 1 11 2
M  V30 6 1 13 6
M  V30 7 2 14 3
M  V30 8 1 14 6
M  V30 9 1 18 4
M  V30 10 1 18 17
M  V30 11 1 19 7
M  V30 12 1 20 8
M  V30 13 1 20 12
M  V30 14 2 20 15
M  V30 15 1 21 18
M  V30 16 1 23 7
M  V30 17 1 23 11
M  V30 18 1 23 19
M  V30 19 1 24 19
M  V30 20 1 25 22
M  V30 21 2 26 17
M  V30 22 1 27 22
M  V30 23 1 28 19
M  V30 24 1 29 17
M  V30 25 1 30 2
M  V30 26 1 30 16
M  V30 27 1 30 22
M  V30 28 1 31 6
M  V30 29 2 32 12
M  V30 30 1 32 14
M  V30 31 1 33 21
M  V30 32 1 34 3
M  V30 33 1 34 15
M  V30 34 1 35 16
M  V30 35 1 35 33
M  V30 36 1 36 8
M  V30 37 1 37 23
M  V30 38 1 37 25
M  V30 39 1 37 36
M  V30 40 1 38 1
M  V30 41 1 39 1
M  V30 42 1 40 1
M  V30 43 1 41 2
M  V30 44 1 42 2
M  V30 45 1 43 3
M  V30 46 1 44 4
M  V30 47 1 45 4
M  V30 48 1 46 5
M  V30 49 1 47 5
M  V30 50 1 48 5
M  V30 51 1 49 8
M  V30 52 1 50 8
M  V30 53 1 51 10
M  V30 54 1 52 10
M  V30 55 1 53 10
M  V30 56 1 54 11
M  V30 57 1 55 11
M  V30 58 1 56 12
M  V30 59 1 57 15
M  V30 60 1 58 16
M  V30 61 1 59 16
M  V30 62 1 60 21
M  V30 63 1 61 21
M  V30 64 1 22 62 CFG=3
M  V30 65 1 63 24
M  V30 66 1 64 24
M  V30 67 1 65 24
M  V30 68 1 66 27
M  V30 69 1 67 27
M  V30 70 1 68 27
M  V30 71 1 69 28
M  V30 72 1 70 28
M  V30 73 1 71 28
M  V30 74 1 72 29
M  V30 75 1 73 29
M  V30 76 1 74 29
M  V30 77 1 75 32
M  V30 78 1 76 33
M  V30 79 1 77 33
M  V30 80 1 78 34
M  V30 81 1 79 34
M  V30 82 1 80 35
M  V30 83 1 81 35
M  V30 84 1 82 36
M  V30 85 1 83 36
M  V30 86 1 37 84 CFG=3
M  V30 END BOND
M  V30 END CTAB
M  END
>  <i_epik_Tot_Q>  (1) 
0

>  <i_epik_Tot_abs_Q>  (1) 
0

>  <i_i_glide_confnum>  (1) 
580

>  <i_i_glide_lignum>  (1) 
199

>  <i_i_glide_posenum>  (1) 
77

>  <i_i_glide_rotatable_bonds>  (1) 
11

>  <i_lp_mmshare_version>  (1) 
72125

>  <i_m_source_file_index>  (1) 
80

>  <i_f3d_flags>  (1) 
0

>  <num_sample>  (1) 
100

>  <b_lp_Chiralities_Consistent>  (1) 
1

>  <r_epik_Charging_Adjusted_Penalty>  (1) 
0.2050768058510691

>  <r_epik_Ionization_Penalty>  (1) 
0.20507783400789523

>  <r_epik_Ionization_Penalty_Charging>  (1) 
0

>  <r_epik_Ionization_Penalty_Neutral>  (1) 
0.20507783400789523

>  <r_epik_State_Penalty>  (1) 
0.2050768058510691

>  <r_glide_ring_energy>  (1) 
0

>  <r_i_docking_score>  (1) 
-6.1600436748791196

>  <r_i_glide_ecoul>  (1) 
2.8980501574258422

>  <r_i_glide_eff_state_penalty>  (1) 
0.2050768058510691

>  <r_i_glide_einternal>  (1) 
42.951083241660967

>  <r_i_glide_emodel>  (1) 
-31.619457734720029

>  <r_i_glide_emodel_strain>  (1) 
7.2433644304667553

>  <r_i_glide_energy>  (1) 
-43.390087779543677

>  <r_i_glide_erotb>  (1) 
0.59792730839384334

>  <r_i_glide_esite>  (1) 
-0.019486069052808724

>  <r_i_glide_evdw>  (1) 
-46.28813793696952

>  <r_i_glide_gscore>  (1) 
-6.3651204807301891

>  <r_i_glide_gscore_strain>  (1) 
0.81084110761668882

>  <r_i_glide_hbond>  (1) 
0

>  <r_i_glide_ligand_efficiency>  (1) 
-0.16648766688862485

>  <r_i_glide_ligand_efficiency_ln>  (1) 
-1.3359690611682389

>  <r_i_glide_ligand_efficiency_sa>  (1) 
-0.55477384163582821

>  <r_i_glide_lipo>  (1) 
-4.1613615357053906

>  <r_i_glide_metal>  (1) 
-0

>  <r_i_glide_rewards>  (1) 
-1.7133419187479231

>  <r_lp_Energy>  (1) 
55.785767999999997

>  <s_epik_Chemistry_Notes>  (1) 
This compound contains an acetal/aminal-like group ( X-CH(R)-Y where X, Y are N, S, or O) that may be acid/base labile, releasing an aldehyde.

>  <s_epik_cmdline>  (1) 
J2VwaWtfcHl0aG9uJywgJy1waHQnLCAnMS4wJywgJy1waCcsICc3LjQnLCAnLXRuJywgJzgnLCAnLW1hJywgJzUwMCcsICctaW1hZScsICc8aW5maWxlLm1hZT4nLCAnLW9tYWUnLCAnPG91dGZpbGUubWFlPic=

>  <s_epik_input>  (1) 
W0NIM11bQ0gyXU4oQyg9TylbQ0gzXSlbQ0gyXVtDSDJdW0NIMl1bQ0gyXU4oW0NIMl1bQ0gyXUMxMkMoW0NIM10pKFtDSDNdKUMxKFtDSDNdKVtDSDNdKVtDQEBIXShbQ0gzXSlPW0NASF0yW0NIMl1bQ0gyXUMoW0NIXT1bQ0hdMyk9W0NIXVtDSDJdW0NIXT1DM0MoRikoRilG

>  <s_glide_docking_method>  (1) 
confgen

>  <s_i_glide_gridfile>  (1) 
gpcr_5ht2c_6bqh_protein_autoprepared_prepared

>  <s_lp_Force_Field>  (1) 
S-OPLS

>  <s_lp_Variant>  (1) 
DiffSBDD_79_num_sample_100-1

>  <s_m_source_file>  (1) 
generated__ligand_DiffSBDD_2026-05-06_prepared.sdf

>  <GenAI_Model>  (1) 
DiffSBDD

>  <Protein>  (1) 
GPCR_5HT2C

$$$$
DiffSBDD_47_num_sample_100
     RDKit          3D

  0  0  0  0  0  0  0  0  0  0999 V3000
M  V30 BEGIN CTAB
M  V30 COUNTS 32 32 0 0 1
M  V30 BEGIN ATOM
M  V30 1 S 38.514912 26.604426 55.069248 0
M  V30 2 C 39.695662 30.141311 52.536582 0
M  V30 3 N 38.437268 28.887025 56.547860 0
M  V30 4 C 38.857721 29.360516 58.903550 0
M  V30 5 C 37.978050 29.120330 54.161256 0
M  V30 6 O 39.781070 31.221124 50.024798 0 CHG=-1
M  V30 7 C 38.815774 28.395987 55.232837 0 CFG=2
M  V30 8 C 39.813810 28.666724 59.904682 0 CFG=2
M  V30 9 C 38.606545 29.074757 52.757127 0
M  V30 10 C 39.999273 29.394441 61.244106 0
M  V30 11 O 41.067407 29.370180 61.852449 0
M  V30 12 O 39.867484 28.641262 50.253480 0
M  V30 13 S 40.305186 30.005320 50.789858 0
M  V30 14 C 39.208496 28.784114 57.557605 0
M  V30 15 C 41.162210 28.395390 59.190979 0
M  V30 16 O 38.893845 30.021462 61.663892 0
M  V30 17 O 39.042551 30.575412 63.003432 0
M  V30 18 S 40.786563 27.947209 57.486389 0
M  V30 19 H 39.465985 26.230282 55.929625 0
M  V30 20 H 39.307819 31.147341 52.692509 0
M  V30 21 H 40.531269 30.021430 53.221885 0
M  V30 22 H 37.812035 29.161852 59.141679 0
M  V30 23 H 39.003768 30.441321 58.879034 0
M  V30 24 H 36.980596 28.682012 54.128165 0
M  V30 25 H 37.826201 30.164544 54.440211 0
M  V30 26 H 39.867371 28.598368 55.028433 0
M  V30 27 H 39.378113 27.695514 60.141983 0
M  V30 28 H 39.007508 28.079704 52.560661 0
M  V30 29 H 37.824125 29.221429 52.013853 0
M  V30 30 H 41.771568 29.298095 59.154650 0
M  V30 31 H 41.750247 27.621452 59.680915 0
M  V30 32 H 38.831171 29.814036 63.535084 0
M  V30 END ATOM
M  V30 BEGIN BOND
M  V30 1 1 7 1
M  V30 2 1 7 3
M  V30 3 1 7 5
M  V30 4 1 8 4
M  V30 5 1 9 2
M  V30 6 1 9 5
M  V30 7 1 10 8
M  V30 8 2 11 10
M  V30 9 1 13 2
M  V30 10 1 13 6
M  V30 11 2 13 12
M  V30 12 2 14 3
M  V30 13 1 14 4
M  V30 14 1 15 8
M  V30 15 1 16 10
M  V30 16 1 17 16
M  V30 17 1 18 14
M  V30 18 1 18 15
M  V30 19 1 19 1
M  V30 20 1 20 2
M  V30 21 1 21 2
M  V30 22 1 22 4
M  V30 23 1 23 4
M  V30 24 1 24 5
M  V30 25 1 25 5
M  V30 26 1 7 26 CFG=3
M  V30 27 1 8 27 CFG=1
M  V30 28 1 28 9
M  V30 29 1 29 9
M  V30 30 1 30 15
M  V30 31 1 31 15
M  V30 32 1 32 17
M  V30 END BOND
M  V30 END CTAB
M  END
>  <i_epik_Tot_Q>  (1) 
-1

>  <i_epik_Tot_abs_Q>  (1) 
1

>  <i_i_glide_confnum>  (1) 
43

>  <i_i_glide_lignum>  (1) 
129

>  <i_i_glide_posenum>  (1) 
366

>  <i_i_glide_rotatable_bonds>  (1) 
9

>  <i_lp_mmshare_version>  (1) 
72125

>  <i_m_source_file_index>  (1) 
48

>  <i_f3d_flags>  (1) 
0

>  <num_sample>  (1) 
100

>  <b_lp_Chiralities_Consistent>  (1) 
1

>  <r_epik_Charging_Adjusted_Penalty>  (1) 
0.41068401557064588

>  <r_epik_Ionization_Penalty>  (1) 
0.088233061061265911

>  <r_epik_Ionization_Penalty_Charging>  (1) 
4.1766180419441644e-06

>  <r_epik_Ionization_Penalty_Neutral>  (1) 
0.088228884443223965

>  <r_epik_State_Penalty>  (1) 
0.41067983895260396

>  <r_glide_ring_energy>  (1) 
0

>  <r_i_docking_score>  (1) 
-6.1587182079883442

>  <r_i_glide_ecoul>  (1) 
-4.7846084605515351

>  <r_i_glide_eff_state_penalty>  (1) 
0.41067983895260396

>  <r_i_glide_einternal>  (1) 
4.1783882763897644

>  <r_i_glide_emodel>  (1) 
-54.193480682801024

>  <r_i_glide_emodel_strain>  (1) 
0.20393433466200328

>  <r_i_glide_energy>  (1) 
-40.308142595414793

>  <r_i_glide_erotb>  (1) 
1.1409563005043168

>  <r_i_glide_esite>  (1) 
-0.0046360480783470721

>  <r_i_glide_evdw>  (1) 
-35.523534134863255

>  <r_i_glide_gscore>  (1) 
-6.5693980469409485

>  <r_i_glide_gscore_strain>  (1) 
0

>  <r_i_glide_hbond>  (1) 
-0.60799999999999998

>  <r_i_glide_ligand_efficiency>  (1) 
-0.34215101155490801

>  <r_i_glide_ligand_efficiency_ln>  (1) 
-1.5830667584629126

>  <r_i_glide_ligand_efficiency_sa>  (1) 
-0.89668931905239402

>  <r_i_glide_lipo>  (1) 
-1.8873662151344777

>  <r_i_glide_metal>  (1) 
-0

>  <r_i_glide_rewards>  (1) 
-2.7164841084065481

>  <r_lp_Energy>  (1) 
-2.9983

>  <r_lp_tautomer_probability>  (1) 
0.49990026989615577

>  <s_epik_Chemistry_Notes>  (1) 
This compound has an imine and may undergo hydrolysis. This compound contains an acetal/aminal-like group ( X-CH(R)-Y where X, Y are N, S, or O) that may be acid/base labile, releasing an aldehyde.

>  <s_epik_cmdline>  (1) 
J2VwaWtfcHl0aG9uJywgJy1waHQnLCAnMS4wJywgJy1waCcsICc3LjQnLCAnLXRuJywgJzgnLCAnLW1hJywgJzUwMCcsICctaW1hZScsICc8aW5maWxlLm1hZT4nLCAnLW9tYWUnLCAnPG91dGZpbGUubWFlPic=

>  <s_epik_input>  (1) 
W09IXVtTQEBdKD1PKVtDSDJdW0NIMl1bQ0gyXVtDQEhdKFtTSF0pL049QyhTW0NIMl0xKS9bQ0gyXVtDQEBIXTFDKD1PKU9bT0hd

>  <s_glide_docking_method>  (1) 
confgen

>  <s_i_glide_gridfile>  (1) 
gpcr_5ht2c_6bqh_protein_autoprepared_prepared

>  <s_lp_Force_Field>  (1) 
S-OPLS

>  <s_lp_Variant>  (1) 
DiffSBDD_47_num_sample_100-1

>  <s_m_source_file>  (1) 
generated__ligand_DiffSBDD_2026-05-06_prepared.sdf

>  <GenAI_Model>  (1) 
DiffSBDD

>  <Protein>  (1) 
GPCR_5HT2C

$$$$
DiffSBDD_44_num_sample_100
     RDKit          3D

  0  0  0  0  0  0  0  0  0  0999 V3000
M  V30 BEGIN CTAB
M  V30 COUNTS 58 59 0 0 1
M  V30 BEGIN ATOM
M  V30 1 C 39.502256 28.662037 50.223643 0
M  V30 2 O 37.067413 28.176597 53.452937 0 CHG=-1
M  V30 3 C 39.067277 29.960697 57.023321 0
M  V30 4 C 39.698553 29.758137 52.385660 0 CFG=1
M  V30 5 N 39.066682 28.423831 52.497334 0 CFG=2 CHG=1
M  V30 6 C 37.667386 28.647768 58.543506 0
M  V30 7 N 38.180210 26.548684 56.464179 0
M  V30 8 C 38.700100 28.779707 57.445293 0
M  V30 9 O 40.256887 26.861801 57.553922 0
M  V30 10 C 39.913771 29.980897 50.877827 0 CFG=1
M  V30 11 C 41.373092 30.309186 50.579118 0
M  V30 12 C 38.661806 26.563230 54.039945 0 CFG=1
M  V30 13 C 37.984694 26.048608 55.312610 0
M  V30 14 C 38.533891 28.021102 51.187805 0
M  V30 15 C 39.848082 26.057154 58.640360 0
M  V30 16 C 38.206861 32.062352 57.975836 0
M  V30 17 C 38.340748 28.054853 53.727325 0 CFG=2
M  V30 18 C 39.232392 27.497466 56.815036 0 CFG=1
M  V30 19 F 38.396040 31.008468 60.095509 0
M  V30 20 C 37.517084 31.244389 59.119423 0 CFG=2
M  V30 21 C 39.057182 31.264202 57.007050 0
M  V30 22 C 40.160501 26.154757 53.995007 0
M  V30 23 C 37.051647 24.872880 55.111784 0
M  V30 24 C 39.067391 30.915472 53.190341 0
M  V30 25 C 36.789141 29.907742 58.773778 0
M  V30 26 H 40.346557 27.988573 50.107486 0
M  V30 27 H 39.069647 28.821408 49.248705 0
M  V30 28 H 40.667367 29.631059 52.837449 0
M  V30 29 H 36.997746 27.843004 58.253500 0
M  V30 30 H 38.176003 28.358885 59.462742 0
M  V30 31 H 39.268605 30.774080 50.500865 0
M  V30 32 H 42.028620 29.574623 51.037787 0
M  V30 33 H 41.588376 30.398325 49.514151 0
M  V30 34 H 41.649521 31.221437 51.064426 0
M  V30 35 H 38.216863 26.021610 53.210123 0
M  V30 36 H 38.480578 26.938806 51.065261 0
M  V30 37 H 37.536876 28.421536 51.053490 0
M  V30 38 H 40.547743 25.220986 58.653505 0
M  V30 39 H 39.867401 26.660283 59.543214 0
M  V30 40 H 38.854171 25.616284 58.580523 0
M  V30 41 H 38.825691 32.841673 58.421323 0
M  V30 42 H 37.467405 32.581098 57.371482 0
M  V30 43 H 38.781575 28.684986 54.483056 0
M  V30 44 H 39.816551 27.839110 55.978978 0
M  V30 45 H 36.781508 31.910761 59.571982 0
M  V30 46 H 39.655562 31.825060 56.302692 0
M  V30 47 H 40.267164 25.084608 54.119411 0
M  V30 48 H 40.636873 26.396182 53.053477 0
M  V30 49 H 40.785963 26.588630 54.764667 0
M  V30 50 H 36.652289 24.830105 54.099088 0
M  V30 51 H 37.586504 23.944711 55.309138 0
M  V30 52 H 36.215558 24.936037 55.806850 0
M  V30 53 H 39.141843 31.863000 52.658122 0
M  V30 54 H 38.021695 30.751284 53.453517 0
M  V30 55 H 39.592596 31.049004 54.133937 0
M  V30 56 H 36.151884 30.021429 57.897719 0
M  V30 57 H 36.105534 29.678790 59.591135 0
M  V30 58 H 39.879501 27.833377 52.572365 0
M  V30 END ATOM
M  V30 BEGIN BOND
M  V30 1 1 5 4
M  V30 2 2 8 3
M  V30 3 1 8 6
M  V30 4 1 10 1
M  V30 5 1 10 4
M  V30 6 1 11 10
M  V30 7 2 13 7
M  V30 8 1 13 12
M  V30 9 1 14 1
M  V30 10 1 14 5
M  V30 11 1 15 9
M  V30 12 1 17 2
M  V30 13 1 17 5
M  V30 14 1 17 12
M  V30 15 1 18 7
M  V30 16 1 18 8
M  V30 17 1 18 9
M  V30 18 1 20 16
M  V30 19 1 20 19
M  V30 20 2 21 3
M  V30 21 1 21 16
M  V30 22 1 22 12
M  V30 23 1 23 13
M  V30 24 1 24 4
M  V30 25 1 25 6
M  V30 26 1 25 20
M  V30 27 1 26 1
M  V30 28 1 27 1
M  V30 29 1 4 28 CFG=1
M  V30 30 1 29 6
M  V30 31 1 30 6
M  V30 32 1 10 31 CFG=3
M  V30 33 1 32 11
M  V30 34 1 33 11
M  V30 35 1 34 11
M  V30 36 1 12 35 CFG=3
M  V30 37 1 36 14
M  V30 38 1 37 14
M  V30 39 1 38 15
M  V30 40 1 39 15
M  V30 41 1 40 15
M  V30 42 1 41 16
M  V30 43 1 42 16
M  V30 44 1 17 43 CFG=1
M  V30 45 1 18 44 CFG=3
M  V30 46 1 20 45 CFG=1
M  V30 47 1 46 21
M  V30 48 1 47 22
M  V30 49 1 48 22
M  V30 50 1 49 22
M  V30 51 1 50 23
M  V30 52 1 51 23
M  V30 53 1 52 23
M  V30 54 1 53 24
M  V30 55 1 54 24
M  V30 56 1 55 24
M  V30 57 1 56 25
M  V30 58 1 57 25
M  V30 59 1 5 58 CFG=1
M  V30 END BOND
M  V30 END CTAB
M  END
>  <i_epik_Tot_Q>  (1) 
0

>  <i_epik_Tot_abs_Q>  (1) 
2

>  <i_i_glide_confnum>  (1) 
47

>  <i_i_glide_lignum>  (1) 
123

>  <i_i_glide_posenum>  (1) 
10

>  <i_i_glide_rotatable_bonds>  (1) 
6

>  <i_lp_mmshare_version>  (1) 
72125

>  <i_m_source_file_index>  (1) 
45

>  <i_f3d_flags>  (1) 
0

>  <num_sample>  (1) 
100

>  <b_lp_Chiralities_Consistent>  (1) 
1

>  <r_epik_Charging_Adjusted_Penalty>  (1) 
0.41733257654759531

>  <r_epik_Ionization_Penalty>  (1) 
0.0069177268181324029

>  <r_epik_Ionization_Penalty_Charging>  (1) 
0.0066527375949913311

>  <r_epik_Ionization_Penalty_Neutral>  (1) 
0.00026498922314107146

>  <r_epik_State_Penalty>  (1) 
0.41067983895260396

>  <r_glide_ring_energy>  (1) 
0

>  <r_i_docking_score>  (1) 
-6.1578500774677103

>  <r_i_glide_ecoul>  (1) 
-1.2626178058589046

>  <r_i_glide_eff_state_penalty>  (1) 
0.41067983895260396

>  <r_i_glide_einternal>  (1) 
6.5830108971635219

>  <r_i_glide_emodel>  (1) 
-38.157004134061467

>  <r_i_glide_emodel_strain>  (1) 
3.2182565697613228

>  <r_i_glide_energy>  (1) 
-27.581459828452502

>  <r_i_glide_erotb>  (1) 
0.61440649929112812

>  <r_i_glide_esite>  (1) 
0

>  <r_i_glide_evdw>  (1) 
-26.318842022593596

>  <r_i_glide_gscore>  (1) 
-6.5685299164203146

>  <r_i_glide_gscore_strain>  (1) 
0

>  <r_i_glide_hbond>  (1) 
0

>  <r_i_glide_ligand_efficiency>  (1) 
-0.24631400309870841

>  <r_i_glide_ligand_efficiency_ln>  (1) 
-1.4595950042355379

>  <r_i_glide_ligand_efficiency_sa>  (1) 
-0.72022651423084227

>  <r_i_glide_lipo>  (1) 
-2.6157806146402769

>  <r_i_glide_metal>  (1) 
-0

>  <r_i_glide_rewards>  (1) 
-3.0618210290626502

>  <r_lp_Energy>  (1) 
19.622211999999998

>  <r_lp_tautomer_probability>  (1) 
0.49999399997599986

>  <s_epik_Chemistry_Notes>  (1) 
This compound has an imine and may undergo hydrolysis. This compound contains an acetal/aminal-like group ( X-CH(R)-Y where X, Y are N, S, or O) that may be acid/base labile, releasing an aldehyde.

>  <s_epik_cmdline>  (1) 
J2VwaWtfcHl0aG9uJywgJy1waHQnLCAnMS4wJywgJy1waCcsICc3LjQnLCAnLXRuJywgJzgnLCAnLW1hJywgJzUwMCcsICctaW1hZScsICc8aW5maWxlLm1hZT4nLCAnLW9tYWUnLCAnPG91dGZpbGUubWFlPic=

>  <s_epik_input>  (1) 
W0NIM11bQ0BIXTFbQ0gyXVtDSDJdTihbQ0BASF0xW0NIM10pW0NAQEhdKFtPSF0pW0NAQEhdKFtDSDNdKS9DKFtDSDNdKT1OXFtDQEBIXShPW0NIM10pQzI9Qz1bQ0hdW0NIMl1bQ0BASF0oRilbQ0gyXVtDSDJdMg==

>  <s_glide_docking_method>  (1) 
confgen

>  <s_i_glide_gridfile>  (1) 
gpcr_5ht2c_6bqh_protein_autoprepared_prepared

>  <s_lp_Force_Field>  (1) 
S-OPLS

>  <s_lp_Variant>  (1) 
DiffSBDD_44_num_sample_100-16

>  <s_m_source_file>  (1) 
generated__ligand_DiffSBDD_2026-05-06_prepared.sdf

>  <GenAI_Model>  (1) 
DiffSBDD

>  <Protein>  (1) 
GPCR_5HT2C

$$$$
DiffSBDD_43_num_sample_100
     RDKit          3D

  0  0  0  0  0  0  0  0  0  0999 V3000
M  V30 BEGIN CTAB
M  V30 COUNTS 72 75 0 0 1
M  V30 BEGIN ATOM
M  V30 1 C 38.158210 28.712990 53.228735 0 CFG=2
M  V30 2 N 37.571783 32.185150 59.824557 0
M  V30 3 O 40.124829 31.075238 60.780620 0
M  V30 4 C 39.459062 26.523199 52.632578 0
M  V30 5 C 39.371685 28.714585 57.053496 0
M  V30 6 C 39.970056 29.888499 54.533179 0
M  V30 7 C 40.267083 31.007946 53.865242 0
M  V30 8 C 38.522314 28.253617 55.829175 0 CFG=1
M  V30 9 C 38.578936 29.276336 54.622828 0 CFG=2
M  V30 10 F 37.024655 28.020282 53.301133 0
M  V30 11 C 36.896543 29.935639 59.353469 0 CFG=2
M  V30 12 C 40.435023 26.285138 53.758161 0
M  V30 13 O 35.278432 33.081965 60.556866 0
M  V30 14 C 37.365052 28.756266 58.547372 0 CFG=2
M  V30 15 C 37.362363 34.690868 61.022458 0
M  V30 16 C 38.827312 28.359106 58.445429 0 CFG=2
M  V30 17 C 38.258369 37.271684 61.151494 0
M  V30 18 O 37.067363 30.021416 57.952889 0
M  V30 19 C 36.692355 35.745451 60.381597 0
M  V30 20 C 37.870033 39.610648 60.653498 0
M  V30 21 C 39.191893 27.998621 52.319519 0
M  V30 22 C 40.260995 36.600846 62.576088 0
M  V30 23 C 38.741228 26.749858 55.561524 0
M  V30 24 O 37.067428 32.421411 62.253497 0
M  V30 25 C 37.864289 30.773301 60.125638 0 CFG=1
M  V30 26 C 39.694327 29.016940 59.553744 0 CFG=1
M  V30 27 S 36.683219 33.043507 60.986728 0
M  V30 28 C 37.570244 30.417558 54.951543 0
M  V30 29 C 39.319303 30.501620 59.766952 0 CFG=2
M  V30 30 C 40.119513 26.388387 55.055455 0
M  V30 31 C 38.542207 34.938774 61.732274 0
M  V30 32 N 37.127121 37.030170 60.426430 0
M  V30 33 C 39.000889 36.260628 61.802994 0
M  V30 34 C 39.689611 28.189833 60.849197 0
M  V30 35 O 38.667390 38.588580 61.228497 0
M  V30 36 H 37.869933 29.579382 52.641241 0
M  V30 37 H 37.168807 32.293663 58.889078 0
M  V30 38 H 39.765588 31.929231 60.973327 0
M  V30 39 H 39.850778 26.022553 51.747650 0
M  V30 40 H 38.516513 26.040955 52.875303 0
M  V30 41 H 39.470234 29.797449 57.025691 0
M  V30 42 H 40.391299 28.337376 56.970516 0
M  V30 43 H 40.754885 29.370738 55.053550 0
M  V30 44 H 41.275310 31.380678 53.852950 0
M  V30 45 H 39.513072 31.562424 53.326510 0
M  V30 46 H 37.474918 28.262894 56.114630 0
M  V30 47 H 35.858668 29.970610 59.673987 0
M  V30 48 H 41.443909 26.021759 53.473969 0
M  V30 49 H 36.640979 28.007116 58.249756 0
M  V30 50 H 38.881833 27.276064 58.561795 0
M  V30 51 H 35.776632 35.565947 59.838022 0
M  V30 52 H 38.299664 40.581162 60.900935 0
M  V30 53 H 37.867428 39.518617 59.567318 0
M  V30 54 H 36.853993 39.593475 61.053290 0
M  V30 55 H 40.125288 28.554908 52.248877 0
M  V30 56 H 38.780573 28.026755 51.308968 0
M  V30 57 H 40.571115 35.772674 63.214153 0
M  V30 58 H 41.075439 36.819974 61.885225 0
M  V30 59 H 40.100431 37.472259 63.212695 0
M  V30 60 H 38.586248 26.186941 56.481260 0
M  V30 61 H 37.967106 26.373854 54.897401 0
M  V30 62 H 37.720594 30.508790 61.171504 0
M  V30 63 H 40.733000 29.006618 59.218564 0
M  V30 64 H 36.562880 30.036468 55.127187 0
M  V30 65 H 37.864541 30.977376 55.837813 0
M  V30 66 H 37.479345 31.155756 54.155719 0
M  V30 67 H 39.467394 31.020097 58.826152 0
M  V30 68 H 40.877741 26.209564 55.804944 0
M  V30 69 H 39.069693 34.139076 62.232331 0
M  V30 70 H 38.676028 27.954343 61.167233 0
M  V30 71 H 40.241722 27.262113 60.695073 0
M  V30 72 H 40.186088 28.700454 61.673462 0
M  V30 END ATOM
M  V30 BEGIN BOND
M  V30 1 2 7 6
M  V30 2 1 8 5
M  V30 3 1 9 1
M  V30 4 1 9 6
M  V30 5 1 9 8
M  V30 6 1 10 1
M  V30 7 1 12 4
M  V30 8 1 14 11
M  V30 9 1 16 5
M  V30 10 1 16 14
M  V30 11 1 18 11
M  V30 12 1 18 14
M  V30 13 1 19 15
M  V30 14 1 21 1
M  V30 15 1 21 4
M  V30 16 1 23 8
M  V30 17 1 25 2
M  V30 18 1 25 11
M  V30 19 1 26 16
M  V30 20 1 27 2
M  V30 21 2 27 13
M  V30 22 1 27 15
M  V30 23 2 27 24
M  V30 24 1 9 28 CFG=1
M  V30 25 1 29 3
M  V30 26 1 29 25
M  V30 27 1 29 26
M  V30 28 2 30 12
M  V30 29 1 30 23
M  V30 30 2 31 15
M  V30 31 1 32 17
M  V30 32 2 32 19
M  V30 33 2 33 17
M  V30 34 1 33 22
M  V30 35 1 33 31
M  V30 36 1 34 26
M  V30 37 1 35 17
M  V30 38 1 35 20
M  V30 39 1 1 36 CFG=3
M  V30 40 1 37 2
M  V30 41 1 38 3
M  V30 42 1 39 4
M  V30 43 1 40 4
M  V30 44 1 41 5
M  V30 45 1 42 5
M  V30 46 1 43 6
M  V30 47 1 44 7
M  V30 48 1 45 7
M  V30 49 1 8 46 CFG=1
M  V30 50 1 11 47 CFG=3
M  V30 51 1 48 12
M  V30 52 1 14 49 CFG=3
M  V30 53 1 16 50 CFG=1
M  V30 54 1 51 19
M  V30 55 1 52 20
M  V30 56 1 53 20
M  V30 57 1 54 20
M  V30 58 1 55 21
M  V30 59 1 56 21
M  V30 60 1 57 22
M  V30 61 1 58 22
M  V30 62 1 59 22
M  V30 63 1 60 23
M  V30 64 1 61 23
M  V30 65 1 25 62 CFG=1
M  V30 66 1 26 63 CFG=3
M  V30 67 1 64 28
M  V30 68 1 65 28
M  V30 69 1 66 28
M  V30 70 1 29 67 CFG=3
M  V30 71 1 68 30
M  V30 72 1 69 31
M  V30 73 1 70 34
M  V30 74 1 71 34
M  V30 75 1 72 34
M  V30 END BOND
M  V30 END CTAB
M  END
>  <i_epik_Tot_Q>  (1) 
0

>  <i_epik_Tot_abs_Q>  (1) 
0

>  <i_i_glide_confnum>  (1) 
21

>  <i_i_glide_lignum>  (1) 
107

>  <i_i_glide_posenum>  (1) 
22

>  <i_i_glide_rotatable_bonds>  (1) 
8

>  <i_lp_mmshare_version>  (1) 
72125

>  <i_m_source_file_index>  (1) 
44

>  <i_f3d_flags>  (1) 
0

>  <num_sample>  (1) 
100

>  <b_lp_Chiralities_Consistent>  (1) 
1

>  <r_epik_Charging_Adjusted_Penalty>  (1) 
0

>  <r_epik_Ionization_Penalty>  (1) 
0.00039719250782603149

>  <r_epik_Ionization_Penalty_Charging>  (1) 
0

>  <r_epik_Ionization_Penalty_Neutral>  (1) 
0.00039719250782603149

>  <r_epik_State_Penalty>  (1) 
-0

>  <r_glide_ring_energy>  (1) 
1.4077559249441569

>  <r_i_docking_score>  (1) 
-6.1578010234873837

>  <r_i_glide_ecoul>  (1) 
-2.2953262966084904

>  <r_i_glide_eff_state_penalty>  (1) 
-0

>  <r_i_glide_einternal>  (1) 
5.9363756210758112

>  <r_i_glide_emodel>  (1) 
-44.647789004808843

>  <r_i_glide_emodel_strain>  (1) 
1.6236415640205593

>  <r_i_glide_energy>  (1) 
-36.04055708617804

>  <r_i_glide_erotb>  (1) 
0.47480880431145434

>  <r_i_glide_esite>  (1) 
-0.038933360009263777

>  <r_i_glide_evdw>  (1) 
-33.745230789569547

>  <r_i_glide_gscore>  (1) 
-6.1578010234873837

>  <r_i_glide_gscore_strain>  (1) 
0

>  <r_i_glide_hbond>  (1) 
0

>  <r_i_glide_ligand_efficiency>  (1) 
-0.17593717209963952

>  <r_i_glide_ligand_efficiency_ln>  (1) 
-1.35177398968588

>  <r_i_glide_ligand_efficiency_sa>  (1) 
-0.57550215636498292

>  <r_i_glide_lipo>  (1) 
-4.25066716731701

>  <r_i_glide_metal>  (1) 
-0

>  <r_i_glide_rewards>  (1) 
-0.31144881650281331

>  <r_lp_Energy>  (1) 
35.002376999999996

>  <r_lp_tautomer_probability>  (1) 
1

>  <s_epik_cmdline>  (1) 
J2VwaWtfcHl0aG9uJywgJy1waHQnLCAnMS4wJywgJy1waCcsICc3LjQnLCAnLXRuJywgJzgnLCAnLW1hJywgJzUwMCcsICctaW1hZScsICc8aW5maWxlLm1hZT4nLCAnLW9tYWUnLCAnPG91dGZpbGUubWFlPic=

>  <s_epik_input>  (1) 
W0NIMl09W0NIXVtDQEBdMShbQ0gzXSlbQ0BIXShGKVtDSDJdW0NIMl0vW0NIXT1bQ0hdXFtDSDJdW0NASF0xW0NIMl1bQ0BIXShbQ0BIXShPMilbQ0BIXTIzKVtDQEhdKFtDSDNdKVtDQEhdKFtPSF0pW0NASF0zW05IXVMoPU8pKD1PKWM0W2NIXW5jKGMoW0NIM10pW2NIXTQpT1tDSDNd

>  <s_glide_docking_method>  (1) 
confgen

>  <s_i_glide_gridfile>  (1) 
gpcr_5ht2c_6bqh_protein_autoprepared_prepared

>  <s_lp_Force_Field>  (1) 
S-OPLS

>  <s_lp_Variant>  (1) 
DiffSBDD_43_num_sample_100-1

>  <s_m_source_file>  (1) 
generated__ligand_DiffSBDD_2026-05-06_prepared.sdf

>  <GenAI_Model>  (1) 
DiffSBDD

>  <Protein>  (1) 
GPCR_5HT2C

$$$$
DiffSBDD_40_num_sample_100
     RDKit          3D

  0  0  0  0  0  0  0  0  0  0999 V3000
M  V30 BEGIN CTAB
M  V30 COUNTS 73 75 0 0 1
M  V30 BEGIN ATOM
M  V30 1 C 33.768960 33.398358 59.281326 0
M  V30 2 C 38.321637 25.663978 55.803445 0 CFG=1
M  V30 3 N 41.067394 28.923069 64.569227 0
M  V30 4 C 38.548724 27.741775 54.228058 0
M  V30 5 C 37.490078 29.899951 59.722199 0
M  V30 6 C 38.891709 33.200686 56.896302 0
M  V30 7 N 39.978643 30.593513 63.307265 0 CHG=1
M  V30 8 C 39.420002 30.336111 55.076112 0
M  V30 9 O 37.067404 30.821433 54.653492 0
M  V30 10 C 38.389161 32.626734 55.553740 0
M  V30 11 C 37.496800 24.421470 56.096980 0
M  V30 12 C 39.779543 25.222086 55.607758 0
M  V30 13 N 42.090293 30.827410 63.616579 0
M  V30 14 C 37.127057 33.767537 59.941215 0 CFG=2
M  V30 15 C 37.769373 26.493772 54.604906 0
M  V30 16 C 38.841178 31.981519 60.594428 0 CFG=1
M  V30 17 C 37.672044 30.981130 60.810731 0 CFG=1
M  V30 18 S 38.667437 28.247311 52.643625 0
M  V30 19 C 40.325513 31.763342 62.660718 0
M  V30 20 N 36.026429 32.771947 60.124961 0 CFG=2 CHG=1
M  V30 21 S 39.305312 28.593157 55.586474 0
M  V30 22 C 34.723260 33.386482 60.477938 0
M  V30 23 C 41.690143 31.906366 62.867198 0
M  V30 24 C 38.158115 31.100282 55.495475 0 CFG=2
M  V30 25 C 36.358005 31.710186 61.105720 0
M  V30 26 O 37.182779 23.589694 55.053480 0
M  V30 27 C 36.708140 34.866869 58.946221 0
M  V30 28 N 36.267408 24.421429 55.853496 0
M  V30 29 C 41.048382 30.053221 63.868585 0
M  V30 30 C 38.460283 33.062140 59.532980 0 CFG=1
M  V30 31 C 39.332880 32.614744 61.925797 0
M  V30 32 C 38.385436 32.431673 58.121658 0
M  V30 33 H 32.748205 33.621405 59.591039 0
M  V30 34 H 34.052153 34.141821 58.537964 0
M  V30 35 H 33.771693 32.425281 58.791258 0
M  V30 36 H 38.260100 26.258922 56.714356 0
M  V30 37 H 40.229912 28.373969 64.732373 0
M  V30 38 H 41.912964 28.553084 64.980492 0
M  V30 39 H 37.175326 30.273013 58.755315 0
M  V30 40 H 38.398005 29.312494 59.582419 0
M  V30 41 H 36.688836 29.221430 59.986617 0
M  V30 42 H 39.979079 33.221417 56.899509 0
M  V30 43 H 38.540730 34.225881 56.938246 0
M  V30 44 H 39.670469 30.488464 54.028347 0
M  V30 45 H 40.266080 30.747596 55.627202 0
M  V30 46 H 36.302925 31.231889 55.044755 0
M  V30 47 H 39.065843 32.911248 54.750795 0
M  V30 48 H 37.467408 33.146298 55.319864 0
M  V30 49 H 40.104543 24.588915 56.433277 0
M  V30 50 H 39.867409 24.655728 54.682966 0
M  V30 51 H 40.480386 26.053447 55.555662 0
M  V30 52 H 43.036104 30.648954 63.933105 0
M  V30 53 H 37.287687 34.257296 60.903348 0
M  V30 54 H 36.753174 26.821313 54.817988 0
M  V30 55 H 37.698809 25.848061 53.728770 0
M  V30 56 H 39.697877 31.425071 60.215359 0
M  V30 57 H 37.898960 30.413462 61.709291 0
M  V30 58 H 34.267409 32.836530 61.295804 0
M  V30 59 H 34.874521 34.379545 60.893230 0
M  V30 60 H 42.379050 32.675116 62.545389 0
M  V30 61 H 37.815011 30.697071 56.442065 0
M  V30 62 H 35.541759 30.985717 61.146315 0
M  V30 63 H 36.416317 32.166202 62.092713 0
M  V30 64 H 37.467404 35.622120 58.796029 0
M  V30 65 H 36.467516 34.421423 57.982286 0
M  V30 66 H 35.837379 35.436245 59.265590 0
M  V30 67 H 39.259193 33.804957 59.505933 0
M  V30 68 H 39.826521 33.565061 61.719440 0
M  V30 69 H 38.507450 32.854272 62.594752 0
M  V30 70 H 37.346184 32.191775 57.923920 0
M  V30 71 H 38.948414 31.499279 58.123275 0
M  V30 72 H 35.894771 32.320520 59.225925 0
M  V30 73 H 39.046667 30.199809 63.351384 0
M  V30 END ATOM
M  V30 BEGIN BOND
M  V30 1 1 10 6
M  V30 2 1 11 2
M  V30 3 1 12 2
M  V30 4 1 15 2
M  V30 5 1 15 4
M  V30 6 1 17 5
M  V30 7 1 17 16
M  V30 8 2 18 4
M  V30 9 1 19 7
M  V30 10 1 20 14
M  V30 11 1 21 4
M  V30 12 1 21 8
M  V30 13 1 22 1
M  V30 14 1 22 20
M  V30 15 1 23 13
M  V30 16 2 23 19
M  V30 17 1 24 8
M  V30 18 1 24 9
M  V30 19 1 24 10
M  V30 20 1 25 17
M  V30 21 1 25 20
M  V30 22 1 26 11
M  V30 23 1 27 14
M  V30 24 2 28 11
M  V30 25 1 28 26
M  V30 26 1 29 3
M  V30 27 2 29 7
M  V30 28 1 29 13
M  V30 29 1 30 14
M  V30 30 1 30 16
M  V30 31 1 31 16
M  V30 32 1 31 19
M  V30 33 1 32 6
M  V30 34 1 32 30
M  V30 35 1 33 1
M  V30 36 1 34 1
M  V30 37 1 35 1
M  V30 38 1 2 36 CFG=1
M  V30 39 1 37 3
M  V30 40 1 38 3
M  V30 41 1 39 5
M  V30 42 1 40 5
M  V30 43 1 41 5
M  V30 44 1 42 6
M  V30 45 1 43 6
M  V30 46 1 44 8
M  V30 47 1 45 8
M  V30 48 1 46 9
M  V30 49 1 47 10
M  V30 50 1 48 10
M  V30 51 1 49 12
M  V30 52 1 50 12
M  V30 53 1 51 12
M  V30 54 1 52 13
M  V30 55 1 14 53 CFG=1
M  V30 56 1 54 15
M  V30 57 1 55 15
M  V30 58 1 16 56 CFG=3
M  V30 59 1 17 57 CFG=1
M  V30 60 1 58 22
M  V30 61 1 59 22
M  V30 62 1 60 23
M  V30 63 1 24 61 CFG=1
M  V30 64 1 62 25
M  V30 65 1 63 25
M  V30 66 1 64 27
M  V30 67 1 65 27
M  V30 68 1 66 27
M  V30 69 1 30 67 CFG=3
M  V30 70 1 68 31
M  V30 71 1 69 31
M  V30 72 1 70 32
M  V30 73 1 71 32
M  V30 74 1 20 72 CFG=3
M  V30 75 1 73 7
M  V30 END BOND
M  V30 END CTAB
M  END
>  <i_epik_Tot_Q>  (1) 
2

>  <i_epik_Tot_abs_Q>  (1) 
2

>  <i_i_glide_confnum>  (1) 
2489

>  <i_i_glide_lignum>  (1) 
103

>  <i_i_glide_posenum>  (1) 
180

>  <i_i_glide_rotatable_bonds>  (1) 
14

>  <i_lp_mmshare_version>  (1) 
72125

>  <i_m_source_file_index>  (1) 
41

>  <i_f3d_flags>  (1) 
0

>  <num_sample>  (1) 
100

>  <b_lp_Chiralities_Consistent>  (1) 
1

>  <r_epik_Charging_Adjusted_Penalty>  (1) 
0.0037096170623772918

>  <r_epik_Ionization_Penalty>  (1) 
0.054330814931534903

>  <r_epik_Ionization_Penalty_Charging>  (1) 
0.0037096170623772918

>  <r_epik_Ionization_Penalty_Neutral>  (1) 
0.050621197869157614

>  <r_epik_State_Penalty>  (1) 
-0

>  <r_glide_ring_energy>  (1) 
0

>  <r_i_docking_score>  (1) 
-6.1503793734777013

>  <r_i_glide_ecoul>  (1) 
-3.1094185450755836

>  <r_i_glide_eff_state_penalty>  (1) 
-0

>  <r_i_glide_einternal>  (1) 
13.606748052202114

>  <r_i_glide_emodel>  (1) 
-60.075255501439344

>  <r_i_glide_emodel_strain>  (1) 
4.3589839490017255

>  <r_i_glide_energy>  (1) 
-48.281361434218482

>  <r_i_glide_erotb>  (1) 
0.95438045441749597

>  <r_i_glide_esite>  (1) 
-0.086668112464856326

>  <r_i_glide_evdw>  (1) 
-45.171942889142898

>  <r_i_glide_gscore>  (1) 
-6.1503793734777013

>  <r_i_glide_gscore_strain>  (1) 
0.089745987250431369

>  <r_i_glide_hbond>  (1) 
-0.13679561952549207

>  <r_i_glide_ligand_efficiency>  (1) 
-0.19219935542117816

>  <r_i_glide_ligand_efficiency_ln>  (1) 
-1.3772375947314333

>  <r_i_glide_ligand_efficiency_sa>  (1) 
-0.61019491796637626

>  <r_i_glide_lipo>  (1) 
-2.1489605631716313

>  <r_i_glide_metal>  (1) 
-0

>  <r_i_glide_rewards>  (1) 
-2.0970715937651661

>  <r_lp_Energy>  (1) 
39.041623999999999

>  <r_lp_tautomer_probability>  (1) 
1

>  <s_epik_Chemistry_Notes>  (1) 
This compound has an imine and may undergo hydrolysis.

>  <s_epik_cmdline>  (1) 
J2VwaWtfcHl0aG9uJywgJy1waHQnLCAnMS4wJywgJy1waCcsICc3LjQnLCAnLXRuJywgJzgnLCAnLW1hJywgJzUwMCcsICctaW1hZScsICc8aW5maWxlLm1hZT4nLCAnLW9tYWUnLCAnPG91dGZpbGUubWFlPic=

>  <s_epik_input>  (1) 
W2NIXTFbbkhdYyhbTkgyXSluYzFbQ0gyXVtDQEBIXShbQ0BIXShbQ0gzXSlbQ0gyXU4oW0NAQEhdMltDSDNdKVtDSDJdW0NIM10pW0NAQEhdMltDSDJdW0NIMl1bQ0gyXVtDQEBIXShbT0hdKVtDSDJdU0MoPVMpW0NIMl1bQ0BIXShbQ0gzXSlDMz1OTzM=

>  <s_glide_docking_method>  (1) 
confgen

>  <s_i_glide_gridfile>  (1) 
gpcr_5ht2c_6bqh_protein_autoprepared_prepared

>  <s_lp_Force_Field>  (1) 
S-OPLS

>  <s_lp_Variant>  (1) 
DiffSBDD_40_num_sample_100-4

>  <s_m_source_file>  (1) 
generated__ligand_DiffSBDD_2026-05-06_prepared.sdf

>  <GenAI_Model>  (1) 
DiffSBDD

>  <Protein>  (1) 
GPCR_5HT2C

$$$$
DiffSBDD_23_num_sample_100
     RDKit          3D

  0  0  0  0  0  0  0  0  0  0999 V3000
M  V30 BEGIN CTAB
M  V30 COUNTS 83 87 0 0 1
M  V30 BEGIN ATOM
M  V30 1 C 39.869767 27.265719 55.333209 0
M  V30 2 C 39.545635 30.718654 63.429063 0
M  V30 3 C 41.067543 33.846300 64.984826 0
M  V30 4 O 43.919576 31.007652 66.206520 0
M  V30 5 N 41.194728 34.643539 62.344274 0
M  V30 6 C 39.378593 30.240609 60.872339 0
M  V30 7 C 39.226429 26.817081 59.047179 0
M  V30 8 N 39.985364 32.143117 63.420890 0
M  V30 9 C 41.992196 31.584909 64.827852 0
M  V30 10 C 42.050483 34.175072 65.935624 0
M  V30 11 C 37.616359 35.570319 61.853430 0
M  V30 12 C 39.139415 35.544607 61.974249 0
M  V30 13 C 38.978670 27.260707 57.626300 0 CFG=2
M  V30 14 C 39.945397 36.516398 61.834373 0
M  V30 15 N 40.198314 27.259099 56.773357 0 CFG=2 CHG=1
M  V30 16 C 41.451183 29.473550 62.260855 0
M  V30 17 C 43.915025 29.691448 65.671013 0
M  V30 18 C 42.978346 31.927826 65.789020 0
M  V30 19 C 39.950304 29.785980 62.251781 0 CFG=1
M  V30 20 C 39.240026 30.966075 55.739764 0
M  V30 21 C 39.922687 34.396019 62.312172 0
M  V30 22 C 38.416565 29.621761 58.692241 0
M  V30 23 C 38.670856 29.621377 52.720242 0
M  V30 24 O 37.941565 30.747621 58.562595 0
M  V30 25 C 37.816422 30.020048 53.922061 0
M  V30 26 C 41.039805 32.545793 64.397976 0
M  V30 27 C 39.269824 33.017622 62.586969 0
M  V30 28 C 41.320519 28.141379 57.168849 0
M  V30 29 C 41.382395 36.146832 62.019454 0
M  V30 30 C 37.676215 29.007255 56.213830 0
M  V30 31 C 39.684425 28.657831 54.678485 0 CFG=2
M  V30 32 C 43.002622 33.221479 66.331794 0
M  V30 33 C 39.789886 27.941440 59.917479 0
M  V30 34 C 38.619986 29.658699 55.199473 0 CFG=2
M  V30 35 C 39.354819 28.381924 53.195355 0
M  V30 36 O 38.195638 32.717632 62.072410 0
M  V30 37 N 39.169874 29.269666 59.775027 0
M  V30 38 C 38.129671 28.540005 57.620674 0 CFG=1
M  V30 39 H 40.676049 26.747602 54.819980 0
M  V30 40 H 39.004866 26.628379 55.147241 0
M  V30 41 H 38.456746 30.692043 63.453330 0
M  V30 42 H 39.809175 30.243425 64.374296 0
M  V30 43 H 40.334159 34.585946 64.722679 0
M  V30 44 H 39.932519 31.100142 60.494214 0
M  V30 45 H 38.365182 30.581390 61.077573 0
M  V30 46 H 38.267474 26.500954 59.453554 0
M  V30 47 H 39.867447 25.937266 59.053541 0
M  V30 48 H 41.968388 30.596840 64.426234 0
M  V30 49 H 42.067830 35.164116 66.370045 0
M  V30 50 H 37.175935 36.011870 62.749371 0
M  V30 51 H 37.097248 34.654197 61.599523 0
M  V30 52 H 37.365464 36.255393 61.043402 0
M  V30 53 H 38.345979 26.470202 57.216903 0
M  V30 54 H 39.650196 37.526361 61.590981 0
M  V30 55 H 42.021416 30.399300 62.253607 0
M  V30 56 H 41.774437 28.832020 61.447609 0
M  V30 57 H 41.715389 28.924709 63.164140 0
M  V30 58 H 44.729659 29.123589 66.120564 0
M  V30 59 H 44.075833 29.696126 64.592470 0
M  V30 60 H 42.985291 29.170219 65.902594 0
M  V30 61 H 39.451056 28.861137 62.525576 0
M  V30 62 H 39.867520 30.797060 56.608439 0
M  V30 63 H 38.463819 31.672232 56.038463 0
M  V30 64 H 39.852943 31.463328 54.987705 0
M  V30 65 H 39.409229 30.394717 52.497450 0
M  V30 66 H 38.106157 29.391104 51.817226 0
M  V30 67 H 36.890914 29.444626 53.879958 0
M  V30 68 H 37.525380 31.070862 53.882983 0
M  V30 69 H 40.968327 29.075543 57.597955 0
M  V30 70 H 41.964581 28.389018 56.329414 0
M  V30 71 H 41.952381 27.638814 57.900770 0
M  V30 72 H 41.867217 36.699862 62.824578 0
M  V30 73 H 41.867430 36.280769 61.061247 0
M  V30 74 H 36.778068 29.621602 56.313308 0
M  V30 75 H 37.417552 28.093784 55.692313 0
M  V30 76 H 40.603021 29.228225 54.773836 0
M  V30 77 H 43.752044 33.482626 67.064621 0
M  V30 78 H 39.718560 27.621422 60.944674 0
M  V30 79 H 40.852460 28.042297 59.728345 0
M  V30 80 H 38.642000 27.558441 53.111576 0
M  V30 81 H 40.191309 28.121804 52.546184 0
M  V30 82 H 37.182726 28.180070 58.025781 0
M  V30 83 H 40.580376 26.331848 56.905788 0
M  V30 END ATOM
M  V30 BEGIN BOND
M  V30 1 1 8 2
M  V30 2 1 10 3
M  V30 3 1 12 11
M  V30 4 1 13 7
M  V30 5 2 14 12
M  V30 6 1 15 1
M  V30 7 1 15 13
M  V30 8 1 17 4
M  V30 9 1 18 4
M  V30 10 2 18 9
M  V30 11 1 19 2
M  V30 12 1 19 6
M  V30 13 1 19 16
M  V30 14 2 21 5
M  V30 15 1 21 12
M  V30 16 2 24 22
M  V30 17 1 25 23
M  V30 18 2 26 3
M  V30 19 1 26 8
M  V30 20 1 26 9
M  V30 21 1 27 8
M  V30 22 1 27 21
M  V30 23 1 28 15
M  V30 24 1 29 5
M  V30 25 1 29 14
M  V30 26 1 31 1
M  V30 27 2 32 10
M  V30 28 1 32 18
M  V30 29 1 33 7
M  V30 30 1 34 20 CFG=1
M  V30 31 1 34 25
M  V30 32 1 34 30
M  V30 33 1 34 31
M  V30 34 1 35 23
M  V30 35 1 35 31
M  V30 36 2 36 27
M  V30 37 1 37 6
M  V30 38 1 37 22
M  V30 39 1 37 33
M  V30 40 1 38 13
M  V30 41 1 38 22
M  V30 42 1 38 30
M  V30 43 1 39 1
M  V30 44 1 40 1
M  V30 45 1 41 2
M  V30 46 1 42 2
M  V30 47 1 43 3
M  V30 48 1 44 6
M  V30 49 1 45 6
M  V30 50 1 46 7
M  V30 51 1 47 7
M  V30 52 1 48 9
M  V30 53 1 49 10
M  V30 54 1 50 11
M  V30 55 1 51 11
M  V30 56 1 52 11
M  V30 57 1 13 53 CFG=3
M  V30 58 1 54 14
M  V30 59 1 55 16
M  V30 60 1 56 16
M  V30 61 1 57 16
M  V30 62 1 58 17
M  V30 63 1 59 17
M  V30 64 1 60 17
M  V30 65 1 19 61 CFG=1
M  V30 66 1 62 20
M  V30 67 1 63 20
M  V30 68 1 64 20
M  V30 69 1 65 23
M  V30 70 1 66 23
M  V30 71 1 67 25
M  V30 72 1 68 25
M  V30 73 1 69 28
M  V30 74 1 70 28
M  V30 75 1 71 28
M  V30 76 1 72 29
M  V30 77 1 73 29
M  V30 78 1 74 30
M  V30 79 1 75 30
M  V30 80 1 31 76 CFG=3
M  V30 81 1 77 32
M  V30 82 1 78 33
M  V30 83 1 79 33
M  V30 84 1 80 35
M  V30 85 1 81 35
M  V30 86 1 38 82 CFG=1
M  V30 87 1 15 83 CFG=3
M  V30 END BOND
M  V30 END CTAB
M  END
>  <i_epik_Tot_Q>  (1) 
1

>  <i_epik_Tot_abs_Q>  (1) 
1

>  <i_i_glide_confnum>  (1) 
222

>  <i_i_glide_lignum>  (1) 
61

>  <i_i_glide_posenum>  (1) 
180

>  <i_i_glide_rotatable_bonds>  (1) 
8

>  <i_lp_mmshare_version>  (1) 
72125

>  <i_m_source_file_index>  (1) 
24

>  <i_f3d_flags>  (1) 
0

>  <num_sample>  (1) 
100

>  <b_lp_Chiralities_Consistent>  (1) 
1

>  <r_epik_Charging_Adjusted_Penalty>  (1) 
0.0029773975431382485

>  <r_epik_Ionization_Penalty>  (1) 
0.013183626931022738

>  <r_epik_Ionization_Penalty_Charging>  (1) 
0.0029773975431382485

>  <r_epik_Ionization_Penalty_Neutral>  (1) 
0.010206229387884489

>  <r_epik_State_Penalty>  (1) 
-0

>  <r_glide_ring_energy>  (1) 
0

>  <r_i_docking_score>  (1) 
-6.1495385907310416

>  <r_i_glide_ecoul>  (1) 
-1.4169589319035822

>  <r_i_glide_eff_state_penalty>  (1) 
-0

>  <r_i_glide_einternal>  (1) 
32.168485013091839

>  <r_i_glide_emodel>  (1) 
-13.606609223948759

>  <r_i_glide_emodel_strain>  (1) 
5.9990247540281416

>  <r_i_glide_energy>  (1) 
-31.560415100592969

>  <r_i_glide_erotb>  (1) 
0.5287100460970352

>  <r_i_glide_esite>  (1) 
0

>  <r_i_glide_evdw>  (1) 
-30.143456168689386

>  <r_i_glide_gscore>  (1) 
-6.1495385907310416

>  <r_i_glide_gscore_strain>  (1) 
0.4997561885070354

>  <r_i_glide_hbond>  (1) 
0

>  <r_i_glide_ligand_efficiency>  (1) 
-0.16182996291397478

>  <r_i_glide_ligand_efficiency_ln>  (1) 
-1.3260214212589121

>  <r_i_glide_ligand_efficiency_sa>  (1) 
-0.54406835539997167

>  <r_i_glide_lipo>  (1) 
-3.8740247112335742

>  <r_i_glide_metal>  (1) 
-0

>  <r_i_glide_rewards>  (1) 
-1.5842634658815304

>  <r_lp_Energy>  (1) 
96.794462999999993

>  <r_lp_tautomer_probability>  (1) 
1

>  <s_epik_Chemistry_Notes>  (1) 
This compound has an imine and may undergo hydrolysis.

>  <s_epik_cmdline>  (1) 
J2VwaWtfcHl0aG9uJywgJy1waHQnLCAnMS4wJywgJy1waCcsICc3LjQnLCAnLXRuJywgJzgnLCAnLW1hJywgJzUwMCcsICctaW1hZScsICc8aW5maWxlLm1hZT4nLCAnLW9tYWUnLCAnPG91dGZpbGUubWFlPic=

>  <s_epik_input>  (1) 
W0NIMl0xW0NIMl1bQ0gyXVtDQEBIXShbQ0BAXTEyW0NIM10pW0NIMl1OKFtDSDNdKVtDQEhdM1tDQEhdKFtDSDJdMilDKD1PKU4oW0NIMl1bQ0gyXTMpW0NIMl1bQ0BASF0oW0NIM10pW0NIMl1OKGMoW2NIXVtjSF1bY0hdNClbY0hdYzRPW0NIM10pQyg9TylDNT1OW0NIMl1bQ0hdPUM1W0NIM10=

>  <s_glide_docking_method>  (1) 
confgen

>  <s_i_glide_gridfile>  (1) 
gpcr_5ht2c_6bqh_protein_autoprepared_prepared

>  <s_lp_Force_Field>  (1) 
S-OPLS

>  <s_lp_Variant>  (1) 
DiffSBDD_23_num_sample_100-4

>  <s_m_source_file>  (1) 
generated__ligand_DiffSBDD_2026-05-06_prepared.sdf

>  <GenAI_Model>  (1) 
DiffSBDD

>  <Protein>  (1) 
GPCR_5HT2C

$$$$
DiffSBDD_42_num_sample_100
     RDKit          3D

  0  0  0  0  0  0  0  0  0  0999 V3000
M  V30 BEGIN CTAB
M  V30 COUNTS 70 74 0 0 1
M  V30 BEGIN ATOM
M  V30 1 O 40.156418 36.408664 65.488676 0
M  V30 2 C 42.158149 33.404051 66.275311 0
M  V30 3 C 39.537546 28.229546 56.679604 0
M  V30 4 C 36.573523 32.331705 60.499731 0
M  V30 5 O 40.948254 28.108340 61.394050 0
M  V30 6 C 41.262550 34.600345 66.185593 0
M  V30 7 C 39.379665 29.725652 60.517733 0
M  V30 8 C 40.170389 30.591231 64.172919 0
M  V30 9 C 41.635677 35.508459 63.746821 0
M  V30 10 C 38.017441 32.357588 60.958772 0 CFG=2
M  V30 11 C 39.867458 36.079854 66.781447 0
M  V30 12 C 41.067391 35.448873 65.129010 0
M  V30 13 O 38.470137 31.491855 62.004805 0
M  V30 14 C 38.207120 26.705974 55.374819 0
M  V30 15 C 39.618880 30.710821 61.647638 0 CFG=1
M  V30 16 C 37.552820 26.415600 54.240614 0
M  V30 17 C 40.062158 34.086720 62.490081 0
M  V30 18 Cl 39.756798 30.421486 54.588129 0
M  V30 19 C 40.193454 28.656657 57.729373 0
M  V30 20 O 38.317251 29.680132 59.897657 0
M  V30 21 N 40.593438 35.457338 62.689417 0 CFG=2 CHG=1
M  V30 22 C 38.908513 28.915391 54.442816 0
M  V30 23 C 40.257050 29.934262 62.803834 0
M  V30 24 C 41.198732 30.021665 65.166264 0
M  V30 25 C 38.913197 27.961878 55.556857 0
M  V30 26 P 38.527068 34.024204 61.453511 0 CFG=2
M  V30 27 C 37.477231 27.356763 53.053486 0
M  V30 28 C 41.522455 27.930579 63.747985 0
M  V30 29 C 38.255276 28.638247 53.298625 0
M  V30 30 O 37.769571 35.257651 61.102849 0
M  V30 31 C 40.538272 28.793174 60.206174 0 CFG=2
M  V30 32 C 41.215712 28.487997 65.148103 0
M  V30 33 C 40.868244 28.729235 62.633142 0
M  V30 34 C 40.332482 27.851794 59.006281 0
M  V30 35 C 41.067287 36.059076 61.422011 0
M  V30 36 N 40.481405 34.995408 67.258337 0
M  V30 37 O 39.002678 33.099810 60.209642 0
M  V30 38 H 42.312760 32.942687 65.300381 0
M  V30 39 H 41.736709 32.643788 66.933533 0
M  V30 40 H 43.135607 33.674214 66.673923 0
M  V30 41 H 36.333913 31.370477 60.045958 0
M  V30 42 H 36.391753 33.108977 59.755827 0
M  V30 43 H 35.904596 32.491422 61.345218 0
M  V30 44 H 39.162053 30.421445 64.552274 0
M  V30 45 H 40.317104 31.663648 64.089916 0
M  V30 46 H 42.220352 36.421419 63.652899 0
M  V30 47 H 42.341956 34.691851 63.597834 0
M  V30 48 H 39.163137 36.666905 67.352643 0
M  V30 49 H 38.210318 25.980360 56.175991 0
M  V30 50 H 40.388656 31.399470 61.302828 0
M  V30 51 H 37.043332 25.468459 54.143168 0
M  V30 52 H 39.792176 33.665302 63.453523 0
M  V30 53 H 40.829044 33.445771 62.055327 0
M  V30 54 H 40.667414 29.621413 57.721876 0
M  V30 55 H 42.193450 30.392179 64.916059 0
M  V30 56 H 40.978526 30.379915 66.171959 0
M  V30 57 H 37.867420 26.860907 52.164661 0
M  V30 58 H 36.436284 27.621412 52.874487 0
M  V30 59 H 41.212959 26.887712 63.694329 0
M  V30 60 H 42.598471 27.950047 63.572682 0
M  V30 61 H 38.268189 29.354630 52.491751 0
M  V30 62 H 41.374783 29.443242 59.950202 0
M  V30 63 H 40.249719 28.115717 65.482215 0
M  V30 64 H 41.946268 28.110294 65.863780 0
M  V30 65 H 39.477393 27.190401 59.156355 0
M  V30 66 H 41.214775 27.221447 58.898804 0
M  V30 67 H 41.941820 35.534759 61.041094 0
M  V30 68 H 41.326344 37.107736 61.560362 0
M  V30 69 H 40.302863 36.021427 60.648751 0
M  V30 70 H 39.827465 36.032974 63.014941 0
M  V30 END ATOM
M  V30 BEGIN BOND
M  V30 1 1 6 2
M  V30 2 1 10 4
M  V30 3 1 11 1
M  V30 4 1 12 1
M  V30 5 2 12 6
M  V30 6 1 12 9
M  V30 7 1 10 13 CFG=1
M  V30 8 1 15 7
M  V30 9 1 15 13
M  V30 10 2 16 14
M  V30 11 2 19 3
M  V30 12 2 20 7
M  V30 13 1 21 9
M  V30 14 1 21 17
M  V30 15 1 22 18
M  V30 16 1 23 8
M  V30 17 1 23 15
M  V30 18 1 24 8
M  V30 19 2 25 3
M  V30 20 1 25 14
M  V30 21 1 25 22
M  V30 22 1 26 10
M  V30 23 1 26 17 CFG=1
M  V30 24 1 27 16
M  V30 25 2 29 22
M  V30 26 1 29 27
M  V30 27 2 30 26
M  V30 28 1 31 5
M  V30 29 1 31 7
M  V30 30 1 32 24
M  V30 31 1 32 28
M  V30 32 1 33 5
M  V30 33 2 33 23
M  V30 34 1 33 28
M  V30 35 1 34 19
M  V30 36 1 34 31
M  V30 37 1 35 21
M  V30 38 1 36 6
M  V30 39 2 36 11
M  V30 40 1 37 10
M  V30 41 1 37 26
M  V30 42 1 38 2
M  V30 43 1 39 2
M  V30 44 1 40 2
M  V30 45 1 41 4
M  V30 46 1 42 4
M  V30 47 1 43 4
M  V30 48 1 44 8
M  V30 49 1 45 8
M  V30 50 1 46 9
M  V30 51 1 47 9
M  V30 52 1 48 11
M  V30 53 1 49 14
M  V30 54 1 15 50 CFG=3
M  V30 55 1 51 16
M  V30 56 1 52 17
M  V30 57 1 53 17
M  V30 58 1 54 19
M  V30 59 1 55 24
M  V30 60 1 56 24
M  V30 61 1 57 27
M  V30 62 1 58 27
M  V30 63 1 59 28
M  V30 64 1 60 28
M  V30 65 1 61 29
M  V30 66 1 31 62 CFG=3
M  V30 67 1 63 32
M  V30 68 1 64 32
M  V30 69 1 65 34
M  V30 70 1 66 34
M  V30 71 1 67 35
M  V30 72 1 68 35
M  V30 73 1 69 35
M  V30 74 1 21 70 CFG=1
M  V30 END BOND
M  V30 END CTAB
M  END
>  <i_epik_Tot_Q>  (1) 
1

>  <i_epik_Tot_abs_Q>  (1) 
1

>  <i_i_glide_confnum>  (1) 
736

>  <i_i_glide_lignum>  (1) 
104

>  <i_i_glide_posenum>  (1) 
331

>  <i_i_glide_rotatable_bonds>  (1) 
8

>  <i_lp_mmshare_version>  (1) 
72125

>  <i_m_source_file_index>  (1) 
43

>  <i_f3d_flags>  (1) 
0

>  <num_sample>  (1) 
100

>  <b_lp_Chiralities_Consistent>  (1) 
1

>  <r_epik_Charging_Adjusted_Penalty>  (1) 
0.2152556309207356

>  <r_epik_Ionization_Penalty>  (1) 
0.1076280395274669

>  <r_epik_Ionization_Penalty_Charging>  (1) 
0.10762781546036781

>  <r_epik_Ionization_Penalty_Neutral>  (1) 
2.2406709908736756e-07

>  <r_epik_State_Penalty>  (1) 
0.10762781546036779

>  <r_glide_ring_energy>  (1) 
0

>  <r_i_docking_score>  (1) 
-6.1446597708316579

>  <r_i_glide_ecoul>  (1) 
0.080093258440581155

>  <r_i_glide_eff_state_penalty>  (1) 
0.10762781546036779

>  <r_i_glide_einternal>  (1) 
8.0585573867806932

>  <r_i_glide_emodel>  (1) 
-62.510973748906423

>  <r_i_glide_emodel_strain>  (1) 
0.15045431071440163

>  <r_i_glide_energy>  (1) 
-48.252408846260415

>  <r_i_glide_erotb>  (1) 
0.55194975081301367

>  <r_i_glide_esite>  (1) 
0

>  <r_i_glide_evdw>  (1) 
-48.332502104701

>  <r_i_glide_gscore>  (1) 
-6.2522875862920255

>  <r_i_glide_gscore_strain>  (1) 
0

>  <r_i_glide_hbond>  (1) 
0

>  <r_i_glide_ligand_efficiency>  (1) 
-0.16607188569815293

>  <r_i_glide_ligand_efficiency_ln>  (1) 
-1.3326326530302246

>  <r_i_glide_ligand_efficiency_sa>  (1) 
-0.55338836646743428

>  <r_i_glide_lipo>  (1) 
-3.7866320455309692

>  <r_i_glide_metal>  (1) 
-0

>  <r_i_glide_rewards>  (1) 
-0.61299417510510767

>  <r_lp_Energy>  (1) 
6.6760409999999997

>  <r_lp_tautomer_probability>  (1) 
0.99995000000000001

>  <s_epik_cmdline>  (1) 
J2VwaWtfcHl0aG9uJywgJy1waHQnLCAnMS4wJywgJy1waCcsICc3LjQnLCAnLXRuJywgJzgnLCAnLW1hJywgJzUwMCcsICctaW1hZScsICc8aW5maWxlLm1hZT4nLCAnLW9tYWUnLCAnPG91dGZpbGUubWFlPic=

>  <s_epik_input>  (1) 
bjFbY0hdb2MoYzFbQ0gzXSlbQ0gyXU4oW0NIM10pW0NIMl1bUEBAXSg9TykoTzIpW0NAXTIoW0NIM10pT1tDQEBIXTNDKD1PKVtDQEBIXShPQyg9QzM0KVtDSDJdW0NIMl1bQ0gyXVtDSDJdNClbQ0gyXVtDSF09Qz1DNVtDSF09W0NIXVtDSDJdW0NIXT1DNUNs

>  <s_glide_docking_method>  (1) 
confgen

>  <s_i_glide_gridfile>  (1) 
gpcr_5ht2c_6bqh_protein_autoprepared_prepared

>  <s_lp_Force_Field>  (1) 
S-OPLS

>  <s_lp_Variant>  (1) 
DiffSBDD_42_num_sample_100-1

>  <s_m_source_file>  (1) 
generated__ligand_DiffSBDD_2026-05-06_prepared.sdf

>  <GenAI_Model>  (1) 
DiffSBDD

>  <Protein>  (1) 
GPCR_5HT2C

$$$$
DiffSBDD_99_num_sample_100
     RDKit          3D

  0  0  0  0  0  0  0  0  0  0999 V3000
M  V30 BEGIN CTAB
M  V30 COUNTS 90 93 0 0 1
M  V30 BEGIN ATOM
M  V30 1 C 39.217318 29.890313 53.691279 0
M  V30 2 C 39.062441 28.961467 56.049200 0 CFG=1
M  V30 3 C 44.079763 27.306284 67.610067 0
M  V30 4 C 42.214616 31.870476 66.878145 0
M  V30 5 O 41.837437 27.279962 64.733856 0 CHG=-1
M  V30 6 O 39.248565 28.013735 50.653408 0
M  V30 7 O 41.159239 28.373180 57.280963 0
M  V30 8 C 40.722403 30.251445 62.464437 0
M  V30 9 O 37.077285 26.989824 54.653372 0
M  V30 10 C 38.221909 27.560097 54.055577 0 CFG=1
M  V30 11 C 42.433647 31.603748 63.834142 0
M  V30 12 C 38.926646 28.393303 51.775609 0
M  V30 13 C 40.605170 30.271371 65.756216 0
M  V30 14 C 39.467451 29.621455 52.390458 0
M  V30 15 O 44.267374 25.930290 67.355197 0
M  V30 16 C 42.098472 27.107862 65.944575 0
M  V30 17 C 37.289576 26.119943 55.752782 0
M  V30 18 C 39.797792 29.417710 60.219664 0 CFG=2
M  V30 19 C 40.952373 31.412598 63.449396 0 CFG=2
M  V30 20 C 38.153056 26.684788 56.893563 0
M  V30 21 C 42.596111 29.384863 67.159899 0 CFG=2
M  V30 22 C 40.284915 30.523117 51.483317 0
M  V30 23 C 38.782757 29.621308 59.055108 0 CFG=2
M  V30 24 C 41.574439 29.128935 68.301708 0
M  V30 25 C 40.065175 31.240845 64.696948 0
M  V30 26 C 37.434434 31.219964 60.510283 0
M  V30 27 C 42.930515 30.557426 64.851251 0
M  V30 28 O 41.582828 26.240755 66.687589 0
M  V30 29 C 37.380295 30.069057 59.498134 0
M  V30 30 C 37.908857 27.589158 52.569188 0
M  V30 31 C 38.173072 28.220028 57.086431 0 CFG=1
M  V30 32 C 38.341005 30.893477 61.706288 0
M  V30 33 O 38.684400 28.355695 58.404178 0
M  V30 34 C 39.675283 28.021425 60.852251 0
M  V30 35 C 39.782101 30.563042 61.266415 0 CFG=1
M  V30 36 C 40.540680 28.487588 56.016964 0
M  V30 37 C 42.086172 30.498686 66.156418 0 CFG=2
M  V30 38 C 38.424417 28.981161 54.633135 0 CFG=2
M  V30 39 C 43.166448 28.038015 66.576185 0 CFG=1
M  V30 40 H 39.611694 30.797999 54.125685 0
M  V30 41 H 39.085787 30.007998 56.346735 0
M  V30 42 H 45.059217 27.784637 67.641827 0
M  V30 43 H 43.681598 27.371535 68.619163 0
M  V30 44 H 41.654854 31.909722 67.810044 0
M  V30 45 H 43.254593 32.097449 67.115932 0
M  V30 46 H 41.840896 32.701586 66.283581 0
M  V30 47 H 41.995482 27.943661 57.175353 0
M  V30 48 H 40.334539 29.405630 63.032294 0
M  V30 49 H 41.678118 29.901582 62.085687 0
M  V30 50 H 39.092659 26.918376 54.186765 0
M  V30 51 H 43.055127 31.566153 62.939889 0
M  V30 52 H 42.578473 32.607892 64.229577 0
M  V30 53 H 40.466006 29.260947 65.382003 0
M  V30 54 H 39.951948 30.348390 66.625267 0
M  V30 55 H 43.397746 25.577389 67.187514 0
M  V30 56 H 36.304539 25.863640 56.143660 0
M  V30 57 H 37.720197 25.184585 55.392967 0
M  V30 58 H 40.790023 29.430877 59.766634 0
M  V30 59 H 40.645859 32.329807 62.944904 0
M  V30 60 H 37.798525 26.221083 57.815469 0
M  V30 61 H 39.171964 26.315182 56.785505 0
M  V30 62 H 43.465021 29.829283 67.647316 0
M  V30 63 H 39.672451 30.895456 50.661108 0
M  V30 64 H 40.667306 31.382134 52.032277 0
M  V30 65 H 41.131406 29.984337 51.055261 0
M  V30 66 H 39.202019 30.388103 58.407294 0
M  V30 67 H 40.689064 28.621544 67.922210 0
M  V30 68 H 41.970602 28.506798 69.099916 0
M  V30 69 H 41.238642 30.043776 68.783981 0
M  V30 70 H 39.868304 32.213853 65.147786 0
M  V30 71 H 39.108299 30.821386 64.385236 0
M  V30 72 H 37.801349 32.118335 60.012838 0
M  V30 73 H 36.426908 31.451612 60.856420 0
M  V30 74 H 42.903141 29.597567 64.339004 0
M  V30 75 H 43.978370 30.745272 65.088238 0
M  V30 76 H 36.804016 30.386554 58.627722 0
M  V30 77 H 36.837878 29.221515 59.906040 0
M  V30 78 H 36.928006 28.034090 52.401192 0
M  V30 79 H 37.867789 26.574863 52.184858 0
M  V30 80 H 37.160814 28.621786 57.074523 0
M  V30 81 H 38.341431 31.751396 62.377753 0
M  V30 82 H 37.934049 30.060364 62.276117 0
M  V30 83 H 38.686651 27.858964 61.277906 0
M  V30 84 H 39.864786 27.245607 60.109955 0
M  V30 85 H 40.419184 27.822235 61.620748 0
M  V30 86 H 40.174838 31.448799 60.765677 0
M  V30 87 H 41.108287 29.221386 55.453525 0
M  V30 88 H 40.658585 27.530952 55.512996 0
M  V30 89 H 37.443969 29.453767 54.717019 0
M  V30 90 H 43.850343 28.268037 65.760942 0
M  V30 END ATOM
M  V30 BEGIN BOND
M  V30 1 1 10 9
M  V30 2 2 12 6
M  V30 3 2 14 1
M  V30 4 1 14 12
M  V30 5 1 15 3
M  V30 6 1 16 5
M  V30 7 1 17 9
M  V30 8 1 19 8
M  V30 9 1 19 11
M  V30 10 1 20 17
M  V30 11 1 22 14
M  V30 12 1 23 18
M  V30 13 1 24 21
M  V30 14 1 25 13
M  V30 15 1 25 19
M  V30 16 1 27 11
M  V30 17 2 28 16
M  V30 18 1 29 23
M  V30 19 1 29 26
M  V30 20 1 30 10
M  V30 21 1 30 12
M  V30 22 1 31 2
M  V30 23 1 31 20
M  V30 24 1 32 26
M  V30 25 1 33 23
M  V30 26 1 33 31
M  V30 27 1 34 18
M  V30 28 1 35 8
M  V30 29 1 35 18
M  V30 30 1 35 32
M  V30 31 1 36 2
M  V30 32 1 36 7
M  V30 33 1 37 4 CFG=1
M  V30 34 1 37 13
M  V30 35 1 37 21
M  V30 36 1 37 27
M  V30 37 1 38 1
M  V30 38 1 38 2
M  V30 39 1 38 10
M  V30 40 1 39 3
M  V30 41 1 39 16
M  V30 42 1 39 21
M  V30 43 1 40 1
M  V30 44 1 2 41 CFG=1
M  V30 45 1 42 3
M  V30 46 1 43 3
M  V30 47 1 44 4
M  V30 48 1 45 4
M  V30 49 1 46 4
M  V30 50 1 47 7
M  V30 51 1 48 8
M  V30 52 1 49 8
M  V30 53 1 10 50 CFG=3
M  V30 54 1 51 11
M  V30 55 1 52 11
M  V30 56 1 53 13
M  V30 57 1 54 13
M  V30 58 1 55 15
M  V30 59 1 56 17
M  V30 60 1 57 17
M  V30 61 1 18 58 CFG=3
M  V30 62 1 19 59 CFG=3
M  V30 63 1 60 20
M  V30 64 1 61 20
M  V30 65 1 21 62 CFG=1
M  V30 66 1 63 22
M  V30 67 1 64 22
M  V30 68 1 65 22
M  V30 69 1 23 66 CFG=3
M  V30 70 1 67 24
M  V30 71 1 68 24
M  V30 72 1 69 24
M  V30 73 1 70 25
M  V30 74 1 71 25
M  V30 75 1 72 26
M  V30 76 1 73 26
M  V30 77 1 74 27
M  V30 78 1 75 27
M  V30 79 1 76 29
M  V30 80 1 77 29
M  V30 81 1 78 30
M  V30 82 1 79 30
M  V30 83 1 31 80 CFG=1
M  V30 84 1 81 32
M  V30 85 1 82 32
M  V30 86 1 83 34
M  V30 87 1 84 34
M  V30 88 1 85 34
M  V30 89 1 35 86 CFG=3
M  V30 90 1 87 36
M  V30 91 1 88 36
M  V30 92 1 38 89 CFG=1
M  V30 93 1 39 90 CFG=3
M  V30 END BOND
M  V30 END CTAB
M  END
>  <i_epik_Tot_Q>  (1) 
-1

>  <i_epik_Tot_abs_Q>  (1) 
1

>  <i_i_glide_confnum>  (1) 
172

>  <i_i_glide_lignum>  (1) 
271

>  <i_i_glide_posenum>  (1) 
292

>  <i_i_glide_rotatable_bonds>  (1) 
11

>  <i_lp_mmshare_version>  (1) 
72125

>  <i_m_source_file_index>  (1) 
100

>  <i_f3d_flags>  (1) 
0

>  <num_sample>  (1) 
100

>  <b_lp_Chiralities_Consistent>  (1) 
1

>  <r_epik_Charging_Adjusted_Penalty>  (1) 
0.00057086010642688853

>  <r_epik_Ionization_Penalty>  (1) 
0.00057120619039141747

>  <r_epik_Ionization_Penalty_Charging>  (1) 
0.00057086010642688853

>  <r_epik_Ionization_Penalty_Neutral>  (1) 
3.4608396452890624e-07

>  <r_epik_State_Penalty>  (1) 
-0

>  <r_glide_ring_energy>  (1) 
1.9990264318667856

>  <r_i_docking_score>  (1) 
-6.1428242112212779

>  <r_i_glide_ecoul>  (1) 
0.94892998571708176

>  <r_i_glide_eff_state_penalty>  (1) 
-0

>  <r_i_glide_einternal>  (1) 
4.6498363894487369

>  <r_i_glide_emodel>  (1) 
-39.172657268332841

>  <r_i_glide_emodel_strain>  (1) 
2.1478228745540662

>  <r_i_glide_energy>  (1) 
-39.83779895283584

>  <r_i_glide_erotb>  (1) 
0.55239913660624596

>  <r_i_glide_esite>  (1) 
0

>  <r_i_glide_evdw>  (1) 
-40.786728938552919

>  <r_i_glide_gscore>  (1) 
-6.1428242112212779

>  <r_i_glide_gscore_strain>  (1) 
0

>  <r_i_glide_hbond>  (1) 
0

>  <r_i_glide_ligand_efficiency>  (1) 
-0.1575083131082379

>  <r_i_glide_ligand_efficiency_ln>  (1) 
-1.3171958853206738

>  <r_i_glide_ligand_efficiency_sa>  (1) 
-0.53414399378251465

>  <r_i_glide_lipo>  (1) 
-3.8454146245352074

>  <r_i_glide_metal>  (1) 
-0

>  <r_i_glide_rewards>  (1) 
-0.95281177422223085

>  <r_lp_Energy>  (1) 
48.540740999999997

>  <r_lp_tautomer_probability>  (1) 
1

>  <s_epik_cmdline>  (1) 
J2VwaWtfcHl0aG9uJywgJy1waHQnLCAnMS4wJywgJy1waCcsICc3LjQnLCAnLXRuJywgJzgnLCAnLW1hJywgJzUwMCcsICctaW1hZScsICc8aW5maWxlLm1hZT4nLCAnLW9tYWUnLCAnPG91dGZpbGUubWFlPic=

>  <s_epik_input>  (1) 
Tz1DKFtDSDJdMSlDKFtDSDNdKT1bQ0hdW0NAQEhdKFtDQEhdMTIpW0NASF0oW0NIMl1bT0hdKVtDQEBIXShbQ0gyXVtDSDJdTzIpT1tDQEhdKFtDQEBIXTNbQ0gzXSlbQ0gyXVtDSDJdW0NIMl1bQ0BIXTNbQ0gyXVtDQEhdKFtDSDJdW0NIMl00KVtDSDJdW0NIMl1bQ0BAXTQoW0NIM10pW0NAQEhdKFtDSDNdKVtDQEBIXShbQ0gyXVtPSF0pQyg9TylbT0hd

>  <s_glide_docking_method>  (1) 
confgen

>  <s_i_glide_gridfile>  (1) 
gpcr_5ht2c_6bqh_protein_autoprepared_prepared

>  <s_lp_Force_Field>  (1) 
S-OPLS

>  <s_lp_Variant>  (1) 
DiffSBDD_99_num_sample_100-1

>  <s_m_source_file>  (1) 
generated__ligand_DiffSBDD_2026-05-06_prepared.sdf

>  <GenAI_Model>  (1) 
DiffSBDD

>  <Protein>  (1) 
GPCR_5HT2C

$$$$
DiffSBDD_59_num_sample_100
     RDKit          3D

  0  0  0  0  0  0  0  0  0  0999 V3000
M  V30 BEGIN CTAB
M  V30 COUNTS 54 55 0 0 1
M  V30 BEGIN ATOM
M  V30 1 O 40.670053 36.421527 62.653526 0
M  V30 2 N 37.963846 29.900128 55.715477 0 CFG=2 CHG=1
M  V30 3 C 39.867427 30.139844 52.897834 0
M  V30 4 C 37.650416 29.697087 57.159582 0
M  V30 5 C 38.923231 35.266715 61.464699 0
M  V30 6 C 38.667384 27.940160 51.614686 0
M  V30 7 C 38.592528 28.052974 53.016718 0
M  V30 8 C 39.215182 29.154238 53.671340 0
M  V30 9 C 37.513195 33.175426 59.640217 0
M  V30 10 C 37.945462 30.656301 59.529557 0
M  V30 11 Cl 37.744781 26.848580 53.917394 0
M  V30 12 C 38.592166 30.429102 58.148238 0
M  V30 13 O 38.334359 33.621430 58.842186 0
M  V30 14 N 37.047883 33.804722 60.697498 0
M  V30 15 N 36.180567 33.122116 61.453495 0
M  V30 16 C 39.299608 36.492584 62.313641 0
M  V30 17 C 36.923467 31.811980 59.510413 0 CFG=1
M  V30 18 C 39.218493 29.278392 55.206789 0 CFG=2
M  V30 19 C 37.850305 31.321094 55.289273 0
M  V30 20 C 37.417530 35.170383 61.114389 0 CFG=2
M  V30 21 C 39.932548 30.017413 51.498165 0
M  V30 22 C 36.111476 31.997381 60.800499 0
M  V30 23 C 36.944518 36.217380 60.081889 0
M  V30 24 C 39.728003 28.022505 55.966235 0
M  V30 25 C 39.343205 28.914650 50.859775 0
M  V30 26 H 40.874603 37.095075 63.289940 0
M  V30 27 H 40.337701 30.983366 53.382885 0
M  V30 28 H 37.615070 28.634854 57.399925 0
M  V30 29 H 36.623114 30.021430 57.304168 0
M  V30 30 H 39.522810 35.260789 60.553732 0
M  V30 31 H 39.209007 34.372036 62.020388 0
M  V30 32 H 38.203302 27.101140 51.116462 0
M  V30 33 H 38.726632 30.869908 60.261602 0
M  V30 34 H 37.466753 29.734486 59.862709 0
M  V30 35 H 38.918283 31.385405 57.743930 0
M  V30 36 H 39.505455 29.855393 58.288391 0
M  V30 37 H 38.710221 36.517751 63.230857 0
M  V30 38 H 39.110487 37.421119 61.774820 0
M  V30 39 H 36.267402 31.769736 58.653506 0
M  V30 40 H 40.005408 30.002369 55.426091 0
M  V30 41 H 38.769564 31.878094 55.472596 0
M  V30 42 H 37.622672 31.391750 54.226297 0
M  V30 43 H 37.067406 31.846357 55.819504 0
M  V30 44 H 36.865632 35.380578 62.032564 0
M  V30 45 H 40.443316 30.769914 50.913846 0
M  V30 46 H 35.479458 31.182723 61.153639 0
M  V30 47 H 37.094312 37.233167 60.447198 0
M  V30 48 H 37.467401 36.128581 59.131153 0
M  V30 49 H 35.881957 36.101832 59.865062 0
M  V30 50 H 40.576453 27.570377 55.453498 0
M  V30 51 H 40.092767 28.270502 56.959811 0
M  V30 52 H 38.978086 27.249068 56.109846 0
M  V30 53 H 39.397673 28.821445 49.785000 0
M  V30 54 H 37.214340 29.417743 55.239729 0
M  V30 END ATOM
M  V30 BEGIN BOND
M  V30 1 1 4 2
M  V30 2 2 7 6
M  V30 3 2 8 3
M  V30 4 1 8 7
M  V30 5 1 11 7
M  V30 6 1 12 4
M  V30 7 1 12 10
M  V30 8 2 13 9
M  V30 9 1 14 9
M  V30 10 1 15 14
M  V30 11 1 16 1
M  V30 12 1 16 5
M  V30 13 1 17 9
M  V30 14 1 17 10
M  V30 15 1 18 2
M  V30 16 1 18 8
M  V30 17 1 19 2
M  V30 18 1 20 5
M  V30 19 1 20 14
M  V30 20 1 21 3
M  V30 21 2 22 15
M  V30 22 1 22 17
M  V30 23 1 23 20
M  V30 24 1 24 18
M  V30 25 1 25 6
M  V30 26 2 25 21
M  V30 27 1 26 1
M  V30 28 1 27 3
M  V30 29 1 28 4
M  V30 30 1 29 4
M  V30 31 1 30 5
M  V30 32 1 31 5
M  V30 33 1 32 6
M  V30 34 1 33 10
M  V30 35 1 34 10
M  V30 36 1 35 12
M  V30 37 1 36 12
M  V30 38 1 37 16
M  V30 39 1 38 16
M  V30 40 1 17 39 CFG=3
M  V30 41 1 18 40 CFG=3
M  V30 42 1 41 19
M  V30 43 1 42 19
M  V30 44 1 43 19
M  V30 45 1 20 44 CFG=1
M  V30 46 1 45 21
M  V30 47 1 46 22
M  V30 48 1 47 23
M  V30 49 1 48 23
M  V30 50 1 49 23
M  V30 51 1 50 24
M  V30 52 1 51 24
M  V30 53 1 52 24
M  V30 54 1 53 25
M  V30 55 1 2 54 CFG=3
M  V30 END BOND
M  V30 END CTAB
M  END
>  <i_epik_Tot_Q>  (1) 
1

>  <i_epik_Tot_abs_Q>  (1) 
1

>  <i_i_glide_confnum>  (1) 
266

>  <i_i_glide_lignum>  (1) 
151

>  <i_i_glide_posenum>  (1) 
316

>  <i_i_glide_rotatable_bonds>  (1) 
10

>  <i_lp_mmshare_version>  (1) 
72125

>  <i_m_source_file_index>  (1) 
60

>  <i_f3d_flags>  (1) 
0

>  <num_sample>  (1) 
100

>  <b_lp_Chiralities_Consistent>  (1) 
1

>  <r_epik_Charging_Adjusted_Penalty>  (1) 
0.90698054963472508

>  <r_epik_Ionization_Penalty>  (1) 
0.11890783771570668

>  <r_epik_Ionization_Penalty_Charging>  (1) 
0.11890771087092902

>  <r_epik_Ionization_Penalty_Neutral>  (1) 
1.2684477765112781e-07

>  <r_epik_State_Penalty>  (1) 
0.78807283876379608

>  <r_glide_ring_energy>  (1) 
0

>  <r_i_docking_score>  (1) 
-6.1420459157213863

>  <r_i_glide_ecoul>  (1) 
-3.8981312927810263

>  <r_i_glide_eff_state_penalty>  (1) 
0.78807283876379608

>  <r_i_glide_einternal>  (1) 
3.2378517340575019

>  <r_i_glide_emodel>  (1) 
-61.294508026985632

>  <r_i_glide_emodel_strain>  (1) 
1.1201128022653748

>  <r_i_glide_energy>  (1) 
-43.039406949828148

>  <r_i_glide_erotb>  (1) 
1.1440711446639862

>  <r_i_glide_esite>  (1) 
-0.11633997909830729

>  <r_i_glide_evdw>  (1) 
-39.141275657047125

>  <r_i_glide_gscore>  (1) 
-6.9301187544851821

>  <r_i_glide_gscore_strain>  (1) 
0

>  <r_i_glide_hbond>  (1) 
-0.14516344514357879

>  <r_i_glide_ligand_efficiency>  (1) 
-0.24568183662885545

>  <r_i_glide_ligand_efficiency_ln>  (1) 
-1.4558489442891498

>  <r_i_glide_ligand_efficiency_sa>  (1) 
-0.71837804825948881

>  <r_i_glide_lipo>  (1) 
-3.3361699264970537

>  <r_i_glide_metal>  (1) 
-0

>  <r_i_glide_rewards>  (1) 
-1.934733071640717

>  <r_lp_Energy>  (1) 
20.477868999999998

>  <r_lp_tautomer_probability>  (1) 
0.26444745842670125

>  <s_epik_Chemistry_Notes>  (1) 
This compound has an imine and may undergo hydrolysis.

>  <s_epik_cmdline>  (1) 
J2VwaWtfcHl0aG9uJywgJy1waHQnLCAnMS4wJywgJy1waCcsICc3LjQnLCAnLXRuJywgJzgnLCAnLW1hJywgJzUwMCcsICctaW1hZScsICc8aW5maWxlLm1hZT4nLCAnLW9tYWUnLCAnPG91dGZpbGUubWFlPic=

>  <s_epik_input>  (1) 
W09IXVtDSDJdW0NIMl1bQ0BASF0oW0NIM10pTihDMT1PKU49W0NIXVtDQEBIXTFbQ0gyXVtDSDJdW0NIMl1OKFtDSDNdKVtDQEBIXShbQ0gzXSljMltjSF1bY0hdW2NIXVtjSF1jMkNs

>  <s_glide_docking_method>  (1) 
confgen

>  <s_i_glide_gridfile>  (1) 
gpcr_5ht2c_6bqh_protein_autoprepared_prepared

>  <s_lp_Force_Field>  (1) 
S-OPLS

>  <s_lp_Variant>  (1) 
DiffSBDD_59_num_sample_100-4

>  <s_m_source_file>  (1) 
generated__ligand_DiffSBDD_2026-05-06_prepared.sdf

>  <GenAI_Model>  (1) 
DiffSBDD

>  <Protein>  (1) 
GPCR_5HT2C

$$$$
DiffSBDD_60_num_sample_100
     RDKit          3D

  0  0  0  0  0  0  0  0  0  0999 V3000
M  V30 BEGIN CTAB
M  V30 COUNTS 75 77 0 0 1
M  V30 BEGIN ATOM
M  V30 1 C 40.267407 30.366597 51.214901 0
M  V30 2 C 37.317237 34.445914 61.137864 0
M  V30 3 C 38.613231 33.891764 61.102099 0
M  V30 4 C 38.414445 26.552327 55.526962 0
M  V30 5 N 39.590479 28.444277 50.253505 0
M  V30 6 C 39.016702 31.375684 53.852924 0
M  V30 7 C 37.666775 30.605749 57.852344 0
M  V30 8 C 37.920697 25.660264 57.852895 0
M  V30 9 C 38.759338 26.647479 57.025672 0 CFG=2
M  V30 10 C 38.656048 27.222088 52.140753 0
M  V30 11 C 38.524556 29.933577 58.958665 0 CFG=1
M  V30 12 O 37.422082 29.025387 54.253518 0
M  V30 13 C 40.235904 27.972829 59.245163 0 CFG=1
M  V30 14 C 40.587005 28.376485 60.686600 0
M  V30 15 C 39.271588 27.464846 54.608779 0 CFG=1
M  V30 16 N 39.467388 26.804013 53.294686 0 CHG=1
M  V30 17 C 37.844957 30.218620 60.316572 0
M  V30 18 C 39.307480 28.423381 51.553885 0
M  V30 19 C 39.594723 29.967695 53.688181 0 CFG=1
M  V30 20 C 38.801503 28.950148 54.547110 0 CFG=1
M  V30 21 O 39.702611 34.685844 61.313400 0
M  V30 22 C 38.784552 32.517772 60.845131 0
M  V30 23 C 39.723293 29.621525 52.221073 0
M  V30 24 C 42.310304 27.650091 58.139087 0
M  V30 25 C 43.427338 28.426768 57.453473 0
M  V30 26 C 36.193453 33.624900 60.920569 0
M  V30 27 C 38.818570 28.407957 58.783103 0 CFG=2
M  V30 28 O 38.559372 27.998180 57.436138 0
M  V30 29 N 40.167526 29.637768 50.076444 0
M  V30 30 C 38.267443 31.929363 57.353032 0
M  V30 31 C 37.659998 31.696748 60.618946 0
M  V30 32 C 36.363347 32.252410 60.660873 0
M  V30 33 O 41.210204 28.518640 58.366607 0
M  V30 34 H 40.714633 31.348510 51.223703 0
M  V30 35 H 37.183916 35.499300 61.333982 0
M  V30 36 H 38.572871 25.512030 55.237358 0
M  V30 37 H 37.350269 26.730392 55.371948 0
M  V30 38 H 39.467403 32.021429 53.117444 0
M  V30 39 H 39.238092 31.788680 54.831307 0
M  V30 40 H 37.940357 31.430070 53.699295 0
M  V30 41 H 36.667413 30.800222 58.243104 0
M  V30 42 H 37.471966 29.969505 56.996664 0
M  V30 43 H 37.998042 24.646925 57.457437 0
M  V30 44 H 36.866155 25.939091 57.852515 0
M  V30 45 H 38.267362 25.620689 58.885219 0
M  V30 46 H 39.807994 26.377532 57.126338 0
M  V30 47 H 37.606491 27.376601 52.387254 0
M  V30 48 H 38.688689 26.421463 51.402841 0
M  V30 49 H 39.492129 30.423123 58.951744 0
M  V30 50 H 37.090968 29.846253 54.592763 0
M  V30 51 H 40.267136 26.884793 59.210082 0
M  V30 52 H 39.848638 27.998042 61.393132 0
M  V30 53 H 40.648511 29.458044 60.800408 0
M  V30 54 H 41.551156 27.973984 60.986859 0
M  V30 55 H 40.267368 27.473214 55.053409 0
M  V30 56 H 40.427394 26.943845 53.016873 0
M  V30 57 H 36.862675 29.746416 60.266930 0
M  V30 58 H 38.380807 29.771685 61.149510 0
M  V30 59 H 40.599350 30.021422 54.109229 0
M  V30 60 H 38.910205 29.339238 55.552657 0
M  V30 61 H 39.777794 32.094803 60.813342 0
M  V30 62 H 41.998200 26.821509 57.506607 0
M  V30 63 H 42.680164 27.221590 59.068098 0
M  V30 64 H 44.295785 27.793142 57.280563 0
M  V30 65 H 43.743123 29.281142 58.046895 0
M  V30 66 H 43.081734 28.821427 56.504422 0
M  V30 67 H 35.200875 34.049237 60.949080 0
M  V30 68 H 38.117118 27.877728 59.412388 0
M  V30 69 H 40.483460 29.941367 49.166261 0
M  V30 70 H 37.692102 32.324645 56.515337 0
M  V30 71 H 39.300459 31.795861 57.034108 0
M  V30 72 H 38.261367 32.696145 58.125366 0
M  V30 73 H 35.499989 31.626988 60.485567 0
M  V30 74 H 39.479006 35.586498 61.488913 0
M  V30 75 H 39.323386 25.815479 53.431171 0
M  V30 END ATOM
M  V30 BEGIN BOND
M  V30 1 2 3 2
M  V30 2 1 9 4
M  V30 3 1 9 8
M  V30 4 1 11 7
M  V30 5 1 14 13
M  V30 6 1 15 4
M  V30 7 1 16 10
M  V30 8 1 16 15
M  V30 9 1 17 11
M  V30 10 2 18 5
M  V30 11 1 18 10
M  V30 12 1 19 6
M  V30 13 1 20 12
M  V30 14 1 20 15
M  V30 15 1 20 19
M  V30 16 1 21 3
M  V30 17 1 22 3
M  V30 18 2 23 1
M  V30 19 1 23 18
M  V30 20 1 23 19
M  V30 21 1 25 24
M  V30 22 1 26 2
M  V30 23 1 27 11
M  V30 24 1 27 13
M  V30 25 1 28 9
M  V30 26 1 28 27
M  V30 27 1 29 1
M  V30 28 1 29 5
M  V30 29 1 30 7
M  V30 30 1 31 17
M  V30 31 2 31 22
M  V30 32 2 32 26
M  V30 33 1 32 31
M  V30 34 1 33 13
M  V30 35 1 33 24
M  V30 36 1 34 1
M  V30 37 1 35 2
M  V30 38 1 36 4
M  V30 39 1 37 4
M  V30 40 1 38 6
M  V30 41 1 39 6
M  V30 42 1 40 6
M  V30 43 1 41 7
M  V30 44 1 42 7
M  V30 45 1 43 8
M  V30 46 1 44 8
M  V30 47 1 45 8
M  V30 48 1 9 46 CFG=3
M  V30 49 1 47 10
M  V30 50 1 48 10
M  V30 51 1 11 49 CFG=1
M  V30 52 1 50 12
M  V30 53 1 13 51 CFG=1
M  V30 54 1 52 14
M  V30 55 1 53 14
M  V30 56 1 54 14
M  V30 57 1 15 55 CFG=1
M  V30 58 1 56 16
M  V30 59 1 57 17
M  V30 60 1 58 17
M  V30 61 1 19 59 CFG=1
M  V30 62 1 20 60 CFG=1
M  V30 63 1 61 22
M  V30 64 1 62 24
M  V30 65 1 63 24
M  V30 66 1 64 25
M  V30 67 1 65 25
M  V30 68 1 66 25
M  V30 69 1 67 26
M  V30 70 1 27 68 CFG=1
M  V30 71 1 69 29
M  V30 72 1 70 30
M  V30 73 1 71 30
M  V30 74 1 72 30
M  V30 75 1 73 32
M  V30 76 1 74 21
M  V30 77 1 75 16
M  V30 END BOND
M  V30 END CTAB
M  END
>  <i_epik_Tot_Q>  (1) 
1

>  <i_epik_Tot_abs_Q>  (1) 
1

>  <i_i_glide_confnum>  (1) 
1287

>  <i_i_glide_lignum>  (1) 
152

>  <i_i_glide_posenum>  (1) 
358

>  <i_i_glide_rotatable_bonds>  (1) 
13

>  <i_lp_mmshare_version>  (1) 
72125

>  <i_m_source_file_index>  (1) 
61

>  <i_f3d_flags>  (1) 
0

>  <num_sample>  (1) 
100

>  <b_lp_Chiralities_Consistent>  (1) 
1

>  <r_epik_Charging_Adjusted_Penalty>  (1) 
0.78957387433993831

>  <r_epik_Ionization_Penalty>  (1) 
0.1824149004180404

>  <r_epik_Ionization_Penalty_Charging>  (1) 
0.18078284225256142

>  <r_epik_Ionization_Penalty_Neutral>  (1) 
0.0016320581654789871

>  <r_epik_State_Penalty>  (1) 
0.60879103208737684

>  <r_glide_ring_energy>  (1) 
0

>  <r_i_docking_score>  (1) 
-6.1411607598207212

>  <r_i_glide_ecoul>  (1) 
-1.4083160551662788

>  <r_i_glide_eff_state_penalty>  (1) 
0.60879103208737684

>  <r_i_glide_einternal>  (1) 
6.0828167502643957

>  <r_i_glide_emodel>  (1) 
-68.816098770358366

>  <r_i_glide_emodel_strain>  (1) 
2.2884262919248641

>  <r_i_glide_energy>  (1) 
-48.919785036784504

>  <r_i_glide_erotb>  (1) 
0.85380530184711001

>  <r_i_glide_esite>  (1) 
0

>  <r_i_glide_evdw>  (1) 
-47.511468981618222

>  <r_i_glide_gscore>  (1) 
-6.7499517919080976

>  <r_i_glide_gscore_strain>  (1) 
0

>  <r_i_glide_hbond>  (1) 
0

>  <r_i_glide_ligand_efficiency>  (1) 
-0.18609578060062792

>  <r_i_glide_ligand_efficiency_ln>  (1) 
-1.365762355755465

>  <r_i_glide_ligand_efficiency_sa>  (1) 
-0.59690860494388542

>  <r_i_glide_lipo>  (1) 
-4.3526721487979323

>  <r_i_glide_metal>  (1) 
-0

>  <r_i_glide_rewards>  (1) 
-0.66426408760142297

>  <r_lp_Energy>  (1) 
26.970752999999998

>  <r_lp_tautomer_probability>  (1) 
0.49999999999868239

>  <s_epik_cmdline>  (1) 
J2VwaWtfcHl0aG9uJywgJy1waHQnLCAnMS4wJywgJy1waCcsICc3LjQnLCAnLXRuJywgJzgnLCAnLW1hJywgJzUwMCcsICctaW1hZScsICc8aW5maWxlLm1hZT4nLCAnLW9tYWUnLCAnPG91dGZpbGUubWFlPic=

>  <s_epik_input>  (1) 
bjFbbkhdW2NIXWMoYzEyKVtDQEBIXShbQ0gzXSlbQ0BASF0oW09IXSlbQ0BIXShbTkhdW0NIMl0yKVtDSDJdW0NASF0oW0NIM10pT1tDQEBIXShbQ0BIXShbQ0gzXSlPW0NIMl1bQ0gzXSlbQ0BASF0oW0NIMl1bQ0gzXSlbQ0gyXUMoPVtDSF0zKVtDSDJdW0NIXT1bQ0hdQzM9Tw==

>  <s_glide_docking_method>  (1) 
confgen

>  <s_i_glide_gridfile>  (1) 
gpcr_5ht2c_6bqh_protein_autoprepared_prepared

>  <s_lp_Force_Field>  (1) 
S-OPLS

>  <s_lp_Variant>  (1) 
DiffSBDD_60_num_sample_100-1

>  <s_m_source_file>  (1) 
generated__ligand_DiffSBDD_2026-05-06_prepared.sdf

>  <GenAI_Model>  (1) 
DiffSBDD

>  <Protein>  (1) 
GPCR_5HT2C

$$$$
DiffSBDD_88_num_sample_100
     RDKit          3D

  0  0  0  0  0  0  0  0  0  0999 V3000
M  V30 BEGIN CTAB
M  V30 COUNTS 72 75 0 0 1
M  V30 BEGIN ATOM
M  V30 1 C 37.881510 32.865562 56.740744 0
M  V30 2 C 35.963997 34.171328 61.839173 0
M  V30 3 C 38.554152 27.992274 53.468510 0 CFG=1
M  V30 4 C 39.660898 31.748044 55.327005 0
M  V30 5 C 38.566619 33.054278 58.093220 0
M  V30 6 C 37.631399 29.180256 53.285815 0
M  V30 7 O 39.867406 31.139763 50.821022 0
M  V30 8 C 38.810794 27.950890 57.300083 0 CFG=1
M  V30 9 C 37.188687 31.466881 59.380036 0
M  V30 10 C 38.780875 32.990648 55.512538 0
M  V30 11 O 40.267400 29.398063 49.505899 0 CHG=-1
M  V30 12 N 38.888380 30.505573 55.099961 0 CFG=2 CHG=1
M  V30 13 C 39.665286 29.288049 55.470004 0 CFG=1
M  V30 14 C 39.634143 27.883834 52.292116 0 CFG=1
M  V30 15 C 37.066457 35.994198 60.486039 0
M  V30 16 C 38.227093 30.515857 53.776327 0
M  V30 17 C 39.696174 26.726777 57.063193 0
M  V30 18 C 39.159885 27.066586 51.086425 0
M  V30 19 C 40.515119 29.105923 51.853459 0
M  V30 20 N 36.848288 30.362990 59.444180 0
M  V30 21 C 40.177561 29.950864 50.620827 0
M  V30 22 C 39.885700 25.639200 54.846221 0
M  V30 23 O 38.482596 33.134204 60.412824 0
M  V30 24 C 36.396604 33.833819 59.322422 0 CFG=1
M  V30 25 C 36.735866 35.474288 61.676319 0
M  V30 26 C 39.659079 29.192895 57.024736 0
M  V30 27 C 35.428099 33.608920 60.506871 0
M  V30 28 C 38.969774 27.981121 54.994678 0 CFG=1
M  V30 29 C 36.704707 35.343737 59.168814 0
M  V30 30 C 37.867479 27.964160 56.074266 0
M  V30 31 C 37.635788 32.871610 59.309703 0 CFG=1
M  V30 32 C 39.577357 26.709786 55.570863 0
M  V30 33 H 37.467361 31.866290 56.735529 0
M  V30 34 H 37.069946 33.582750 56.649096 0
M  V30 35 H 36.642990 33.432350 62.253131 0
M  V30 36 H 35.154069 34.312686 62.556651 0
M  V30 37 H 37.922116 27.109875 53.347347 0
M  V30 38 H 40.343259 31.859995 54.494360 0
M  V30 39 H 40.267513 31.654134 56.217565 0
M  V30 40 H 39.045181 34.021394 58.133540 0
M  V30 41 H 39.380822 32.342411 58.177178 0
M  V30 42 H 36.686464 28.996106 53.800838 0
M  V30 43 H 37.394423 29.221330 52.224464 0
M  V30 44 H 38.312483 27.959069 58.270404 0
M  V30 45 H 38.154666 33.151785 54.637352 0
M  V30 46 H 39.400250 33.881303 55.587267 0
M  V30 47 H 40.668252 29.362556 55.069245 0
M  V30 48 H 40.388063 27.218192 52.673069 0
M  V30 49 H 37.610632 36.926429 60.437884 0
M  V30 50 H 37.411651 31.231830 53.853659 0
M  V30 51 H 38.914446 30.930229 53.053672 0
M  V30 52 H 39.284023 25.819299 57.508077 0
M  V30 53 H 40.724712 26.851507 57.402708 0
M  V30 54 H 38.225842 27.435799 50.681099 0
M  V30 55 H 39.886062 27.068511 50.276256 0
M  V30 56 H 39.067904 26.022351 51.353964 0
M  V30 57 H 40.667256 29.768132 52.695322 0
M  V30 58 H 41.492752 28.714940 51.590997 0
M  V30 59 H 40.266664 24.758318 55.323252 0
M  V30 60 H 39.755033 25.621339 53.786433 0
M  V30 61 H 38.153362 32.656667 61.158026 0
M  V30 62 H 35.805725 33.585977 58.444139 0
M  V30 63 H 37.020452 35.989290 62.583984 0
M  V30 64 H 39.183099 30.052044 57.496911 0
M  V30 65 H 40.660064 29.117349 57.451020 0
M  V30 66 H 34.481152 34.086335 60.257759 0
M  V30 67 H 35.181261 32.552726 60.622478 0
M  V30 68 H 37.467333 35.529370 58.421375 0
M  V30 69 H 35.816629 35.857591 58.801507 0
M  V30 70 H 37.225343 28.845155 56.081029 0
M  V30 71 H 37.239547 27.070176 56.030246 0
M  V30 72 H 38.126498 30.518830 55.763787 0
M  V30 END ATOM
M  V30 BEGIN BOND
M  V30 1 1 5 1
M  V30 2 1 6 3
M  V30 3 1 10 1
M  V30 4 1 10 4
M  V30 5 1 12 4
M  V30 6 1 13 12
M  V30 7 1 14 3
M  V30 8 1 16 6
M  V30 9 1 16 12
M  V30 10 1 17 8
M  V30 11 1 18 14
M  V30 12 1 19 14
M  V30 13 3 20 9
M  V30 14 2 21 7
M  V30 15 1 21 11
M  V30 16 1 21 19
M  V30 17 1 25 2
M  V30 18 2 25 15
M  V30 19 1 26 8
M  V30 20 1 26 13
M  V30 21 1 27 2
M  V30 22 1 27 24
M  V30 23 1 28 3
M  V30 24 1 28 13
M  V30 25 1 29 15
M  V30 26 1 29 24
M  V30 27 1 30 8
M  V30 28 1 30 28
M  V30 29 1 31 5
M  V30 30 1 31 9 CFG=1
M  V30 31 1 31 23
M  V30 32 1 31 24
M  V30 33 1 32 17
M  V30 34 2 32 22
M  V30 35 1 28 32 CFG=3
M  V30 36 1 33 1
M  V30 37 1 34 1
M  V30 38 1 35 2
M  V30 39 1 36 2
M  V30 40 1 3 37 CFG=1
M  V30 41 1 38 4
M  V30 42 1 39 4
M  V30 43 1 40 5
M  V30 44 1 41 5
M  V30 45 1 42 6
M  V30 46 1 43 6
M  V30 47 1 8 44 CFG=1
M  V30 48 1 45 10
M  V30 49 1 46 10
M  V30 50 1 13 47 CFG=3
M  V30 51 1 14 48 CFG=1
M  V30 52 1 49 15
M  V30 53 1 50 16
M  V30 54 1 51 16
M  V30 55 1 52 17
M  V30 56 1 53 17
M  V30 57 1 54 18
M  V30 58 1 55 18
M  V30 59 1 56 18
M  V30 60 1 57 19
M  V30 61 1 58 19
M  V30 62 1 59 22
M  V30 63 1 60 22
M  V30 64 1 61 23
M  V30 65 1 24 62 CFG=3
M  V30 66 1 63 25
M  V30 67 1 64 26
M  V30 68 1 65 26
M  V30 69 1 66 27
M  V30 70 1 67 27
M  V30 71 1 68 29
M  V30 72 1 69 29
M  V30 73 1 70 30
M  V30 74 1 71 30
M  V30 75 1 12 72 CFG=1
M  V30 END BOND
M  V30 END CTAB
M  END
>  <i_epik_Tot_Q>  (1) 
0

>  <i_epik_Tot_abs_Q>  (1) 
2

>  <i_i_glide_confnum>  (1) 
293

>  <i_i_glide_lignum>  (1) 
227

>  <i_i_glide_posenum>  (1) 
6

>  <i_i_glide_rotatable_bonds>  (1) 
10

>  <i_lp_mmshare_version>  (1) 
72125

>  <i_m_source_file_index>  (1) 
89

>  <i_f3d_flags>  (1) 
0

>  <num_sample>  (1) 
100

>  <b_lp_Chiralities_Consistent>  (1) 
1

>  <r_epik_Charging_Adjusted_Penalty>  (1) 
0.0020242395650179774

>  <r_epik_Ionization_Penalty>  (1) 
0.0021859291232044671

>  <r_epik_Ionization_Penalty_Charging>  (1) 
0.0020242395650179774

>  <r_epik_Ionization_Penalty_Neutral>  (1) 
0.00016168955818648959

>  <r_epik_State_Penalty>  (1) 
-0

>  <r_glide_ring_energy>  (1) 
1.8266832637363264

>  <r_i_docking_score>  (1) 
-6.1369782530179444

>  <r_i_glide_ecoul>  (1) 
-0.61166157083552575

>  <r_i_glide_eff_state_penalty>  (1) 
-0

>  <r_i_glide_einternal>  (1) 
9.6193552368879196

>  <r_i_glide_emodel>  (1) 
-36.899876953373834

>  <r_i_glide_emodel_strain>  (1) 
0.85545770958172795

>  <r_i_glide_energy>  (1) 
-25.231012130314117

>  <r_i_glide_erotb>  (1) 
0.71992511853168706

>  <r_i_glide_esite>  (1) 
-0.080885271804892606

>  <r_i_glide_evdw>  (1) 
-24.61935055947859

>  <r_i_glide_gscore>  (1) 
-6.1369782530179444

>  <r_i_glide_gscore_strain>  (1) 
0

>  <r_i_glide_hbond>  (1) 
0

>  <r_i_glide_ligand_efficiency>  (1) 
-0.19178057040681076

>  <r_i_glide_ligand_efficiency_ln>  (1) 
-1.3742367185597466

>  <r_i_glide_ligand_efficiency_sa>  (1) 
-0.60886535842166556

>  <r_i_glide_lipo>  (1) 
-3.6985157679636598

>  <r_i_glide_metal>  (1) 
-0

>  <r_i_glide_rewards>  (1) 
-1.7547855681818196

>  <r_lp_Energy>  (1) 
58.990349999999999

>  <r_lp_tautomer_probability>  (1) 
1

>  <s_epik_cmdline>  (1) 
J2VwaWtfcHl0aG9uJywgJy1waHQnLCAnMS4wJywgJy1waCcsICc3LjQnLCAnLXRuJywgJzgnLCAnLW1hJywgJzUwMCcsICctaW1hZScsICc8aW5maWxlLm1hZT4nLCAnLW9tYWUnLCAnPG91dGZpbGUubWFlPic=

>  <s_epik_input>  (1) 
W0NIMl0xW0NIXT1bQ0hdW0NIMl1bQ0gyXVtDQEBIXTFbQ0BdKEMjTikoW09IXSlbQ0gyXVtDSDJdW0NIMl1bQ0gyXU4oW0NASF0oW0NAXTIzNClbQ0gyXVtDQEBIXShbQ0gyXTMpW0NIMl1DND1bQ0gyXSlbQ0gyXVtDSDJdW0NASF0yW0NAQEhdKFtDSDNdKVtDSDJdQyg9TylbT0hd

>  <s_glide_docking_method>  (1) 
confgen

>  <s_i_glide_gridfile>  (1) 
gpcr_5ht2c_6bqh_protein_autoprepared_prepared

>  <s_lp_Force_Field>  (1) 
S-OPLS

>  <s_lp_Variant>  (1) 
DiffSBDD_88_num_sample_100-2

>  <s_m_source_file>  (1) 
generated__ligand_DiffSBDD_2026-05-06_prepared.sdf

>  <GenAI_Model>  (1) 
DiffSBDD

>  <Protein>  (1) 
GPCR_5HT2C

$$$$
DiffSBDD_57_num_sample_100
     RDKit          3D

  0  0  0  0  0  0  0  0  0  0999 V3000
M  V30 BEGIN CTAB
M  V30 COUNTS 38 40 0 0 1
M  V30 BEGIN ATOM
M  V30 1 C 38.250905 28.507702 56.838072 0
M  V30 2 C 38.043008 27.040549 54.902506 0
M  V30 3 N 37.168462 30.326291 59.930338 0
M  V30 4 O 37.649075 24.421883 55.736979 0
M  V30 5 C 39.466231 28.312564 51.834453 0
M  V30 6 C 39.899510 30.607357 52.994097 0
M  V30 7 C 38.557197 30.754263 60.007894 0 CFG=2
M  V30 8 C 37.638878 24.802297 56.921951 0
M  V30 9 N 38.500180 29.582551 56.062733 0
M  V30 10 C 38.045989 27.203020 56.317023 0
M  V30 11 C 38.460666 29.422091 54.726990 0
M  V30 12 C 38.157743 28.055108 52.579377 0
M  V30 13 C 38.229930 28.175542 54.097823 0
M  V30 14 C 38.142337 28.789166 58.338956 0 CFG=1
M  V30 15 C 39.812237 29.797032 51.685662 0
M  V30 16 C 38.678939 30.676075 53.918175 0
M  V30 17 Cl 38.577791 32.411285 59.352154 0
M  V30 18 S 39.572354 29.621422 59.018904 0
M  V30 19 N 37.817594 26.105482 57.238666 0
M  V30 20 C 36.954109 29.712221 58.629339 0
M  V30 21 O 37.467474 24.000170 57.853517 0 CHG=-1
M  V30 22 H 37.872216 26.097432 54.434864 0
M  V30 23 H 36.561926 31.130758 60.013741 0
M  V30 24 H 40.267642 27.742417 52.289181 0
M  V30 25 H 39.364914 27.905216 50.827028 0
M  V30 26 H 40.718718 30.248920 53.605513 0
M  V30 27 H 40.165705 31.621448 52.707951 0
M  V30 28 H 38.902037 30.801406 61.041882 0
M  V30 29 H 37.838801 27.040170 52.339808 0
M  V30 30 H 37.367605 28.705383 52.202672 0
M  V30 31 H 38.035717 27.884480 58.929907 0
M  V30 32 H 40.771377 29.874064 51.173367 0
M  V30 33 H 39.092944 30.251245 51.006162 0
M  V30 34 H 37.750308 30.957639 53.453494 0
M  V30 35 H 38.864941 31.491700 54.619020 0
M  V30 36 H 37.806080 26.338205 58.218280 0
M  V30 37 H 36.913722 30.511207 57.888941 0
M  V30 38 H 36.000412 29.185221 58.587793 0
M  V30 END ATOM
M  V30 BEGIN BOND
M  V30 1 1 7 3
M  V30 2 2 8 4
M  V30 3 1 9 1
M  V30 4 2 10 1
M  V30 5 1 10 2
M  V30 6 2 11 9
M  V30 7 1 12 5
M  V30 8 2 13 2
M  V30 9 1 13 11
M  V30 10 1 13 12
M  V30 11 1 14 1
M  V30 12 1 15 5
M  V30 13 1 15 6
M  V30 14 1 16 6
M  V30 15 1 16 11
M  V30 16 1 17 7
M  V30 17 1 18 7
M  V30 18 1 18 14
M  V30 19 1 19 8
M  V30 20 1 19 10
M  V30 21 1 20 3
M  V30 22 1 20 14
M  V30 23 1 21 8
M  V30 24 1 22 2
M  V30 25 1 23 3
M  V30 26 1 24 5
M  V30 27 1 25 5
M  V30 28 1 26 6
M  V30 29 1 27 6
M  V30 30 1 7 28 CFG=1
M  V30 31 1 29 12
M  V30 32 1 30 12
M  V30 33 1 14 31 CFG=1
M  V30 34 1 32 15
M  V30 35 1 33 15
M  V30 36 1 34 16
M  V30 37 1 35 16
M  V30 38 1 36 19
M  V30 39 1 37 20
M  V30 40 1 38 20
M  V30 END BOND
M  V30 END CTAB
M  END
>  <i_epik_Tot_Q>  (1) 
-1

>  <i_epik_Tot_abs_Q>  (1) 
1

>  <i_i_glide_confnum>  (1) 
5

>  <i_i_glide_lignum>  (1) 
146

>  <i_i_glide_posenum>  (1) 
75

>  <i_i_glide_rotatable_bonds>  (1) 
3

>  <i_lp_mmshare_version>  (1) 
72125

>  <i_m_source_file_index>  (1) 
58

>  <i_f3d_flags>  (1) 
0

>  <num_sample>  (1) 
100

>  <b_lp_Chiralities_Consistent>  (1) 
1

>  <r_epik_Charging_Adjusted_Penalty>  (1) 
0.030249611806120975

>  <r_epik_Ionization_Penalty>  (1) 
0.0034756844334769034

>  <r_epik_Ionization_Penalty_Charging>  (1) 
0.00037093854589671571

>  <r_epik_Ionization_Penalty_Neutral>  (1) 
0.0031047458875801876

>  <r_epik_State_Penalty>  (1) 
0.02987867326022426

>  <r_glide_ring_energy>  (1) 
0

>  <r_i_docking_score>  (1) 
-6.136701120323548

>  <r_i_glide_ecoul>  (1) 
-1.0560934164545652

>  <r_i_glide_eff_state_penalty>  (1) 
0.02987867326022426

>  <r_i_glide_einternal>  (1) 
0.16712560699868284

>  <r_i_glide_emodel>  (1) 
-42.599310649344289

>  <r_i_glide_emodel_strain>  (1) 
0.0068073854992363181

>  <r_i_glide_energy>  (1) 
-32.995137729217497

>  <r_i_glide_erotb>  (1) 
0.35125710597842541

>  <r_i_glide_esite>  (1) 
0

>  <r_i_glide_evdw>  (1) 
-31.939044312762935

>  <r_i_glide_gscore>  (1) 
-6.1665797935837725

>  <r_i_glide_gscore_strain>  (1) 
0

>  <r_i_glide_hbond>  (1) 
0

>  <r_i_glide_ligand_efficiency>  (1) 
-0.29222386287254992

>  <r_i_glide_ligand_efficiency_ln>  (1) 
-1.5172869516277845

>  <r_i_glide_ligand_efficiency_sa>  (1) 
-0.80622348019455936

>  <r_i_glide_lipo>  (1) 
-2.717585975838325

>  <r_i_glide_metal>  (1) 
-0

>  <r_i_glide_rewards>  (1) 
-2.0448846956175419

>  <r_lp_Energy>  (1) 
18.504829000000001

>  <s_epik_Chemistry_Notes>  (1) 
This compound contains an acetal/aminal-like group ( X-CH(R)-Y where X, Y are N, S, or O) that may be acid/base labile, releasing an aldehyde.

>  <s_epik_cmdline>  (1) 
J2VwaWtfcHl0aG9uJywgJy1waHQnLCAnMS4wJywgJy1waCcsICc3LjQnLCAnLXRuJywgJzgnLCAnLW1hJywgJzUwMCcsICctaW1hZScsICc8aW5maWxlLm1hZT4nLCAnLW9tYWUnLCAnPG91dGZpbGUubWFlPic=

>  <s_epik_input>  (1) 
Q2xbQ0BIXTFbTkhdW0NIMl1bQ0BIXShTMSljKG4yKWMoW05IXUMoPU8pW09IXSlbY0hdYyhjMjMpW0NIMl1bQ0gyXVtDSDJdW0NIMl1bQ0gyXTM=

>  <s_glide_docking_method>  (1) 
confgen

>  <s_i_glide_gridfile>  (1) 
gpcr_5ht2c_6bqh_protein_autoprepared_prepared

>  <s_lp_Force_Field>  (1) 
S-OPLS

>  <s_lp_Variant>  (1) 
DiffSBDD_57_num_sample_100-1

>  <s_m_source_file>  (1) 
generated__ligand_DiffSBDD_2026-05-06_prepared.sdf

>  <GenAI_Model>  (1) 
DiffSBDD

>  <Protein>  (1) 
GPCR_5HT2C

$$$$
DiffSBDD_47_num_sample_100
     RDKit          3D

  0  0  0  0  0  0  0  0  0  0999 V3000
M  V30 BEGIN CTAB
M  V30 COUNTS 32 32 0 0 1
M  V30 BEGIN ATOM
M  V30 1 S 38.480091 26.610089 55.053492 0
M  V30 2 C 39.706445 30.144483 52.529522 0
M  V30 3 N 38.440437 28.888061 56.536588 0
M  V30 4 C 38.866825 29.356615 58.891733 0
M  V30 5 C 37.984254 29.132792 54.151892 0
M  V30 6 O 39.800736 31.221065 50.017170 0 CHG=-1
M  V30 7 C 38.812832 28.395203 55.221149 0 CFG=2
M  V30 8 C 39.823647 28.657970 59.888560 0 CFG=2
M  V30 9 C 38.614833 29.080796 52.749325 0
M  V30 10 C 40.006815 29.376189 61.233330 0
M  V30 11 O 41.067403 29.330041 61.853501 0
M  V30 12 O 39.867403 28.640656 50.253501 0
M  V30 13 S 40.317191 30.003024 50.784167 0
M  V30 14 C 39.213863 28.782109 57.544312 0
M  V30 15 C 41.171878 28.392493 59.172332 0
M  V30 16 O 38.907663 30.021430 61.643720 0
M  V30 17 O 39.053781 30.574629 62.983638 0
M  V30 18 S 40.791497 27.944061 57.468562 0
M  V30 19 H 38.764535 26.541643 53.749624 0
M  V30 20 H 39.321706 31.152100 52.682903 0
M  V30 21 H 40.539778 30.021430 53.217186 0
M  V30 22 H 37.820746 29.161522 59.131727 0
M  V30 23 H 39.018464 30.436634 58.868730 0
M  V30 24 H 36.981062 28.708022 54.117497 0
M  V30 25 H 37.845019 30.178345 54.432712 0
M  V30 26 H 39.867372 28.581961 55.016163 0
M  V30 27 H 39.390623 27.683895 60.118633 0
M  V30 28 H 39.017566 28.086121 52.557624 0
M  V30 29 H 37.834786 29.221430 52.002551 0
M  V30 30 H 41.777278 29.297841 59.134665 0
M  V30 31 H 41.765599 27.621430 59.660279 0
M  V30 32 H 38.835228 29.814788 63.514371 0
M  V30 END ATOM
M  V30 BEGIN BOND
M  V30 1 1 7 1
M  V30 2 1 7 3
M  V30 3 1 7 5
M  V30 4 1 8 4
M  V30 5 1 9 2
M  V30 6 1 9 5
M  V30 7 1 10 8
M  V30 8 2 11 10
M  V30 9 1 13 2
M  V30 10 1 13 6
M  V30 11 2 13 12
M  V30 12 2 14 3
M  V30 13 1 14 4
M  V30 14 1 15 8
M  V30 15 1 16 10
M  V30 16 1 17 16
M  V30 17 1 18 14
M  V30 18 1 18 15
M  V30 19 1 19 1
M  V30 20 1 20 2
M  V30 21 1 21 2
M  V30 22 1 22 4
M  V30 23 1 23 4
M  V30 24 1 24 5
M  V30 25 1 25 5
M  V30 26 1 7 26 CFG=3
M  V30 27 1 8 27 CFG=1
M  V30 28 1 28 9
M  V30 29 1 29 9
M  V30 30 1 30 15
M  V30 31 1 31 15
M  V30 32 1 32 17
M  V30 END BOND
M  V30 END CTAB
M  END
>  <i_epik_Tot_Q>  (1) 
-1

>  <i_epik_Tot_abs_Q>  (1) 
1

>  <i_i_glide_confnum>  (1) 
43

>  <i_i_glide_lignum>  (1) 
129

>  <i_i_glide_posenum>  (1) 
366

>  <i_i_glide_rotatable_bonds>  (1) 
9

>  <i_lp_mmshare_version>  (1) 
72125

>  <i_m_source_file_index>  (1) 
48

>  <i_f3d_flags>  (1) 
0

>  <num_sample>  (1) 
100

>  <b_lp_Chiralities_Consistent>  (1) 
1

>  <r_epik_Charging_Adjusted_Penalty>  (1) 
0.41068401557064588

>  <r_epik_Ionization_Penalty>  (1) 
0.088233061061265911

>  <r_epik_Ionization_Penalty_Charging>  (1) 
4.1766180419441644e-06

>  <r_epik_Ionization_Penalty_Neutral>  (1) 
0.088228884443223965

>  <r_epik_State_Penalty>  (1) 
0.41067983895260396

>  <r_glide_ring_energy>  (1) 
0

>  <r_i_docking_score>  (1) 
-6.1362391871229303

>  <r_i_glide_ecoul>  (1) 
-4.5546435304896402

>  <r_i_glide_eff_state_penalty>  (1) 
0.41067983895260396

>  <r_i_glide_einternal>  (1) 
4.3266469539639143

>  <r_i_glide_emodel>  (1) 
-54.033579004337383

>  <r_i_glide_emodel_strain>  (1) 
0.25408777050900611

>  <r_i_glide_energy>  (1) 
-40.327882810454184

>  <r_i_glide_erotb>  (1) 
1.1409563005043168

>  <r_i_glide_esite>  (1) 
-0.0046895533360015824

>  <r_i_glide_evdw>  (1) 
-35.773239279964542

>  <r_i_glide_gscore>  (1) 
-6.5469190260755346

>  <r_i_glide_gscore_strain>  (1) 
0

>  <r_i_glide_hbond>  (1) 
-0.60799999999999998

>  <r_i_glide_ligand_efficiency>  (1) 
-0.34090217706238501

>  <r_i_glide_ligand_efficiency_ln>  (1) 
-1.5772886420605947

>  <r_i_glide_ligand_efficiency_sa>  (1) 
-0.89341644680332311

>  <r_i_glide_lipo>  (1) 
-1.8935019616268283

>  <r_i_glide_metal>  (1) 
-0

>  <r_i_glide_rewards>  (1) 
-2.7098253180453478

>  <r_lp_Energy>  (1) 
-2.9983

>  <r_lp_tautomer_probability>  (1) 
0.49990026989615577

>  <s_epik_Chemistry_Notes>  (1) 
This compound has an imine and may undergo hydrolysis. This compound contains an acetal/aminal-like group ( X-CH(R)-Y where X, Y are N, S, or O) that may be acid/base labile, releasing an aldehyde.

>  <s_epik_cmdline>  (1) 
J2VwaWtfcHl0aG9uJywgJy1waHQnLCAnMS4wJywgJy1waCcsICc3LjQnLCAnLXRuJywgJzgnLCAnLW1hJywgJzUwMCcsICctaW1hZScsICc8aW5maWxlLm1hZT4nLCAnLW9tYWUnLCAnPG91dGZpbGUubWFlPic=

>  <s_epik_input>  (1) 
W09IXVtTQEBdKD1PKVtDSDJdW0NIMl1bQ0gyXVtDQEhdKFtTSF0pL049QyhTW0NIMl0xKS9bQ0gyXVtDQEBIXTFDKD1PKU9bT0hd

>  <s_glide_docking_method>  (1) 
confgen

>  <s_i_glide_gridfile>  (1) 
gpcr_5ht2c_6bqh_protein_autoprepared_prepared

>  <s_lp_Force_Field>  (1) 
S-OPLS

>  <s_lp_Variant>  (1) 
DiffSBDD_47_num_sample_100-1

>  <s_m_source_file>  (1) 
generated__ligand_DiffSBDD_2026-05-06_prepared.sdf

>  <GenAI_Model>  (1) 
DiffSBDD

>  <Protein>  (1) 
GPCR_5HT2C

$$$$
DiffSBDD_88_num_sample_100
     RDKit          3D

  0  0  0  0  0  0  0  0  0  0999 V3000
M  V30 BEGIN CTAB
M  V30 COUNTS 72 75 0 0 1
M  V30 BEGIN ATOM
M  V30 1 C 39.305137 32.472074 55.612594 0
M  V30 2 C 38.319163 27.042441 53.855225 0
M  V30 3 C 37.986026 32.885536 61.825661 0 CFG=1
M  V30 4 C 37.902701 33.322045 57.612474 0
M  V30 5 C 38.201583 31.677558 54.896675 0
M  V30 6 C 36.904826 32.029761 61.097148 0
M  V30 7 O 41.965921 31.167628 64.059545 0
M  V30 8 C 36.675860 36.302271 60.751125 0 CFG=1
M  V30 9 C 37.999075 29.773239 56.503162 0
M  V30 10 C 39.170915 32.624536 57.130811 0
M  V30 11 O 41.345015 30.022529 62.253508 0 CHG=-1
M  V30 12 N 37.798893 33.228570 59.085026 0 CFG=1 CHG=1
M  V30 13 C 37.983759 34.511336 59.813164 0 CFG=1
M  V30 14 C 39.395796 32.168121 61.743638 0 CFG=1
M  V30 15 C 38.940074 28.633510 51.998065 0
M  V30 16 C 36.697645 32.379983 59.599703 0
M  V30 17 C 37.917622 36.881053 61.477759 0
M  V30 18 C 40.539089 32.898986 61.007411 0
M  V30 19 C 39.822859 31.628296 63.137917 0
M  V30 20 N 37.846805 29.480089 57.613775 0
M  V30 21 C 41.158693 30.872871 63.152833 0
M  V30 22 C 39.508957 35.508118 62.830351 0
M  V30 23 O 37.067366 29.747111 54.365929 0
M  V30 24 C 39.383244 29.348532 54.451204 0 CFG=1
M  V30 25 C 38.366853 27.492344 52.408882 0
M  V30 26 C 37.037802 35.672013 59.401505 0
M  V30 27 C 39.296413 27.819425 54.755893 0
M  V30 28 C 37.797792 34.375986 61.338925 0 CFG=1
M  V30 29 C 39.614022 29.624768 52.928286 0
M  V30 30 C 36.386079 34.996175 61.524641 0
M  V30 31 C 38.193881 30.137387 55.084683 0 CFG=1
M  V30 32 C 38.503903 35.580939 61.943501 0
M  V30 33 H 40.269968 32.021406 55.384178 0
M  V30 34 H 39.323063 33.476083 55.192407 0
M  V30 35 H 37.294535 27.146309 54.212590 0
M  V30 36 H 38.551043 25.979862 53.901090 0
M  V30 37 H 37.699071 32.821428 62.866586 0
M  V30 38 H 37.867394 34.350280 57.252255 0
M  V30 39 H 37.067402 32.821544 57.168408 0
M  V30 40 H 38.249290 31.937123 53.842459 0
M  V30 41 H 37.228422 32.066475 55.187582 0
M  V30 42 H 35.947117 32.157490 61.602505 0
M  V30 43 H 37.116654 30.965038 61.203019 0
M  V30 44 H 35.873156 37.034791 60.653488 0
M  V30 45 H 39.284234 31.659501 57.615911 0
M  V30 46 H 40.003260 33.221432 57.474965 0
M  V30 47 H 39.010144 34.821112 59.653415 0
M  V30 48 H 39.261562 31.269832 61.138542 0
M  V30 49 H 38.933287 28.884853 50.946465 0
M  V30 50 H 35.745071 32.886211 59.439480 0
M  V30 51 H 36.641373 31.455278 59.026740 0
M  V30 52 H 37.643920 37.506912 62.328389 0
M  V30 53 H 38.584615 37.430013 60.816192 0
M  V30 54 H 40.887298 33.807214 61.484406 0
M  V30 55 H 41.418885 32.265876 60.908617 0
M  V30 56 H 40.267395 33.133511 59.986714 0
M  V30 57 H 39.870652 32.435918 63.867719 0
M  V30 58 H 39.067849 30.925487 63.492301 0
M  V30 59 H 39.956030 36.403848 63.236553 0
M  V30 60 H 39.889927 34.560446 63.168559 0
M  V30 61 H 36.306025 30.057383 54.837226 0
M  V30 62 H 40.269739 29.711584 54.970361 0
M  V30 63 H 37.900497 26.839643 51.685348 0
M  V30 64 H 36.132515 35.290475 58.925940 0
M  V30 65 H 37.467407 36.395173 58.711563 0
M  V30 66 H 40.267403 27.350588 54.653378 0
M  V30 67 H 39.045840 27.630863 55.798297 0
M  V30 68 H 39.296312 30.622344 52.650248 0
M  V30 69 H 40.667396 29.621443 52.664263 0
M  V30 70 H 35.570492 34.421987 61.085239 0
M  V30 71 H 36.111855 35.201081 62.562146 0
M  V30 72 H 38.612365 32.690934 59.347884 0
M  V30 END ATOM
M  V30 BEGIN BOND
M  V30 1 1 5 1
M  V30 2 1 6 3
M  V30 3 1 10 1
M  V30 4 1 10 4
M  V30 5 1 12 4
M  V30 6 1 13 12
M  V30 7 1 14 3
M  V30 8 1 16 6
M  V30 9 1 16 12
M  V30 10 1 17 8
M  V30 11 1 18 14
M  V30 12 1 19 14
M  V30 13 3 20 9
M  V30 14 2 21 7
M  V30 15 1 21 11
M  V30 16 1 21 19
M  V30 17 1 25 2
M  V30 18 2 25 15
M  V30 19 1 26 8
M  V30 20 1 26 13
M  V30 21 1 27 2
M  V30 22 1 27 24
M  V30 23 1 28 3
M  V30 24 1 28 13
M  V30 25 1 29 15
M  V30 26 1 29 24
M  V30 27 1 30 8
M  V30 28 1 30 28
M  V30 29 1 31 5
M  V30 30 1 31 9 CFG=1
M  V30 31 1 31 23
M  V30 32 1 31 24
M  V30 33 1 32 17
M  V30 34 2 32 22
M  V30 35 1 28 32 CFG=1
M  V30 36 1 33 1
M  V30 37 1 34 1
M  V30 38 1 35 2
M  V30 39 1 36 2
M  V30 40 1 3 37 CFG=1
M  V30 41 1 38 4
M  V30 42 1 39 4
M  V30 43 1 40 5
M  V30 44 1 41 5
M  V30 45 1 42 6
M  V30 46 1 43 6
M  V30 47 1 8 44 CFG=3
M  V30 48 1 45 10
M  V30 49 1 46 10
M  V30 50 1 13 47 CFG=1
M  V30 51 1 14 48 CFG=3
M  V30 52 1 49 15
M  V30 53 1 50 16
M  V30 54 1 51 16
M  V30 55 1 52 17
M  V30 56 1 53 17
M  V30 57 1 54 18
M  V30 58 1 55 18
M  V30 59 1 56 18
M  V30 60 1 57 19
M  V30 61 1 58 19
M  V30 62 1 59 22
M  V30 63 1 60 22
M  V30 64 1 61 23
M  V30 65 1 24 62 CFG=1
M  V30 66 1 63 25
M  V30 67 1 64 26
M  V30 68 1 65 26
M  V30 69 1 66 27
M  V30 70 1 67 27
M  V30 71 1 68 29
M  V30 72 1 69 29
M  V30 73 1 70 30
M  V30 74 1 71 30
M  V30 75 1 12 72 CFG=1
M  V30 END BOND
M  V30 END CTAB
M  END
>  <i_epik_Tot_Q>  (1) 
0

>  <i_epik_Tot_abs_Q>  (1) 
2

>  <i_i_glide_confnum>  (1) 
629

>  <i_i_glide_lignum>  (1) 
226

>  <i_i_glide_posenum>  (1) 
101

>  <i_i_glide_rotatable_bonds>  (1) 
10

>  <i_lp_mmshare_version>  (1) 
72125

>  <i_m_source_file_index>  (1) 
89

>  <i_f3d_flags>  (1) 
0

>  <num_sample>  (1) 
100

>  <b_lp_Chiralities_Consistent>  (1) 
1

>  <r_epik_Charging_Adjusted_Penalty>  (1) 
0.0020242395650179774

>  <r_epik_Ionization_Penalty>  (1) 
0.0021859291232044671

>  <r_epik_Ionization_Penalty_Charging>  (1) 
0.0020242395650179774

>  <r_epik_Ionization_Penalty_Neutral>  (1) 
0.00016168955818648959

>  <r_epik_State_Penalty>  (1) 
-0

>  <r_glide_ring_energy>  (1) 
1.8266832637363128

>  <r_i_docking_score>  (1) 
-6.1356606362910169

>  <r_i_glide_ecoul>  (1) 
-5.7484608274932505

>  <r_i_glide_eff_state_penalty>  (1) 
-0

>  <r_i_glide_einternal>  (1) 
13.496249665959583

>  <r_i_glide_emodel>  (1) 
-38.924517762515272

>  <r_i_glide_emodel_strain>  (1) 
0.12298051556638256

>  <r_i_glide_energy>  (1) 
-34.608168705359958

>  <r_i_glide_erotb>  (1) 
0.71992511853168706

>  <r_i_glide_esite>  (1) 
-0.088821952410881769

>  <r_i_glide_evdw>  (1) 
-28.859707877866711

>  <r_i_glide_gscore>  (1) 
-6.1356606362910169

>  <r_i_glide_gscore_strain>  (1) 
0

>  <r_i_glide_hbond>  (1) 
-0.16

>  <r_i_glide_ligand_efficiency>  (1) 
-0.19173939488409428

>  <r_i_glide_ligand_efficiency_ln>  (1) 
-1.3739416682577121

>  <r_i_glide_ligand_efficiency_sa>  (1) 
-0.60873463428551466

>  <r_i_glide_lipo>  (1) 
-3.1260060980681263

>  <r_i_glide_metal>  (1) 
-0

>  <r_i_glide_rewards>  (1) 
-1.1755031863263723

>  <r_lp_Energy>  (1) 
68.419443999999999

>  <r_lp_tautomer_probability>  (1) 
1

>  <s_epik_cmdline>  (1) 
J2VwaWtfcHl0aG9uJywgJy1waHQnLCAnMS4wJywgJy1waCcsICc3LjQnLCAnLXRuJywgJzgnLCAnLW1hJywgJzUwMCcsICctaW1hZScsICc8aW5maWxlLm1hZT4nLCAnLW9tYWUnLCAnPG91dGZpbGUubWFlPic=

>  <s_epik_input>  (1) 
W0NIMl0xW0NIXT1bQ0hdW0NIMl1bQ0gyXVtDQEBIXTFbQ0BdKEMjTikoW09IXSlbQ0gyXVtDSDJdW0NIMl1bQ0gyXU4oW0NASF0oW0NAXTIzNClbQ0gyXVtDQEBIXShbQ0gyXTMpW0NIMl1DND1bQ0gyXSlbQ0gyXVtDSDJdW0NASF0yW0NAQEhdKFtDSDNdKVtDSDJdQyg9TylbT0hd

>  <s_glide_docking_method>  (1) 
confgen

>  <s_i_glide_gridfile>  (1) 
gpcr_5ht2c_6bqh_protein_autoprepared_prepared

>  <s_lp_Force_Field>  (1) 
S-OPLS

>  <s_lp_Variant>  (1) 
DiffSBDD_88_num_sample_100-1

>  <s_m_source_file>  (1) 
generated__ligand_DiffSBDD_2026-05-06_prepared.sdf

>  <GenAI_Model>  (1) 
DiffSBDD

>  <Protein>  (1) 
GPCR_5HT2C

$$$$
DiffSBDD_44_num_sample_100
     RDKit          3D

  0  0  0  0  0  0  0  0  0  0999 V3000
M  V30 BEGIN CTAB
M  V30 COUNTS 58 59 0 0 1
M  V30 BEGIN ATOM
M  V30 1 C 35.212652 32.000552 59.854052 0
M  V30 2 O 38.267423 29.181666 59.284960 0 CHG=-1
M  V30 3 C 39.311281 29.621438 53.327151 0
M  V30 4 C 37.472490 32.685168 59.312940 0 CFG=1
M  V30 5 N 37.488769 31.220142 59.535833 0 CFG=1 CHG=1
M  V30 6 C 39.015918 27.541620 52.051524 0
M  V30 7 N 37.867406 28.657859 55.574108 0
M  V30 8 C 38.897416 28.375461 53.316968 0
M  V30 9 O 39.034526 26.598776 54.997878 0
M  V30 10 C 36.186978 33.169599 59.989721 0 CFG=1
M  V30 11 C 35.634785 34.465455 59.386564 0
M  V30 12 C 38.271349 30.423001 57.221398 0 CFG=1
M  V30 13 C 38.657003 29.168269 56.438676 0
M  V30 14 C 36.069922 30.779343 59.524748 0
M  V30 15 C 38.298015 25.646885 55.753581 0
M  V30 16 C 40.297944 30.735602 51.369912 0
M  V30 17 C 38.468121 30.375000 58.780952 0 CFG=2
M  V30 18 C 38.257047 27.702487 54.540499 0 CFG=1
M  V30 19 F 40.640766 29.621428 49.400265 0
M  V30 20 C 40.402384 29.347237 50.679469 0 CFG=2
M  V30 21 C 39.867379 30.686483 52.820200 0
M  V30 22 C 38.992291 31.604774 56.519072 0
M  V30 23 C 40.047253 28.608912 56.736960 0
M  V30 24 C 38.719358 33.395290 59.870454 0
M  V30 25 C 39.171270 28.396395 50.760980 0
M  V30 26 H 34.480666 32.168464 59.061876 0
M  V30 27 H 34.667405 31.853933 60.784250 0
M  V30 28 H 37.344058 32.882923 58.251215 0
M  V30 29 H 39.852267 26.851345 52.163973 0
M  V30 30 H 38.119608 26.929160 51.953248 0
M  V30 31 H 36.378635 33.322866 61.053966 0
M  V30 32 H 35.489246 34.373532 58.309081 0
M  V30 33 H 34.667402 34.696515 59.822447 0
M  V30 34 H 36.298963 35.310377 59.566726 0
M  V30 35 H 37.210646 30.559880 57.027401 0
M  V30 36 H 35.767654 30.356216 58.571335 0
M  V30 37 H 35.924254 29.992577 60.253501 0
M  V30 38 H 38.965046 24.853935 56.092187 0
M  V30 39 H 37.843548 26.100831 56.635269 0
M  V30 40 H 37.511328 25.188310 55.152992 0
M  V30 41 H 39.600556 31.374472 50.826804 0
M  V30 42 H 41.269556 31.221427 51.314528 0
M  V30 43 H 39.439371 30.823436 58.962265 0
M  V30 44 H 37.327471 27.286213 54.148564 0
M  V30 45 H 41.280170 28.823045 51.053532 0
M  V30 46 H 39.985552 31.589527 53.399033 0
M  V30 47 H 38.489975 31.846364 55.580816 0
M  V30 48 H 39.035910 32.519983 57.099391 0
M  V30 49 H 40.024113 31.367781 56.265022 0
M  V30 50 H 40.576718 29.220452 57.464811 0
M  V30 51 H 39.966028 27.608553 57.160875 0
M  V30 52 H 40.656527 28.565580 55.835398 0
M  V30 53 H 38.602471 34.477522 59.829914 0
M  V30 54 H 38.898960 33.128042 60.912077 0
M  V30 55 H 39.614647 33.153285 59.302082 0
M  V30 56 H 39.187256 27.714265 49.912537 0
M  V30 57 H 38.267489 28.986209 50.653501 0
M  V30 58 H 37.777726 31.092632 60.492135 0
M  V30 END ATOM
M  V30 BEGIN BOND
M  V30 1 1 5 4
M  V30 2 2 8 3
M  V30 3 1 8 6
M  V30 4 1 10 1
M  V30 5 1 10 4
M  V30 6 1 11 10
M  V30 7 2 13 7
M  V30 8 1 13 12
M  V30 9 1 14 1
M  V30 10 1 14 5
M  V30 11 1 15 9
M  V30 12 1 17 2
M  V30 13 1 17 5
M  V30 14 1 17 12
M  V30 15 1 18 7
M  V30 16 1 18 8
M  V30 17 1 18 9
M  V30 18 1 20 16
M  V30 19 1 20 19
M  V30 20 2 21 3
M  V30 21 1 21 16
M  V30 22 1 22 12
M  V30 23 1 23 13
M  V30 24 1 24 4
M  V30 25 1 25 6
M  V30 26 1 25 20
M  V30 27 1 26 1
M  V30 28 1 27 1
M  V30 29 1 4 28 CFG=3
M  V30 30 1 29 6
M  V30 31 1 30 6
M  V30 32 1 10 31 CFG=1
M  V30 33 1 32 11
M  V30 34 1 33 11
M  V30 35 1 34 11
M  V30 36 1 12 35 CFG=1
M  V30 37 1 36 14
M  V30 38 1 37 14
M  V30 39 1 38 15
M  V30 40 1 39 15
M  V30 41 1 40 15
M  V30 42 1 41 16
M  V30 43 1 42 16
M  V30 44 1 17 43 CFG=3
M  V30 45 1 18 44 CFG=3
M  V30 46 1 20 45 CFG=1
M  V30 47 1 46 21
M  V30 48 1 47 22
M  V30 49 1 48 22
M  V30 50 1 49 22
M  V30 51 1 50 23
M  V30 52 1 51 23
M  V30 53 1 52 23
M  V30 54 1 53 24
M  V30 55 1 54 24
M  V30 56 1 55 24
M  V30 57 1 56 25
M  V30 58 1 57 25
M  V30 59 1 5 58 CFG=1
M  V30 END BOND
M  V30 END CTAB
M  END
>  <i_epik_Tot_Q>  (1) 
0

>  <i_epik_Tot_abs_Q>  (1) 
2

>  <i_i_glide_confnum>  (1) 
48

>  <i_i_glide_lignum>  (1) 
120

>  <i_i_glide_posenum>  (1) 
152

>  <i_i_glide_rotatable_bonds>  (1) 
6

>  <i_lp_mmshare_version>  (1) 
72125

>  <i_m_source_file_index>  (1) 
45

>  <i_f3d_flags>  (1) 
0

>  <num_sample>  (1) 
100

>  <b_lp_Chiralities_Consistent>  (1) 
1

>  <r_epik_Charging_Adjusted_Penalty>  (1) 
0.41733257654759531

>  <r_epik_Ionization_Penalty>  (1) 
0.0069177268181324029

>  <r_epik_Ionization_Penalty_Charging>  (1) 
0.0066527375949913311

>  <r_epik_Ionization_Penalty_Neutral>  (1) 
0.00026498922314107146

>  <r_epik_State_Penalty>  (1) 
0.41067983895260396

>  <r_glide_ring_energy>  (1) 
0

>  <r_i_docking_score>  (1) 
-6.1339963576837633

>  <r_i_glide_ecoul>  (1) 
-1.4079005569714846

>  <r_i_glide_eff_state_penalty>  (1) 
0.41067983895260396

>  <r_i_glide_einternal>  (1) 
7.5216645474351758

>  <r_i_glide_emodel>  (1) 
-42.941237174869194

>  <r_i_glide_emodel_strain>  (1) 
2.5129822637520789

>  <r_i_glide_energy>  (1) 
-33.582925922463772

>  <r_i_glide_erotb>  (1) 
0.61440649929112812

>  <r_i_glide_esite>  (1) 
-0.072667515509907785

>  <r_i_glide_evdw>  (1) 
-32.175025365492289

>  <r_i_glide_gscore>  (1) 
-6.5446761966363676

>  <r_i_glide_gscore_strain>  (1) 
0

>  <r_i_glide_hbond>  (1) 
0

>  <r_i_glide_ligand_efficiency>  (1) 
-0.24535985430735052

>  <r_i_glide_ligand_efficiency_ln>  (1) 
-1.4539409578084443

>  <r_i_glide_ligand_efficiency_sa>  (1) 
-0.7174365662400175

>  <r_i_glide_lipo>  (1) 
-2.7166433541879829

>  <r_i_glide_metal>  (1) 
-0

>  <r_i_glide_rewards>  (1) 
-2.5498354744092682

>  <r_lp_Energy>  (1) 
10.956301

>  <r_lp_tautomer_probability>  (1) 
0.49999399997599986

>  <s_epik_Chemistry_Notes>  (1) 
This compound has an imine and may undergo hydrolysis. This compound contains an acetal/aminal-like group ( X-CH(R)-Y where X, Y are N, S, or O) that may be acid/base labile, releasing an aldehyde.

>  <s_epik_cmdline>  (1) 
J2VwaWtfcHl0aG9uJywgJy1waHQnLCAnMS4wJywgJy1waCcsICc3LjQnLCAnLXRuJywgJzgnLCAnLW1hJywgJzUwMCcsICctaW1hZScsICc8aW5maWxlLm1hZT4nLCAnLW9tYWUnLCAnPG91dGZpbGUubWFlPic=

>  <s_epik_input>  (1) 
W0NIM11bQ0BIXTFbQ0gyXVtDSDJdTihbQ0BASF0xW0NIM10pW0NAQEhdKFtPSF0pW0NAQEhdKFtDSDNdKVxDKFtDSDNdKT1OXFtDQEBIXShPW0NIM10pQzI9Qz1bQ0hdW0NIMl1bQ0BASF0oRilbQ0gyXVtDSDJdMg==

>  <s_glide_docking_method>  (1) 
confgen

>  <s_i_glide_gridfile>  (1) 
gpcr_5ht2c_6bqh_protein_autoprepared_prepared

>  <s_lp_Force_Field>  (1) 
S-OPLS

>  <s_lp_Variant>  (1) 
DiffSBDD_44_num_sample_100-13

>  <s_m_source_file>  (1) 
generated__ligand_DiffSBDD_2026-05-06_prepared.sdf

>  <GenAI_Model>  (1) 
DiffSBDD

>  <Protein>  (1) 
GPCR_5HT2C

$$$$
DiffSBDD_18_num_sample_100
     RDKit          3D

  0  0  0  0  0  0  0  0  0  0999 V3000
M  V30 BEGIN CTAB
M  V30 COUNTS 71 73 0 0 1
M  V30 BEGIN ATOM
M  V30 1 O 38.286709 32.027054 62.030815 0
M  V30 2 C 38.773978 28.114210 52.207361 0
M  V30 3 C 38.310988 27.849139 57.415803 0
M  V30 4 C 39.329865 28.438953 51.049409 0
M  V30 5 O 39.066313 28.429515 60.054299 0
M  V30 6 C 38.444132 28.993530 54.472452 0 CFG=2
M  V30 7 C 41.876832 32.862101 66.428562 0
M  V30 8 N 38.943442 29.043233 53.084220 0 CHG=1
M  V30 9 N 37.451599 30.050864 54.661287 0
M  V30 10 C 40.283070 33.577812 62.466002 0
M  V30 11 C 40.770086 31.017467 65.200170 0
M  V30 12 O 41.450129 33.200132 67.532196 0
M  V30 13 O 40.527613 30.335436 50.284368 0
M  V30 14 C 43.355966 30.481414 64.034480 0
M  V30 15 C 40.871067 28.179673 57.460314 0
M  V30 16 C 39.867475 29.618969 51.202468 0
M  V30 17 C 43.798314 29.689796 66.414912 0
M  V30 18 C 40.277061 31.714393 64.150769 0
M  V30 19 C 38.337745 29.221372 59.453616 0
M  V30 20 N 42.351733 33.697678 65.470116 0
M  V30 21 C 39.607833 28.067141 56.585924 0 CFG=2
M  V30 22 C 39.195441 32.998754 61.534892 0 CFG=2
M  V30 23 C 39.550845 29.198659 55.522227 0 CFG=2
M  V30 24 C 39.270750 30.618064 56.020247 0
M  V30 25 O 44.080467 29.951841 67.605308 0 CHG=-1
M  V30 26 C 39.743458 30.305385 52.592541 0
M  V30 27 C 41.867483 33.853692 64.298991 0
M  V30 28 C 37.871733 30.513246 60.128716 0
M  V30 29 C 38.511141 30.718683 61.514749 0
M  V30 30 C 38.298535 34.136217 61.029945 0
M  V30 31 C 40.774882 33.030002 63.621136 0
M  V30 32 C 41.934686 31.408329 66.046843 0 CFG=1
M  V30 33 C 43.320664 30.866448 65.536642 0 CFG=2
M  V30 34 N 37.917481 29.016607 58.198973 0
M  V30 35 N 37.867664 30.882595 55.730109 0
M  V30 36 O 43.868846 28.561206 65.877918 0
M  V30 37 H 38.234163 27.202053 52.441490 0
M  V30 38 H 37.473705 27.603835 56.763575 0
M  V30 39 H 38.426104 26.973995 58.058222 0
M  V30 40 H 39.307426 27.809819 50.172183 0
M  V30 41 H 37.949820 28.030005 54.601806 0
M  V30 42 H 37.347447 30.616545 53.822189 0
M  V30 43 H 40.692435 34.524019 62.138072 0
M  V30 44 H 40.304070 30.076166 65.457495 0
M  V30 45 H 40.667353 30.400818 53.153337 0
M  V30 46 H 44.352884 30.155257 63.738048 0
M  V30 47 H 42.677086 29.657900 63.809185 0
M  V30 48 H 43.067376 31.317658 63.399832 0
M  V30 49 H 40.883963 29.099080 58.044483 0
M  V30 50 H 40.938833 27.344975 58.158933 0
M  V30 51 H 41.776042 28.163552 56.852647 0
M  V30 52 H 39.458330 31.265540 63.662108 0
M  V30 53 H 39.742599 27.141683 56.023400 0
M  V30 54 H 39.729155 32.622277 60.659835 0
M  V30 55 H 40.531240 29.221556 55.053873 0
M  V30 56 H 39.871392 31.330664 55.454343 0
M  V30 57 H 39.491636 30.779289 57.073681 0
M  V30 58 H 39.112034 31.190524 52.653466 0
M  V30 59 H 42.224575 34.681023 63.679217 0
M  V30 60 H 38.133414 31.338855 59.467643 0
M  V30 61 H 36.784419 30.510390 60.212611 0
M  V30 62 H 38.074113 30.021433 62.227216 0
M  V30 63 H 39.581616 30.500980 61.501490 0
M  V30 64 H 38.881345 34.913135 60.533491 0
M  V30 65 H 37.565446 33.767363 60.311619 0
M  V30 66 H 37.753218 34.599569 61.851890 0
M  V30 67 H 41.710313 30.905415 66.990274 0
M  V30 68 H 44.080405 31.635379 65.680950 0
M  V30 69 H 37.320339 29.705542 57.757180 0
M  V30 70 H 37.677597 31.865115 55.532736 0
M  V30 71 H 40.501225 29.856798 49.469707 0
M  V30 END ATOM
M  V30 BEGIN BOND
M  V30 1 1 4 2
M  V30 2 2 8 2
M  V30 3 1 8 6
M  V30 4 1 9 6
M  V30 5 2 12 7
M  V30 6 2 16 4
M  V30 7 1 16 13
M  V30 8 2 18 11
M  V30 9 2 19 5
M  V30 10 1 20 7
M  V30 11 1 21 3
M  V30 12 1 21 15
M  V30 13 1 22 1
M  V30 14 1 22 10
M  V30 15 1 23 6
M  V30 16 1 23 21
M  V30 17 1 24 23
M  V30 18 1 25 17
M  V30 19 1 26 8
M  V30 20 1 26 16
M  V30 21 2 27 20
M  V30 22 1 28 19
M  V30 23 1 29 1
M  V30 24 1 29 28
M  V30 25 1 30 22
M  V30 26 2 31 10
M  V30 27 1 31 18
M  V30 28 1 31 27
M  V30 29 1 32 7
M  V30 30 1 32 11
M  V30 31 1 33 14
M  V30 32 1 33 17
M  V30 33 1 33 32
M  V30 34 1 34 3
M  V30 35 1 34 19
M  V30 36 1 35 9
M  V30 37 1 35 24
M  V30 38 2 36 17
M  V30 39 1 37 2
M  V30 40 1 38 3
M  V30 41 1 39 3
M  V30 42 1 40 4
M  V30 43 1 6 41 CFG=1
M  V30 44 1 42 9
M  V30 45 1 43 10
M  V30 46 1 44 11
M  V30 47 1 45 26
M  V30 48 1 46 14
M  V30 49 1 47 14
M  V30 50 1 48 14
M  V30 51 1 49 15
M  V30 52 1 50 15
M  V30 53 1 51 15
M  V30 54 1 52 18
M  V30 55 1 21 53 CFG=3
M  V30 56 1 22 54 CFG=3
M  V30 57 1 23 55 CFG=3
M  V30 58 1 56 24
M  V30 59 1 57 24
M  V30 60 1 58 26
M  V30 61 1 59 27
M  V30 62 1 60 28
M  V30 63 1 61 28
M  V30 64 1 62 29
M  V30 65 1 63 29
M  V30 66 1 64 30
M  V30 67 1 65 30
M  V30 68 1 66 30
M  V30 69 1 32 67 CFG=1
M  V30 70 1 33 68 CFG=3
M  V30 71 1 69 34
M  V30 72 1 70 35
M  V30 73 1 71 13
M  V30 END BOND
M  V30 END CTAB
M  END
>  <i_epik_Tot_Q>  (1) 
0

>  <i_epik_Tot_abs_Q>  (1) 
2

>  <i_i_glide_confnum>  (1) 
2544

>  <i_i_glide_lignum>  (1) 
47

>  <i_i_glide_posenum>  (1) 
39

>  <i_i_glide_rotatable_bonds>  (1) 
13

>  <i_lp_mmshare_version>  (1) 
72125

>  <i_m_source_file_index>  (1) 
19

>  <i_f3d_flags>  (1) 
0

>  <num_sample>  (1) 
100

>  <b_lp_Chiralities_Consistent>  (1) 
1

>  <r_epik_Charging_Adjusted_Penalty>  (1) 
0.76693695219889413

>  <r_epik_Ionization_Penalty>  (1) 
0.76778133156762796

>  <r_epik_Ionization_Penalty_Charging>  (1) 
0.00011398914501928687

>  <r_epik_Ionization_Penalty_Neutral>  (1) 
0.7676673424226087

>  <r_epik_State_Penalty>  (1) 
0.76682296305387487

>  <r_glide_ring_energy>  (1) 
1.845819541117304

>  <r_i_docking_score>  (1) 
-6.1319383496996434

>  <r_i_glide_ecoul>  (1) 
-0.90361230122918657

>  <r_i_glide_eff_state_penalty>  (1) 
0.76682296305387487

>  <r_i_glide_einternal>  (1) 
11.126244769767975

>  <r_i_glide_emodel>  (1) 
-68.190183056317395

>  <r_i_glide_emodel_strain>  (1) 
2.8834035956668913

>  <r_i_glide_energy>  (1) 
-53.419207235466061

>  <r_i_glide_erotb>  (1) 
0.89312676016186854

>  <r_i_glide_esite>  (1) 
-0.096569109785426363

>  <r_i_glide_evdw>  (1) 
-52.515594934236873

>  <r_i_glide_gscore>  (1) 
-6.8987613127535186

>  <r_i_glide_gscore_strain>  (1) 
0

>  <r_i_glide_hbond>  (1) 
0

>  <r_i_glide_ligand_efficiency>  (1) 
-0.17033162082499009

>  <r_i_glide_ligand_efficiency_ln>  (1) 
-1.3378232820752991

>  <r_i_glide_ligand_efficiency_sa>  (1) 
-0.56242262015042233

>  <r_i_glide_lipo>  (1) 
-3.0742305471648494

>  <r_i_glide_metal>  (1) 
-0

>  <r_i_glide_rewards>  (1) 
-1.8597668240688892

>  <r_lp_Energy>  (1) 
29.432984999999999

>  <r_lp_tautomer_probability>  (1) 
0.99929914239148299

>  <s_epik_Chemistry_Notes>  (1) 
This compound has an imine and may undergo hydrolysis. This compound contains an acetal/aminal-like group ( X-CH(R)-Y where X, Y are N, S, or O) that may be acid/base labile, releasing an aldehyde.

>  <s_epik_cmdline>  (1) 
J2VwaWtfcHl0aG9uJywgJy1waHQnLCAnMS4wJywgJy1waCcsICc3LjQnLCAnLXRuJywgJzgnLCAnLW1hJywgJzUwMCcsICctaW1hZScsICc8aW5maWxlLm1hZT4nLCAnLW9tYWUnLCAnPG91dGZpbGUubWFlPic=

>  <s_epik_input>  (1) 
W09IXUMoPU8pW0NASF0oW0NIM10pW0NAQEhdMVtDSF09W0NIXS9DKFtDSF09TkMxPU8pPVtDSF1cW0NASF0oW0NIM10pT1tDSDJdW0NIMl1DKD1PKVtOSF1bQ0gyXVtDQEhdKFtDSDNdKVtDQEBIXTJbQ0gyXVtOSF1bTkhdW0NASF0ybjNbY0hdW2NIXWMoW09IXSlbY0hdMw==

>  <s_glide_docking_method>  (1) 
confgen

>  <s_i_glide_gridfile>  (1) 
gpcr_5ht2c_6bqh_protein_autoprepared_prepared

>  <s_lp_Force_Field>  (1) 
S-OPLS

>  <s_lp_Variant>  (1) 
DiffSBDD_18_num_sample_100-7

>  <s_m_source_file>  (1) 
generated__ligand_DiffSBDD_2026-05-06_prepared.sdf

>  <GenAI_Model>  (1) 
DiffSBDD

>  <Protein>  (1) 
GPCR_5HT2C

$$$$
DiffSBDD_39_num_sample_100
     RDKit          3D

  0  0  0  0  0  0  0  0  0  0999 V3000
M  V30 BEGIN CTAB
M  V30 COUNTS 61 64 0 0 1
M  V30 BEGIN ATOM
M  V30 1 C 38.999253 34.543896 60.455751 0
M  V30 2 C 38.423184 28.442927 58.301405 0
M  V30 3 C 36.045761 32.448211 61.338104 0
M  V30 4 C 37.954073 29.604058 59.201226 0
M  V30 5 C 38.015275 32.717847 59.038250 0
M  V30 6 C 38.617292 28.526708 55.785679 0
M  V30 7 N 39.899541 30.939106 53.073020 0
M  V30 8 O 36.820868 31.621338 61.853502 0 CHG=-1
M  V30 9 C 39.047657 29.100637 54.463462 0
M  V30 10 C 36.774129 34.900781 59.499975 0
M  V30 11 O 35.634478 33.507020 61.853496 0
M  V30 12 C 36.728268 36.173604 60.109646 0
M  V30 13 C 37.800546 36.616138 60.910301 0
M  V30 14 N 36.898831 31.930566 59.095858 0
M  V30 15 C 40.071435 36.243039 61.990377 0
M  V30 16 C 34.788521 33.308460 59.310823 0
M  V30 17 C 40.320266 30.626826 50.702939 0
M  V30 18 C 36.977925 30.585379 58.490887 0
M  V30 19 C 41.189841 35.382454 64.192339 0
M  V30 20 C 39.008415 28.278466 53.312058 0
M  V30 21 C 35.670717 32.179812 59.893069 0 CFG=2
M  V30 22 C 40.131718 29.407031 49.740981 0
M  V30 23 O 42.267371 35.621474 63.614635 0 CHG=-1
M  V30 24 C 37.921993 34.080153 59.674945 0
M  V30 25 S 39.467410 27.910820 50.653488 0
M  V30 26 C 39.438258 28.818696 52.096992 0
M  V30 27 O 38.578808 26.984336 53.384620 0
M  V30 28 C 38.931912 35.795235 61.090709 0
M  V30 29 Cl 39.466283 31.609655 55.568703 0
M  V30 30 C 39.898560 35.605750 63.395341 0
M  V30 31 C 39.497740 30.470169 54.277524 0
M  V30 32 C 38.928630 29.019545 57.000075 0
M  V30 33 C 35.601977 34.421611 58.653605 0
M  V30 34 O 39.067399 32.350456 58.537852 0
M  V30 35 C 39.866981 30.106926 52.031866 0
M  V30 36 O 41.067537 34.969826 65.366437 0
M  V30 37 H 39.868578 33.918386 60.595426 0
M  V30 38 H 37.607966 27.744305 58.111925 0
M  V30 39 H 39.225038 27.888804 58.789932 0
M  V30 40 H 37.482088 29.221480 60.101135 0
M  V30 41 H 38.847089 30.118938 59.555454 0
M  V30 42 H 38.001466 27.640474 55.737044 0
M  V30 43 H 35.867277 36.804615 59.973364 0
M  V30 44 H 37.750543 37.581322 61.390270 0
M  V30 45 H 41.004557 35.936178 61.514073 0
M  V30 46 H 40.098396 37.330315 62.067189 0
M  V30 47 H 34.136408 33.747127 60.065325 0
M  V30 48 H 34.068877 32.874983 58.630797 0
M  V30 49 H 39.714373 31.478320 50.392070 0
M  V30 50 H 41.363655 30.937681 50.754553 0
M  V30 51 H 37.248039 30.763027 57.451755 0
M  V30 52 H 35.998028 30.110258 58.422875 0
M  V30 53 H 35.067416 31.276473 59.944186 0
M  V30 54 H 39.467428 29.672624 48.928763 0
M  V30 55 H 41.064983 29.221415 49.219876 0
M  V30 56 H 38.519187 26.599640 52.522159 0
M  V30 57 H 39.189828 36.178823 63.992738 0
M  V30 58 H 39.470566 34.608970 63.277886 0
M  V30 59 H 39.565163 29.867839 57.098695 0
M  V30 60 H 34.947277 35.251367 58.385696 0
M  V30 61 H 36.008464 34.021497 57.726457 0
M  V30 END ATOM
M  V30 BEGIN BOND
M  V30 1 1 4 2
M  V30 2 1 8 3
M  V30 3 1 9 6
M  V30 4 2 11 3
M  V30 5 1 12 10
M  V30 6 2 13 12
M  V30 7 1 14 5
M  V30 8 1 18 4
M  V30 9 1 18 14
M  V30 10 2 20 9
M  V30 11 1 21 3
M  V30 12 1 21 14
M  V30 13 1 21 16
M  V30 14 1 22 17
M  V30 15 1 23 19
M  V30 16 1 24 1
M  V30 17 1 24 5
M  V30 18 2 24 10
M  V30 19 1 25 22
M  V30 20 1 26 20
M  V30 21 1 26 25
M  V30 22 1 27 20
M  V30 23 2 28 1
M  V30 24 1 28 13
M  V30 25 1 28 15
M  V30 26 1 30 15
M  V30 27 1 30 19
M  V30 28 2 31 7
M  V30 29 1 31 9
M  V30 30 1 31 29
M  V30 31 1 32 2
M  V30 32 2 32 6
M  V30 33 1 33 10
M  V30 34 1 33 16
M  V30 35 2 34 5
M  V30 36 1 35 7
M  V30 37 1 35 17
M  V30 38 2 35 26
M  V30 39 2 36 19
M  V30 40 1 37 1
M  V30 41 1 38 2
M  V30 42 1 39 2
M  V30 43 1 40 4
M  V30 44 1 41 4
M  V30 45 1 42 6
M  V30 46 1 43 12
M  V30 47 1 44 13
M  V30 48 1 45 15
M  V30 49 1 46 15
M  V30 50 1 47 16
M  V30 51 1 48 16
M  V30 52 1 49 17
M  V30 53 1 50 17
M  V30 54 1 51 18
M  V30 55 1 52 18
M  V30 56 1 21 53 CFG=1
M  V30 57 1 54 22
M  V30 58 1 55 22
M  V30 59 1 56 27
M  V30 60 1 57 30
M  V30 61 1 58 30
M  V30 62 1 59 32
M  V30 63 1 60 33
M  V30 64 1 61 33
M  V30 END BOND
M  V30 END CTAB
M  END
>  <i_epik_Tot_Q>  (1) 
-2

>  <i_epik_Tot_abs_Q>  (1) 
2

>  <i_i_glide_confnum>  (1) 
384

>  <i_i_glide_lignum>  (1) 
96

>  <i_i_glide_posenum>  (1) 
23

>  <i_i_glide_rotatable_bonds>  (1) 
10

>  <i_lp_mmshare_version>  (1) 
72125

>  <i_m_source_file_index>  (1) 
40

>  <i_f3d_flags>  (1) 
0

>  <num_sample>  (1) 
100

>  <b_lp_Chiralities_Consistent>  (1) 
1

>  <r_epik_Charging_Adjusted_Penalty>  (1) 
1.1553041349672681

>  <r_epik_Ionization_Penalty>  (1) 
1.0836065631352982

>  <r_epik_Ionization_Penalty_Charging>  (1) 
0.00098582723969229671

>  <r_epik_Ionization_Penalty_Neutral>  (1) 
1.0826207358956059

>  <r_epik_State_Penalty>  (1) 
1.1543183077275758

>  <r_glide_ring_energy>  (1) 
0

>  <r_i_docking_score>  (1) 
-6.1237989261301955

>  <r_i_glide_ecoul>  (1) 
-2.7271048508476898

>  <r_i_glide_eff_state_penalty>  (1) 
1.1543183077275758

>  <r_i_glide_einternal>  (1) 
12.753840027746669

>  <r_i_glide_emodel>  (1) 
-50.713352406019936

>  <r_i_glide_emodel_strain>  (1) 
3.4766865211902029

>  <r_i_glide_energy>  (1) 
-43.890214139721472

>  <r_i_glide_erotb>  (1) 
0.51538728504810294

>  <r_i_glide_esite>  (1) 
-0.16574185274665873

>  <r_i_glide_evdw>  (1) 
-41.163109288873784

>  <r_i_glide_gscore>  (1) 
-7.2781172338577713

>  <r_i_glide_gscore_strain>  (1) 
0

>  <r_i_glide_hbond>  (1) 
-0.16

>  <r_i_glide_ligand_efficiency>  (1) 
-0.17010552572583876

>  <r_i_glide_ligand_efficiency_ln>  (1) 
-1.3360474797542576

>  <r_i_glide_ligand_efficiency_sa>  (1) 
-0.561676070581693

>  <r_i_glide_lipo>  (1) 
-4.0544809809426017

>  <r_i_glide_metal>  (1) 
-0

>  <r_i_glide_rewards>  (1) 
-0.94606049314577101

>  <r_lp_Energy>  (1) 
56.584314999999997

>  <s_epik_cmdline>  (1) 
J2VwaWtfcHl0aG9uJywgJy1waHQnLCAnMS4wJywgJy1waCcsICc3LjQnLCAnLXRuJywgJzgnLCAnLW1hJywgJzUwMCcsICctaW1hZScsICc8aW5maWxlLm1hZT4nLCAnLW9tYWUnLCAnPG91dGZpbGUubWFlPic=

>  <s_epik_input>  (1) 
W09IXUMoPU8pW0NIMl1bQ0gyXWMoW2NIXVtjSF0xKVtjSF1jKGMxMilDKD1PKU4oW0NAQEhdKEMoPU8pW09IXSlbQ0gyXVtDSDJdMilbQ0gyXVtDSDJdW0NIMl1cW0NIXT1bQ0hdXGMoYzNbT0hdKWMoQ2wpbmMoYzM0KVtDSDJdW0NIMl1TNA==

>  <s_glide_docking_method>  (1) 
confgen

>  <s_i_glide_gridfile>  (1) 
gpcr_5ht2c_6bqh_protein_autoprepared_prepared

>  <s_lp_Force_Field>  (1) 
S-OPLS

>  <s_lp_Variant>  (1) 
DiffSBDD_39_num_sample_100-3

>  <s_m_source_file>  (1) 
generated__ligand_DiffSBDD_2026-05-06_prepared.sdf

>  <GenAI_Model>  (1) 
DiffSBDD

>  <Protein>  (1) 
GPCR_5HT2C

$$$$
DiffSBDD_54_num_sample_100
     RDKit          3D

  0  0  0  0  0  0  0  0  0  0999 V3000
M  V30 BEGIN CTAB
M  V30 COUNTS 32 33 0 0 1
M  V30 BEGIN ATOM
M  V30 1 C 40.940002 27.747185 58.653501 0
M  V30 2 C 39.384926 28.166323 56.702787 0
M  V30 3 C 40.202366 30.274973 49.886997 0
M  V30 4 N 39.384253 26.901851 54.644506 0
M  V30 5 N 41.067397 28.310077 59.892513 0
M  V30 6 C 39.905322 28.248901 51.447853 0
M  V30 7 C 39.467403 29.366727 58.998482 0
M  V30 8 C 38.442346 28.487387 51.833619 0
M  V30 9 C 39.867422 27.134278 55.880947 0
M  V30 10 N 37.867403 28.754945 54.924695 0
M  V30 11 C 37.864108 27.502058 52.858867 0
M  V30 12 C 40.667399 29.552950 51.154906 0
M  V30 13 C 39.921302 28.400929 58.053661 0
M  V30 14 C 38.409853 27.733580 54.251553 0
M  V30 15 N 40.177835 29.309235 60.134974 0
M  V30 16 C 38.361857 28.958371 56.160212 0
M  V30 17 H 41.576471 26.942409 58.314136 0
M  V30 18 H 40.852451 31.121692 49.664724 0
M  V30 19 H 40.216820 29.605912 49.027798 0
M  V30 20 H 39.189915 30.661384 49.998759 0
M  V30 21 H 41.751370 28.029194 60.585680 0
M  V30 22 H 40.402277 27.717632 52.253500 0
M  V30 23 H 39.954597 27.578839 50.588721 0
M  V30 24 H 38.669014 30.088951 58.908348 0
M  V30 25 H 37.867401 28.421448 50.917670 0
M  V30 26 H 38.310691 29.496664 52.221541 0
M  V30 27 H 40.654495 26.477545 56.221498 0
M  V30 28 H 38.051505 26.472336 52.561222 0
M  V30 29 H 36.780759 27.621420 52.897594 0
M  V30 30 H 40.589969 30.229980 52.006731 0
M  V30 31 H 41.726007 29.326674 51.053501 0
M  V30 32 H 37.933033 29.773564 56.723621 0
M  V30 END ATOM
M  V30 BEGIN BOND
M  V30 1 1 5 1
M  V30 2 1 8 6
M  V30 3 1 9 2
M  V30 4 2 9 4
M  V30 5 1 11 8
M  V30 6 1 12 3
M  V30 7 1 12 6
M  V30 8 2 13 1
M  V30 9 1 13 2
M  V30 10 1 13 7
M  V30 11 1 14 4
M  V30 12 2 14 10
M  V30 13 1 14 11
M  V30 14 1 15 5
M  V30 15 2 15 7
M  V30 16 2 16 2
M  V30 17 1 16 10
M  V30 18 1 17 1
M  V30 19 1 18 3
M  V30 20 1 19 3
M  V30 21 1 20 3
M  V30 22 1 21 5
M  V30 23 1 22 6
M  V30 24 1 23 6
M  V30 25 1 24 7
M  V30 26 1 25 8
M  V30 27 1 26 8
M  V30 28 1 27 9
M  V30 29 1 28 11
M  V30 30 1 29 11
M  V30 31 1 30 12
M  V30 32 1 31 12
M  V30 33 1 32 16
M  V30 END BOND
M  V30 END CTAB
M  END
>  <i_epik_Tot_Q>  (1) 
0

>  <i_epik_Tot_abs_Q>  (1) 
0

>  <i_i_glide_confnum>  (1) 
7

>  <i_i_glide_lignum>  (1) 
142

>  <i_i_glide_posenum>  (1) 
241

>  <i_i_glide_rotatable_bonds>  (1) 
5

>  <i_lp_mmshare_version>  (1) 
72125

>  <i_m_source_file_index>  (1) 
55

>  <i_f3d_flags>  (1) 
0

>  <num_sample>  (1) 
100

>  <b_lp_Chiralities_Consistent>  (1) 
1

>  <r_epik_Charging_Adjusted_Penalty>  (1) 
0

>  <r_epik_Ionization_Penalty>  (1) 
2.7336504673295612e-06

>  <r_epik_Ionization_Penalty_Charging>  (1) 
0

>  <r_epik_Ionization_Penalty_Neutral>  (1) 
2.7336504673295612e-06

>  <r_epik_State_Penalty>  (1) 
-0

>  <r_glide_ring_energy>  (1) 
0

>  <r_i_docking_score>  (1) 
-6.1217438798510999

>  <r_i_glide_ecoul>  (1) 
-3.9330512419763544

>  <r_i_glide_eff_state_penalty>  (1) 
-0

>  <r_i_glide_einternal>  (1) 
4.2231927424242865

>  <r_i_glide_emodel>  (1) 
-40.116248202610755

>  <r_i_glide_emodel_strain>  (1) 
0.85121384838112846

>  <r_i_glide_energy>  (1) 
-30.819087923223019

>  <r_i_glide_erotb>  (1) 
1.4325524447639233

>  <r_i_glide_esite>  (1) 
0

>  <r_i_glide_evdw>  (1) 
-26.886036681246665

>  <r_i_glide_gscore>  (1) 
-6.1217438798510999

>  <r_i_glide_gscore_strain>  (1) 
0

>  <r_i_glide_hbond>  (1) 
-0.12499134167077677

>  <r_i_glide_ligand_efficiency>  (1) 
-0.38260899249069374

>  <r_i_glide_ligand_efficiency_ln>  (1) 
-1.6226904999643397

>  <r_i_glide_ligand_efficiency_sa>  (1) 
-0.96411424703618909

>  <r_i_glide_lipo>  (1) 
-2.5975153553613475

>  <r_i_glide_metal>  (1) 
-0

>  <r_i_glide_rewards>  (1) 
-2.897530107224112

>  <r_lp_Energy>  (1) 
15.064480999999999

>  <r_lp_tautomer_probability>  (1) 
1

>  <s_epik_cmdline>  (1) 
J2VwaWtfcHl0aG9uJywgJy1waHQnLCAnMS4wJywgJy1waCcsICc3LjQnLCAnLXRuJywgJzgnLCAnLW1hJywgJzUwMCcsICctaW1hZScsICc8aW5maWxlLm1hZT4nLCAnLW9tYWUnLCAnPG91dGZpbGUubWFlPic=

>  <s_epik_input>  (1) 
W2NIXTFuW25IXVtjSF1jMS1jMltjSF1uYyhuW2NIXTIpW0NIMl1bQ0gyXVtDSDJdW0NIMl1bQ0gzXQ==

>  <s_glide_docking_method>  (1) 
confgen

>  <s_i_glide_gridfile>  (1) 
gpcr_5ht2c_6bqh_protein_autoprepared_prepared

>  <s_lp_Force_Field>  (1) 
S-OPLS

>  <s_lp_Variant>  (1) 
DiffSBDD_54_num_sample_100-1

>  <s_m_source_file>  (1) 
generated__ligand_DiffSBDD_2026-05-06_prepared.sdf

>  <GenAI_Model>  (1) 
DiffSBDD

>  <Protein>  (1) 
GPCR_5HT2C

$$$$
DiffSBDD_66_num_sample_100
     RDKit          3D

  0  0  0  0  0  0  0  0  0  0999 V3000
M  V30 BEGIN CTAB
M  V30 COUNTS 111 115 0 0 1
M  V30 BEGIN ATOM
M  V30 1 C 40.962654 27.328549 66.185609 0
M  V30 2 C 39.878999 30.367598 61.385484 0
M  V30 3 C 41.067399 36.263997 67.231136 0
M  V30 4 C 36.783032 35.154578 60.063562 0
M  V30 5 C 38.683334 26.262481 54.710971 0
M  V30 6 C 39.340819 25.932463 57.187196 0
M  V30 7 C 40.539154 34.109979 66.299645 0
M  V30 8 S 39.498442 33.386613 60.650938 0
M  V30 9 C 40.238129 31.335264 62.489106 0 CFG=1
M  V30 10 C 40.155822 28.541345 66.408159 0
M  V30 11 C 43.030669 29.351684 66.918388 0
M  V30 12 C 42.040842 30.169011 66.505903 0
M  V30 13 C 38.384529 28.700013 53.968277 0
M  V30 14 C 41.566781 25.353145 65.466307 0
M  V30 15 C 37.569903 30.199499 58.811796 0 CFG=2
M  V30 16 C 42.827233 28.019011 67.562013 0
M  V30 17 C 42.383635 31.493670 65.882218 0
M  V30 18 O 39.174661 31.014898 53.982682 0
M  V30 19 C 41.666659 33.268317 64.188768 0 CFG=1
M  V30 20 N 40.584333 26.298956 65.454386 0 CHG=1
M  V30 21 C 40.314469 35.098793 67.263106 0
M  V30 22 C 41.497125 34.297068 65.285329 0
M  V30 23 C 37.808930 27.530835 54.749628 0
M  V30 24 C 43.866775 25.268429 66.690110 0
M  V30 25 C 40.631650 29.784250 66.584450 0
M  V30 26 C 36.546120 31.225108 59.465457 0
M  V30 27 C 38.604321 25.367625 55.963796 0 CFG=1
M  V30 28 C 38.506527 30.878775 57.760570 0
M  V30 29 C 41.412795 31.835918 64.692713 0 CFG=1
M  V30 30 C 41.209490 30.781963 63.571356 0 CFG=2
M  V30 31 C 35.361121 33.508196 61.288837 0
M  V30 32 C 39.612074 30.012606 57.156233 0
M  V30 33 N 42.156044 27.093318 66.680006 0
M  V30 34 C 42.267597 35.449245 65.276958 0
M  V30 35 C 42.581761 25.847581 66.272889 0
M  V30 36 C 36.700428 29.179120 58.060960 0
M  V30 37 O 37.258378 25.089382 56.290777 0
M  V30 38 C 38.395741 29.377097 59.872608 0
M  V30 39 C 36.699041 32.771156 59.257983 0
M  V30 40 C 36.687773 33.680537 60.516144 0
M  V30 41 C 40.644827 32.711578 61.914097 0 CFG=2
M  V30 42 N 38.686527 30.159912 61.038243 0
M  V30 43 C 39.686001 29.626069 55.864201 0
M  V30 44 C 37.866062 33.371556 61.462935 0
M  V30 45 C 42.063256 36.420526 66.253502 0
M  V30 46 C 42.510224 30.178437 63.071858 0
M  V30 47 C 38.626234 28.617974 52.644685 0
M  V30 48 C 38.669259 29.967860 54.784886 0 CFG=2
M  V30 49 C 40.741843 33.711813 63.052106 0
M  V30 50 H 40.723595 29.876979 60.897673 0
M  V30 51 H 40.909864 37.033836 67.973698 0
M  V30 52 H 37.695874 35.345904 59.500814 0
M  V30 53 H 36.773024 35.839154 60.913473 0
M  V30 54 H 35.949408 35.423071 59.414925 0
M  V30 55 H 38.374045 25.671059 53.853332 0
M  V30 56 H 39.728379 26.526882 54.539194 0
M  V30 57 H 40.395679 26.097056 56.963725 0
M  V30 58 H 39.292571 25.236005 58.024891 0
M  V30 59 H 38.926486 26.880956 57.520909 0
M  V30 60 H 39.941210 33.230452 66.311115 0
M  V30 61 H 39.088888 28.421432 66.383416 0
M  V30 62 H 44.057776 29.673437 66.814153 0
M  V30 63 H 41.477185 24.421643 64.932256 0
M  V30 64 H 43.787740 27.610724 67.870914 0
M  V30 65 H 42.223119 28.128623 68.465130 0
M  V30 66 H 42.356456 32.235286 66.677683 0
M  V30 67 H 43.412233 31.483132 65.518946 0
M  V30 68 H 38.872501 31.837556 54.338978 0
M  V30 69 H 42.668949 33.318278 63.794680 0
M  V30 70 H 39.557142 34.961255 68.021594 0
M  V30 71 H 36.812927 27.309537 54.367522 0
M  V30 72 H 37.675155 27.847994 55.774021 0
M  V30 73 H 43.919096 24.258277 66.281264 0
M  V30 74 H 43.916010 25.195877 67.776456 0
M  V30 75 H 44.667138 25.924076 66.339544 0
M  V30 76 H 39.902603 30.574265 66.682941 0
M  V30 77 H 35.555201 31.020643 59.057530 0
M  V30 78 H 36.394614 30.992189 60.517262 0
M  V30 79 H 39.075955 24.418605 55.716558 0
M  V30 80 H 37.916545 31.381633 56.995527 0
M  V30 81 H 39.067453 31.666782 58.257015 0
M  V30 82 H 40.398157 31.838042 65.061447 0
M  V30 83 H 40.674349 29.935381 63.998471 0
M  V30 84 H 35.232019 32.500245 61.678482 0
M  V30 85 H 34.504192 33.710585 60.646248 0
M  V30 86 H 35.301638 34.186539 62.141438 0
M  V30 87 H 40.390808 29.700474 57.834107 0
M  V30 88 H 43.019694 35.599512 64.516485 0
M  V30 89 H 35.876701 28.822051 58.677206 0
M  V30 90 H 37.269407 28.302469 57.777498 0
M  V30 91 H 36.267540 29.621478 57.164023 0
M  V30 92 H 36.808027 25.908366 56.428884 0
M  V30 93 H 37.867066 28.499918 60.227685 0
M  V30 94 H 39.287611 28.923529 59.446555 0
M  V30 95 H 37.547819 33.049597 58.641830 0
M  V30 96 H 35.855221 33.097970 58.653486 0
M  V30 97 H 41.618451 32.621800 61.430809 0
M  V30 98 H 40.523591 29.021184 55.548535 0
M  V30 99 H 37.899579 34.116121 62.253220 0
M  V30 100 H 37.686791 32.413665 61.943064 0
M  V30 101 H 42.671912 37.292022 66.253557 0
M  V30 102 H 43.137324 30.956494 62.653524 0
M  V30 103 H 42.299807 29.381782 62.357637 0
M  V30 104 H 43.070181 29.714886 63.882413 0
M  V30 105 H 39.037245 29.453314 52.094972 0
M  V30 106 H 38.414412 27.708960 52.097246 0
M  V30 107 H 37.716915 30.293343 55.200456 0
M  V30 108 H 41.068336 34.677399 62.660868 0
M  V30 109 H 39.743933 33.869576 63.453368 0
M  V30 110 H 39.706279 26.232460 64.954842 0
M  V30 111 H 39.313090 31.503168 63.038721 0
M  V30 END ATOM
M  V30 BEGIN BOND
M  V30 1 1 9 2
M  V30 2 1 10 1
M  V30 3 2 12 11
M  V30 4 1 16 11
M  V30 5 1 17 12
M  V30 6 2 20 1
M  V30 7 1 20 14
M  V30 8 2 21 3
M  V30 9 1 21 7
M  V30 10 2 22 7
M  V30 11 1 22 19
M  V30 12 1 23 5
M  V30 13 1 23 13
M  V30 14 2 25 10
M  V30 15 1 25 12
M  V30 16 1 26 15
M  V30 17 1 27 5
M  V30 18 1 27 6
M  V30 19 1 15 28 CFG=3
M  V30 20 1 29 17
M  V30 21 1 29 19
M  V30 22 1 30 9
M  V30 23 1 30 29
M  V30 24 1 32 28
M  V30 25 1 33 1
M  V30 26 1 33 16
M  V30 27 1 34 22
M  V30 28 2 35 14
M  V30 29 1 35 24
M  V30 30 1 35 33
M  V30 31 1 36 15
M  V30 32 1 37 27
M  V30 33 1 38 15
M  V30 34 1 39 26
M  V30 35 1 40 4
M  V30 36 1 40 31
M  V30 37 1 40 39
M  V30 38 1 41 8
M  V30 39 1 41 9
M  V30 40 2 42 2
M  V30 41 1 42 38
M  V30 42 2 43 32
M  V30 43 1 44 8
M  V30 44 1 44 40
M  V30 45 1 45 3
M  V30 46 2 45 34
M  V30 47 1 46 30
M  V30 48 2 47 13
M  V30 49 1 48 13
M  V30 50 1 48 18
M  V30 51 1 48 43
M  V30 52 1 49 19
M  V30 53 1 49 41
M  V30 54 1 50 2
M  V30 55 1 51 3
M  V30 56 1 52 4
M  V30 57 1 53 4
M  V30 58 1 54 4
M  V30 59 1 55 5
M  V30 60 1 56 5
M  V30 61 1 57 6
M  V30 62 1 58 6
M  V30 63 1 59 6
M  V30 64 1 60 7
M  V30 65 1 61 10
M  V30 66 1 62 11
M  V30 67 1 63 14
M  V30 68 1 64 16
M  V30 69 1 65 16
M  V30 70 1 66 17
M  V30 71 1 67 17
M  V30 72 1 68 18
M  V30 73 1 19 69 CFG=3
M  V30 74 1 70 21
M  V30 75 1 71 23
M  V30 76 1 72 23
M  V30 77 1 73 24
M  V30 78 1 74 24
M  V30 79 1 75 24
M  V30 80 1 76 25
M  V30 81 1 77 26
M  V30 82 1 78 26
M  V30 83 1 27 79 CFG=3
M  V30 84 1 80 28
M  V30 85 1 81 28
M  V30 86 1 29 82 CFG=1
M  V30 87 1 30 83 CFG=1
M  V30 88 1 84 31
M  V30 89 1 85 31
M  V30 90 1 86 31
M  V30 91 1 87 32
M  V30 92 1 88 34
M  V30 93 1 89 36
M  V30 94 1 90 36
M  V30 95 1 91 36
M  V30 96 1 92 37
M  V30 97 1 93 38
M  V30 98 1 94 38
M  V30 99 1 95 39
M  V30 100 1 96 39
M  V30 101 1 41 97 CFG=3
M  V30 102 1 98 43
M  V30 103 1 99 44
M  V30 104 1 100 44
M  V30 105 1 101 45
M  V30 106 1 102 46
M  V30 107 1 103 46
M  V30 108 1 104 46
M  V30 109 1 105 47
M  V30 110 1 106 47
M  V30 111 1 48 107 CFG=1
M  V30 112 1 108 49
M  V30 113 1 109 49
M  V30 114 1 110 20
M  V30 115 1 9 111 CFG=1
M  V30 END BOND
M  V30 END CTAB
M  END
>  <i_epik_Tot_Q>  (1) 
1

>  <i_epik_Tot_abs_Q>  (1) 
1

>  <i_i_glide_confnum>  (1) 
480

>  <i_i_glide_lignum>  (1) 
175

>  <i_i_glide_posenum>  (1) 
370

>  <i_i_glide_rotatable_bonds>  (1) 
12

>  <i_lp_mmshare_version>  (1) 
72125

>  <i_m_source_file_index>  (1) 
67

>  <i_f3d_flags>  (1) 
0

>  <num_sample>  (1) 
100

>  <b_lp_Chiralities_Consistent>  (1) 
1

>  <r_epik_Charging_Adjusted_Penalty>  (1) 
1.1641737349406356

>  <r_epik_Ionization_Penalty>  (1) 
1.1550326719201827

>  <r_epik_Ionization_Penalty_Charging>  (1) 
0

>  <r_epik_Ionization_Penalty_Neutral>  (1) 
1.1550326719201827

>  <r_epik_State_Penalty>  (1) 
1.1641737349406356

>  <r_glide_ring_energy>  (1) 
0

>  <r_i_docking_score>  (1) 
-6.1213843980001696

>  <r_i_glide_ecoul>  (1) 
-0.90743376349551075

>  <r_i_glide_eff_state_penalty>  (1) 
1.1641737349406356

>  <r_i_glide_einternal>  (1) 
12.501035361141914

>  <r_i_glide_emodel>  (1) 
-47.385849516036039

>  <r_i_glide_emodel_strain>  (1) 
2.6749036997007209

>  <r_i_glide_energy>  (1) 
-27.616161959547252

>  <r_i_glide_erotb>  (1) 
0.28694684240539414

>  <r_i_glide_esite>  (1) 
0

>  <r_i_glide_evdw>  (1) 
-26.708728196051741

>  <r_i_glide_gscore>  (1) 
-7.285558132940805

>  <r_i_glide_gscore_strain>  (1) 
0

>  <r_i_glide_hbond>  (1) 
0

>  <r_i_glide_ligand_efficiency>  (1) 
-0.12492621220408509

>  <r_i_glide_ligand_efficiency_ln>  (1) 
-1.2513510360068703

>  <r_i_glide_ligand_efficiency_sa>  (1) 
-0.45714320164995009

>  <r_i_glide_lipo>  (1) 
-5.1780615180152916

>  <r_i_glide_metal>  (1) 
-0

>  <r_i_glide_rewards>  (1) 
-0.92289198300399411

>  <r_lp_Energy>  (1) 
61.575507999999999

>  <s_epik_Chemistry_Notes>  (1) 
This compound has an imine and may undergo hydrolysis.

>  <s_epik_cmdline>  (1) 
J2VwaWtfcHl0aG9uJywgJy1waHQnLCAnMS4wJywgJy1waCcsICc3LjQnLCAnLXRuJywgJzgnLCAnLW1hJywgJzUwMCcsICctaW1hZScsICc8aW5maWxlLm1hZT4nLCAnLW9tYWUnLCAnPG91dGZpbGUubWFlPic=

>  <s_epik_input>  (1) 
bjFbY0hdYyhbQ0gzXSluKGMxMilbQ0gyXVtDSF09QyhbQ0hdPVtDSF0yKVtDSDJdW0NASF0oW0NAQEhdM1tDSDNdKVtDQEhdKGM0W2NIXVtjSF1bY0hdW2NIXVtjSF00KVtDSDJdW0NAQEhdKFtDQEhdMzUpU1tDSDJdQyhbQ0gzXSkoW0NIM10pW0NIMl1bQ0gyXVtDQF0oW0NIM10pKFtDSDJdXE49W0NIXVw1KVtDSDJdL1tDSF09W0NIXVxbQ0BASF0oW09IXSlDKD1bQ0gyXSlbQ0gyXVtDSDJdW0NAQEhdKFtDSDNdKVtPSF0=

>  <s_glide_docking_method>  (1) 
confgen

>  <s_i_glide_gridfile>  (1) 
gpcr_5ht2c_6bqh_protein_autoprepared_prepared

>  <s_lp_Force_Field>  (1) 
S-OPLS

>  <s_lp_Variant>  (1) 
DiffSBDD_66_num_sample_100-12

>  <s_m_source_file>  (1) 
generated__ligand_DiffSBDD_2026-05-06_prepared.sdf

>  <GenAI_Model>  (1) 
DiffSBDD

>  <Protein>  (1) 
GPCR_5HT2C

$$$$
DiffSBDD_60_num_sample_100
     RDKit          3D

  0  0  0  0  0  0  0  0  0  0999 V3000
M  V30 BEGIN CTAB
M  V30 COUNTS 74 76 0 0 1
M  V30 BEGIN ATOM
M  V30 1 C 39.183696 35.876974 61.464605 0
M  V30 2 C 39.865391 29.678547 51.364964 0
M  V30 3 C 39.135976 28.499437 51.606499 0
M  V30 4 C 38.311882 30.273412 59.513056 0
M  V30 5 N 40.569449 34.589754 62.705159 0
M  V30 6 C 36.827538 35.186295 59.732731 0
M  V30 7 C 40.268997 28.097914 55.929413 0
M  V30 8 C 35.780361 30.223802 59.058485 0
M  V30 9 C 37.179788 30.048711 58.478888 0 CFG=2
M  V30 10 C 39.606535 32.357628 62.380571 0
M  V30 11 C 38.896660 28.707041 56.325786 0 CFG=1
M  V30 12 O 39.066548 33.220002 58.821792 0
M  V30 13 C 37.859801 26.490286 57.433688 0 CFG=1
M  V30 14 C 38.989683 25.579443 57.956130 0
M  V30 15 C 38.274171 31.544714 60.402651 0 CFG=1
M  V30 16 N 39.552211 31.574442 61.145183 0
M  V30 17 C 37.909922 29.073161 55.178334 0
M  V30 18 C 39.624684 33.833748 62.134962 0
M  V30 19 C 37.549382 34.082731 60.531018 0 CFG=1
M  V30 20 C 37.970490 32.878951 59.641963 0 CFG=1
M  V30 21 O 39.067699 27.534878 50.653226 0
M  V30 22 C 38.483745 28.314102 52.836071 0
M  V30 23 C 38.722775 34.599431 61.329213 0
M  V30 24 C 37.442549 24.839437 55.617654 0
M  V30 25 C 36.422817 23.919888 56.252663 0
M  V30 26 C 39.940899 30.674320 52.358350 0
M  V30 27 C 38.243893 28.003444 57.550003 0 CFG=2
M  V30 28 O 37.092722 28.704115 57.999698 0
M  V30 29 N 40.271324 35.826464 62.282119 0
M  V30 30 C 40.267286 26.826500 55.054246 0
M  V30 31 C 38.576758 29.297965 53.838244 0
M  V30 32 C 39.302390 30.481993 53.597744 0
M  V30 33 O 37.374112 26.174509 56.123925 0
M  V30 34 H 38.826144 36.807323 61.047650 0
M  V30 35 H 40.364314 29.820440 50.417468 0
M  V30 36 H 38.330017 29.412499 60.182707 0
M  V30 37 H 39.262344 30.259237 58.978564 0
M  V30 38 H 36.477492 35.983860 60.387321 0
M  V30 39 H 35.952477 34.786386 59.219430 0
M  V30 40 H 37.467095 35.635713 58.976601 0
M  V30 41 H 40.813469 27.876769 56.848440 0
M  V30 42 H 40.865930 28.874572 55.453921 0
M  V30 43 H 35.588420 31.220493 59.452013 0
M  V30 44 H 35.620505 29.502991 59.853398 0
M  V30 45 H 35.031662 30.021476 58.292785 0
M  V30 46 H 37.322568 30.732543 57.642461 0
M  V30 47 H 40.503368 32.078978 62.935489 0
M  V30 48 H 38.769128 32.097294 63.026626 0
M  V30 49 H 39.203113 29.683502 56.701448 0
M  V30 50 H 39.822862 33.257171 59.388142 0
M  V30 51 H 37.020049 26.304140 58.099445 0
M  V30 52 H 39.271634 25.858735 58.970628 0
M  V30 53 H 39.891118 25.623661 57.352924 0
M  V30 54 H 38.671485 24.539893 57.988965 0
M  V30 55 H 37.459834 31.386966 61.111482 0
M  V30 56 H 39.857215 30.625502 61.342982 0
M  V30 57 H 37.173504 28.288778 55.035917 0
M  V30 58 H 37.328449 29.959374 55.440508 0
M  V30 59 H 36.803961 33.703255 61.231201 0
M  V30 60 H 37.141061 32.703161 58.960130 0
M  V30 61 H 37.926918 27.405561 53.022050 0
M  V30 62 H 38.437642 24.404809 55.691515 0
M  V30 63 H 37.230611 24.901160 54.550921 0
M  V30 64 H 36.328387 22.992732 55.687359 0
M  V30 65 H 35.467381 24.421798 56.253499 0
M  V30 66 H 36.675138 23.670840 57.280722 0
M  V30 67 H 40.497737 31.582003 52.173088 0
M  V30 68 H 38.963388 28.057586 58.364638 0
M  V30 69 H 40.819922 36.627284 62.565870 0
M  V30 70 H 41.067317 26.144233 55.307488 0
M  V30 71 H 40.267405 26.995692 53.984577 0
M  V30 72 H 39.388626 26.250537 55.186663 0
M  V30 73 H 39.370341 31.240844 54.364071 0
M  V30 74 H 38.484414 26.827389 50.887038 0
M  V30 END ATOM
M  V30 BEGIN BOND
M  V30 1 2 3 2
M  V30 2 1 9 4
M  V30 3 1 9 8
M  V30 4 1 11 7
M  V30 5 1 14 13
M  V30 6 1 15 4
M  V30 7 1 16 10
M  V30 8 1 16 15
M  V30 9 1 17 11
M  V30 10 2 18 5
M  V30 11 1 18 10
M  V30 12 1 19 6
M  V30 13 1 20 12
M  V30 14 1 20 15
M  V30 15 1 20 19
M  V30 16 1 21 3
M  V30 17 1 22 3
M  V30 18 2 23 1
M  V30 19 1 23 18
M  V30 20 1 23 19
M  V30 21 1 25 24
M  V30 22 1 26 2
M  V30 23 1 27 11
M  V30 24 1 27 13
M  V30 25 1 28 9
M  V30 26 1 28 27
M  V30 27 1 29 1
M  V30 28 1 29 5
M  V30 29 1 30 7
M  V30 30 1 31 17
M  V30 31 2 31 22
M  V30 32 2 32 26
M  V30 33 1 32 31
M  V30 34 1 33 13
M  V30 35 1 33 24
M  V30 36 1 34 1
M  V30 37 1 35 2
M  V30 38 1 36 4
M  V30 39 1 37 4
M  V30 40 1 38 6
M  V30 41 1 39 6
M  V30 42 1 40 6
M  V30 43 1 41 7
M  V30 44 1 42 7
M  V30 45 1 43 8
M  V30 46 1 44 8
M  V30 47 1 45 8
M  V30 48 1 9 46 CFG=3
M  V30 49 1 47 10
M  V30 50 1 48 10
M  V30 51 1 11 49 CFG=1
M  V30 52 1 50 12
M  V30 53 1 13 51 CFG=1
M  V30 54 1 52 14
M  V30 55 1 53 14
M  V30 56 1 54 14
M  V30 57 1 15 55 CFG=1
M  V30 58 1 56 16
M  V30 59 1 57 17
M  V30 60 1 58 17
M  V30 61 1 19 59 CFG=1
M  V30 62 1 20 60 CFG=3
M  V30 63 1 61 22
M  V30 64 1 62 24
M  V30 65 1 63 24
M  V30 66 1 64 25
M  V30 67 1 65 25
M  V30 68 1 66 25
M  V30 69 1 67 26
M  V30 70 1 27 68 CFG=1
M  V30 71 1 69 29
M  V30 72 1 70 30
M  V30 73 1 71 30
M  V30 74 1 72 30
M  V30 75 1 73 32
M  V30 76 1 74 21
M  V30 END BOND
M  V30 END CTAB
M  END
>  <i_epik_Tot_Q>  (1) 
0

>  <i_epik_Tot_abs_Q>  (1) 
0

>  <i_i_glide_confnum>  (1) 
2261

>  <i_i_glide_lignum>  (1) 
155

>  <i_i_glide_posenum>  (1) 
166

>  <i_i_glide_rotatable_bonds>  (1) 
13

>  <i_lp_mmshare_version>  (1) 
72125

>  <i_m_source_file_index>  (1) 
61

>  <i_f3d_flags>  (1) 
0

>  <num_sample>  (1) 
100

>  <b_lp_Chiralities_Consistent>  (1) 
1

>  <r_epik_Charging_Adjusted_Penalty>  (1) 
1.0946962456901577

>  <r_epik_Ionization_Penalty>  (1) 
0.79333375819973251

>  <r_epik_Ionization_Penalty_Charging>  (1) 
0

>  <r_epik_Ionization_Penalty_Neutral>  (1) 
0.79333375819973251

>  <r_epik_State_Penalty>  (1) 
1.0946962456901577

>  <r_glide_ring_energy>  (1) 
0

>  <r_i_docking_score>  (1) 
-6.1124309580886163

>  <r_i_glide_ecoul>  (1) 
-1.9089321356634747

>  <r_i_glide_eff_state_penalty>  (1) 
1.0946962456901577

>  <r_i_glide_einternal>  (1) 
8.472188693451443

>  <r_i_glide_emodel>  (1) 
-62.583697779832008

>  <r_i_glide_emodel_strain>  (1) 
2.4106299247926586

>  <r_i_glide_energy>  (1) 
-46.339218611755527

>  <r_i_glide_erotb>  (1) 
0.85721886193159891

>  <r_i_glide_esite>  (1) 
0

>  <r_i_glide_evdw>  (1) 
-44.43028647609205

>  <r_i_glide_gscore>  (1) 
-7.2071272037787741

>  <r_i_glide_gscore_strain>  (1) 
0

>  <r_i_glide_hbond>  (1) 
0

>  <r_i_glide_ligand_efficiency>  (1) 
-0.18522518054813988

>  <r_i_glide_ligand_efficiency_ln>  (1) 
-1.3593729966051971

>  <r_i_glide_ligand_efficiency_sa>  (1) 
-0.59411612538783387

>  <r_i_glide_lipo>  (1) 
-4.7088379643178602

>  <r_i_glide_metal>  (1) 
-0

>  <r_i_glide_rewards>  (1) 
-0.84765395723838832

>  <r_lp_Energy>  (1) 
28.843152999999997

>  <r_lp_tautomer_probability>  (1) 
0.49999999999868239

>  <s_epik_cmdline>  (1) 
J2VwaWtfcHl0aG9uJywgJy1waHQnLCAnMS4wJywgJy1waCcsICc3LjQnLCAnLXRuJywgJzgnLCAnLW1hJywgJzUwMCcsICctaW1hZScsICc8aW5maWxlLm1hZT4nLCAnLW9tYWUnLCAnPG91dGZpbGUubWFlPic=

>  <s_epik_input>  (1) 
bjFbbkhdW2NIXWMoYzEyKVtDQEBIXShbQ0gzXSlbQ0BASF0oW09IXSlbQ0BIXShbTkhdW0NIMl0yKVtDSDJdW0NASF0oW0NIM10pT1tDQEBIXShbQ0BIXShbQ0gzXSlPW0NIMl1bQ0gzXSlbQ0BASF0oW0NIMl1bQ0gzXSlbQ0gyXUMoPVtDSF0zKVtDSDJdW0NIXT1bQ0hdQzM9Tw==

>  <s_glide_docking_method>  (1) 
confgen

>  <s_i_glide_gridfile>  (1) 
gpcr_5ht2c_6bqh_protein_autoprepared_prepared

>  <s_lp_Force_Field>  (1) 
S-OPLS

>  <s_lp_Variant>  (1) 
DiffSBDD_60_num_sample_100-4

>  <s_m_source_file>  (1) 
generated__ligand_DiffSBDD_2026-05-06_prepared.sdf

>  <GenAI_Model>  (1) 
DiffSBDD

>  <Protein>  (1) 
GPCR_5HT2C

$$$$
DiffSBDD_80_num_sample_100
     RDKit          3D

  0  0  0  0  0  0  0  0  0  0999 V3000
M  V30 BEGIN CTAB
M  V30 COUNTS 73 76 0 0 1
M  V30 BEGIN ATOM
M  V30 1 C 40.030278 33.634088 62.581378 0
M  V30 2 C 37.490170 32.094643 58.386937 0
M  V30 3 N 37.867412 31.513091 57.064319 0 CFG=2 CHG=1
M  V30 4 O 41.035099 30.961823 62.967688 0
M  V30 5 O 37.058847 34.524244 60.036430 0
M  V30 6 O 41.380975 33.857346 62.933280 0
M  V30 7 C 39.366743 30.740696 54.640752 0 CFG=2
M  V30 8 C 39.117248 29.699503 55.768543 0 CFG=2
M  V30 9 C 42.131624 26.859991 65.550209 0
M  V30 10 C 40.739131 28.902876 61.858396 0
M  V30 11 O 40.267454 30.603659 65.377450 0
M  V30 12 C 40.875762 29.383601 65.425213 0
M  V30 13 O 40.227222 26.421695 57.095368 0
M  V30 14 C 42.147960 27.591594 64.348288 0
M  V30 15 C 38.129141 27.400480 56.477111 0
M  V30 16 C 40.861616 28.644497 66.624830 0
M  V30 17 O 39.021113 29.628820 60.357770 0
M  V30 18 C 38.275336 31.834383 54.646534 0
M  V30 19 O 41.467407 26.665954 67.846461 0
M  V30 20 C 38.122960 28.552993 55.478929 0
M  V30 21 C 41.487292 27.382818 66.685959 0
M  V30 22 C 39.969982 31.137719 62.032972 0 CFG=1
M  V30 23 C 38.612505 32.800940 59.135218 0 CFG=2
M  V30 24 C 39.919807 32.580425 61.459142 0 CFG=1
M  V30 25 C 38.870913 30.415377 57.124851 0
M  V30 26 C 40.209033 30.033479 61.000778 0 CFG=1
M  V30 27 C 39.338490 26.499128 56.250556 0
M  V30 28 C 38.635232 32.802680 60.664685 0 CFG=1
M  V30 29 C 37.302640 28.548344 54.410745 0
M  V30 30 C 40.096752 30.821589 52.341067 0
M  V30 31 C 38.395253 34.082872 59.912257 0 CFG=2
M  V30 32 C 41.535334 29.621581 62.950469 0 CFG=2
M  V30 33 C 41.519413 28.852587 64.275071 0
M  V30 34 C 38.210758 32.514357 56.025357 0
M  V30 35 O 39.517410 30.067186 53.392552 0
M  V30 36 H 39.615966 34.594832 62.275268 0
M  V30 37 H 39.466948 33.313863 63.454466 0
M  V30 38 H 37.090841 31.297809 59.015707 0
M  V30 39 H 36.669473 32.800145 58.253553 0
M  V30 40 H 36.839624 35.062326 59.288860 0
M  V30 41 H 41.412578 34.484046 63.641557 0
M  V30 42 H 40.320054 31.224981 54.862482 0
M  V30 43 H 40.071586 29.180777 55.873412 0
M  V30 44 H 42.611886 25.893522 65.599340 0
M  V30 45 H 40.792527 26.970165 68.445316 0
M  V30 46 H 41.329630 28.172756 61.303015 0
M  V30 47 H 39.902302 28.371167 62.315776 0
M  V30 48 H 40.431593 31.007716 64.531020 0
M  V30 49 H 42.641606 27.184213 63.477499 0
M  V30 50 H 38.103202 27.743265 57.509356 0
M  V30 51 H 37.236024 26.792573 56.332910 0
M  V30 52 H 40.367817 29.045364 67.498112 0
M  V30 53 H 38.443288 29.258926 61.008384 0
M  V30 54 H 37.296012 31.424231 54.403053 0
M  V30 55 H 38.474480 32.581145 53.883809 0
M  V30 56 H 39.051644 30.927253 62.585592 0
M  V30 57 H 39.548138 32.821480 58.598380 0
M  V30 58 H 40.756977 32.727131 60.777149 0
M  V30 59 H 39.822971 30.821842 57.453534 0
M  V30 60 H 38.571300 29.705713 57.888264 0
M  V30 61 H 40.955403 30.337293 60.266004 0
M  V30 62 H 39.347844 25.947446 55.310015 0
M  V30 63 H 37.756057 32.397040 61.163313 0
M  V30 64 H 36.627738 27.724403 54.238354 0
M  V30 65 H 37.294265 29.356471 53.700518 0
M  V30 66 H 40.240491 30.179748 51.471962 0
M  V30 67 H 39.467408 31.651797 52.035846 0
M  V30 68 H 41.066045 31.221430 52.623341 0
M  V30 69 H 39.154432 34.861474 59.918721 0
M  V30 70 H 42.579720 29.695119 62.653704 0
M  V30 71 H 37.467459 33.309702 56.012797 0
M  V30 72 H 39.165930 32.987906 56.256145 0
M  V30 73 H 36.969401 31.140882 56.753832 0
M  V30 END ATOM
M  V30 BEGIN BOND
M  V30 1 1 3 2
M  V30 2 1 6 1
M  V30 3 1 8 7
M  V30 4 1 12 11
M  V30 5 2 14 9
M  V30 6 1 16 12
M  V30 7 1 18 7
M  V30 8 1 20 8
M  V30 9 1 20 15
M  V30 10 1 21 9
M  V30 11 2 21 16
M  V30 12 1 21 19
M  V30 13 1 22 4
M  V30 14 1 23 2
M  V30 15 1 24 1
M  V30 16 1 24 22
M  V30 17 1 25 3
M  V30 18 1 25 8
M  V30 19 1 26 10
M  V30 20 1 26 17
M  V30 21 1 26 22
M  V30 22 2 27 13
M  V30 23 1 27 15
M  V30 24 1 28 23
M  V30 25 1 28 24
M  V30 26 2 29 20
M  V30 27 1 31 5
M  V30 28 1 31 23
M  V30 29 1 31 28
M  V30 30 1 32 4
M  V30 31 1 32 10
M  V30 32 2 33 12
M  V30 33 1 33 14
M  V30 34 1 33 32
M  V30 35 1 34 3
M  V30 36 1 34 18
M  V30 37 1 35 7
M  V30 38 1 35 30
M  V30 39 1 36 1
M  V30 40 1 37 1
M  V30 41 1 38 2
M  V30 42 1 39 2
M  V30 43 1 40 5
M  V30 44 1 41 6
M  V30 45 1 7 42 CFG=1
M  V30 46 1 8 43 CFG=1
M  V30 47 1 44 9
M  V30 48 1 45 19
M  V30 49 1 46 10
M  V30 50 1 47 10
M  V30 51 1 48 11
M  V30 52 1 49 14
M  V30 53 1 50 15
M  V30 54 1 51 15
M  V30 55 1 52 16
M  V30 56 1 53 17
M  V30 57 1 54 18
M  V30 58 1 55 18
M  V30 59 1 22 56 CFG=1
M  V30 60 1 23 57 CFG=3
M  V30 61 1 24 58 CFG=3
M  V30 62 1 59 25
M  V30 63 1 60 25
M  V30 64 1 26 61 CFG=3
M  V30 65 1 62 27
M  V30 66 1 28 63 CFG=1
M  V30 67 1 64 29
M  V30 68 1 65 29
M  V30 69 1 66 30
M  V30 70 1 67 30
M  V30 71 1 68 30
M  V30 72 1 31 69 CFG=3
M  V30 73 1 32 70 CFG=3
M  V30 74 1 71 34
M  V30 75 1 72 34
M  V30 76 1 3 73 CFG=3
M  V30 END BOND
M  V30 END CTAB
M  END
>  <i_epik_Tot_Q>  (1) 
1

>  <i_epik_Tot_abs_Q>  (1) 
1

>  <i_i_glide_confnum>  (1) 
1577

>  <i_i_glide_lignum>  (1) 
209

>  <i_i_glide_posenum>  (1) 
342

>  <i_i_glide_rotatable_bonds>  (1) 
15

>  <i_lp_mmshare_version>  (1) 
72125

>  <i_m_source_file_index>  (1) 
81

>  <i_f3d_flags>  (1) 
0

>  <num_sample>  (1) 
100

>  <b_lp_Chiralities_Consistent>  (1) 
1

>  <r_epik_Charging_Adjusted_Penalty>  (1) 
0.034071705691259377

>  <r_epik_Ionization_Penalty>  (1) 
0.043305258844254187

>  <r_epik_Ionization_Penalty_Charging>  (1) 
0.034071705691259377

>  <r_epik_Ionization_Penalty_Neutral>  (1) 
0.009233553152994808

>  <r_epik_State_Penalty>  (1) 
-0

>  <r_glide_ring_energy>  (1) 
0

>  <r_i_docking_score>  (1) 
-6.111362032392007

>  <r_i_glide_ecoul>  (1) 
-7.5481408212243677

>  <r_i_glide_eff_state_penalty>  (1) 
-0

>  <r_i_glide_einternal>  (1) 
9.8897680271494082

>  <r_i_glide_emodel>  (1) 
-60.235779789627571

>  <r_i_glide_emodel_strain>  (1) 
0.76119603300884364

>  <r_i_glide_energy>  (1) 
-48.942824021671498

>  <r_i_glide_erotb>  (1) 
0.67144220787932085

>  <r_i_glide_esite>  (1) 
-0.10000000000000001

>  <r_i_glide_evdw>  (1) 
-41.394683200447133

>  <r_i_glide_gscore>  (1) 
-6.111362032392007

>  <r_i_glide_gscore_strain>  (1) 
0

>  <r_i_glide_hbond>  (1) 
-0.44153633677868276

>  <r_i_glide_ligand_efficiency>  (1) 
-0.17461034378262877

>  <r_i_glide_ligand_efficiency_ln>  (1) 
-1.341579600482568

>  <r_i_glide_ligand_efficiency_sa>  (1) 
-0.57116201295780478

>  <r_i_glide_lipo>  (1) 
-2.1507207028643038

>  <r_i_glide_metal>  (1) 
-0

>  <r_i_glide_rewards>  (1) 
-0.88859191742232835

>  <r_lp_Energy>  (1) 
30.626286999999998

>  <r_lp_tautomer_probability>  (1) 
1

>  <s_epik_cmdline>  (1) 
J2VwaWtfcHl0aG9uJywgJy1waHQnLCAnMS4wJywgJy1waCcsICc3LjQnLCAnLXRuJywgJzgnLCAnLW1hJywgJzUwMCcsICctaW1hZScsICc8aW5maWxlLm1hZT4nLCAnLW9tYWUnLCAnPG91dGZpbGUubWFlPic=

>  <s_epik_input>  (1) 
Tz1bQ0hdW0NIMl1DKD1bQ0gyXSlbQ0BASF0oW0NASF0oW0NIMl1bQ0gyXTEpT1tDSDNdKVtDSDJdTjFbQ0gyXVtDQEBIXTJbQ0BASF0oW0NAQEhdMltPSF0pW0NAQEhdKFtDSDJdW09IXSlbQ0BASF0zT1tDQEhdKFtDSDJdW0NASF0zW09IXSlDND1bQ0hdW0NIMl1DKD1PKVtDSF09QzRbT0hd

>  <s_glide_docking_method>  (1) 
confgen

>  <s_i_glide_gridfile>  (1) 
gpcr_5ht2c_6bqh_protein_autoprepared_prepared

>  <s_lp_Force_Field>  (1) 
S-OPLS

>  <s_lp_Variant>  (1) 
DiffSBDD_80_num_sample_100-5

>  <s_m_source_file>  (1) 
generated__ligand_DiffSBDD_2026-05-06_prepared.sdf

>  <GenAI_Model>  (1) 
DiffSBDD

>  <Protein>  (1) 
GPCR_5HT2C

$$$$
DiffSBDD_79_num_sample_100
     RDKit          3D

  0  0  0  0  0  0  0  0  0  0999 V3000
M  V30 BEGIN CTAB
M  V30 COUNTS 84 86 0 0 1
M  V30 BEGIN ATOM
M  V30 1 C 38.486558 37.003778 61.917601 0
M  V30 2 C 37.830142 33.295593 60.895624 0
M  V30 3 C 43.966053 28.697125 65.246491 0
M  V30 4 C 39.941036 29.121889 56.318354 0
M  V30 5 C 38.972434 36.421733 64.202564 0
M  V30 6 C 43.055490 26.498358 65.929395 0
M  V30 7 C 39.277032 35.995511 62.763644 0
M  V30 8 C 40.658605 31.863080 65.105077 0
M  V30 9 F 43.067544 25.526424 65.017681 0
M  V30 10 C 39.504670 30.277051 55.395264 0
M  V30 11 C 39.078243 34.178013 60.864508 0
M  V30 12 C 41.078580 29.422598 64.418523 0
M  V30 13 F 44.162435 26.406201 66.668251 0
M  V30 14 C 42.919223 27.852539 65.244934 0
M  V30 15 C 42.945680 30.965861 64.897763 0
M  V30 16 C 36.925502 31.251048 60.278805 0
M  V30 17 C 38.545566 27.119489 55.848673 0
M  V30 18 N 38.854439 28.182555 56.645161 0
M  V30 19 C 40.713835 35.661895 62.377089 0
M  V30 20 C 41.628064 30.733195 64.801716 0
M  V30 21 C 38.171535 28.387028 57.934489 0
M  V30 22 C 39.013229 31.298951 61.674212 0 CFG=2
M  V30 23 C 39.637225 34.559012 62.253995 0
M  V30 24 C 41.796823 35.865532 63.453735 0
M  V30 25 O 40.052349 32.133804 62.139580 0
M  V30 26 O 37.661151 26.310118 56.130198 0
M  V30 27 C 39.760076 30.013595 61.267382 0
M  V30 28 C 41.318682 36.146634 61.086743 0
M  V30 29 C 39.353830 26.937858 54.560606 0
M  V30 30 N 38.200421 31.912669 60.616664 0
M  V30 31 F 42.011445 26.287721 66.732129 0
M  V30 32 C 41.632313 28.185119 64.607213 0
M  V30 33 C 37.729265 29.835660 58.237106 0
M  V30 34 C 44.016250 30.004259 64.553284 0
M  V30 35 C 37.020944 29.878161 59.596257 0
M  V30 36 C 40.772826 33.101877 64.190216 0
M  V30 37 C 39.737834 33.208039 63.042116 0 CFG=1
M  V30 38 H 38.730393 38.019258 62.225414 0
M  V30 39 H 38.693420 36.973047 60.854910 0
M  V30 40 H 37.414386 36.852072 62.043742 0
M  V30 41 H 37.164597 33.664491 60.114594 0
M  V30 42 H 37.276132 33.384370 61.829829 0
M  V30 43 H 44.882797 28.395630 65.733860 0
M  V30 44 H 40.811639 28.610970 55.907779 0
M  V30 45 H 40.302637 29.545996 57.254218 0
M  V30 46 H 39.321697 37.442255 64.367065 0
M  V30 47 H 37.898673 36.421402 64.392021 0
M  V30 48 H 39.468640 35.831821 64.958413 0
M  V30 49 H 39.647764 31.464688 65.115923 0
M  V30 50 H 40.850646 32.168178 66.134557 0
M  V30 51 H 40.340557 30.946977 55.198243 0
M  V30 52 H 39.137458 29.930415 54.432820 0
M  V30 53 H 38.719696 30.883406 55.844191 0
M  V30 54 H 39.868226 33.717617 60.268706 0
M  V30 55 H 38.789905 35.040371 60.279670 0
M  V30 56 H 40.086246 29.433789 63.996742 0
M  V30 57 H 43.280169 31.950640 65.192021 0
M  V30 58 H 36.315819 31.166609 61.177482 0
M  V30 59 H 36.352041 31.873719 59.588323 0
M  V30 60 H 38.854392 28.048598 58.714304 0
M  V30 61 H 37.289577 27.753135 58.025571 0
M  V30 62 H 38.373289 31.072800 62.528717 0
M  V30 63 H 42.282476 36.820519 63.287105 0
M  V30 64 H 41.438482 35.917807 64.472216 0
M  V30 65 H 42.562785 35.098176 63.452908 0
M  V30 66 H 39.184454 29.130045 61.536263 0
M  V30 67 H 39.974135 30.016305 60.198272 0
M  V30 68 H 40.712770 29.946361 61.791068 0
M  V30 69 H 41.467484 37.221256 61.135815 0
M  V30 70 H 42.253079 35.621529 60.877183 0
M  V30 71 H 40.662430 35.988349 60.253365 0
M  V30 72 H 40.394181 26.703163 54.784800 0
M  V30 73 H 38.950848 26.098755 53.992682 0
M  V30 74 H 39.304146 27.809031 53.911725 0
M  V30 75 H 41.019563 27.344793 64.311453 0
M  V30 76 H 37.066301 30.211674 57.458482 0
M  V30 77 H 38.586069 30.507256 58.262331 0
M  V30 78 H 44.026387 29.842481 63.474463 0
M  V30 79 H 44.969674 30.475043 64.801224 0
M  V30 80 H 36.010403 29.490912 59.459925 0
M  V30 81 H 37.507909 29.177072 60.253088 0
M  V30 82 H 40.667905 33.950499 64.856957 0
M  V30 83 H 41.774683 33.144697 63.773175 0
M  V30 84 H 38.761247 33.002644 63.453476 0
M  V30 END ATOM
M  V30 BEGIN BOND
M  V30 1 1 7 1
M  V30 2 1 7 5
M  V30 3 1 9 6
M  V30 4 1 10 4
M  V30 5 1 11 2
M  V30 6 1 13 6
M  V30 7 2 14 3
M  V30 8 1 14 6
M  V30 9 1 18 4
M  V30 10 1 18 17
M  V30 11 1 19 7
M  V30 12 1 20 8
M  V30 13 1 20 12
M  V30 14 2 20 15
M  V30 15 1 21 18
M  V30 16 1 23 7
M  V30 17 1 23 11
M  V30 18 1 23 19
M  V30 19 1 24 19
M  V30 20 1 25 22
M  V30 21 2 26 17
M  V30 22 1 27 22
M  V30 23 1 28 19
M  V30 24 1 29 17
M  V30 25 1 30 2
M  V30 26 1 30 16
M  V30 27 1 30 22
M  V30 28 1 31 6
M  V30 29 2 32 12
M  V30 30 1 32 14
M  V30 31 1 33 21
M  V30 32 1 34 3
M  V30 33 1 34 15
M  V30 34 1 35 16
M  V30 35 1 35 33
M  V30 36 1 36 8
M  V30 37 1 37 23
M  V30 38 1 37 25
M  V30 39 1 37 36
M  V30 40 1 38 1
M  V30 41 1 39 1
M  V30 42 1 40 1
M  V30 43 1 41 2
M  V30 44 1 42 2
M  V30 45 1 43 3
M  V30 46 1 44 4
M  V30 47 1 45 4
M  V30 48 1 46 5
M  V30 49 1 47 5
M  V30 50 1 48 5
M  V30 51 1 49 8
M  V30 52 1 50 8
M  V30 53 1 51 10
M  V30 54 1 52 10
M  V30 55 1 53 10
M  V30 56 1 54 11
M  V30 57 1 55 11
M  V30 58 1 56 12
M  V30 59 1 57 15
M  V30 60 1 58 16
M  V30 61 1 59 16
M  V30 62 1 60 21
M  V30 63 1 61 21
M  V30 64 1 22 62 CFG=1
M  V30 65 1 63 24
M  V30 66 1 64 24
M  V30 67 1 65 24
M  V30 68 1 66 27
M  V30 69 1 67 27
M  V30 70 1 68 27
M  V30 71 1 69 28
M  V30 72 1 70 28
M  V30 73 1 71 28
M  V30 74 1 72 29
M  V30 75 1 73 29
M  V30 76 1 74 29
M  V30 77 1 75 32
M  V30 78 1 76 33
M  V30 79 1 77 33
M  V30 80 1 78 34
M  V30 81 1 79 34
M  V30 82 1 80 35
M  V30 83 1 81 35
M  V30 84 1 82 36
M  V30 85 1 83 36
M  V30 86 1 37 84 CFG=1
M  V30 END BOND
M  V30 END CTAB
M  END
>  <i_epik_Tot_Q>  (1) 
0

>  <i_epik_Tot_abs_Q>  (1) 
0

>  <i_i_glide_confnum>  (1) 
992

>  <i_i_glide_lignum>  (1) 
199

>  <i_i_glide_posenum>  (1) 
84

>  <i_i_glide_rotatable_bonds>  (1) 
11

>  <i_lp_mmshare_version>  (1) 
72125

>  <i_m_source_file_index>  (1) 
80

>  <i_f3d_flags>  (1) 
0

>  <num_sample>  (1) 
100

>  <b_lp_Chiralities_Consistent>  (1) 
1

>  <r_epik_Charging_Adjusted_Penalty>  (1) 
0.2050768058510691

>  <r_epik_Ionization_Penalty>  (1) 
0.20507783400789523

>  <r_epik_Ionization_Penalty_Charging>  (1) 
0

>  <r_epik_Ionization_Penalty_Neutral>  (1) 
0.20507783400789523

>  <r_epik_State_Penalty>  (1) 
0.2050768058510691

>  <r_glide_ring_energy>  (1) 
0

>  <r_i_docking_score>  (1) 
-6.1079614058298954

>  <r_i_glide_ecoul>  (1) 
-0.9482107925058787

>  <r_i_glide_eff_state_penalty>  (1) 
0.2050768058510691

>  <r_i_glide_einternal>  (1) 
44.936591321860533

>  <r_i_glide_emodel>  (1) 
-30.376728213465086

>  <r_i_glide_emodel_strain>  (1) 
1.9690477919295404

>  <r_i_glide_energy>  (1) 
-38.004474051495571

>  <r_i_glide_erotb>  (1) 
0.59792730839384334

>  <r_i_glide_esite>  (1) 
0

>  <r_i_glide_evdw>  (1) 
-37.056263258989695

>  <r_i_glide_gscore>  (1) 
-6.3130382116809649

>  <r_i_glide_gscore_strain>  (1) 
0

>  <r_i_glide_hbond>  (1) 
0

>  <r_i_glide_ligand_efficiency>  (1) 
-0.16508003799540258

>  <r_i_glide_ligand_efficiency_ln>  (1) 
-1.3246736379930828

>  <r_i_glide_ligand_efficiency_sa>  (1) 
-0.55008330987882481

>  <r_i_glide_lipo>  (1) 
-3.5731353947200986

>  <r_i_glide_metal>  (1) 
-0

>  <r_i_glide_rewards>  (1) 
-1.3427853435293424

>  <r_lp_Energy>  (1) 
55.785767999999997

>  <s_epik_Chemistry_Notes>  (1) 
This compound contains an acetal/aminal-like group ( X-CH(R)-Y where X, Y are N, S, or O) that may be acid/base labile, releasing an aldehyde.

>  <s_epik_cmdline>  (1) 
J2VwaWtfcHl0aG9uJywgJy1waHQnLCAnMS4wJywgJy1waCcsICc3LjQnLCAnLXRuJywgJzgnLCAnLW1hJywgJzUwMCcsICctaW1hZScsICc8aW5maWxlLm1hZT4nLCAnLW9tYWUnLCAnPG91dGZpbGUubWFlPic=

>  <s_epik_input>  (1) 
W0NIM11bQ0gyXU4oQyg9TylbQ0gzXSlbQ0gyXVtDSDJdW0NIMl1bQ0gyXU4oW0NIMl1bQ0gyXUMxMkMoW0NIM10pKFtDSDNdKUMxKFtDSDNdKVtDSDNdKVtDQEBIXShbQ0gzXSlPW0NASF0yW0NIMl1bQ0gyXUMoW0NIXT1bQ0hdMyk9W0NIXVtDSDJdW0NIXT1DM0MoRikoRilG

>  <s_glide_docking_method>  (1) 
confgen

>  <s_i_glide_gridfile>  (1) 
gpcr_5ht2c_6bqh_protein_autoprepared_prepared

>  <s_lp_Force_Field>  (1) 
S-OPLS

>  <s_lp_Variant>  (1) 
DiffSBDD_79_num_sample_100-1

>  <s_m_source_file>  (1) 
generated__ligand_DiffSBDD_2026-05-06_prepared.sdf

>  <GenAI_Model>  (1) 
DiffSBDD

>  <Protein>  (1) 
GPCR_5HT2C

$$$$
DiffSBDD_40_num_sample_100
     RDKit          3D

  0  0  0  0  0  0  0  0  0  0999 V3000
M  V30 BEGIN CTAB
M  V30 COUNTS 73 75 0 0 1
M  V30 BEGIN ATOM
M  V30 1 C 33.823411 33.364106 59.397939 0
M  V30 2 C 38.443856 25.757301 55.484177 0 CFG=1
M  V30 3 N 42.666588 31.405195 65.367259 0
M  V30 4 C 38.570702 27.897585 54.012354 0
M  V30 5 C 37.489881 29.938344 59.853512 0
M  V30 6 C 38.877862 33.221426 56.983789 0
M  V30 7 N 41.158070 32.279168 63.769368 0 CHG=1
M  V30 8 C 39.408026 30.481530 54.945240 0
M  V30 9 O 37.067392 30.969861 54.653502 0
M  V30 10 C 38.387565 32.726338 55.615006 0
M  V30 11 C 37.729895 24.421437 55.597966 0
M  V30 12 C 39.950789 25.496283 55.336181 0
M  V30 13 N 41.427883 30.148016 63.797286 0
M  V30 14 C 37.150602 33.775448 60.040845 0 CFG=2
M  V30 15 C 37.837323 26.618760 54.347252 0
M  V30 16 C 38.899347 32.000979 60.646238 0 CFG=1
M  V30 17 C 37.736910 31.009312 60.941156 0 CFG=1
M  V30 18 S 38.672523 28.449351 52.445031 0
M  V30 19 C 40.339488 31.784613 62.774334 0
M  V30 20 N 36.068520 32.771504 60.280712 0 CFG=2 CHG=1
M  V30 21 S 39.299819 28.729336 55.399658 0
M  V30 22 C 34.753320 33.369785 60.614202 0
M  V30 23 C 40.522075 30.406650 62.800127 0
M  V30 24 C 38.174396 31.209100 55.475188 0 CFG=2
M  V30 25 C 36.448040 31.759321 61.294504 0
M  V30 26 O 36.667415 24.161823 54.776471 0
M  V30 27 C 36.698067 34.869847 59.053505 0
M  V30 28 N 36.667413 24.350247 56.253500 0
M  V30 29 C 41.798071 31.283119 64.365504 0
M  V30 30 C 38.465627 33.065923 59.590209 0 CFG=1
M  V30 31 C 39.480186 32.674257 61.921050 0
M  V30 32 C 38.342753 32.435001 58.183014 0
M  V30 33 H 32.801540 33.621428 59.676445 0
M  V30 34 H 34.133063 34.075556 58.634381 0
M  V30 35 H 33.821887 32.376268 58.938685 0
M  V30 36 H 38.291773 26.269793 56.436436 0
M  V30 37 H 42.913016 32.300649 65.765204 0
M  V30 38 H 43.126460 30.608233 65.785412 0
M  V30 39 H 37.081488 30.330018 58.928307 0
M  V30 40 H 38.400477 29.386463 59.618726 0
M  V30 41 H 36.742052 29.221486 60.171020 0
M  V30 42 H 39.964588 33.221430 57.006934 0
M  V30 43 H 38.538876 34.248622 57.053578 0
M  V30 44 H 39.591059 30.681075 53.890892 0
M  V30 45 H 40.280821 30.871042 55.464107 0
M  V30 46 H 36.315182 31.341264 55.106919 0
M  V30 47 H 39.067447 33.070211 54.841600 0
M  V30 48 H 37.467403 33.254748 55.402782 0
M  V30 49 H 40.267384 24.703358 56.010472 0
M  V30 50 H 40.201238 25.221429 54.312689 0
M  V30 51 H 40.566991 26.355776 55.589394 0
M  V30 52 H 41.762009 29.229067 64.062642 0
M  V30 53 H 37.344740 34.277581 60.990037 0
M  V30 54 H 36.815646 26.892961 54.607546 0
M  V30 55 H 37.765842 26.021310 53.439544 0
M  V30 56 H 39.731758 31.432583 60.232674 0
M  V30 57 H 37.999526 30.438298 61.830067 0
M  V30 58 H 34.267500 32.821428 61.416885 0
M  V30 59 H 34.895053 34.364680 61.026935 0
M  V30 60 H 40.083668 29.619048 62.202025 0
M  V30 61 H 37.873171 30.751662 56.412672 0
M  V30 62 H 35.633763 31.042831 61.417735 0
M  V30 63 H 36.575180 32.260249 62.253496 0
M  V30 64 H 37.467406 35.601767 58.850189 0
M  V30 65 H 36.396972 34.421427 58.108939 0
M  V30 66 H 35.860402 35.460741 59.419901 0
M  V30 67 H 39.257304 33.813910 59.526551 0
M  V30 68 H 40.099359 33.522895 61.627842 0
M  V30 69 H 38.688826 33.089479 62.543807 0
M  V30 70 H 37.295878 32.219358 57.987619 0
M  V30 71 H 38.878061 31.485972 58.173066 0
M  V30 72 H 35.936038 32.278989 59.404086 0
M  V30 73 H 41.258305 33.256804 64.012260 0
M  V30 END ATOM
M  V30 BEGIN BOND
M  V30 1 1 10 6
M  V30 2 1 11 2
M  V30 3 1 12 2
M  V30 4 1 15 2
M  V30 5 1 15 4
M  V30 6 1 17 5
M  V30 7 1 17 16
M  V30 8 2 18 4
M  V30 9 1 19 7
M  V30 10 1 20 14
M  V30 11 1 21 4
M  V30 12 1 21 8
M  V30 13 1 22 1
M  V30 14 1 22 20
M  V30 15 1 23 13
M  V30 16 2 23 19
M  V30 17 1 24 8
M  V30 18 1 24 9
M  V30 19 1 24 10
M  V30 20 1 25 17
M  V30 21 1 25 20
M  V30 22 1 26 11
M  V30 23 1 27 14
M  V30 24 2 28 11
M  V30 25 1 28 26
M  V30 26 1 29 3
M  V30 27 2 29 7
M  V30 28 1 29 13
M  V30 29 1 30 14
M  V30 30 1 30 16
M  V30 31 1 31 16
M  V30 32 1 31 19
M  V30 33 1 32 6
M  V30 34 1 32 30
M  V30 35 1 33 1
M  V30 36 1 34 1
M  V30 37 1 35 1
M  V30 38 1 2 36 CFG=1
M  V30 39 1 37 3
M  V30 40 1 38 3
M  V30 41 1 39 5
M  V30 42 1 40 5
M  V30 43 1 41 5
M  V30 44 1 42 6
M  V30 45 1 43 6
M  V30 46 1 44 8
M  V30 47 1 45 8
M  V30 48 1 46 9
M  V30 49 1 47 10
M  V30 50 1 48 10
M  V30 51 1 49 12
M  V30 52 1 50 12
M  V30 53 1 51 12
M  V30 54 1 52 13
M  V30 55 1 14 53 CFG=1
M  V30 56 1 54 15
M  V30 57 1 55 15
M  V30 58 1 16 56 CFG=3
M  V30 59 1 17 57 CFG=1
M  V30 60 1 58 22
M  V30 61 1 59 22
M  V30 62 1 60 23
M  V30 63 1 24 61 CFG=1
M  V30 64 1 62 25
M  V30 65 1 63 25
M  V30 66 1 64 27
M  V30 67 1 65 27
M  V30 68 1 66 27
M  V30 69 1 30 67 CFG=3
M  V30 70 1 68 31
M  V30 71 1 69 31
M  V30 72 1 70 32
M  V30 73 1 71 32
M  V30 74 1 20 72 CFG=3
M  V30 75 1 73 7
M  V30 END BOND
M  V30 END CTAB
M  END
>  <i_epik_Tot_Q>  (1) 
2

>  <i_epik_Tot_abs_Q>  (1) 
2

>  <i_i_glide_confnum>  (1) 
2489

>  <i_i_glide_lignum>  (1) 
103

>  <i_i_glide_posenum>  (1) 
180

>  <i_i_glide_rotatable_bonds>  (1) 
14

>  <i_lp_mmshare_version>  (1) 
72125

>  <i_m_source_file_index>  (1) 
41

>  <i_f3d_flags>  (1) 
0

>  <num_sample>  (1) 
100

>  <b_lp_Chiralities_Consistent>  (1) 
1

>  <r_epik_Charging_Adjusted_Penalty>  (1) 
0.0037096170623772918

>  <r_epik_Ionization_Penalty>  (1) 
0.054330814931534903

>  <r_epik_Ionization_Penalty_Charging>  (1) 
0.0037096170623772918

>  <r_epik_Ionization_Penalty_Neutral>  (1) 
0.050621197869157614

>  <r_epik_State_Penalty>  (1) 
-0

>  <r_glide_ring_energy>  (1) 
0

>  <r_i_docking_score>  (1) 
-6.105072736949535

>  <r_i_glide_ecoul>  (1) 
-2.3810021264686272

>  <r_i_glide_eff_state_penalty>  (1) 
-0

>  <r_i_glide_einternal>  (1) 
13.491213306078173

>  <r_i_glide_emodel>  (1) 
-60.664206681697223

>  <r_i_glide_emodel_strain>  (1) 
2.1465429201481356

>  <r_i_glide_energy>  (1) 
-46.769210946336557

>  <r_i_glide_erotb>  (1) 
0.95438045441749597

>  <r_i_glide_esite>  (1) 
-0.029049228262251078

>  <r_i_glide_evdw>  (1) 
-44.388208819867927

>  <r_i_glide_gscore>  (1) 
-6.105072736949535

>  <r_i_glide_gscore_strain>  (1) 
0

>  <r_i_glide_hbond>  (1) 
-0.18866697508564201

>  <r_i_glide_ligand_efficiency>  (1) 
-0.19078352302967297

>  <r_i_glide_ligand_efficiency_ln>  (1) 
-1.3670922038005091

>  <r_i_glide_ligand_efficiency_sa>  (1) 
-0.60569993031100422

>  <r_i_glide_lipo>  (1) 
-2.0875667663652302

>  <r_i_glide_metal>  (1) 
-0

>  <r_i_glide_rewards>  (1) 
-2.1776094616902184

>  <r_lp_Energy>  (1) 
39.041623999999999

>  <r_lp_tautomer_probability>  (1) 
1

>  <s_epik_Chemistry_Notes>  (1) 
This compound has an imine and may undergo hydrolysis.

>  <s_epik_cmdline>  (1) 
J2VwaWtfcHl0aG9uJywgJy1waHQnLCAnMS4wJywgJy1waCcsICc3LjQnLCAnLXRuJywgJzgnLCAnLW1hJywgJzUwMCcsICctaW1hZScsICc8aW5maWxlLm1hZT4nLCAnLW9tYWUnLCAnPG91dGZpbGUubWFlPic=

>  <s_epik_input>  (1) 
W2NIXTFbbkhdYyhbTkgyXSluYzFbQ0gyXVtDQEBIXShbQ0BIXShbQ0gzXSlbQ0gyXU4oW0NAQEhdMltDSDNdKVtDSDJdW0NIM10pW0NAQEhdMltDSDJdW0NIMl1bQ0gyXVtDQEBIXShbT0hdKVtDSDJdU0MoPVMpW0NIMl1bQ0BIXShbQ0gzXSlDMz1OTzM=

>  <s_glide_docking_method>  (1) 
confgen

>  <s_i_glide_gridfile>  (1) 
gpcr_5ht2c_6bqh_protein_autoprepared_prepared

>  <s_lp_Force_Field>  (1) 
S-OPLS

>  <s_lp_Variant>  (1) 
DiffSBDD_40_num_sample_100-4

>  <s_m_source_file>  (1) 
generated__ligand_DiffSBDD_2026-05-06_prepared.sdf

>  <GenAI_Model>  (1) 
DiffSBDD

>  <Protein>  (1) 
GPCR_5HT2C

$$$$
DiffSBDD_40_num_sample_100
     RDKit          3D

  0  0  0  0  0  0  0  0  0  0999 V3000
M  V30 BEGIN CTAB
M  V30 COUNTS 73 75 0 0 1
M  V30 BEGIN ATOM
M  V30 1 C 43.023406 28.145796 57.840361 0
M  V30 2 C 40.549867 30.573369 64.937238 0 CFG=1
M  V30 3 N 40.260974 29.991157 50.217840 0
M  V30 4 C 40.215979 31.465765 62.553202 0
M  V30 5 C 38.079886 26.188915 56.247750 0
M  V30 6 C 37.078254 29.659190 59.458003 0
M  V30 7 N 39.867395 30.092600 52.543734 0 CHG=1
M  V30 8 C 37.959559 32.438906 61.039941 0
M  V30 9 O 35.650539 31.634712 61.282089 0
M  V30 10 C 36.723507 31.123123 59.150728 0
M  V30 11 C 41.094054 29.363330 65.691765 0
M  V30 12 C 41.021094 31.925109 65.526799 0
M  V30 13 N 38.787157 28.600885 51.440201 0
M  V30 14 C 40.057072 29.004334 57.963318 0 CFG=2
M  V30 15 C 40.881077 30.425540 63.432261 0
M  V30 16 C 38.518288 28.735568 55.912439 0 CFG=1
M  V30 17 C 39.053417 27.281842 55.771299 0 CFG=1
M  V30 18 S 41.059474 32.760688 61.929071 0
M  V30 19 C 39.099483 29.423959 53.472319 0
M  V30 20 N 40.523009 27.599947 57.789648 0 CFG=2 CHG=1
M  V30 21 S 38.501661 31.180682 62.252737 0
M  V30 22 C 41.855723 27.308620 58.388782 0
M  V30 23 C 38.395090 28.468782 52.748873 0
M  V30 24 C 36.615103 32.088706 60.353877 0 CFG=2
M  V30 25 C 40.447502 27.131076 56.384395 0
M  V30 26 O 40.270982 28.715843 66.570076 0
M  V30 27 C 40.254950 29.509389 59.405479 0
M  V30 28 N 41.507146 29.491559 66.869666 0
M  V30 29 C 39.670777 29.582003 51.339315 0
M  V30 30 C 38.648666 29.255658 57.376094 0 CFG=1
M  V30 31 C 39.134170 29.769806 54.929666 0
M  V30 32 C 37.525763 28.753872 58.291089 0
M  V30 33 H 43.967730 27.682463 58.123482 0
M  V30 34 H 43.017386 28.228230 56.758544 0
M  V30 35 H 43.023737 29.156751 58.247032 0
M  V30 36 H 39.467325 30.523447 65.054491 0
M  V30 37 H 40.916873 30.761124 50.200247 0
M  V30 38 H 40.055973 29.580331 49.317286 0
M  V30 39 H 37.972582 26.154192 57.328278 0
M  V30 40 H 37.088212 26.326042 55.817372 0
M  V30 41 H 38.425089 25.204881 55.931527 0
M  V30 42 H 37.801241 29.597644 60.253701 0
M  V30 43 H 36.167981 29.221395 59.853499 0
M  V30 44 H 38.708654 32.585909 60.261706 0
M  V30 45 H 37.865115 33.388686 61.568852 0
M  V30 46 H 34.802157 31.698010 60.868609 0
M  V30 47 H 35.762514 31.070411 58.653511 0
M  V30 48 H 37.408027 31.584210 58.444660 0
M  V30 49 H 40.768140 32.014111 66.584410 0
M  V30 50 H 42.100974 32.041220 65.426466 0
M  V30 51 H 40.549317 32.771465 65.028807 0
M  V30 52 H 38.451662 28.038145 50.667209 0
M  V30 53 H 40.667406 29.621186 57.339658 0
M  V30 54 H 40.548550 29.445177 63.084299 0
M  V30 55 H 41.960850 30.447088 63.279448 0
M  V30 56 H 37.467269 28.719492 55.638906 0
M  V30 57 H 39.186169 27.055649 54.718120 0
M  V30 58 H 41.822550 27.451754 59.464711 0
M  V30 59 H 42.065545 26.253264 58.253622 0
M  V30 60 H 37.673635 27.725586 53.065170 0
M  V30 61 H 36.227865 33.027722 59.952527 0
M  V30 62 H 40.769112 26.091258 56.312347 0
M  V30 63 H 41.131341 27.721448 55.786231 0
M  V30 64 H 39.759747 30.462775 59.562154 0
M  V30 65 H 39.869690 28.800162 60.138833 0
M  V30 66 H 41.306645 29.668762 59.633295 0
M  V30 67 H 38.547496 30.333364 57.293518 0
M  V30 68 H 38.624320 30.728308 55.044804 0
M  V30 69 H 40.177122 29.955478 55.189408 0
M  V30 70 H 37.867385 27.805624 58.704586 0
M  V30 71 H 36.650723 28.541516 57.695271 0
M  V30 72 H 39.865251 27.031570 58.303174 0
M  V30 73 H 40.494839 30.861049 52.749492 0
M  V30 END ATOM
M  V30 BEGIN BOND
M  V30 1 1 10 6
M  V30 2 1 11 2
M  V30 3 1 12 2
M  V30 4 1 15 2
M  V30 5 1 15 4
M  V30 6 1 17 5
M  V30 7 1 17 16
M  V30 8 2 18 4
M  V30 9 1 19 7
M  V30 10 1 20 14
M  V30 11 1 21 4
M  V30 12 1 21 8
M  V30 13 1 22 1
M  V30 14 1 22 20
M  V30 15 1 23 13
M  V30 16 2 23 19
M  V30 17 1 24 8
M  V30 18 1 24 9
M  V30 19 1 24 10
M  V30 20 1 25 17
M  V30 21 1 25 20
M  V30 22 1 26 11
M  V30 23 1 27 14
M  V30 24 2 28 11
M  V30 25 1 28 26
M  V30 26 1 29 3
M  V30 27 2 29 7
M  V30 28 1 29 13
M  V30 29 1 30 14
M  V30 30 1 30 16
M  V30 31 1 31 16
M  V30 32 1 31 19
M  V30 33 1 32 6
M  V30 34 1 32 30
M  V30 35 1 33 1
M  V30 36 1 34 1
M  V30 37 1 35 1
M  V30 38 1 2 36 CFG=3
M  V30 39 1 37 3
M  V30 40 1 38 3
M  V30 41 1 39 5
M  V30 42 1 40 5
M  V30 43 1 41 5
M  V30 44 1 42 6
M  V30 45 1 43 6
M  V30 46 1 44 8
M  V30 47 1 45 8
M  V30 48 1 46 9
M  V30 49 1 47 10
M  V30 50 1 48 10
M  V30 51 1 49 12
M  V30 52 1 50 12
M  V30 53 1 51 12
M  V30 54 1 52 13
M  V30 55 1 14 53 CFG=3
M  V30 56 1 54 15
M  V30 57 1 55 15
M  V30 58 1 16 56 CFG=3
M  V30 59 1 17 57 CFG=3
M  V30 60 1 58 22
M  V30 61 1 59 22
M  V30 62 1 60 23
M  V30 63 1 24 61 CFG=3
M  V30 64 1 62 25
M  V30 65 1 63 25
M  V30 66 1 64 27
M  V30 67 1 65 27
M  V30 68 1 66 27
M  V30 69 1 30 67 CFG=3
M  V30 70 1 68 31
M  V30 71 1 69 31
M  V30 72 1 70 32
M  V30 73 1 71 32
M  V30 74 1 20 72 CFG=1
M  V30 75 1 73 7
M  V30 END BOND
M  V30 END CTAB
M  END
>  <i_epik_Tot_Q>  (1) 
2

>  <i_epik_Tot_abs_Q>  (1) 
2

>  <i_i_glide_confnum>  (1) 
961

>  <i_i_glide_lignum>  (1) 
103

>  <i_i_glide_posenum>  (1) 
57

>  <i_i_glide_rotatable_bonds>  (1) 
14

>  <i_lp_mmshare_version>  (1) 
72125

>  <i_m_source_file_index>  (1) 
41

>  <i_f3d_flags>  (1) 
0

>  <num_sample>  (1) 
100

>  <b_lp_Chiralities_Consistent>  (1) 
1

>  <r_epik_Charging_Adjusted_Penalty>  (1) 
0.0037096170623772918

>  <r_epik_Ionization_Penalty>  (1) 
0.054330814931534903

>  <r_epik_Ionization_Penalty_Charging>  (1) 
0.0037096170623772918

>  <r_epik_Ionization_Penalty_Neutral>  (1) 
0.050621197869157614

>  <r_epik_State_Penalty>  (1) 
-0

>  <r_glide_ring_energy>  (1) 
0

>  <r_i_docking_score>  (1) 
-6.1046633523260248

>  <r_i_glide_ecoul>  (1) 
-6.1156278107475064

>  <r_i_glide_eff_state_penalty>  (1) 
-0

>  <r_i_glide_einternal>  (1) 
10.820284742866367

>  <r_i_glide_emodel>  (1) 
-59.874951355184621

>  <r_i_glide_emodel_strain>  (1) 
0.71783505131659808

>  <r_i_glide_energy>  (1) 
-43.217311494899874

>  <r_i_glide_erotb>  (1) 
0.95438045441749597

>  <r_i_glide_esite>  (1) 
0

>  <r_i_glide_evdw>  (1) 
-37.10168368415237

>  <r_i_glide_gscore>  (1) 
-6.1046633523260248

>  <r_i_glide_gscore_strain>  (1) 
0

>  <r_i_glide_hbond>  (1) 
-0.32000000000000001

>  <r_i_glide_ligand_efficiency>  (1) 
-0.19077072976018827

>  <r_i_glide_ligand_efficiency_ln>  (1) 
-1.3670005314239018

>  <r_i_glide_ligand_efficiency_sa>  (1) 
-0.60565931421212804

>  <r_i_glide_lipo>  (1) 
-2.4501952946248671

>  <r_i_glide_metal>  (1) 
-0

>  <r_i_glide_rewards>  (1) 
-1.5164201562989095

>  <r_lp_Energy>  (1) 
39.041623999999999

>  <r_lp_tautomer_probability>  (1) 
1

>  <s_epik_Chemistry_Notes>  (1) 
This compound has an imine and may undergo hydrolysis.

>  <s_epik_cmdline>  (1) 
J2VwaWtfcHl0aG9uJywgJy1waHQnLCAnMS4wJywgJy1waCcsICc3LjQnLCAnLXRuJywgJzgnLCAnLW1hJywgJzUwMCcsICctaW1hZScsICc8aW5maWxlLm1hZT4nLCAnLW9tYWUnLCAnPG91dGZpbGUubWFlPic=

>  <s_epik_input>  (1) 
W2NIXTFbbkhdYyhbTkgyXSluYzFbQ0gyXVtDQEBIXShbQ0BIXShbQ0gzXSlbQ0gyXU4oW0NAQEhdMltDSDNdKVtDSDJdW0NIM10pW0NAQEhdMltDSDJdW0NIMl1bQ0gyXVtDQEBIXShbT0hdKVtDSDJdU0MoPVMpW0NIMl1bQ0BIXShbQ0gzXSlDMz1OTzM=

>  <s_glide_docking_method>  (1) 
confgen

>  <s_i_glide_gridfile>  (1) 
gpcr_5ht2c_6bqh_protein_autoprepared_prepared

>  <s_lp_Force_Field>  (1) 
S-OPLS

>  <s_lp_Variant>  (1) 
DiffSBDD_40_num_sample_100-4

>  <s_m_source_file>  (1) 
generated__ligand_DiffSBDD_2026-05-06_prepared.sdf

>  <GenAI_Model>  (1) 
DiffSBDD

>  <Protein>  (1) 
GPCR_5HT2C

$$$$
DiffSBDD_18_num_sample_100
     RDKit          3D

  0  0  0  0  0  0  0  0  0  0999 V3000
M  V30 BEGIN CTAB
M  V30 COUNTS 71 73 0 0 1
M  V30 BEGIN ATOM
M  V30 1 O 38.461262 31.286396 59.426606 0
M  V30 2 C 43.335631 27.361487 67.273787 0
M  V30 3 C 40.417143 31.320284 64.427133 0
M  V30 4 C 44.236414 26.421588 67.533403 0
M  V30 5 O 40.530000 31.704486 61.640403 0
M  V30 6 C 43.192895 29.778806 66.799343 0 CFG=2
M  V30 7 C 38.566158 27.499637 54.012673 0
M  V30 8 N 43.901081 28.496946 67.031568 0 CHG=1
M  V30 9 N 42.872581 30.360088 68.103436 0
M  V30 10 C 39.325501 29.874842 57.676909 0
M  V30 11 C 40.216330 26.875040 55.737681 0
M  V30 12 O 38.838789 27.415502 52.815836 0
M  V30 13 O 46.602116 26.420824 67.661090 0
M  V30 14 C 37.096905 24.718402 55.007199 0
M  V30 15 C 42.848355 30.809873 63.848074 0
M  V30 16 C 45.408597 26.988691 67.453870 0
M  V30 17 C 38.399421 25.146103 57.133312 0
M  V30 18 C 40.285341 27.984418 56.488398 0
M  V30 19 C 39.975036 30.697369 62.079326 0
M  V30 20 N 37.827903 28.496845 54.597609 0
M  V30 21 C 41.818668 30.954054 64.987180 0 CFG=2
M  V30 22 C 38.312230 30.958740 58.044107 0 CFG=2
M  V30 23 C 41.883903 29.740620 65.966180 0 CFG=2
M  V30 24 C 40.846429 29.761856 67.102603 0
M  V30 25 O 38.265632 25.818329 58.179571 0 CHG=-1
M  V30 26 C 45.467376 28.494667 67.090329 0
M  V30 27 C 38.004366 29.101090 55.721399 0
M  V30 28 C 39.346412 29.685958 61.119535 0
M  V30 29 C 38.121874 30.250147 60.354159 0
M  V30 30 C 38.504938 32.251081 57.240236 0
M  V30 31 C 39.218122 28.991566 56.655274 0
M  V30 32 C 39.019360 26.426513 54.971479 0 CFG=1
M  V30 33 C 37.874312 25.770566 55.826479 0 CFG=1
M  V30 34 N 39.888723 30.421430 63.395676 0
M  V30 35 N 41.467400 30.428805 68.241803 0
M  V30 36 O 38.930361 24.021470 57.053528 0
M  V30 37 H 42.258050 27.248499 67.265074 0
M  V30 38 H 39.687189 31.373856 65.227375 0
M  V30 39 H 40.452666 32.342757 64.045942 0
M  V30 40 H 43.990285 25.397424 67.774154 0
M  V30 41 H 43.938128 30.419368 66.329139 0
M  V30 42 H 43.265593 29.804299 68.860657 0
M  V30 43 H 40.185687 29.808369 58.321889 0
M  V30 44 H 41.067323 26.212205 55.709198 0
M  V30 45 H 45.816069 29.154839 67.884583 0
M  V30 46 H 36.282522 24.283269 55.587766 0
M  V30 47 H 36.667480 25.161239 54.109385 0
M  V30 48 H 37.745878 23.903623 54.682391 0
M  V30 49 H 42.672556 29.905981 63.264313 0
M  V30 50 H 42.796175 31.658382 63.165562 0
M  V30 51 H 43.871251 30.763750 64.216605 0
M  V30 52 H 41.204482 28.146877 57.032378 0
M  V30 53 H 42.117071 31.829011 65.567812 0
M  V30 54 H 37.285029 30.615173 57.927092 0
M  V30 55 H 41.784736 28.824633 65.381700 0
M  V30 56 H 40.618503 28.739877 67.404626 0
M  V30 57 H 39.886837 30.216861 66.873795 0
M  V30 58 H 45.867316 28.711567 66.099583 0
M  V30 59 H 37.249232 29.804337 56.067181 0
M  V30 60 H 40.115658 29.351902 60.426916 0
M  V30 61 H 39.067348 28.794848 61.682041 0
M  V30 62 H 37.592214 29.435029 59.856382 0
M  V30 63 H 37.409084 30.667736 61.066146 0
M  V30 64 H 38.437260 32.070421 56.167398 0
M  V30 65 H 37.731446 32.976133 57.495663 0
M  V30 66 H 39.467372 32.714011 57.444976 0
M  V30 67 H 39.416806 25.628611 54.341709 0
M  V30 68 H 37.145784 26.515031 56.140815 0
M  V30 69 H 39.416684 29.574154 63.697072 0
M  V30 70 H 41.172757 30.005903 69.120947 0
M  V30 71 H 46.461340 25.512363 67.879541 0
M  V30 END ATOM
M  V30 BEGIN BOND
M  V30 1 1 4 2
M  V30 2 2 8 2
M  V30 3 1 8 6
M  V30 4 1 9 6
M  V30 5 2 12 7
M  V30 6 2 16 4
M  V30 7 1 16 13
M  V30 8 2 18 11
M  V30 9 2 19 5
M  V30 10 1 20 7
M  V30 11 1 21 3
M  V30 12 1 21 15
M  V30 13 1 22 1
M  V30 14 1 22 10
M  V30 15 1 23 6
M  V30 16 1 23 21
M  V30 17 1 24 23
M  V30 18 1 25 17
M  V30 19 1 26 8
M  V30 20 1 26 16
M  V30 21 2 27 20
M  V30 22 1 28 19
M  V30 23 1 29 1
M  V30 24 1 29 28
M  V30 25 1 30 22
M  V30 26 2 31 10
M  V30 27 1 31 18
M  V30 28 1 31 27
M  V30 29 1 32 7
M  V30 30 1 32 11
M  V30 31 1 33 14
M  V30 32 1 33 17
M  V30 33 1 33 32
M  V30 34 1 34 3
M  V30 35 1 34 19
M  V30 36 1 35 9
M  V30 37 1 35 24
M  V30 38 2 36 17
M  V30 39 1 37 2
M  V30 40 1 38 3
M  V30 41 1 39 3
M  V30 42 1 40 4
M  V30 43 1 6 41 CFG=3
M  V30 44 1 42 9
M  V30 45 1 43 10
M  V30 46 1 44 11
M  V30 47 1 45 26
M  V30 48 1 46 14
M  V30 49 1 47 14
M  V30 50 1 48 14
M  V30 51 1 49 15
M  V30 52 1 50 15
M  V30 53 1 51 15
M  V30 54 1 52 18
M  V30 55 1 21 53 CFG=1
M  V30 56 1 22 54 CFG=1
M  V30 57 1 23 55 CFG=3
M  V30 58 1 56 24
M  V30 59 1 57 24
M  V30 60 1 58 26
M  V30 61 1 59 27
M  V30 62 1 60 28
M  V30 63 1 61 28
M  V30 64 1 62 29
M  V30 65 1 63 29
M  V30 66 1 64 30
M  V30 67 1 65 30
M  V30 68 1 66 30
M  V30 69 1 32 67 CFG=3
M  V30 70 1 33 68 CFG=1
M  V30 71 1 69 34
M  V30 72 1 70 35
M  V30 73 1 71 13
M  V30 END BOND
M  V30 END CTAB
M  END
>  <i_epik_Tot_Q>  (1) 
0

>  <i_epik_Tot_abs_Q>  (1) 
2

>  <i_i_glide_confnum>  (1) 
880

>  <i_i_glide_lignum>  (1) 
46

>  <i_i_glide_posenum>  (1) 
284

>  <i_i_glide_rotatable_bonds>  (1) 
13

>  <i_lp_mmshare_version>  (1) 
72125

>  <i_m_source_file_index>  (1) 
19

>  <i_f3d_flags>  (1) 
0

>  <num_sample>  (1) 
100

>  <b_lp_Chiralities_Consistent>  (1) 
1

>  <r_epik_Charging_Adjusted_Penalty>  (1) 
0.76693695219889413

>  <r_epik_Ionization_Penalty>  (1) 
0.76778133156762796

>  <r_epik_Ionization_Penalty_Charging>  (1) 
0.00011398914501928687

>  <r_epik_Ionization_Penalty_Neutral>  (1) 
0.7676673424226087

>  <r_epik_State_Penalty>  (1) 
0.76682296305387487

>  <r_glide_ring_energy>  (1) 
1.7561163794185886

>  <r_i_docking_score>  (1) 
-6.1030629109993866

>  <r_i_glide_ecoul>  (1) 
-8.2255335158873422

>  <r_i_glide_eff_state_penalty>  (1) 
0.76682296305387487

>  <r_i_glide_einternal>  (1) 
13.284300688369679

>  <r_i_glide_emodel>  (1) 
-69.174804667761151

>  <r_i_glide_emodel_strain>  (1) 
1.824962978148136

>  <r_i_glide_energy>  (1) 
-54.56029179116269

>  <r_i_glide_erotb>  (1) 
0.89312676016186854

>  <r_i_glide_esite>  (1) 
-0.027622182944602197

>  <r_i_glide_evdw>  (1) 
-46.334758275275348

>  <r_i_glide_gscore>  (1) 
-6.8698858740532618

>  <r_i_glide_gscore_strain>  (1) 
0

>  <r_i_glide_hbond>  (1) 
-0.32000000000000001

>  <r_i_glide_ligand_efficiency>  (1) 
-0.16952952530553853

>  <r_i_glide_ligand_efficiency_ln>  (1) 
-1.3315234414751023

>  <r_i_glide_ligand_efficiency_sa>  (1) 
-0.5597741590985289

>  <r_i_glide_lipo>  (1) 
-2.3641249017655053

>  <r_i_glide_metal>  (1) 
-0

>  <r_i_glide_rewards>  (1) 
-1.500697608358154

>  <r_lp_Energy>  (1) 
32.160671999999998

>  <r_lp_tautomer_probability>  (1) 
0.99929914239148299

>  <s_epik_Chemistry_Notes>  (1) 
This compound has an imine and may undergo hydrolysis. This compound contains an acetal/aminal-like group ( X-CH(R)-Y where X, Y are N, S, or O) that may be acid/base labile, releasing an aldehyde.

>  <s_epik_cmdline>  (1) 
J2VwaWtfcHl0aG9uJywgJy1waHQnLCAnMS4wJywgJy1waCcsICc3LjQnLCAnLXRuJywgJzgnLCAnLW1hJywgJzUwMCcsICctaW1hZScsICc8aW5maWxlLm1hZT4nLCAnLW9tYWUnLCAnPG91dGZpbGUubWFlPic=

>  <s_epik_input>  (1) 
W09IXUMoPU8pW0NASF0oW0NIM10pW0NAQEhdMVtDSF09W0NIXVxDKFtDSF09TkMxPU8pPVtDSF1cW0NASF0oW0NIM10pT1tDSDJdW0NIMl1DKD1PKVtOSF1bQ0gyXVtDQEhdKFtDSDNdKVtDQEBIXTJbQ0gyXVtOSF1bTkhdW0NASF0ybjNbY0hdW2NIXWMoW09IXSlbY0hdMw==

>  <s_glide_docking_method>  (1) 
confgen

>  <s_i_glide_gridfile>  (1) 
gpcr_5ht2c_6bqh_protein_autoprepared_prepared

>  <s_lp_Force_Field>  (1) 
S-OPLS

>  <s_lp_Variant>  (1) 
DiffSBDD_18_num_sample_100-6

>  <s_m_source_file>  (1) 
generated__ligand_DiffSBDD_2026-05-06_prepared.sdf

>  <GenAI_Model>  (1) 
DiffSBDD

>  <Protein>  (1) 
GPCR_5HT2C

$$$$
DiffSBDD_59_num_sample_100
     RDKit          3D

  0  0  0  0  0  0  0  0  0  0999 V3000
M  V30 BEGIN CTAB
M  V30 COUNTS 54 55 0 0 1
M  V30 BEGIN ATOM
M  V30 1 O 40.901752 36.358790 63.053488 0
M  V30 2 N 38.388196 29.273962 56.333823 0 CFG=1 CHG=1
M  V30 3 C 39.467406 30.500463 53.080802 0
M  V30 4 C 37.614750 29.544435 57.586932 0
M  V30 5 C 39.094058 35.319536 61.826779 0
M  V30 6 C 39.021943 27.879384 52.143913 0
M  V30 7 C 38.435515 28.297220 53.355120 0
M  V30 8 C 38.649071 29.619391 53.830983 0
M  V30 9 C 37.614672 33.365933 59.929243 0
M  V30 10 C 37.488270 30.797346 59.857804 0
M  V30 11 Cl 37.467396 27.190767 54.253444 0
M  V30 12 C 38.369628 30.359239 58.670035 0
M  V30 13 O 38.657148 33.621421 59.327655 0
M  V30 14 N 37.080947 34.093666 60.888529 0
M  V30 15 N 35.946976 33.621412 61.421755 0
M  V30 16 C 39.544373 36.513857 62.689980 0
M  V30 17 C 36.787097 32.154573 59.633966 0 CFG=1
M  V30 18 C 37.986893 30.096169 55.149243 0 CFG=2
M  V30 19 C 39.849714 29.132840 56.524498 0
M  V30 20 C 37.606963 35.381382 61.389063 0 CFG=2
M  V30 21 C 40.046521 30.071755 51.869513 0
M  V30 22 C 35.778361 32.530006 60.730875 0
M  V30 23 C 37.312424 36.507005 60.378696 0
M  V30 24 C 38.121440 31.614623 55.419095 0
M  V30 25 C 39.822380 28.765555 51.402169 0
M  V30 26 H 41.153195 37.054833 63.651973 0
M  V30 27 H 39.645628 31.506882 53.425253 0
M  V30 28 H 37.346799 28.577996 58.015208 0
M  V30 29 H 36.666468 30.021429 57.342587 0
M  V30 30 H 39.740997 35.259010 60.951002 0
M  V30 31 H 39.258783 34.402287 62.394025 0
M  V30 32 H 38.855156 26.874449 51.783027 0
M  V30 33 H 38.111122 30.863433 60.751853 0
M  V30 34 H 36.751114 30.022583 60.072658 0
M  V30 35 H 38.842186 31.235875 58.228217 0
M  V30 36 H 39.180813 29.750815 59.070640 0
M  V30 37 H 38.939512 36.581972 63.595060 0
M  V30 38 H 39.436201 37.454702 62.150497 0
M  V30 39 H 36.332700 32.240108 58.653514 0
M  V30 40 H 36.918806 29.920246 55.006274 0
M  V30 41 H 40.267400 30.103361 56.771719 0
M  V30 42 H 40.073671 28.435559 57.332411 0
M  V30 43 H 40.349796 28.758552 55.631780 0
M  V30 44 H 37.029184 35.623160 62.281634 0
M  V30 45 H 40.664347 30.749849 51.297990 0
M  V30 46 H 34.927088 31.876130 60.916767 0
M  V30 47 H 37.563775 37.487902 60.780658 0
M  V30 48 H 37.867412 36.375110 59.453511 0
M  V30 49 H 36.255051 36.529371 60.117557 0
M  V30 50 H 37.748196 32.197102 54.575564 0
M  V30 51 H 37.530816 31.932570 56.277622 0
M  V30 52 H 39.153486 31.911427 55.607348 0
M  V30 53 H 40.267449 28.441298 50.473107 0
M  V30 54 H 38.085854 28.347566 56.063180 0
M  V30 END ATOM
M  V30 BEGIN BOND
M  V30 1 1 4 2
M  V30 2 2 7 6
M  V30 3 2 8 3
M  V30 4 1 8 7
M  V30 5 1 11 7
M  V30 6 1 12 4
M  V30 7 1 12 10
M  V30 8 2 13 9
M  V30 9 1 14 9
M  V30 10 1 15 14
M  V30 11 1 16 1
M  V30 12 1 16 5
M  V30 13 1 17 9
M  V30 14 1 17 10
M  V30 15 1 18 2
M  V30 16 1 18 8
M  V30 17 1 19 2
M  V30 18 1 20 5
M  V30 19 1 20 14
M  V30 20 1 21 3
M  V30 21 2 22 15
M  V30 22 1 22 17
M  V30 23 1 23 20
M  V30 24 1 24 18
M  V30 25 1 25 6
M  V30 26 2 25 21
M  V30 27 1 26 1
M  V30 28 1 27 3
M  V30 29 1 28 4
M  V30 30 1 29 4
M  V30 31 1 30 5
M  V30 32 1 31 5
M  V30 33 1 32 6
M  V30 34 1 33 10
M  V30 35 1 34 10
M  V30 36 1 35 12
M  V30 37 1 36 12
M  V30 38 1 37 16
M  V30 39 1 38 16
M  V30 40 1 17 39 CFG=3
M  V30 41 1 18 40 CFG=3
M  V30 42 1 41 19
M  V30 43 1 42 19
M  V30 44 1 43 19
M  V30 45 1 20 44 CFG=1
M  V30 46 1 45 21
M  V30 47 1 46 22
M  V30 48 1 47 23
M  V30 49 1 48 23
M  V30 50 1 49 23
M  V30 51 1 50 24
M  V30 52 1 51 24
M  V30 53 1 52 24
M  V30 54 1 53 25
M  V30 55 1 2 54 CFG=3
M  V30 END BOND
M  V30 END CTAB
M  END
>  <i_epik_Tot_Q>  (1) 
1

>  <i_epik_Tot_abs_Q>  (1) 
1

>  <i_i_glide_confnum>  (1) 
226

>  <i_i_glide_lignum>  (1) 
150

>  <i_i_glide_posenum>  (1) 
154

>  <i_i_glide_rotatable_bonds>  (1) 
10

>  <i_lp_mmshare_version>  (1) 
72125

>  <i_m_source_file_index>  (1) 
60

>  <i_f3d_flags>  (1) 
0

>  <num_sample>  (1) 
100

>  <b_lp_Chiralities_Consistent>  (1) 
1

>  <r_epik_Charging_Adjusted_Penalty>  (1) 
0.90698054963472508

>  <r_epik_Ionization_Penalty>  (1) 
0.11890783771570668

>  <r_epik_Ionization_Penalty_Charging>  (1) 
0.11890771087092902

>  <r_epik_Ionization_Penalty_Neutral>  (1) 
1.2684477765112781e-07

>  <r_epik_State_Penalty>  (1) 
0.78807283876379608

>  <r_glide_ring_energy>  (1) 
0

>  <r_i_docking_score>  (1) 
-6.1020506136405528

>  <r_i_glide_ecoul>  (1) 
-4.7508026924740543

>  <r_i_glide_eff_state_penalty>  (1) 
0.78807283876379608

>  <r_i_glide_einternal>  (1) 
7.2104773250651739

>  <r_i_glide_emodel>  (1) 
-64.297458205467933

>  <r_i_glide_emodel_strain>  (1) 
0.25470431632956547

>  <r_i_glide_energy>  (1) 
-46.532097704845896

>  <r_i_glide_erotb>  (1) 
1.1440711446639862

>  <r_i_glide_esite>  (1) 
-0.023439071194177354

>  <r_i_glide_evdw>  (1) 
-41.781295012371842

>  <r_i_glide_gscore>  (1) 
-6.8901234524043486

>  <r_i_glide_gscore_strain>  (1) 
0

>  <r_i_glide_hbond>  (1) 
-0.32000000000000001

>  <r_i_glide_ligand_efficiency>  (1) 
-0.24408202454562211

>  <r_i_glide_ligand_efficiency_ln>  (1) 
-1.4463688591335069

>  <r_i_glide_ligand_efficiency_sa>  (1) 
-0.71370016935030722

>  <r_i_glide_lipo>  (1) 
-3.0545769040785071

>  <r_i_glide_metal>  (1) 
-0

>  <r_i_glide_rewards>  (1) 
-1.8344934673059496

>  <r_lp_Energy>  (1) 
23.407125000000001

>  <r_lp_tautomer_probability>  (1) 
0.26444745842670125

>  <s_epik_Chemistry_Notes>  (1) 
This compound has an imine and may undergo hydrolysis.

>  <s_epik_cmdline>  (1) 
J2VwaWtfcHl0aG9uJywgJy1waHQnLCAnMS4wJywgJy1waCcsICc3LjQnLCAnLXRuJywgJzgnLCAnLW1hJywgJzUwMCcsICctaW1hZScsICc8aW5maWxlLm1hZT4nLCAnLW9tYWUnLCAnPG91dGZpbGUubWFlPic=

>  <s_epik_input>  (1) 
W09IXVtDSDJdW0NIMl1bQ0BASF0oW0NIM10pTihDMT1PKU49W0NIXVtDQEBIXTFbQ0gyXVtDSDJdW0NIMl1OKFtDSDNdKVtDQEBIXShbQ0gzXSljMltjSF1bY0hdW2NIXVtjSF1jMkNs

>  <s_glide_docking_method>  (1) 
confgen

>  <s_i_glide_gridfile>  (1) 
gpcr_5ht2c_6bqh_protein_autoprepared_prepared

>  <s_lp_Force_Field>  (1) 
S-OPLS

>  <s_lp_Variant>  (1) 
DiffSBDD_59_num_sample_100-3

>  <s_m_source_file>  (1) 
generated__ligand_DiffSBDD_2026-05-06_prepared.sdf

>  <GenAI_Model>  (1) 
DiffSBDD

>  <Protein>  (1) 
GPCR_5HT2C

$$$$
DiffSBDD_74_num_sample_100
     RDKit          3D

  0  0  0  0  0  0  0  0  0  0999 V3000
M  V30 BEGIN CTAB
M  V30 COUNTS 24 24 0 0 1
M  V30 BEGIN ATOM
M  V30 1 C 40.297041 30.567313 49.854617 0
M  V30 2 C 39.868106 26.266016 54.089560 0
M  V30 3 C 39.082034 28.261996 52.842693 0
M  V30 4 C 37.112778 25.898313 55.290566 0
M  V30 5 C 39.867359 30.422141 52.387319 0
M  V30 6 C 39.396513 29.491354 53.374210 0
M  V30 7 S 39.325621 28.257712 51.124678 0
M  V30 8 C 39.882014 29.896808 51.118206 0
M  V30 9 C 37.555741 27.228268 54.643671 0
M  V30 10 C 38.635702 27.027911 53.560689 0 CFG=2
M  V30 11 H 40.533285 31.617129 50.023453 0
M  V30 12 H 41.178797 30.084918 49.433785 0
M  V30 13 H 39.493915 30.523139 49.119634 0
M  V30 14 H 40.601424 26.108158 53.298534 0
M  V30 15 H 40.358956 26.821597 54.888671 0
M  V30 16 H 39.619838 25.280822 54.481428 0
M  V30 17 H 36.267397 26.021517 55.962510 0
M  V30 18 H 36.824521 25.166170 54.535226 0
M  V30 19 H 37.909429 25.461462 55.891688 0
M  V30 20 H 40.168150 31.427706 52.640668 0
M  V30 21 H 39.329898 29.746307 54.421821 0
M  V30 22 H 37.916108 27.904531 55.419165 0
M  V30 23 H 36.687374 27.709643 54.191724 0
M  V30 24 H 38.163941 26.421427 52.794578 0
M  V30 END ATOM
M  V30 BEGIN BOND
M  V30 1 2 6 3
M  V30 2 1 6 5
M  V30 3 1 7 3
M  V30 4 1 8 1
M  V30 5 2 8 5
M  V30 6 1 8 7
M  V30 7 1 9 4
M  V30 8 1 10 2
M  V30 9 1 10 3
M  V30 10 1 10 9
M  V30 11 1 11 1
M  V30 12 1 12 1
M  V30 13 1 13 1
M  V30 14 1 14 2
M  V30 15 1 15 2
M  V30 16 1 16 2
M  V30 17 1 17 4
M  V30 18 1 18 4
M  V30 19 1 19 4
M  V30 20 1 20 5
M  V30 21 1 21 6
M  V30 22 1 22 9
M  V30 23 1 23 9
M  V30 24 1 10 24 CFG=3
M  V30 END BOND
M  V30 END CTAB
M  END
>  <i_epik_Tot_Q>  (1) 
0

>  <i_epik_Tot_abs_Q>  (1) 
0

>  <i_i_glide_confnum>  (1) 
1

>  <i_i_glide_lignum>  (1) 
187

>  <i_i_glide_posenum>  (1) 
183

>  <i_i_glide_rotatable_bonds>  (1) 
2

>  <i_lp_mmshare_version>  (1) 
72125

>  <i_m_source_file_index>  (1) 
75

>  <i_f3d_flags>  (1) 
0

>  <num_sample>  (1) 
100

>  <b_lp_Chiralities_Consistent>  (1) 
1

>  <r_epik_Charging_Adjusted_Penalty>  (1) 
0

>  <r_epik_Ionization_Penalty>  (1) 
0

>  <r_epik_Ionization_Penalty_Charging>  (1) 
0

>  <r_epik_Ionization_Penalty_Neutral>  (1) 
0

>  <r_epik_State_Penalty>  (1) 
-0

>  <r_glide_ring_energy>  (1) 
0

>  <r_i_docking_score>  (1) 
-6.0950959743650577

>  <r_i_glide_ecoul>  (1) 
-0.87872777240893041

>  <r_i_glide_eff_state_penalty>  (1) 
-0

>  <r_i_glide_einternal>  (1) 
3.3186359406631607

>  <r_i_glide_emodel>  (1) 
-29.757602492351769

>  <r_i_glide_emodel_strain>  (1) 
0.050987205209756858

>  <r_i_glide_energy>  (1) 
-22.465313616298193

>  <r_i_glide_erotb>  (1) 
0.62454345272379397

>  <r_i_glide_esite>  (1) 
0

>  <r_i_glide_evdw>  (1) 
-21.586585843889264

>  <r_i_glide_gscore>  (1) 
-6.0950959743650577

>  <r_i_glide_gscore_strain>  (1) 
0

>  <r_i_glide_hbond>  (1) 
0

>  <r_i_glide_ligand_efficiency>  (1) 
-0.60950959743650579

>  <r_i_glide_ligand_efficiency_ln>  (1) 
-1.8455530448844202

>  <r_i_glide_ligand_efficiency_sa>  (1) 
-1.3131486206245766

>  <r_i_glide_lipo>  (1) 
-2.7589787517967155

>  <r_i_glide_metal>  (1) 
-0

>  <r_i_glide_rewards>  (1) 
-2.7495222172363332

>  <r_lp_Energy>  (1) 
7.9689609999999993

>  <r_lp_tautomer_probability>  (1) 
1

>  <s_epik_cmdline>  (1) 
J2VwaWtfcHl0aG9uJywgJy1waHQnLCAnMS4wJywgJy1waCcsICc3LjQnLCAnLXRuJywgJzgnLCAnLW1hJywgJzUwMCcsICctaW1hZScsICc8aW5maWxlLm1hZT4nLCAnLW9tYWUnLCAnPG91dGZpbGUubWFlPic=

>  <s_epik_input>  (1) 
W0NIM11jKHMxKVtjSF1bY0hdYzFbQ0BIXShbQ0gzXSlbQ0gyXVtDSDNd

>  <s_glide_docking_method>  (1) 
confgen

>  <s_i_glide_gridfile>  (1) 
gpcr_5ht2c_6bqh_protein_autoprepared_prepared

>  <s_lp_Force_Field>  (1) 
S-OPLS

>  <s_lp_Variant>  (1) 
DiffSBDD_74_num_sample_100-2

>  <s_m_source_file>  (1) 
generated__ligand_DiffSBDD_2026-05-06_prepared.sdf

>  <GenAI_Model>  (1) 
DiffSBDD

>  <Protein>  (1) 
GPCR_5HT2C

$$$$
DiffSBDD_74_num_sample_100
     RDKit          3D

  0  0  0  0  0  0  0  0  0  0999 V3000
M  V30 BEGIN CTAB
M  V30 COUNTS 24 24 0 0 1
M  V30 BEGIN ATOM
M  V30 1 C 40.888525 30.302878 50.039562 0
M  V30 2 C 37.533646 30.131741 54.949573 0
M  V30 3 C 38.837566 28.924779 53.144726 0
M  V30 4 C 39.824081 26.985555 55.403925 0
M  V30 5 C 39.368886 28.421430 50.920509 0
M  V30 6 C 38.667400 28.036535 52.111085 0
M  V30 7 S 39.867404 30.241535 52.658908 0
M  V30 8 C 40.061728 29.599609 51.060862 0
M  V30 9 C 39.316866 28.426875 55.578422 0
M  V30 10 C 38.264038 28.843523 54.530926 0 CFG=1
M  V30 11 H 40.926902 29.736627 49.108693 0
M  V30 12 H 40.470929 31.284787 49.819204 0
M  V30 13 H 41.909548 30.442242 50.394472 0
M  V30 14 H 36.733732 30.380582 54.253501 0
M  V30 15 H 37.074450 30.025134 55.933216 0
M  V30 16 H 38.210016 30.985383 54.997952 0
M  V30 17 H 40.581934 26.747882 56.151162 0
M  V30 18 H 39.010739 26.268883 55.519892 0
M  V30 19 H 40.267402 26.821430 54.422069 0
M  V30 20 H 39.335009 27.831209 50.017977 0
M  V30 21 H 38.072961 27.135797 52.163858 0
M  V30 22 H 40.158449 29.120451 55.554741 0
M  V30 23 H 38.885600 28.511619 56.576624 0
M  V30 24 H 37.501089 28.063457 54.523912 0
M  V30 END ATOM
M  V30 BEGIN BOND
M  V30 1 2 6 3
M  V30 2 1 6 5
M  V30 3 1 7 3
M  V30 4 1 8 1
M  V30 5 2 8 5
M  V30 6 1 8 7
M  V30 7 1 9 4
M  V30 8 1 10 2
M  V30 9 1 10 3
M  V30 10 1 10 9
M  V30 11 1 11 1
M  V30 12 1 12 1
M  V30 13 1 13 1
M  V30 14 1 14 2
M  V30 15 1 15 2
M  V30 16 1 16 2
M  V30 17 1 17 4
M  V30 18 1 18 4
M  V30 19 1 19 4
M  V30 20 1 20 5
M  V30 21 1 21 6
M  V30 22 1 22 9
M  V30 23 1 23 9
M  V30 24 1 10 24 CFG=3
M  V30 END BOND
M  V30 END CTAB
M  END
>  <i_epik_Tot_Q>  (1) 
0

>  <i_epik_Tot_abs_Q>  (1) 
0

>  <i_i_glide_confnum>  (1) 
1

>  <i_i_glide_lignum>  (1) 
186

>  <i_i_glide_posenum>  (1) 
47

>  <i_i_glide_rotatable_bonds>  (1) 
2

>  <i_lp_mmshare_version>  (1) 
72125

>  <i_m_source_file_index>  (1) 
75

>  <i_f3d_flags>  (1) 
0

>  <num_sample>  (1) 
100

>  <b_lp_Chiralities_Consistent>  (1) 
1

>  <r_epik_Charging_Adjusted_Penalty>  (1) 
0

>  <r_epik_Ionization_Penalty>  (1) 
0

>  <r_epik_Ionization_Penalty_Charging>  (1) 
0

>  <r_epik_Ionization_Penalty_Neutral>  (1) 
0

>  <r_epik_State_Penalty>  (1) 
-0

>  <r_glide_ring_energy>  (1) 
0

>  <r_i_docking_score>  (1) 
-6.0773688980681131

>  <r_i_glide_ecoul>  (1) 
-0.80848598390884763

>  <r_i_glide_eff_state_penalty>  (1) 
-0

>  <r_i_glide_einternal>  (1) 
0.47695401325217235

>  <r_i_glide_emodel>  (1) 
-31.503466716149212

>  <r_i_glide_emodel_strain>  (1) 
0

>  <r_i_glide_energy>  (1) 
-23.205581852193419

>  <r_i_glide_erotb>  (1) 
0.62454345272379397

>  <r_i_glide_esite>  (1) 
0

>  <r_i_glide_evdw>  (1) 
-22.39709586828457

>  <r_i_glide_gscore>  (1) 
-6.0773688980681131

>  <r_i_glide_gscore_strain>  (1) 
0

>  <r_i_glide_hbond>  (1) 
0

>  <r_i_glide_ligand_efficiency>  (1) 
-0.60773688980681129

>  <r_i_glide_ligand_efficiency_ln>  (1) 
-1.8401854083821694

>  <r_i_glide_ligand_efficiency_sa>  (1) 
-1.3093294378118787

>  <r_i_glide_lipo>  (1) 
-2.6075775272560615

>  <r_i_glide_metal>  (1) 
-0

>  <r_i_glide_rewards>  (1) 
-2.8532071325352897

>  <r_lp_Energy>  (1) 
7.9688679999999996

>  <r_lp_tautomer_probability>  (1) 
1

>  <s_epik_cmdline>  (1) 
J2VwaWtfcHl0aG9uJywgJy1waHQnLCAnMS4wJywgJy1waCcsICc3LjQnLCAnLXRuJywgJzgnLCAnLW1hJywgJzUwMCcsICctaW1hZScsICc8aW5maWxlLm1hZT4nLCAnLW9tYWUnLCAnPG91dGZpbGUubWFlPic=

>  <s_epik_input>  (1) 
W0NIM11jKHMxKVtjSF1bY0hdYzFbQ0BIXShbQ0gzXSlbQ0gyXVtDSDNd

>  <s_glide_docking_method>  (1) 
confgen

>  <s_i_glide_gridfile>  (1) 
gpcr_5ht2c_6bqh_protein_autoprepared_prepared

>  <s_lp_Force_Field>  (1) 
S-OPLS

>  <s_lp_Variant>  (1) 
DiffSBDD_74_num_sample_100-1

>  <s_m_source_file>  (1) 
generated__ligand_DiffSBDD_2026-05-06_prepared.sdf

>  <GenAI_Model>  (1) 
DiffSBDD

>  <Protein>  (1) 
GPCR_5HT2C

$$$$
DiffSBDD_1_num_sample_100
     RDKit          3D

  0  0  0  0  0  0  0  0  0  0999 V3000
M  V30 BEGIN CTAB
M  V30 COUNTS 62 65 0 0 1
M  V30 BEGIN ATOM
M  V30 1 C 38.586315 26.877820 56.528662 0
M  V30 2 C 39.784778 34.993524 61.712840 0
M  V30 3 O 38.891560 24.821575 55.695667 0
M  V30 4 C 37.900048 33.388942 61.100525 0 CFG=1
M  V30 5 C 38.791295 28.343431 56.591869 0
M  V30 6 C 38.368522 30.996656 60.464831 0
M  V30 7 C 36.868454 37.158664 63.306531 0
M  V30 8 C 41.314861 36.122277 62.990916 0
M  V30 9 N 39.986056 36.747438 63.205462 0 CHG=1
M  V30 10 C 37.867319 32.916642 57.337054 0
M  V30 11 C 38.005260 29.131731 57.652536 0
M  V30 12 C 37.691617 36.613165 62.116935 0 CFG=2
M  V30 13 C 38.945534 35.852838 62.638334 0 CFG=1
M  V30 14 C 37.812372 31.310736 59.057087 0 CFG=2
M  V30 15 C 38.262671 31.573078 56.693289 0
M  V30 16 C 39.166417 26.133698 55.644064 0
M  V30 17 N 37.855321 31.955085 61.476310 0
M  V30 18 C 39.329474 33.906780 61.057660 0
M  V30 19 O 39.555933 28.941478 55.833977 0
M  V30 20 C 38.057461 37.659804 61.064249 0
M  V30 21 C 37.947797 24.767494 56.840798 0
M  V30 22 C 37.321163 33.605028 59.683172 0
M  V30 23 C 41.207307 35.424374 61.640169 0
M  V30 24 N 38.011747 32.714621 58.758072 0
M  V30 25 O 36.419132 31.032315 59.053517 0
M  V30 26 C 37.702525 26.216297 57.491508 0
M  V30 27 C 38.473747 30.586603 57.873768 0 CFG=2
M  V30 28 O 35.873200 38.081488 62.917659 0
M  V30 29 H 37.312711 33.932150 61.834507 0
M  V30 30 H 39.457114 31.049840 60.434995 0
M  V30 31 H 38.123603 29.973942 60.748621 0
M  V30 32 H 37.527808 37.621487 64.035489 0
M  V30 33 H 36.372504 36.342488 63.831142 0
M  V30 34 H 41.475580 35.383218 63.778932 0
M  V30 35 H 42.142794 36.821894 63.039532 0
M  V30 36 H 39.970093 37.618159 62.695488 0
M  V30 37 H 36.856755 33.221698 57.093862 0
M  V30 38 H 38.518440 33.721390 56.998744 0
M  V30 39 H 38.082551 28.601027 58.600702 0
M  V30 40 H 36.951363 29.123221 57.377413 0
M  V30 41 H 37.023583 35.930509 61.601183 0
M  V30 42 H 38.670748 35.221512 63.453386 0
M  V30 43 H 37.469180 31.235921 56.026793 0
M  V30 44 H 39.171174 31.669582 56.097277 0
M  V30 45 H 39.847417 26.426101 54.858201 0
M  V30 46 H 38.330482 31.807021 62.358987 0
M  V30 47 H 40.015749 33.347890 60.437747 0
M  V30 48 H 38.730762 38.427852 61.442484 0
M  V30 49 H 38.541058 37.125911 60.253179 0
M  V30 50 H 37.176999 38.152626 60.648810 0
M  V30 51 H 37.003459 24.345368 56.495382 0
M  V30 52 H 38.339265 24.077344 57.588973 0
M  V30 53 H 36.245644 33.424971 59.671051 0
M  V30 54 H 37.457973 34.642001 59.372187 0
M  V30 55 H 41.867361 34.567555 61.522365 0
M  V30 56 H 41.347095 36.123313 60.813870 0
M  V30 57 H 36.054115 31.304886 58.198421 0
M  V30 58 H 38.083537 26.286048 58.510595 0
M  V30 59 H 36.668109 26.546812 57.427046 0
M  V30 60 H 39.538441 30.541441 58.071939 0
M  V30 61 H 35.251478 37.648482 62.354098 0
M  V30 62 H 39.827089 36.934702 64.186222 0
M  V30 END ATOM
M  V30 BEGIN BOND
M  V30 1 1 5 1
M  V30 2 1 9 8
M  V30 3 1 11 5
M  V30 4 1 12 7
M  V30 5 1 13 2
M  V30 6 1 13 9
M  V30 7 1 13 12
M  V30 8 1 14 6
M  V30 9 1 15 10
M  V30 10 2 16 1
M  V30 11 1 16 3
M  V30 12 1 17 4
M  V30 13 1 17 6
M  V30 14 2 18 2
M  V30 15 1 18 4
M  V30 16 2 19 5
M  V30 17 1 20 12
M  V30 18 1 21 3
M  V30 19 1 22 4
M  V30 20 1 23 2
M  V30 21 1 23 8
M  V30 22 1 24 10
M  V30 23 1 24 14
M  V30 24 1 24 22
M  V30 25 1 14 25 CFG=1
M  V30 26 1 26 1
M  V30 27 1 26 21
M  V30 28 1 27 11
M  V30 29 1 27 14
M  V30 30 1 27 15
M  V30 31 1 28 7
M  V30 32 1 4 29 CFG=1
M  V30 33 1 30 6
M  V30 34 1 31 6
M  V30 35 1 32 7
M  V30 36 1 33 7
M  V30 37 1 34 8
M  V30 38 1 35 8
M  V30 39 1 36 9
M  V30 40 1 37 10
M  V30 41 1 38 10
M  V30 42 1 39 11
M  V30 43 1 40 11
M  V30 44 1 12 41 CFG=3
M  V30 45 1 13 42 CFG=1
M  V30 46 1 43 15
M  V30 47 1 44 15
M  V30 48 1 45 16
M  V30 49 1 46 17
M  V30 50 1 47 18
M  V30 51 1 48 20
M  V30 52 1 49 20
M  V30 53 1 50 20
M  V30 54 1 51 21
M  V30 55 1 52 21
M  V30 56 1 53 22
M  V30 57 1 54 22
M  V30 58 1 55 23
M  V30 59 1 56 23
M  V30 60 1 57 25
M  V30 61 1 58 26
M  V30 62 1 59 26
M  V30 63 1 27 60 CFG=1
M  V30 64 1 61 28
M  V30 65 1 62 9
M  V30 END BOND
M  V30 END CTAB
M  END
>  <i_epik_Tot_Q>  (1) 
1

>  <i_epik_Tot_abs_Q>  (1) 
1

>  <i_i_glide_confnum>  (1) 
57

>  <i_i_glide_lignum>  (1) 
8

>  <i_i_glide_posenum>  (1) 
68

>  <i_i_glide_rotatable_bonds>  (1) 
8

>  <i_lp_mmshare_version>  (1) 
72125

>  <i_m_source_file_index>  (1) 
2

>  <i_f3d_flags>  (1) 
0

>  <num_sample>  (1) 
100

>  <b_lp_Chiralities_Consistent>  (1) 
1

>  <r_epik_Charging_Adjusted_Penalty>  (1) 
0.089223518210420474

>  <r_epik_Ionization_Penalty>  (1) 
0.15303808439063821

>  <r_epik_Ionization_Penalty_Charging>  (1) 
0.0017986555257548985

>  <r_epik_Ionization_Penalty_Neutral>  (1) 
0.15123942886488331

>  <r_epik_State_Penalty>  (1) 
0.08742486268466558

>  <r_glide_ring_energy>  (1) 
0

>  <r_i_docking_score>  (1) 
-6.0724297115801296

>  <r_i_glide_ecoul>  (1) 
-7.4021033330303485

>  <r_i_glide_eff_state_penalty>  (1) 
0.08742486268466558

>  <r_i_glide_einternal>  (1) 
5.8250795078875921

>  <r_i_glide_emodel>  (1) 
-48.797852428662473

>  <r_i_glide_emodel_strain>  (1) 
0.87208618545240313

>  <r_i_glide_energy>  (1) 
-36.155653825075127

>  <r_i_glide_erotb>  (1) 
0.76037187950223806

>  <r_i_glide_esite>  (1) 
-0.057267592341572242

>  <r_i_glide_evdw>  (1) 
-28.753550492044781

>  <r_i_glide_gscore>  (1) 
-6.159854574264795

>  <r_i_glide_gscore_strain>  (1) 
0

>  <r_i_glide_hbond>  (1) 
-0.16

>  <r_i_glide_ligand_efficiency>  (1) 
-0.21687248969929035

>  <r_i_glide_ligand_efficiency_ln>  (1) 
-1.4016950717163965

>  <r_i_glide_ligand_efficiency_sa>  (1) 
-0.65855261052408343

>  <r_i_glide_lipo>  (1) 
-2.9361719778952233

>  <r_i_glide_metal>  (1) 
-0

>  <r_i_glide_rewards>  (1) 
-1.2187938589734466

>  <r_lp_Energy>  (1) 
12.069678999999999

>  <s_epik_cmdline>  (1) 
J2VwaWtfcHl0aG9uJywgJy1waHQnLCAnMS4wJywgJy1waCcsICc3LjQnLCAnLXRuJywgJzgnLCAnLW1hJywgJzUwMCcsICctaW1hZScsICc8aW5maWxlLm1hZT4nLCAnLW9tYWUnLCAnPG91dGZpbGUubWFlPic=

>  <s_epik_input>  (1) 
W0NIMl0xW0NIMl1PW0NIXT1DMUMoPU8pW0NIMl1bQ0BIXTJbQ0gyXVtDSDJdTihbQ0BAXTIzW09IXSlbQ0gyXVtDQEBIXShbTkhdW0NIMl0zKS9bQ0hdPUM0XFtDQEBIXShbTkhdW0NIMl1bQ0gyXTQpW0NASF0oW0NIM10pW0NIMl1bT0hd

>  <s_glide_docking_method>  (1) 
confgen

>  <s_i_glide_gridfile>  (1) 
gpcr_5ht2c_6bqh_protein_autoprepared_prepared

>  <s_lp_Force_Field>  (1) 
S-OPLS

>  <s_lp_Variant>  (1) 
DiffSBDD_1_num_sample_100-2

>  <s_m_source_file>  (1) 
generated__ligand_DiffSBDD_2026-05-06_prepared.sdf

>  <GenAI_Model>  (1) 
DiffSBDD

>  <Protein>  (1) 
GPCR_5HT2C

$$$$
DiffSBDD_60_num_sample_100
     RDKit          3D

  0  0  0  0  0  0  0  0  0  0999 V3000
M  V30 BEGIN CTAB
M  V30 COUNTS 75 77 0 0 1
M  V30 BEGIN ATOM
M  V30 1 C 39.485992 29.429975 52.113085 0
M  V30 2 C 40.017337 37.008259 62.346431 0
M  V30 3 C 38.744456 36.656000 61.862729 0
M  V30 4 C 37.133494 28.957721 57.637589 0
M  V30 5 N 38.538578 27.392439 52.328543 0
M  V30 6 C 38.885409 31.855956 53.871328 0
M  V30 7 C 39.051069 33.093519 59.187003 0
M  V30 8 C 36.184532 30.020494 59.671223 0
M  V30 9 C 37.475465 29.461613 59.048190 0 CFG=2
M  V30 10 C 37.701160 27.451519 54.622487 0
M  V30 11 C 39.466564 32.225559 60.412088 0 CFG=1
M  V30 12 O 36.693071 30.374414 55.053508 0
M  V30 13 C 40.114374 29.643185 60.664327 0 CFG=1
M  V30 14 C 40.873091 29.906620 61.977014 0
M  V30 15 C 38.216538 29.058218 56.538151 0 CFG=1
M  V30 16 N 38.438189 27.747054 55.866578 0 CHG=1
M  V30 17 C 39.004315 32.836080 61.758779 0
M  V30 18 C 38.402780 28.079479 53.464293 0
M  V30 19 C 39.047078 30.455221 54.464614 0 CFG=1
M  V30 20 C 38.004386 30.275568 55.591093 0 CFG=1
M  V30 21 O 37.828125 37.626376 61.583104 0
M  V30 22 C 38.416532 35.303037 61.668817 0
M  V30 23 C 38.991575 29.387318 53.385549 0
M  V30 24 C 41.538704 28.171143 59.406711 0
M  V30 25 C 40.745353 27.377259 58.368534 0
M  V30 26 C 40.966154 36.008288 62.633394 0
M  V30 27 C 39.050634 30.726155 60.324073 0 CFG=2
M  V30 28 O 38.487170 30.451837 59.040418 0
M  V30 29 N 39.195098 28.237876 51.527108 0
M  V30 30 C 37.544417 33.298095 58.946107 0
M  V30 31 C 39.364483 34.297548 61.955914 0
M  V30 32 C 40.641308 34.652260 62.436703 0
M  V30 33 O 41.018906 29.486402 59.578133 0
M  V30 34 H 40.016616 30.208872 51.585272 0
M  V30 35 H 40.266820 38.045421 62.499725 0
M  V30 36 H 36.789594 27.928419 57.755614 0
M  V30 37 H 36.266956 29.520983 57.304218 0
M  V30 38 H 39.579206 32.017010 53.053617 0
M  V30 39 H 39.065210 32.615856 54.633716 0
M  V30 40 H 37.887262 32.022899 53.472569 0
M  V30 41 H 39.466938 32.686515 58.267563 0
M  V30 42 H 39.522635 34.065956 59.292213 0
M  V30 43 H 35.467413 29.212533 59.701874 0
M  V30 44 H 35.751882 30.813543 59.061827 0
M  V30 45 H 36.278771 30.418346 60.678379 0
M  V30 46 H 37.839913 28.606807 59.615104 0
M  V30 47 H 36.667375 27.775249 54.653519 0
M  V30 48 H 37.675984 26.367489 54.499472 0
M  V30 49 H 40.552777 32.272154 60.433891 0
M  V30 50 H 36.172067 30.910819 55.658029 0
M  V30 51 H 39.588474 28.698510 60.805594 0
M  V30 52 H 40.170712 29.998779 62.806087 0
M  V30 53 H 41.464854 30.821150 61.939272 0
M  V30 54 H 41.547690 29.085629 62.221473 0
M  V30 55 H 39.163052 29.243613 57.040322 0
M  V30 56 H 39.413884 27.694601 55.613325 0
M  V30 57 H 37.923404 32.734905 61.863867 0
M  V30 58 H 39.427601 32.274717 62.591035 0
M  V30 59 H 40.033570 30.425165 54.929479 0
M  V30 60 H 38.091486 31.150786 56.239136 0
M  V30 61 H 37.437784 35.034514 61.303968 0
M  V30 62 H 41.605247 27.629374 60.350627 0
M  V30 63 H 42.556144 28.262567 59.032663 0
M  V30 64 H 41.149316 26.371924 58.253052 0
M  V30 65 H 40.824224 27.854510 57.394031 0
M  V30 66 H 39.695543 27.290045 58.644693 0
M  V30 67 H 41.942311 36.282261 63.007007 0
M  V30 68 H 38.294469 30.595689 61.093275 0
M  V30 69 H 39.438117 27.983694 50.578657 0
M  V30 70 H 37.372290 34.170757 58.315552 0
M  V30 71 H 36.975650 33.436146 59.862534 0
M  V30 72 H 37.111253 32.451625 58.418580 0
M  V30 73 H 41.367994 33.885126 62.659593 0
M  V30 74 H 37.005926 37.289051 61.261919 0
M  V30 75 H 38.243196 27.017344 56.535856 0
M  V30 END ATOM
M  V30 BEGIN BOND
M  V30 1 2 3 2
M  V30 2 1 9 4
M  V30 3 1 9 8
M  V30 4 1 11 7
M  V30 5 1 14 13
M  V30 6 1 15 4
M  V30 7 1 16 10
M  V30 8 1 16 15
M  V30 9 1 17 11
M  V30 10 2 18 5
M  V30 11 1 18 10
M  V30 12 1 19 6
M  V30 13 1 20 12
M  V30 14 1 20 15
M  V30 15 1 20 19
M  V30 16 1 21 3
M  V30 17 1 22 3
M  V30 18 2 23 1
M  V30 19 1 23 18
M  V30 20 1 23 19
M  V30 21 1 25 24
M  V30 22 1 26 2
M  V30 23 1 27 11
M  V30 24 1 27 13
M  V30 25 1 28 9
M  V30 26 1 28 27
M  V30 27 1 29 1
M  V30 28 1 29 5
M  V30 29 1 30 7
M  V30 30 1 31 17
M  V30 31 2 31 22
M  V30 32 2 32 26
M  V30 33 1 32 31
M  V30 34 1 33 13
M  V30 35 1 33 24
M  V30 36 1 34 1
M  V30 37 1 35 2
M  V30 38 1 36 4
M  V30 39 1 37 4
M  V30 40 1 38 6
M  V30 41 1 39 6
M  V30 42 1 40 6
M  V30 43 1 41 7
M  V30 44 1 42 7
M  V30 45 1 43 8
M  V30 46 1 44 8
M  V30 47 1 45 8
M  V30 48 1 9 46 CFG=1
M  V30 49 1 47 10
M  V30 50 1 48 10
M  V30 51 1 11 49 CFG=1
M  V30 52 1 50 12
M  V30 53 1 13 51 CFG=1
M  V30 54 1 52 14
M  V30 55 1 53 14
M  V30 56 1 54 14
M  V30 57 1 15 55 CFG=1
M  V30 58 1 56 16
M  V30 59 1 57 17
M  V30 60 1 58 17
M  V30 61 1 19 59 CFG=1
M  V30 62 1 20 60 CFG=1
M  V30 63 1 61 22
M  V30 64 1 62 24
M  V30 65 1 63 24
M  V30 66 1 64 25
M  V30 67 1 65 25
M  V30 68 1 66 25
M  V30 69 1 67 26
M  V30 70 1 27 68 CFG=1
M  V30 71 1 69 29
M  V30 72 1 70 30
M  V30 73 1 71 30
M  V30 74 1 72 30
M  V30 75 1 73 32
M  V30 76 1 74 21
M  V30 77 1 75 16
M  V30 END BOND
M  V30 END CTAB
M  END
>  <i_epik_Tot_Q>  (1) 
1

>  <i_epik_Tot_abs_Q>  (1) 
1

>  <i_i_glide_confnum>  (1) 
1239

>  <i_i_glide_lignum>  (1) 
152

>  <i_i_glide_posenum>  (1) 
249

>  <i_i_glide_rotatable_bonds>  (1) 
13

>  <i_lp_mmshare_version>  (1) 
72125

>  <i_m_source_file_index>  (1) 
61

>  <i_f3d_flags>  (1) 
0

>  <num_sample>  (1) 
100

>  <b_lp_Chiralities_Consistent>  (1) 
1

>  <r_epik_Charging_Adjusted_Penalty>  (1) 
0.78957387433993831

>  <r_epik_Ionization_Penalty>  (1) 
0.1824149004180404

>  <r_epik_Ionization_Penalty_Charging>  (1) 
0.18078284225256142

>  <r_epik_Ionization_Penalty_Neutral>  (1) 
0.0016320581654789871

>  <r_epik_State_Penalty>  (1) 
0.60879103208737684

>  <r_glide_ring_energy>  (1) 
0

>  <r_i_docking_score>  (1) 
-6.0723242248719806

>  <r_i_glide_ecoul>  (1) 
-6.0105475400209274

>  <r_i_glide_eff_state_penalty>  (1) 
0.60879103208737684

>  <r_i_glide_einternal>  (1) 
12.399512289940336

>  <r_i_glide_emodel>  (1) 
-59.754747770061371

>  <r_i_glide_emodel_strain>  (1) 
3.4629618558520008

>  <r_i_glide_energy>  (1) 
-44.448575599575655

>  <r_i_glide_erotb>  (1) 
0.85380530184711001

>  <r_i_glide_esite>  (1) 
0

>  <r_i_glide_evdw>  (1) 
-38.438028059554725

>  <r_i_glide_gscore>  (1) 
-6.681115256959357

>  <r_i_glide_gscore_strain>  (1) 
0

>  <r_i_glide_hbond>  (1) 
-0.18767111225606581

>  <r_i_glide_ligand_efficiency>  (1) 
-0.18400982499612062

>  <r_i_glide_ligand_efficiency_ln>  (1) 
-1.3504534667993682

>  <r_i_glide_ligand_efficiency_sa>  (1) 
-0.59021783073158107

>  <r_i_glide_lipo>  (1) 
-3.6426548867030224

>  <r_i_glide_metal>  (1) 
-0

>  <r_i_glide_rewards>  (1) 
-0.88111102586650369

>  <r_lp_Energy>  (1) 
26.970752999999998

>  <r_lp_tautomer_probability>  (1) 
0.49999999999868239

>  <s_epik_cmdline>  (1) 
J2VwaWtfcHl0aG9uJywgJy1waHQnLCAnMS4wJywgJy1waCcsICc3LjQnLCAnLXRuJywgJzgnLCAnLW1hJywgJzUwMCcsICctaW1hZScsICc8aW5maWxlLm1hZT4nLCAnLW9tYWUnLCAnPG91dGZpbGUubWFlPic=

>  <s_epik_input>  (1) 
bjFbbkhdW2NIXWMoYzEyKVtDQEBIXShbQ0gzXSlbQ0BASF0oW09IXSlbQ0BIXShbTkhdW0NIMl0yKVtDSDJdW0NASF0oW0NIM10pT1tDQEBIXShbQ0BIXShbQ0gzXSlPW0NIMl1bQ0gzXSlbQ0BASF0oW0NIMl1bQ0gzXSlbQ0gyXUMoPVtDSF0zKVtDSDJdW0NIXT1bQ0hdQzM9Tw==

>  <s_glide_docking_method>  (1) 
confgen

>  <s_i_glide_gridfile>  (1) 
gpcr_5ht2c_6bqh_protein_autoprepared_prepared

>  <s_lp_Force_Field>  (1) 
S-OPLS

>  <s_lp_Variant>  (1) 
DiffSBDD_60_num_sample_100-1

>  <s_m_source_file>  (1) 
generated__ligand_DiffSBDD_2026-05-06_prepared.sdf

>  <GenAI_Model>  (1) 
DiffSBDD

>  <Protein>  (1) 
GPCR_5HT2C

$$$$
DiffSBDD_18_num_sample_100
     RDKit          3D

  0  0  0  0  0  0  0  0  0  0999 V3000
M  V30 BEGIN CTAB
M  V30 COUNTS 70 72 0 0 1
M  V30 BEGIN ATOM
M  V30 1 O 39.073257 34.525283 62.275345 0
M  V30 2 C 39.677072 30.322034 54.493968 0
M  V30 3 C 37.695272 30.428785 58.323028 0
M  V30 4 C 39.467470 30.416900 53.223788 0
M  V30 5 O 36.365579 31.221324 60.691114 0
M  V30 6 C 39.604715 28.666839 56.384035 0 CFG=2
M  V30 7 C 41.829372 32.611116 67.054784 0
M  V30 8 N 39.467398 29.071676 54.989636 0
M  V30 9 N 40.441217 27.469717 56.482655 0
M  V30 10 C 41.205208 34.795034 63.393600 0
M  V30 11 C 41.395801 31.389029 64.939343 0
M  V30 12 O 41.067409 32.468384 68.010223 0
M  V30 13 O 38.791689 28.821435 51.604311 0
M  V30 14 C 44.526037 31.073695 67.322567 0
M  V30 15 C 39.002968 28.462776 59.450565 0
M  V30 16 C 39.067397 29.122417 52.763307 0
M  V30 17 C 44.030147 29.931150 65.159384 0
M  V30 18 C 41.096754 32.439878 64.142398 0
M  V30 19 C 37.549240 31.518660 60.531507 0
M  V30 20 N 42.422732 33.775007 66.674953 0
M  V30 21 C 37.970430 28.902278 58.383279 0 CFG=2
M  V30 22 C 40.482782 34.515392 62.076673 0 CFG=2
M  V30 23 C 38.244472 28.312019 56.983270 0 CFG=2
M  V30 24 C 38.243389 26.780478 56.942717 0
M  V30 25 O 44.918752 30.021366 64.284522 0 CHG=-1
M  V30 26 C 39.018791 28.078079 53.947499 0
M  V30 27 C 42.240041 34.380016 65.563206 0
M  V30 28 C 38.297682 32.298285 61.602869 0
M  V30 29 C 38.285844 33.811223 61.326039 0
M  V30 30 C 40.818688 35.613319 61.058083 0
M  V30 31 C 41.495466 33.865539 64.339552 0
M  V30 32 C 42.207427 31.432433 66.198393 0 CFG=1
M  V30 33 C 43.742451 31.192073 65.998497 0 CFG=1
M  V30 34 N 38.256426 31.182752 59.440035 0
M  V30 35 N 39.634963 26.349186 56.829790 0
M  V30 36 O 43.356178 28.908727 65.415436 0
M  V30 37 H 39.990825 31.096998 55.179333 0
M  V30 38 H 36.622594 30.598254 58.253497 0
M  V30 39 H 38.114693 30.860006 57.413916 0
M  V30 40 H 39.565247 31.290614 52.596769 0
M  V30 41 H 40.089192 29.474000 56.934113 0
M  V30 42 H 40.931396 27.292914 55.608367 0
M  V30 43 H 41.501800 35.822958 63.557181 0
M  V30 44 H 41.033799 30.410257 64.655861 0
M  V30 45 H 39.720266 27.255687 53.805006 0
M  V30 46 H 45.571233 30.815896 67.142615 0
M  V30 47 H 44.521167 32.012455 67.875869 0
M  V30 48 H 44.101457 30.301706 67.965438 0
M  V30 49 H 39.976853 28.923461 59.284885 0
M  V30 50 H 38.675116 28.730590 60.454996 0
M  V30 51 H 39.149715 27.383411 59.453561 0
M  V30 52 H 40.513248 32.215658 63.274170 0
M  V30 53 H 37.016135 28.463218 58.653533 0
M  V30 54 H 40.823408 33.565442 61.667610 0
M  V30 55 H 37.467403 28.688429 56.324265 0
M  V30 56 H 37.769396 26.321378 57.810602 0
M  V30 57 H 37.706316 26.432672 56.060050 0
M  V30 58 H 38.006705 27.712389 54.118521 0
M  V30 59 H 42.615007 35.400002 65.438371 0
M  V30 60 H 39.312103 31.908961 61.606669 0
M  V30 61 H 37.869513 32.086607 62.582991 0
M  V30 62 H 37.262345 34.178187 61.411818 0
M  V30 63 H 38.600197 34.028088 60.304932 0
M  V30 64 H 41.881870 35.621423 60.825473 0
M  V30 65 H 40.277528 35.470419 60.125329 0
M  V30 66 H 40.552689 36.599357 61.440557 0
M  V30 67 H 41.845808 30.572062 66.765252 0
M  V30 68 H 44.161400 32.033859 65.453524 0
M  V30 69 H 39.223073 31.460498 59.379223 0
M  V30 70 H 39.739338 25.614526 56.132586 0
M  V30 END ATOM
M  V30 BEGIN BOND
M  V30 1 2 4 2
M  V30 2 1 8 2
M  V30 3 1 8 6
M  V30 4 1 9 6
M  V30 5 2 12 7
M  V30 6 1 16 4
M  V30 7 2 16 13
M  V30 8 2 18 11
M  V30 9 2 19 5
M  V30 10 1 20 7
M  V30 11 1 21 3
M  V30 12 1 21 15
M  V30 13 1 22 1
M  V30 14 1 22 10
M  V30 15 1 23 6
M  V30 16 1 23 21
M  V30 17 1 24 23
M  V30 18 1 25 17
M  V30 19 1 26 8
M  V30 20 1 26 16
M  V30 21 2 27 20
M  V30 22 1 28 19
M  V30 23 1 29 1
M  V30 24 1 29 28
M  V30 25 1 30 22
M  V30 26 2 31 10
M  V30 27 1 31 18
M  V30 28 1 31 27
M  V30 29 1 32 7
M  V30 30 1 32 11
M  V30 31 1 33 14
M  V30 32 1 33 17
M  V30 33 1 33 32
M  V30 34 1 34 3
M  V30 35 1 34 19
M  V30 36 1 35 9
M  V30 37 1 35 24
M  V30 38 2 36 17
M  V30 39 1 37 2
M  V30 40 1 38 3
M  V30 41 1 39 3
M  V30 42 1 40 4
M  V30 43 1 6 41 CFG=1
M  V30 44 1 42 9
M  V30 45 1 43 10
M  V30 46 1 44 11
M  V30 47 1 45 26
M  V30 48 1 46 14
M  V30 49 1 47 14
M  V30 50 1 48 14
M  V30 51 1 49 15
M  V30 52 1 50 15
M  V30 53 1 51 15
M  V30 54 1 52 18
M  V30 55 1 21 53 CFG=1
M  V30 56 1 22 54 CFG=3
M  V30 57 1 23 55 CFG=3
M  V30 58 1 56 24
M  V30 59 1 57 24
M  V30 60 1 58 26
M  V30 61 1 59 27
M  V30 62 1 60 28
M  V30 63 1 61 28
M  V30 64 1 62 29
M  V30 65 1 63 29
M  V30 66 1 64 30
M  V30 67 1 65 30
M  V30 68 1 66 30
M  V30 69 1 32 67 CFG=1
M  V30 70 1 33 68 CFG=3
M  V30 71 1 69 34
M  V30 72 1 70 35
M  V30 END BOND
M  V30 END CTAB
M  END
>  <i_epik_Tot_Q>  (1) 
-1

>  <i_epik_Tot_abs_Q>  (1) 
1

>  <i_i_glide_confnum>  (1) 
2497

>  <i_i_glide_lignum>  (1) 
41

>  <i_i_glide_posenum>  (1) 
278

>  <i_i_glide_rotatable_bonds>  (1) 
12

>  <i_lp_mmshare_version>  (1) 
72125

>  <i_m_source_file_index>  (1) 
19

>  <i_f3d_flags>  (1) 
0

>  <num_sample>  (1) 
100

>  <b_lp_Chiralities_Consistent>  (1) 
1

>  <r_epik_Charging_Adjusted_Penalty>  (1) 
0.37971815023500188

>  <r_epik_Ionization_Penalty>  (1) 
0.19445293645399606

>  <r_epik_Ionization_Penalty_Charging>  (1) 
0.18991606969001057

>  <r_epik_Ionization_Penalty_Neutral>  (1) 
0.004536866763985496

>  <r_epik_State_Penalty>  (1) 
0.18980208054499129

>  <r_glide_ring_energy>  (1) 
1.845819541117304

>  <r_i_docking_score>  (1) 
-6.0707932791291297

>  <r_i_glide_ecoul>  (1) 
-0.067317838077712661

>  <r_i_glide_eff_state_penalty>  (1) 
0.18980208054499129

>  <r_i_glide_einternal>  (1) 
15.206521334431221

>  <r_i_glide_emodel>  (1) 
-62.899912797922241

>  <r_i_glide_emodel_strain>  (1) 
1.4556504382193793

>  <r_i_glide_energy>  (1) 
-50.58453493390671

>  <r_i_glide_erotb>  (1) 
0.89642714384868305

>  <r_i_glide_esite>  (1) 
-0.032946208654285214

>  <r_i_glide_evdw>  (1) 
-50.517217095828997

>  <r_i_glide_gscore>  (1) 
-6.2605953596741211

>  <r_i_glide_gscore_strain>  (1) 
0

>  <r_i_glide_hbond>  (1) 
-0.088378434530220415

>  <r_i_glide_ligand_efficiency>  (1) 
-0.16863314664247583

>  <r_i_glide_ligand_efficiency_ln>  (1) 
-1.3244830796257134

>  <r_i_glide_ligand_efficiency_sa>  (1) 
-0.55681438196563449

>  <r_i_glide_lipo>  (1) 
-3.0872760166827318

>  <r_i_glide_metal>  (1) 
-0

>  <r_i_glide_rewards>  (1) 
-1.4124633131524607

>  <r_lp_Energy>  (1) 
22.943131999999999

>  <r_lp_tautomer_probability>  (1) 
0.98846045845713826

>  <s_epik_Chemistry_Notes>  (1) 
This compound has an imine and may undergo hydrolysis. This compound contains an acetal/aminal-like group ( X-CH(R)-Y where X, Y are N, S, or O) that may be acid/base labile, releasing an aldehyde.

>  <s_epik_cmdline>  (1) 
J2VwaWtfcHl0aG9uJywgJy1waHQnLCAnMS4wJywgJy1waCcsICc3LjQnLCAnLXRuJywgJzgnLCAnLW1hJywgJzUwMCcsICctaW1hZScsICc8aW5maWxlLm1hZT4nLCAnLW9tYWUnLCAnPG91dGZpbGUubWFlPic=

>  <s_epik_input>  (1) 
W09IXUMoPU8pW0NASF0oW0NIM10pW0NAQEhdMVtDSF09W0NIXS9DKFtDSF09TkMxPU8pPVtDSF1cW0NASF0oW0NIM10pT1tDSDJdW0NIMl1DKD1PKVtOSF1bQ0gyXVtDQEhdKFtDSDNdKVtDQEBIXTJbQ0gyXVtOSF1bTkhdW0NASF0ybjNbY0hdW2NIXWMoW09IXSlbY0hdMw==

>  <s_glide_docking_method>  (1) 
confgen

>  <s_i_glide_gridfile>  (1) 
gpcr_5ht2c_6bqh_protein_autoprepared_prepared

>  <s_lp_Force_Field>  (1) 
S-OPLS

>  <s_lp_Variant>  (1) 
DiffSBDD_18_num_sample_100-1

>  <s_m_source_file>  (1) 
generated__ligand_DiffSBDD_2026-05-06_prepared.sdf

>  <GenAI_Model>  (1) 
DiffSBDD

>  <Protein>  (1) 
GPCR_5HT2C

$$$$
DiffSBDD_66_num_sample_100
     RDKit          3D

  0  0  0  0  0  0  0  0  0  0999 V3000
M  V30 BEGIN CTAB
M  V30 COUNTS 112 116 0 0 1
M  V30 BEGIN ATOM
M  V30 1 C 42.460665 27.428109 68.672187 0
M  V30 2 C 39.467464 28.795082 61.902203 0
M  V30 3 C 41.758458 35.719389 66.262587 0
M  V30 4 C 37.295662 33.217139 58.162381 0
M  V30 5 C 40.316021 29.290973 50.728113 0
M  V30 6 C 41.813675 30.735736 49.453427 0
M  V30 7 C 42.226302 34.460728 64.253383 0
M  V30 8 S 37.867784 31.573558 61.853859 0
M  V30 9 C 39.777293 29.934294 62.875760 0 CFG=1
M  V30 10 C 42.235674 28.884807 68.716625 0
M  V30 11 C 43.706569 28.516324 66.020661 0
M  V30 12 C 43.013648 29.611932 66.395048 0
M  V30 13 C 39.054141 29.559982 52.983261 0
M  V30 14 C 42.239147 25.304989 69.181164 0
M  V30 15 C 38.676976 28.297075 58.408409 0 CFG=2
M  V30 16 C 44.122859 27.376372 66.890424 0
M  V30 17 C 42.809397 30.720246 65.377386 0
M  V30 18 O 37.067506 29.983122 54.254077 0
M  V30 19 C 41.360775 32.153495 63.893502 0 CFG=1
M  V30 20 N 41.867366 26.582292 69.491755 0 CHG=1
M  V30 21 C 42.355647 35.621307 65.000439 0
M  V30 22 C 41.513803 33.379888 64.750742 0
M  V30 23 C 39.091031 28.984005 51.578624 0
M  V30 24 C 43.880476 24.348089 67.376049 0
M  V30 25 C 42.475244 29.814761 67.753981 0
M  V30 26 C 37.654136 29.463819 58.678850 0
M  V30 27 C 40.525540 30.732182 50.231333 0 CFG=1
M  V30 28 C 39.739655 28.680811 57.365392 0
M  V30 29 C 41.422819 30.810613 64.660023 0 CFG=1
M  V30 30 C 41.064203 29.634279 63.714078 0 CFG=2
M  V30 31 C 35.797511 31.597285 59.456648 0
M  V30 32 C 39.055958 29.195795 56.133899 0
M  V30 33 N 43.244240 26.753755 67.849843 0
M  V30 34 C 40.915891 33.456574 66.027552 0
M  V30 35 C 43.131474 25.396217 68.124160 0
M  V30 36 C 37.936678 27.041986 57.851802 0
M  V30 37 O 39.467401 31.221111 49.453525 0
M  V30 38 C 39.370032 27.828491 59.694002 0
M  V30 39 C 38.217780 30.925048 58.767578 0
M  V30 40 C 37.262335 32.079578 59.214856 0
M  V30 41 C 39.640444 31.305848 62.183379 0 CFG=2
M  V30 42 N 39.734610 28.877478 60.643301 0 CHG=1
M  V30 43 C 38.691703 28.436792 55.096976 0
M  V30 44 C 37.810735 32.743647 60.492979 0
M  V30 45 C 41.037878 34.632394 66.782809 0
M  V30 46 C 42.192604 29.191089 62.793161 0
M  V30 47 C 39.909347 30.513768 53.413023 0
M  V30 48 C 37.991092 28.983847 53.883730 0 CFG=2
M  V30 49 C 40.100594 32.436914 63.080203 0
M  V30 50 H 39.006755 27.881238 62.253746 0
M  V30 51 H 41.857164 36.628702 66.837405 0
M  V30 52 H 38.279495 33.678989 58.099529 0
M  V30 53 H 36.580645 34.008096 58.391989 0
M  V30 54 H 37.069489 32.863573 57.160209 0
M  V30 55 H 41.196355 28.969524 51.284420 0
M  V30 56 H 40.264356 28.637939 49.856284 0
M  V30 57 H 42.667328 30.708581 50.127236 0
M  V30 58 H 41.867424 31.621401 48.855374 0
M  V30 59 H 41.867252 29.913399 48.745315 0
M  V30 60 H 42.667096 34.398324 63.284519 0
M  V30 61 H 41.779381 29.239740 69.629608 0
M  V30 62 H 44.075328 28.469171 65.004521 0
M  V30 63 H 41.860732 24.446467 69.716922 0
M  V30 64 H 44.485994 26.604465 66.212905 0
M  V30 65 H 45.008918 27.700367 67.438274 0
M  V30 66 H 42.981964 31.635239 65.942995 0
M  V30 67 H 43.636345 30.735016 64.669714 0
M  V30 68 H 37.455579 30.564443 54.890196 0
M  V30 69 H 42.190284 32.140098 63.184070 0
M  V30 70 H 42.914553 36.436658 64.601581 0
M  V30 71 H 38.178679 29.241368 51.054013 0
M  V30 72 H 39.044685 27.899858 51.683011 0
M  V30 73 H 43.547133 23.356303 67.680177 0
M  V30 74 H 44.943589 24.427681 67.600852 0
M  V30 75 H 43.718636 24.444079 66.301623 0
M  V30 76 H 42.183420 30.824941 67.998185 0
M  V30 77 H 36.912617 29.463385 57.878200 0
M  V30 78 H 37.094970 29.228469 59.584389 0
M  V30 79 H 40.633536 31.502189 50.981032 0
M  V30 80 H 40.409623 29.450793 57.746120 0
M  V30 81 H 40.371741 27.829053 57.106579 0
M  V30 82 H 40.644688 30.801329 65.423039 0
M  V30 83 H 40.851616 28.780397 64.362771 0
M  V30 84 H 35.668602 31.074890 60.403729 0
M  V30 85 H 35.438214 30.885702 58.711362 0
M  V30 86 H 35.100640 32.436398 59.469126 0
M  V30 87 H 38.847787 30.247982 56.106539 0
M  V30 88 H 40.353683 32.626253 66.418486 0
M  V30 89 H 37.467855 26.424321 58.610973 0
M  V30 90 H 38.622099 26.366647 57.338126 0
M  V30 91 H 37.158372 27.300432 57.135029 0
M  V30 92 H 38.920225 30.504307 49.139993 0
M  V30 93 H 38.641565 27.221573 60.219062 0
M  V30 94 H 40.254413 27.221420 59.498314 0
M  V30 95 H 39.105679 30.945810 59.383016 0
M  V30 96 H 38.619275 31.228014 57.811279 0
M  V30 97 H 40.229319 31.350731 61.267988 0
M  V30 98 H 38.896546 27.375972 55.105651 0
M  V30 99 H 38.804700 33.166156 60.336846 0
M  V30 100 H 37.165568 33.570912 60.795048 0
M  V30 101 H 40.576374 34.702797 67.755804 0
M  V30 102 H 41.928668 29.645931 61.853520 0
M  V30 103 H 42.197075 28.109705 62.654812 0
M  V30 104 H 43.201356 29.493911 63.057248 0
M  V30 105 H 39.850486 30.903396 54.410685 0
M  V30 106 H 40.667437 30.909577 52.787937 0
M  V30 107 H 37.443124 28.179301 53.389650 0
M  V30 108 H 40.250033 33.324521 62.460544 0
M  V30 109 H 39.314738 32.721678 63.768870 0
M  V30 110 H 41.209095 26.842995 70.215652 0
M  V30 111 H 38.988236 30.021511 63.618951 0
M  V30 112 H 40.168424 29.715776 60.274318 0
M  V30 END ATOM
M  V30 BEGIN BOND
M  V30 1 1 9 2
M  V30 2 1 10 1
M  V30 3 2 12 11
M  V30 4 1 16 11
M  V30 5 1 17 12
M  V30 6 2 20 1
M  V30 7 1 20 14
M  V30 8 2 21 3
M  V30 9 1 21 7
M  V30 10 2 22 7
M  V30 11 1 22 19
M  V30 12 1 23 5
M  V30 13 1 23 13
M  V30 14 2 25 10
M  V30 15 1 25 12
M  V30 16 1 26 15
M  V30 17 1 27 5
M  V30 18 1 27 6
M  V30 19 1 15 28 CFG=3
M  V30 20 1 29 17
M  V30 21 1 29 19
M  V30 22 1 30 9
M  V30 23 1 30 29
M  V30 24 1 32 28
M  V30 25 1 33 1
M  V30 26 1 33 16
M  V30 27 1 34 22
M  V30 28 2 35 14
M  V30 29 1 35 24
M  V30 30 1 35 33
M  V30 31 1 36 15
M  V30 32 1 37 27
M  V30 33 1 38 15
M  V30 34 1 39 26
M  V30 35 1 40 4
M  V30 36 1 40 31
M  V30 37 1 40 39
M  V30 38 1 41 8
M  V30 39 1 41 9
M  V30 40 2 42 2
M  V30 41 1 42 38
M  V30 42 2 43 32
M  V30 43 1 44 8
M  V30 44 1 44 40
M  V30 45 1 45 3
M  V30 46 2 45 34
M  V30 47 1 46 30
M  V30 48 2 47 13
M  V30 49 1 48 13
M  V30 50 1 48 18
M  V30 51 1 48 43
M  V30 52 1 49 19
M  V30 53 1 49 41
M  V30 54 1 50 2
M  V30 55 1 51 3
M  V30 56 1 52 4
M  V30 57 1 53 4
M  V30 58 1 54 4
M  V30 59 1 55 5
M  V30 60 1 56 5
M  V30 61 1 57 6
M  V30 62 1 58 6
M  V30 63 1 59 6
M  V30 64 1 60 7
M  V30 65 1 61 10
M  V30 66 1 62 11
M  V30 67 1 63 14
M  V30 68 1 64 16
M  V30 69 1 65 16
M  V30 70 1 66 17
M  V30 71 1 67 17
M  V30 72 1 68 18
M  V30 73 1 19 69 CFG=3
M  V30 74 1 70 21
M  V30 75 1 71 23
M  V30 76 1 72 23
M  V30 77 1 73 24
M  V30 78 1 74 24
M  V30 79 1 75 24
M  V30 80 1 76 25
M  V30 81 1 77 26
M  V30 82 1 78 26
M  V30 83 1 27 79 CFG=1
M  V30 84 1 80 28
M  V30 85 1 81 28
M  V30 86 1 29 82 CFG=1
M  V30 87 1 30 83 CFG=1
M  V30 88 1 84 31
M  V30 89 1 85 31
M  V30 90 1 86 31
M  V30 91 1 87 32
M  V30 92 1 88 34
M  V30 93 1 89 36
M  V30 94 1 90 36
M  V30 95 1 91 36
M  V30 96 1 92 37
M  V30 97 1 93 38
M  V30 98 1 94 38
M  V30 99 1 95 39
M  V30 100 1 96 39
M  V30 101 1 41 97 CFG=3
M  V30 102 1 98 43
M  V30 103 1 99 44
M  V30 104 1 100 44
M  V30 105 1 101 45
M  V30 106 1 102 46
M  V30 107 1 103 46
M  V30 108 1 104 46
M  V30 109 1 105 47
M  V30 110 1 106 47
M  V30 111 1 48 107 CFG=3
M  V30 112 1 108 49
M  V30 113 1 109 49
M  V30 114 1 110 20
M  V30 115 1 9 111 CFG=1
M  V30 116 1 112 42
M  V30 END BOND
M  V30 END CTAB
M  END
>  <i_epik_Tot_Q>  (1) 
2

>  <i_epik_Tot_abs_Q>  (1) 
2

>  <i_i_glide_confnum>  (1) 
1714

>  <i_i_glide_lignum>  (1) 
166

>  <i_i_glide_posenum>  (1) 
229

>  <i_i_glide_rotatable_bonds>  (1) 
12

>  <i_lp_mmshare_version>  (1) 
72125

>  <i_m_source_file_index>  (1) 
67

>  <i_f3d_flags>  (1) 
0

>  <num_sample>  (1) 
100

>  <b_lp_Chiralities_Consistent>  (1) 
1

>  <r_epik_Charging_Adjusted_Penalty>  (1) 
0.52025287817150023

>  <r_epik_Ionization_Penalty>  (1) 
3.4472135568412989

>  <r_epik_Ionization_Penalty_Charging>  (1) 
0.14055655438482481

>  <r_epik_Ionization_Penalty_Neutral>  (1) 
3.3066570024564741

>  <r_epik_State_Penalty>  (1) 
0.37969632378667539

>  <r_glide_ring_energy>  (1) 
0

>  <r_i_docking_score>  (1) 
-6.0698058843444391

>  <r_i_glide_ecoul>  (1) 
-9.7516294307461511

>  <r_i_glide_eff_state_penalty>  (1) 
0.37969632378667539

>  <r_i_glide_einternal>  (1) 
15.78799406783464

>  <r_i_glide_emodel>  (1) 
-45.73546507098245

>  <r_i_glide_emodel_strain>  (1) 
11.748811210286505

>  <r_i_glide_energy>  (1) 
-33.77096374949182

>  <r_i_glide_erotb>  (1) 
0.28524200512041686

>  <r_i_glide_esite>  (1) 
-0.053100566662672925

>  <r_i_glide_evdw>  (1) 
-24.019334318745667

>  <r_i_glide_gscore>  (1) 
-6.4495022081311149

>  <r_i_glide_gscore_strain>  (1) 
1.9372028025716261

>  <r_i_glide_hbond>  (1) 
-0.30510874115916631

>  <r_i_glide_ligand_efficiency>  (1) 
-0.12387358947641712

>  <r_i_glide_ligand_efficiency_ln>  (1) 
-1.2408072076336873

>  <r_i_glide_ligand_efficiency_sa>  (1) 
-0.4532913332920947

>  <r_i_glide_lipo>  (1) 
-4.8836932077395918

>  <r_i_glide_metal>  (1) 
-0

>  <r_i_glide_rewards>  (1) 
-0.76633336971252053

>  <r_lp_Energy>  (1) 
64.638955999999993

>  <s_epik_Chemistry_Notes>  (1) 
This compound has an imine and may undergo hydrolysis.

>  <s_epik_cmdline>  (1) 
J2VwaWtfcHl0aG9uJywgJy1waHQnLCAnMS4wJywgJy1waCcsICc3LjQnLCAnLXRuJywgJzgnLCAnLW1hJywgJzUwMCcsICctaW1hZScsICc8aW5maWxlLm1hZT4nLCAnLW9tYWUnLCAnPG91dGZpbGUubWFlPic=

>  <s_epik_input>  (1) 
bjFbY0hdYyhbQ0gzXSluKGMxMilbQ0gyXVtDSF09QyhbQ0hdPVtDSF0yKVtDSDJdW0NASF0oW0NAQEhdM1tDSDNdKVtDQEhdKGM0W2NIXVtjSF1bY0hdW2NIXVtjSF00KVtDSDJdW0NAQEhdKFtDQEhdMzUpU1tDSDJdQyhbQ0gzXSkoW0NIM10pW0NIMl1bQ0gyXVtDQF0oW0NIM10pKFtDSDJdXE49W0NIXVw1KVtDSDJdL1tDSF09W0NIXS9bQ0BASF0oW09IXSlDKD1bQ0gyXSlbQ0gyXVtDSDJdW0NAQEhdKFtDSDNdKVtPSF0=

>  <s_glide_docking_method>  (1) 
confgen

>  <s_i_glide_gridfile>  (1) 
gpcr_5ht2c_6bqh_protein_autoprepared_prepared

>  <s_lp_Force_Field>  (1) 
S-OPLS

>  <s_lp_Variant>  (1) 
DiffSBDD_66_num_sample_100-3

>  <s_m_source_file>  (1) 
generated__ligand_DiffSBDD_2026-05-06_prepared.sdf

>  <GenAI_Model>  (1) 
DiffSBDD

>  <Protein>  (1) 
GPCR_5HT2C

$$$$
DiffSBDD_40_num_sample_100
     RDKit          3D

  0  0  0  0  0  0  0  0  0  0999 V3000
M  V30 BEGIN CTAB
M  V30 COUNTS 73 75 0 0 1
M  V30 BEGIN ATOM
M  V30 1 C 38.841472 24.421395 56.183997 0
M  V30 2 C 37.811973 37.442472 62.466267 0 CFG=1
M  V30 3 N 41.679855 29.086280 63.608840 0
M  V30 4 C 39.063851 35.488815 61.262006 0
M  V30 5 C 41.854249 28.024196 57.660700 0
M  V30 6 C 38.709139 31.926489 57.698199 0
M  V30 7 N 40.359057 28.833309 61.667849 0 CHG=1
M  V30 8 C 37.028196 34.239418 59.785500 0
M  V30 9 O 36.371580 31.985059 59.453481 0
M  V30 10 C 37.720649 33.096529 57.626730 0
M  V30 11 C 36.667401 38.428252 62.253040 0
M  V30 12 C 37.633503 36.647092 63.767705 0
M  V30 13 N 39.938865 30.524730 62.920189 0
M  V30 14 C 38.291227 28.159202 56.576959 0 CFG=2
M  V30 15 C 37.961763 36.549833 61.238667 0
M  V30 16 C 39.677409 29.102514 58.568373 0 CFG=1
M  V30 17 C 40.562782 27.846190 58.476357 0 CFG=1
M  V30 18 S 40.590966 35.794592 61.853513 0
M  V30 19 C 39.322764 29.506790 61.054553 0
M  V30 20 N 39.010591 26.853432 56.723878 0 CFG=2 CHG=1
M  V30 21 S 38.617196 33.918863 60.619019 0
M  V30 22 C 38.089480 25.707685 56.483583 0
M  V30 23 C 39.058088 30.595575 61.870752 0
M  V30 24 C 36.670435 33.192116 58.764628 0 CFG=2
M  V30 25 C 39.742134 26.641580 58.007218 0
M  V30 26 O 35.507345 38.026339 62.867198 0
M  V30 27 C 37.991638 28.433397 55.072446 0
M  V30 28 N 35.706969 38.421437 61.453691 0
M  V30 29 C 40.710972 29.461731 62.778374 0
M  V30 30 C 39.036536 29.383922 57.179363 0 CFG=2
M  V30 31 C 38.694310 29.045566 59.773354 0
M  V30 32 C 38.111292 30.626830 57.151329 0
M  V30 33 H 38.128998 23.648023 55.898505 0
M  V30 34 H 39.532343 24.549381 55.349682 0
M  V30 35 H 39.401129 24.040807 57.041265 0
M  V30 36 H 38.731145 38.020878 62.544913 0
M  V30 37 H 42.241141 28.260666 63.448700 0
M  V30 38 H 41.904217 29.601994 64.448362 0
M  V30 39 H 41.660125 28.254039 56.615087 0
M  V30 40 H 42.469204 28.821177 58.076783 0
M  V30 41 H 42.463465 27.120429 57.686586 0
M  V30 42 H 39.570178 32.178905 57.079780 0
M  V30 43 H 39.065723 31.810139 58.720178 0
M  V30 44 H 37.065736 35.185822 59.243214 0
M  V30 45 H 36.222781 34.291590 60.520602 0
M  V30 46 H 35.867384 31.479265 58.824017 0
M  V30 47 H 37.226692 33.088340 56.656469 0
M  V30 48 H 38.291227 34.021421 57.601124 0
M  V30 49 H 37.525974 37.264487 64.650101 0
M  V30 50 H 36.741218 36.021430 63.710982 0
M  V30 51 H 38.500011 36.021451 63.962930 0
M  V30 52 H 39.991057 31.180634 63.688756 0
M  V30 53 H 37.356866 28.057989 57.126644 0
M  V30 54 H 38.073499 37.151883 60.336423 0
M  V30 55 H 36.980230 36.101929 61.207758 0
M  V30 56 H 40.334365 29.942451 58.770488 0
M  V30 57 H 40.915459 27.618450 59.477907 0
M  V30 58 H 37.425956 25.567079 57.338465 0
M  V30 59 H 37.425697 25.878895 55.639753 0
M  V30 60 H 38.327104 31.386105 61.780440 0
M  V30 61 H 35.744971 33.558390 58.317186 0
M  V30 62 H 40.418389 25.792888 57.904659 0
M  V30 63 H 39.031695 26.354914 58.781029 0
M  V30 64 H 37.260630 29.229056 54.936691 0
M  V30 65 H 38.895281 28.726719 54.534978 0
M  V30 66 H 37.573147 27.592871 54.526949 0
M  V30 67 H 39.863910 29.623008 56.508947 0
M  V30 68 H 37.835021 29.689803 59.608173 0
M  V30 69 H 38.276678 28.051658 59.923197 0
M  V30 70 H 37.167533 30.398876 57.642311 0
M  V30 71 H 37.832171 30.856476 56.125999 0
M  V30 72 H 39.709792 26.846189 55.995633 0
M  V30 73 H 40.789673 27.985090 61.324529 0
M  V30 END ATOM
M  V30 BEGIN BOND
M  V30 1 1 10 6
M  V30 2 1 11 2
M  V30 3 1 12 2
M  V30 4 1 15 2
M  V30 5 1 15 4
M  V30 6 1 17 5
M  V30 7 1 17 16
M  V30 8 2 18 4
M  V30 9 1 19 7
M  V30 10 1 20 14
M  V30 11 1 21 4
M  V30 12 1 21 8
M  V30 13 1 22 1
M  V30 14 1 22 20
M  V30 15 1 23 13
M  V30 16 2 23 19
M  V30 17 1 24 8
M  V30 18 1 24 9
M  V30 19 1 24 10
M  V30 20 1 25 17
M  V30 21 1 25 20
M  V30 22 1 26 11
M  V30 23 1 27 14
M  V30 24 2 28 11
M  V30 25 1 28 26
M  V30 26 1 29 3
M  V30 27 2 29 7
M  V30 28 1 29 13
M  V30 29 1 30 14
M  V30 30 1 30 16
M  V30 31 1 31 16
M  V30 32 1 31 19
M  V30 33 1 32 6
M  V30 34 1 32 30
M  V30 35 1 33 1
M  V30 36 1 34 1
M  V30 37 1 35 1
M  V30 38 1 2 36 CFG=1
M  V30 39 1 37 3
M  V30 40 1 38 3
M  V30 41 1 39 5
M  V30 42 1 40 5
M  V30 43 1 41 5
M  V30 44 1 42 6
M  V30 45 1 43 6
M  V30 46 1 44 8
M  V30 47 1 45 8
M  V30 48 1 46 9
M  V30 49 1 47 10
M  V30 50 1 48 10
M  V30 51 1 49 12
M  V30 52 1 50 12
M  V30 53 1 51 12
M  V30 54 1 52 13
M  V30 55 1 14 53 CFG=1
M  V30 56 1 54 15
M  V30 57 1 55 15
M  V30 58 1 16 56 CFG=1
M  V30 59 1 17 57 CFG=1
M  V30 60 1 58 22
M  V30 61 1 59 22
M  V30 62 1 60 23
M  V30 63 1 24 61 CFG=3
M  V30 64 1 62 25
M  V30 65 1 63 25
M  V30 66 1 64 27
M  V30 67 1 65 27
M  V30 68 1 66 27
M  V30 69 1 30 67 CFG=3
M  V30 70 1 68 31
M  V30 71 1 69 31
M  V30 72 1 70 32
M  V30 73 1 71 32
M  V30 74 1 20 72 CFG=3
M  V30 75 1 73 7
M  V30 END BOND
M  V30 END CTAB
M  END
>  <i_epik_Tot_Q>  (1) 
2

>  <i_epik_Tot_abs_Q>  (1) 
2

>  <i_i_glide_confnum>  (1) 
1068

>  <i_i_glide_lignum>  (1) 
101

>  <i_i_glide_posenum>  (1) 
114

>  <i_i_glide_rotatable_bonds>  (1) 
14

>  <i_lp_mmshare_version>  (1) 
72125

>  <i_m_source_file_index>  (1) 
41

>  <i_f3d_flags>  (1) 
0

>  <num_sample>  (1) 
100

>  <b_lp_Chiralities_Consistent>  (1) 
1

>  <r_epik_Charging_Adjusted_Penalty>  (1) 
0.0037096170623772918

>  <r_epik_Ionization_Penalty>  (1) 
0.054330814931534903

>  <r_epik_Ionization_Penalty_Charging>  (1) 
0.0037096170623772918

>  <r_epik_Ionization_Penalty_Neutral>  (1) 
0.050621197869157614

>  <r_epik_State_Penalty>  (1) 
-0

>  <r_glide_ring_energy>  (1) 
0

>  <r_i_docking_score>  (1) 
-6.0683063551551255

>  <r_i_glide_ecoul>  (1) 
-2.6816902128793574

>  <r_i_glide_eff_state_penalty>  (1) 
-0

>  <r_i_glide_einternal>  (1) 
11.440179468600078

>  <r_i_glide_emodel>  (1) 
-46.587061112616702

>  <r_i_glide_emodel_strain>  (1) 
0.28890111596376755

>  <r_i_glide_energy>  (1) 
-35.588992351965928

>  <r_i_glide_erotb>  (1) 
0.95438045441749597

>  <r_i_glide_esite>  (1) 
-0.039694660834712792

>  <r_i_glide_evdw>  (1) 
-32.907302139086568

>  <r_i_glide_gscore>  (1) 
-6.0683063551551255

>  <r_i_glide_gscore_strain>  (1) 
0

>  <r_i_glide_hbond>  (1) 
-0.10466513048569213

>  <r_i_glide_ligand_efficiency>  (1) 
-0.18963457359859767

>  <r_i_glide_ligand_efficiency_ln>  (1) 
-1.3588592087030249

>  <r_i_glide_ligand_efficiency_sa>  (1) 
-0.60205224323990991

>  <r_i_glide_lipo>  (1) 
-3.0031542382428995

>  <r_i_glide_metal>  (1) 
-0

>  <r_i_glide_rewards>  (1) 
-1.8275541411230853

>  <r_lp_Energy>  (1) 
35.776657

>  <r_lp_tautomer_probability>  (1) 
1

>  <s_epik_Chemistry_Notes>  (1) 
This compound has an imine and may undergo hydrolysis.

>  <s_epik_cmdline>  (1) 
J2VwaWtfcHl0aG9uJywgJy1waHQnLCAnMS4wJywgJy1waCcsICc3LjQnLCAnLXRuJywgJzgnLCAnLW1hJywgJzUwMCcsICctaW1hZScsICc8aW5maWxlLm1hZT4nLCAnLW9tYWUnLCAnPG91dGZpbGUubWFlPic=

>  <s_epik_input>  (1) 
W2NIXTFbbkhdYyhbTkgyXSluYzFbQ0gyXVtDQEBIXShbQ0BIXShbQ0gzXSlbQ0gyXU4oW0NAQEhdMltDSDNdKVtDSDJdW0NIM10pW0NAQEhdMltDSDJdW0NIMl1bQ0gyXVtDQEBIXShbT0hdKVtDSDJdU0MoPVMpW0NIMl1bQ0BIXShbQ0gzXSlDMz1OTzM=

>  <s_glide_docking_method>  (1) 
confgen

>  <s_i_glide_gridfile>  (1) 
gpcr_5ht2c_6bqh_protein_autoprepared_prepared

>  <s_lp_Force_Field>  (1) 
S-OPLS

>  <s_lp_Variant>  (1) 
DiffSBDD_40_num_sample_100-2

>  <s_m_source_file>  (1) 
generated__ligand_DiffSBDD_2026-05-06_prepared.sdf

>  <GenAI_Model>  (1) 
DiffSBDD

>  <Protein>  (1) 
GPCR_5HT2C

$$$$
DiffSBDD_90_num_sample_100
     RDKit          3D

  0  0  0  0  0  0  0  0  0  0999 V3000
M  V30 BEGIN CTAB
M  V30 COUNTS 84 87 0 0 1
M  V30 BEGIN ATOM
M  V30 1 C 39.554620 29.204950 58.640348 0
M  V30 2 O 37.365733 37.177093 62.524976 0
M  V30 3 F 40.209039 29.243581 49.942289 0
M  V30 4 C 38.617906 26.045338 55.894756 0 CFG=1
M  V30 5 C 39.404473 34.327151 61.124538 0 CFG=2
M  V30 6 C 37.303054 33.188547 60.885468 0 CFG=1
M  V30 7 C 36.282659 23.089945 55.851639 0
M  V30 8 C 35.927087 31.456435 59.621623 0
M  V30 9 C 37.752129 24.945219 56.585310 0
M  V30 10 N 38.348435 36.564648 61.652420 0
M  V30 11 C 39.468158 30.223329 51.930503 0
M  V30 12 C 38.688389 24.121300 57.466883 0
M  V30 13 C 38.525313 33.627419 60.055006 0
M  V30 14 C 36.987658 34.499785 61.585696 0
M  V30 15 O 41.228478 32.788294 61.453548 0
M  V30 16 N 38.476427 29.485866 57.679192 0
M  V30 17 C 36.061032 32.668038 60.196044 0
M  V30 18 F 38.267462 28.653514 50.656930 0
M  V30 19 C 39.458287 27.569325 53.149608 0 CFG=2
M  V30 20 N 38.854740 29.728451 56.327940 0
M  V30 21 C 38.642895 29.957318 53.234357 0
M  V30 22 C 37.530595 30.500908 58.096004 0
M  V30 23 O 37.178060 24.141440 55.544977 0
M  V30 24 C 36.668145 25.519009 57.492849 0
M  V30 25 C 39.045859 29.011200 60.083158 0
M  V30 26 C 40.069210 27.819942 51.766901 0
M  V30 27 C 37.001536 30.368927 59.519699 0 CFG=1
M  V30 28 C 38.362764 35.131765 61.962296 0 CFG=1
M  V30 29 C 39.168536 25.504053 54.582266 0
M  V30 30 O 39.689038 32.904242 63.053340 0 CHG=-1
M  V30 31 C 39.012615 28.540281 55.489702 0 CFG=1
M  V30 32 C 38.174922 30.196340 60.526911 0
M  V30 33 O 40.334358 35.221344 60.559299 0
M  V30 34 C 37.957485 27.427146 55.682093 0
M  V30 35 C 39.350897 28.849575 54.019462 0 CFG=1
M  V30 36 C 40.165859 26.388139 53.849547 0
M  V30 37 C 39.487101 28.996302 51.035256 0
M  V30 38 C 40.177138 33.246749 61.953126 0
M  V30 39 H 40.081887 28.302405 58.326756 0
M  V30 40 H 40.269099 30.019183 58.605846 0
M  V30 41 H 36.750649 37.542856 61.904702 0
M  V30 42 H 39.470367 26.221984 56.552379 0
M  V30 43 H 37.565292 32.469112 61.658625 0
M  V30 44 H 36.366401 22.343409 55.063277 0
M  V30 45 H 36.516072 22.586173 56.784778 0
M  V30 46 H 35.255212 23.449311 55.853557 0
M  V30 47 H 34.978581 31.213369 59.168044 0
M  V30 48 H 39.209561 37.019592 61.930499 0
M  V30 49 H 40.490593 30.499559 52.191242 0
M  V30 50 H 39.138841 31.027534 51.279891 0
M  V30 51 H 39.167468 24.811743 58.169928 0
M  V30 52 H 38.163624 23.365454 58.047450 0
M  V30 53 H 39.467408 23.624067 56.900071 0
M  V30 54 H 39.047927 32.832885 59.527338 0
M  V30 55 H 38.207783 34.334523 59.286293 0
M  V30 56 H 36.266825 34.324409 62.379167 0
M  V30 57 H 36.473062 35.153800 60.878827 0
M  V30 58 H 35.214654 33.342313 60.177497 0
M  V30 59 H 38.434182 27.265440 52.930485 0
M  V30 60 H 39.690240 30.311125 56.306633 0
M  V30 61 H 38.574447 30.871924 53.825660 0
M  V30 62 H 37.629858 29.620988 53.030922 0
M  V30 63 H 36.685818 30.421357 57.413317 0
M  V30 64 H 37.979931 31.484826 57.950192 0
M  V30 65 H 37.058910 26.316692 58.124837 0
M  V30 66 H 35.867517 25.884719 56.863751 0
M  V30 67 H 36.267322 24.788173 58.183593 0
M  V30 68 H 38.480155 28.082450 60.159490 0
M  V30 69 H 39.890023 28.909791 60.764096 0
M  V30 70 H 41.134999 28.021467 51.849358 0
M  V30 71 H 39.867791 26.936718 51.150777 0
M  V30 72 H 36.431943 29.440102 59.562361 0
M  V30 73 H 38.667372 35.057001 63.007525 0
M  V30 74 H 39.629000 24.533668 54.756661 0
M  V30 75 H 38.315424 25.340300 53.921497 0
M  V30 76 H 39.940537 28.132291 55.887054 0
M  V30 77 H 38.840702 31.046014 60.564605 0
M  V30 78 H 37.847797 30.028927 61.551154 0
M  V30 79 H 39.835784 35.902839 60.138686 0
M  V30 80 H 37.453684 27.664976 56.594071 0
M  V30 81 H 37.192278 27.422935 54.903540 0
M  V30 82 H 40.267381 29.366879 54.166946 0
M  V30 83 H 40.933935 26.698166 54.554465 0
M  V30 84 H 40.668324 25.770114 53.105241 0
M  V30 END ATOM
M  V30 BEGIN BOND
M  V30 1 1 9 4
M  V30 2 1 10 2
M  V30 3 1 12 9
M  V30 4 1 13 5
M  V30 5 1 13 6
M  V30 6 1 14 6
M  V30 7 1 16 1
M  V30 8 1 17 6
M  V30 9 2 17 8
M  V30 10 1 20 16
M  V30 11 1 21 11
M  V30 12 1 22 16
M  V30 13 1 23 7
M  V30 14 1 23 9
M  V30 15 1 24 9
M  V30 16 1 25 1
M  V30 17 1 26 19
M  V30 18 1 27 8
M  V30 19 1 27 22
M  V30 20 1 28 5
M  V30 21 1 28 10
M  V30 22 1 28 14
M  V30 23 1 29 4
M  V30 24 1 31 20
M  V30 25 1 32 25
M  V30 26 1 32 27
M  V30 27 1 5 33 CFG=3
M  V30 28 1 34 4
M  V30 29 1 34 31
M  V30 30 1 35 19
M  V30 31 1 35 21
M  V30 32 1 35 31
M  V30 33 1 36 19
M  V30 34 1 36 29
M  V30 35 1 37 3
M  V30 36 1 37 11
M  V30 37 1 37 18
M  V30 38 1 37 26
M  V30 39 1 38 5
M  V30 40 2 38 15
M  V30 41 1 38 30
M  V30 42 1 39 1
M  V30 43 1 40 1
M  V30 44 1 41 2
M  V30 45 1 4 42 CFG=1
M  V30 46 1 6 43 CFG=1
M  V30 47 1 44 7
M  V30 48 1 45 7
M  V30 49 1 46 7
M  V30 50 1 47 8
M  V30 51 1 48 10
M  V30 52 1 49 11
M  V30 53 1 50 11
M  V30 54 1 51 12
M  V30 55 1 52 12
M  V30 56 1 53 12
M  V30 57 1 54 13
M  V30 58 1 55 13
M  V30 59 1 56 14
M  V30 60 1 57 14
M  V30 61 1 58 17
M  V30 62 1 19 59 CFG=3
M  V30 63 1 60 20
M  V30 64 1 61 21
M  V30 65 1 62 21
M  V30 66 1 63 22
M  V30 67 1 64 22
M  V30 68 1 65 24
M  V30 69 1 66 24
M  V30 70 1 67 24
M  V30 71 1 68 25
M  V30 72 1 69 25
M  V30 73 1 70 26
M  V30 74 1 71 26
M  V30 75 1 27 72 CFG=3
M  V30 76 1 28 73 CFG=1
M  V30 77 1 74 29
M  V30 78 1 75 29
M  V30 79 1 31 76 CFG=1
M  V30 80 1 77 32
M  V30 81 1 78 32
M  V30 82 1 79 33
M  V30 83 1 80 34
M  V30 84 1 81 34
M  V30 85 1 35 82 CFG=1
M  V30 86 1 83 36
M  V30 87 1 84 36
M  V30 END BOND
M  V30 END CTAB
M  END
>  <i_epik_Tot_Q>  (1) 
-1

>  <i_epik_Tot_abs_Q>  (1) 
1

>  <i_i_glide_confnum>  (1) 
526

>  <i_i_glide_lignum>  (1) 
229

>  <i_i_glide_posenum>  (1) 
383

>  <i_i_glide_rotatable_bonds>  (1) 
10

>  <i_lp_mmshare_version>  (1) 
72125

>  <i_m_source_file_index>  (1) 
91

>  <i_f3d_flags>  (1) 
0

>  <num_sample>  (1) 
100

>  <b_lp_Chiralities_Consistent>  (1) 
1

>  <r_epik_Charging_Adjusted_Penalty>  (1) 
0.43821527866000726

>  <r_epik_Ionization_Penalty>  (1) 
0.52002734918543769

>  <r_epik_Ionization_Penalty_Charging>  (1) 
0.00012691742049533285

>  <r_epik_Ionization_Penalty_Neutral>  (1) 
0.51990043176494238

>  <r_epik_State_Penalty>  (1) 
0.43808836123951195

>  <r_glide_ring_energy>  (1) 
0.52270073413307983

>  <r_i_docking_score>  (1) 
-6.0678503233671801

>  <r_i_glide_ecoul>  (1) 
-1.0928960759446502

>  <r_i_glide_eff_state_penalty>  (1) 
0.43808836123951195

>  <r_i_glide_einternal>  (1) 
20.954581581860829

>  <r_i_glide_emodel>  (1) 
-20.444824905654652

>  <r_i_glide_emodel_strain>  (1) 
3.7970987710701394

>  <r_i_glide_energy>  (1) 
-21.907586149469804

>  <r_i_glide_erotb>  (1) 
0.42146348941000378

>  <r_i_glide_esite>  (1) 
-0.013800001563984261

>  <r_i_glide_evdw>  (1) 
-20.814690073525153

>  <r_i_glide_gscore>  (1) 
-6.5059386846066918

>  <r_i_glide_gscore_strain>  (1) 
0

>  <r_i_glide_hbond>  (1) 
0

>  <r_i_glide_ligand_efficiency>  (1) 
-0.15968027166755738

>  <r_i_glide_ligand_efficiency_ln>  (1) 
-1.3084070277899007

>  <r_i_glide_ligand_efficiency_sa>  (1) 
-0.53684114629730528

>  <r_i_glide_lipo>  (1) 
-4.0551812407591621

>  <r_i_glide_metal>  (1) 
-0

>  <r_i_glide_rewards>  (1) 
-1.6537520166255943

>  <r_lp_Energy>  (1) 
50.148589000000001

>  <s_epik_Chemistry_Notes>  (1) 
This compound has a N-S or N-O group and may undergo hydrolysis at high or low pH.

>  <s_epik_cmdline>  (1) 
J2VwaWtfcHl0aG9uJywgJy1waHQnLCAnMS4wJywgJy1waCcsICc3LjQnLCAnLXRuJywgJzgnLCAnLW1hJywgJzUwMCcsICctaW1hZScsICc8aW5maWxlLm1hZT4nLCAnLW9tYWUnLCAnPG91dGZpbGUubWFlPic=

>  <s_epik_input>  (1) 
RkMoRikoW0NIMl0xKVtDSDJdW0NIMl1bQ0BIXShbQ0BASF0xMilbQ0BIXShbQ0gyXVtDQEhdKFtDSDJdW0NIMl0yKUMoW0NIM10pKFtDSDNdKU9bQ0gzXSlbTkhdTjNbQ0gyXVtDSDJdW0NIMl1bQ0BIXShbQ0gyXTMpL1tDSF09W0NIXVxbQ0BASF0oW0NIMl1bQ0BdNChbT0hdKUMoPU8pW09IXSlbQ0gyXVtDQEBIXTRbTkhdW09IXQ==

>  <s_glide_docking_method>  (1) 
confgen

>  <s_i_glide_gridfile>  (1) 
gpcr_5ht2c_6bqh_protein_autoprepared_prepared

>  <s_lp_Force_Field>  (1) 
S-OPLS

>  <s_lp_Variant>  (1) 
DiffSBDD_90_num_sample_100-1

>  <s_m_source_file>  (1) 
generated__ligand_DiffSBDD_2026-05-06_prepared.sdf

>  <GenAI_Model>  (1) 
DiffSBDD

>  <Protein>  (1) 
GPCR_5HT2C

$$$$
DiffSBDD_28_num_sample_100
     RDKit          3D

  0  0  0  0  0  0  0  0  0  0999 V3000
M  V30 BEGIN CTAB
M  V30 COUNTS 37 38 0 0 1
M  V30 BEGIN ATOM
M  V30 1 C 39.028190 25.917466 55.173653 0
M  V30 2 C 40.263244 28.465353 59.596002 0
M  V30 3 C 39.087038 27.796910 52.116481 0
M  V30 4 O 38.267403 28.421430 51.453511 0
M  V30 5 S 38.477609 31.147000 60.800262 0
M  V30 6 O 36.145846 32.263374 61.453502 0
M  V30 7 C 36.143778 31.051984 59.453501 0
M  V30 8 C 38.778744 28.699831 59.381710 0
M  V30 9 C 40.598667 27.207256 57.420553 0
M  V30 10 C 39.868387 25.860029 57.587421 0
M  V30 11 C 36.736220 31.579663 60.623026 0
M  V30 12 C 36.980559 30.345413 58.722049 0
M  V30 13 C 41.061860 27.805843 58.736222 0
M  V30 14 C 38.418045 30.178116 59.186596 0 CFG=1
M  V30 15 C 37.469795 26.221417 55.253691 0
M  V30 16 C 37.556026 27.039448 53.903181 0
M  V30 17 C 38.756371 27.095973 53.362698 0
M  V30 18 C 39.684448 25.104322 56.265280 0
M  V30 19 C 39.651585 26.421419 54.120014 0
M  V30 20 H 40.683129 28.861378 60.509067 0
M  V30 21 H 40.132602 27.726042 51.816745 0
M  V30 22 H 35.107400 31.230050 59.205562 0
M  V30 23 H 38.409844 28.134456 58.529063 0
M  V30 24 H 38.267411 28.295952 60.253423 0
M  V30 25 H 41.481970 27.074483 56.795577 0
M  V30 26 H 39.968460 27.925254 56.894733 0
M  V30 27 H 38.900939 26.001979 58.067760 0
M  V30 28 H 40.445946 25.221445 58.253762 0
M  V30 29 H 36.673809 29.883285 57.794560 0
M  V30 30 H 42.108396 27.680891 58.976931 0
M  V30 31 H 39.067429 30.645579 58.446319 0
M  V30 32 H 37.207800 26.821431 56.123024 0
M  V30 33 H 36.856742 25.323461 55.173427 0
M  V30 34 H 36.678216 27.506313 53.478598 0
M  V30 35 H 39.119086 24.185878 56.423582 0
M  V30 36 H 40.667397 24.821439 55.901919 0
M  V30 37 H 40.704307 26.315312 53.904268 0
M  V30 END ATOM
M  V30 BEGIN BOND
M  V30 1 2 4 3
M  V30 2 1 8 2
M  V30 3 1 10 9
M  V30 4 1 11 5
M  V30 5 2 11 6
M  V30 6 1 11 7
M  V30 7 2 12 7
M  V30 8 2 13 2
M  V30 9 1 13 9
M  V30 10 1 14 5
M  V30 11 1 14 8
M  V30 12 1 14 12
M  V30 13 1 15 1
M  V30 14 1 16 15
M  V30 15 1 17 3
M  V30 16 2 17 16
M  V30 17 1 18 1
M  V30 18 1 18 10
M  V30 19 2 19 1
M  V30 20 1 19 17
M  V30 21 1 20 2
M  V30 22 1 21 3
M  V30 23 1 22 7
M  V30 24 1 23 8
M  V30 25 1 24 8
M  V30 26 1 25 9
M  V30 27 1 26 9
M  V30 28 1 27 10
M  V30 29 1 28 10
M  V30 30 1 29 12
M  V30 31 1 30 13
M  V30 32 1 14 31 CFG=3
M  V30 33 1 32 15
M  V30 34 1 33 15
M  V30 35 1 34 16
M  V30 36 1 35 18
M  V30 37 1 36 18
M  V30 38 1 37 19
M  V30 END BOND
M  V30 END CTAB
M  END
>  <i_epik_Tot_Q>  (1) 
0

>  <i_epik_Tot_abs_Q>  (1) 
0

>  <i_i_glide_confnum>  (1) 
221

>  <i_i_glide_lignum>  (1) 
69

>  <i_i_glide_posenum>  (1) 
172

>  <i_i_glide_rotatable_bonds>  (1) 
7

>  <i_lp_mmshare_version>  (1) 
72125

>  <i_m_source_file_index>  (1) 
29

>  <i_f3d_flags>  (1) 
0

>  <num_sample>  (1) 
100

>  <b_lp_Chiralities_Consistent>  (1) 
1

>  <r_epik_Charging_Adjusted_Penalty>  (1) 
0

>  <r_epik_Ionization_Penalty>  (1) 
0

>  <r_epik_Ionization_Penalty_Charging>  (1) 
0

>  <r_epik_Ionization_Penalty_Neutral>  (1) 
0

>  <r_epik_State_Penalty>  (1) 
-0

>  <r_glide_ring_energy>  (1) 
0

>  <r_i_docking_score>  (1) 
-6.066711611489489

>  <r_i_glide_ecoul>  (1) 
-1.5041840404923601

>  <r_i_glide_eff_state_penalty>  (1) 
-0

>  <r_i_glide_einternal>  (1) 
6.2635082929826424

>  <r_i_glide_emodel>  (1) 
-43.096976062335756

>  <r_i_glide_emodel_strain>  (1) 
0.061836330375584225

>  <r_i_glide_energy>  (1) 
-33.777461804132656

>  <r_i_glide_erotb>  (1) 
1.1924995267514154

>  <r_i_glide_esite>  (1) 
-0.05025372990096693

>  <r_i_glide_evdw>  (1) 
-32.273277763640294

>  <r_i_glide_gscore>  (1) 
-6.066711611489489

>  <r_i_glide_gscore_strain>  (1) 
0

>  <r_i_glide_hbond>  (1) 
-0.16123822644146243

>  <r_i_glide_ligand_efficiency>  (1) 
-0.31930061113102576

>  <r_i_glide_ligand_efficiency_ln>  (1) 
-1.538041694530546

>  <r_i_glide_ligand_efficiency_sa>  (1) 
-0.85202227717995382

>  <r_i_glide_lipo>  (1) 
-3.0334482059893069

>  <r_i_glide_metal>  (1) 
-0

>  <r_i_glide_rewards>  (1) 
-2.1749794816532999

>  <r_lp_Energy>  (1) 
-7.8212549999999998

>  <r_lp_tautomer_probability>  (1) 
1

>  <s_epik_cmdline>  (1) 
J2VwaWtfcHl0aG9uJywgJy1waHQnLCAnMS4wJywgJy1waCcsICc3LjQnLCAnLXRuJywgJzgnLCAnLW1hJywgJzUwMCcsICctaW1hZScsICc8aW5maWxlLm1hZT4nLCAnLW9tYWUnLCAnPG91dGZpbGUubWFlPic=

>  <s_epik_input>  (1) 
Tz1bQ0hdQyg9W0NIXVtDSDJdMSlbQ0hdPUMxW0NIMl1bQ0gyXVtDSDJdL1tDSF09W0NIXVxbQ0gyXVtDQEhdKFNDMj1PKVtDSF09W0NIXTI=

>  <s_glide_docking_method>  (1) 
confgen

>  <s_i_glide_gridfile>  (1) 
gpcr_5ht2c_6bqh_protein_autoprepared_prepared

>  <s_lp_Force_Field>  (1) 
S-OPLS

>  <s_lp_Variant>  (1) 
DiffSBDD_28_num_sample_100-1

>  <s_m_source_file>  (1) 
generated__ligand_DiffSBDD_2026-05-06_prepared.sdf

>  <GenAI_Model>  (1) 
DiffSBDD

>  <Protein>  (1) 
GPCR_5HT2C

$$$$
DiffSBDD_66_num_sample_100
     RDKit          3D

  0  0  0  0  0  0  0  0  0  0999 V3000
M  V30 BEGIN CTAB
M  V30 COUNTS 111 115 0 0 1
M  V30 BEGIN ATOM
M  V30 1 C 35.793798 33.142757 60.720273 0
M  V30 2 C 39.865702 30.543371 63.972530 0
M  V30 3 C 39.526867 26.045122 56.809310 0
M  V30 4 C 45.275161 27.919049 65.500110 0
M  V30 5 C 40.534024 37.118182 66.785377 0
M  V30 6 C 39.899267 35.301750 68.461914 0
M  V30 7 C 41.030053 27.751248 57.697609 0
M  V30 8 S 41.441028 27.893079 63.866108 0
M  V30 9 C 39.968001 29.922159 62.605937 0 CFG=1
M  V30 10 C 35.564126 31.780113 60.253385 0
M  V30 11 C 38.029615 32.742061 58.698119 0
M  V30 12 C 37.729197 31.461137 58.986679 0
M  V30 13 C 40.084743 36.170724 64.314978 0
M  V30 14 C 35.880270 34.821422 61.994079 0
M  V30 15 C 42.111559 31.706870 66.650150 0 CFG=2
M  V30 16 C 37.088606 33.873716 58.771737 0
M  V30 17 C 38.778058 30.421539 58.802268 0
M  V30 18 O 41.867310 36.021560 62.828162 0
M  V30 19 C 40.545128 28.922793 59.899193 0 CFG=1
M  V30 20 N 35.283608 33.577321 61.853425 0
M  V30 21 C 40.693936 26.821201 56.698206 0
M  V30 22 C 40.194842 27.907185 58.815511 0
M  V30 23 C 39.721487 37.119399 65.462385 0
M  V30 24 C 37.412881 36.357469 60.529032 0
M  V30 25 C 36.409075 31.042654 59.489884 0
M  V30 26 C 42.661821 30.251767 66.749096 0
M  V30 27 C 39.713575 36.759509 68.034470 0 CFG=1
M  V30 28 C 43.126170 32.664038 65.990514 0
M  V30 29 C 39.356826 29.877225 60.152467 0 CFG=1
M  V30 30 C 39.617341 30.827602 61.376617 0 CFG=2
M  V30 31 C 43.123111 27.381764 66.600037 0
M  V30 32 C 42.626616 34.059622 65.663953 0
M  V30 33 N 36.535410 34.024737 60.062563 0
M  V30 34 C 39.024471 27.123267 58.929201 0
M  V30 35 C 36.636058 35.128936 60.882114 0
M  V30 36 C 41.847936 32.180326 68.091673 0
M  V30 37 O 40.029304 37.620798 69.109186 0
M  V30 38 C 40.763910 31.729506 65.886173 0
M  V30 39 C 43.541105 29.739857 65.576518 0
M  V30 40 C 43.762420 28.201544 65.450479 0
M  V30 41 C 41.209338 29.021929 62.434206 0 CFG=2
M  V30 42 N 40.830491 31.209121 64.504747 0 CHG=1
M  V30 43 C 42.000104 34.388676 64.517869 0
M  V30 44 C 43.242366 27.714523 64.067372 0
M  V30 45 C 38.691419 26.196187 57.925496 0
M  V30 46 C 40.617875 31.970939 61.120415 0
M  V30 47 C 39.155450 35.725251 63.452328 0
M  V30 48 C 41.555048 35.793569 64.171754 0 CFG=2
M  V30 49 C 40.984929 28.177916 61.169744 0
M  V30 50 H 38.963096 30.421312 64.560461 0
M  V30 51 H 39.276726 25.333088 56.037697 0
M  V30 52 H 45.786935 28.318427 64.624672 0
M  V30 53 H 45.467258 26.847491 65.536376 0
M  V30 54 H 45.743152 28.356381 66.383459 0
M  V30 55 H 41.432731 36.512132 66.743847 0
M  V30 56 H 40.892710 38.138755 66.917160 0
M  V30 57 H 39.766276 34.636287 67.609119 0
M  V30 58 H 39.181031 34.997082 69.218783 0
M  V30 59 H 40.894304 35.145412 68.877937 0
M  V30 60 H 41.930745 28.342621 57.603274 0
M  V30 61 H 34.669499 31.307709 60.618977 0
M  V30 62 H 39.018968 32.982082 58.337884 0
M  V30 63 H 35.700828 35.419983 62.874831 0
M  V30 64 H 37.558041 34.795384 58.441786 0
M  V30 65 H 36.270673 33.698332 58.072793 0
M  V30 66 H 38.300524 29.613677 58.246651 0
M  V30 67 H 39.503472 30.801063 58.101912 0
M  V30 68 H 42.061104 36.944138 62.740059 0
M  V30 69 H 41.385501 29.522236 59.544668 0
M  V30 70 H 41.337382 26.695976 55.853882 0
M  V30 71 H 38.652165 37.044500 65.654361 0
M  V30 72 H 39.838305 38.112195 65.027980 0
M  V30 73 H 37.353061 37.095088 61.331333 0
M  V30 74 H 37.019190 36.818582 59.621902 0
M  V30 75 H 38.464888 36.124029 60.363175 0
M  V30 76 H 36.117300 30.019756 59.298478 0
M  V30 77 H 43.258758 30.148450 67.656495 0
M  V30 78 H 41.799317 29.604389 66.896040 0
M  V30 79 H 38.667484 36.941941 67.833853 0
M  V30 80 H 44.022262 32.757504 66.607780 0
M  V30 81 H 43.465934 32.243548 65.052562 0
M  V30 82 H 38.537651 29.258334 60.512214 0
M  V30 83 H 38.668763 31.315421 61.603824 0
M  V30 84 H 42.037042 27.467892 66.627245 0
M  V30 85 H 43.505749 27.697492 67.572373 0
M  V30 86 H 43.341704 26.317965 66.501733 0
M  V30 87 H 42.806056 34.816540 66.406357 0
M  V30 88 H 38.379066 27.235039 59.786247 0
M  V30 89 H 41.158353 31.519609 68.617486 0
M  V30 90 H 41.418217 33.174311 68.101869 0
M  V30 91 H 42.766990 32.226823 68.676551 0
M  V30 92 H 40.949641 37.555536 69.349669 0
M  V30 93 H 40.028734 31.128626 66.425641 0
M  V30 94 H 40.346200 32.735136 65.831784 0
M  V30 95 H 43.148187 30.100095 64.630685 0
M  V30 96 H 44.508814 30.237213 65.657281 0
M  V30 97 H 42.090959 29.648697 62.345414 0
M  V30 98 H 41.808169 33.630484 63.778350 0
M  V30 99 H 43.745035 28.253995 63.265530 0
M  V30 100 H 43.484725 26.660385 63.921656 0
M  V30 101 H 37.793727 25.600294 58.014410 0
M  V30 102 H 41.609631 31.618496 60.855754 0
M  V30 103 H 40.719900 32.613703 61.993528 0
M  V30 104 H 40.271218 32.615529 60.315808 0
M  V30 105 H 39.418959 35.066022 62.639118 0
M  V30 106 H 38.120963 36.021693 63.549419 0
M  V30 107 H 42.211709 36.419763 64.756472 0
M  V30 108 H 41.867461 27.621477 60.920368 0
M  V30 109 H 40.242312 27.424464 61.406547 0
M  V30 110 H 39.138184 29.219370 62.647435 0
M  V30 111 H 41.694159 31.341773 63.991281 0
M  V30 END ATOM
M  V30 BEGIN BOND
M  V30 1 1 9 2
M  V30 2 1 10 1
M  V30 3 2 12 11
M  V30 4 1 16 11
M  V30 5 1 17 12
M  V30 6 2 20 1
M  V30 7 1 20 14
M  V30 8 2 21 3
M  V30 9 1 21 7
M  V30 10 2 22 7
M  V30 11 1 22 19
M  V30 12 1 23 5
M  V30 13 1 23 13
M  V30 14 2 25 10
M  V30 15 1 25 12
M  V30 16 1 26 15
M  V30 17 1 27 5
M  V30 18 1 27 6
M  V30 19 1 15 28 CFG=3
M  V30 20 1 29 17
M  V30 21 1 29 19
M  V30 22 1 30 9
M  V30 23 1 30 29
M  V30 24 1 32 28
M  V30 25 1 33 1
M  V30 26 1 33 16
M  V30 27 1 34 22
M  V30 28 2 35 14
M  V30 29 1 35 24
M  V30 30 1 35 33
M  V30 31 1 36 15
M  V30 32 1 37 27
M  V30 33 1 38 15
M  V30 34 1 39 26
M  V30 35 1 40 4
M  V30 36 1 40 31
M  V30 37 1 40 39
M  V30 38 1 41 8
M  V30 39 1 41 9
M  V30 40 2 42 2
M  V30 41 1 42 38
M  V30 42 2 43 32
M  V30 43 1 44 8
M  V30 44 1 44 40
M  V30 45 1 45 3
M  V30 46 2 45 34
M  V30 47 1 46 30
M  V30 48 2 47 13
M  V30 49 1 48 13
M  V30 50 1 48 18
M  V30 51 1 48 43
M  V30 52 1 49 19
M  V30 53 1 49 41
M  V30 54 1 50 2
M  V30 55 1 51 3
M  V30 56 1 52 4
M  V30 57 1 53 4
M  V30 58 1 54 4
M  V30 59 1 55 5
M  V30 60 1 56 5
M  V30 61 1 57 6
M  V30 62 1 58 6
M  V30 63 1 59 6
M  V30 64 1 60 7
M  V30 65 1 61 10
M  V30 66 1 62 11
M  V30 67 1 63 14
M  V30 68 1 64 16
M  V30 69 1 65 16
M  V30 70 1 66 17
M  V30 71 1 67 17
M  V30 72 1 68 18
M  V30 73 1 19 69 CFG=3
M  V30 74 1 70 21
M  V30 75 1 71 23
M  V30 76 1 72 23
M  V30 77 1 73 24
M  V30 78 1 74 24
M  V30 79 1 75 24
M  V30 80 1 76 25
M  V30 81 1 77 26
M  V30 82 1 78 26
M  V30 83 1 27 79 CFG=3
M  V30 84 1 80 28
M  V30 85 1 81 28
M  V30 86 1 29 82 CFG=1
M  V30 87 1 30 83 CFG=1
M  V30 88 1 84 31
M  V30 89 1 85 31
M  V30 90 1 86 31
M  V30 91 1 87 32
M  V30 92 1 88 34
M  V30 93 1 89 36
M  V30 94 1 90 36
M  V30 95 1 91 36
M  V30 96 1 92 37
M  V30 97 1 93 38
M  V30 98 1 94 38
M  V30 99 1 95 39
M  V30 100 1 96 39
M  V30 101 1 41 97 CFG=3
M  V30 102 1 98 43
M  V30 103 1 99 44
M  V30 104 1 100 44
M  V30 105 1 101 45
M  V30 106 1 102 46
M  V30 107 1 103 46
M  V30 108 1 104 46
M  V30 109 1 105 47
M  V30 110 1 106 47
M  V30 111 1 48 107 CFG=1
M  V30 112 1 108 49
M  V30 113 1 109 49
M  V30 114 1 9 110 CFG=1
M  V30 115 1 111 42
M  V30 END BOND
M  V30 END CTAB
M  END
>  <i_epik_Tot_Q>  (1) 
1

>  <i_epik_Tot_abs_Q>  (1) 
1

>  <i_i_glide_confnum>  (1) 
697

>  <i_i_glide_lignum>  (1) 
170

>  <i_i_glide_posenum>  (1) 
252

>  <i_i_glide_rotatable_bonds>  (1) 
12

>  <i_lp_mmshare_version>  (1) 
72125

>  <i_m_source_file_index>  (1) 
67

>  <i_f3d_flags>  (1) 
0

>  <num_sample>  (1) 
100

>  <b_lp_Chiralities_Consistent>  (1) 
1

>  <r_epik_Charging_Adjusted_Penalty>  (1) 
1.5687136755604425

>  <r_epik_Ionization_Penalty>  (1) 
3.7043048325211934

>  <r_epik_Ionization_Penalty_Charging>  (1) 
0.78327048387713327

>  <r_epik_Ionization_Penalty_Neutral>  (1) 
2.92103434864406

>  <r_epik_State_Penalty>  (1) 
0.78544319168330923

>  <r_glide_ring_energy>  (1) 
0

>  <r_i_docking_score>  (1) 
-6.0665862858221971

>  <r_i_glide_ecoul>  (1) 
-4.9001522297259905

>  <r_i_glide_eff_state_penalty>  (1) 
0.78544319168330923

>  <r_i_glide_einternal>  (1) 
10.675531701006888

>  <r_i_glide_emodel>  (1) 
-41.908573737088844

>  <r_i_glide_emodel_strain>  (1) 
7.2596489189879776

>  <r_i_glide_energy>  (1) 
-36.831093515789917

>  <r_i_glide_erotb>  (1) 
0.28694684240539414

>  <r_i_glide_esite>  (1) 
-0.021400054927536077

>  <r_i_glide_evdw>  (1) 
-31.930941286063923

>  <r_i_glide_gscore>  (1) 
-6.8520294775055062

>  <r_i_glide_gscore_strain>  (1) 
0.8149122297469944

>  <r_i_glide_hbond>  (1) 
-0.16

>  <r_i_glide_ligand_efficiency>  (1) 
-0.12380788338412647

>  <r_i_glide_ligand_efficiency_ln>  (1) 
-1.2401490480272346

>  <r_i_glide_ligand_efficiency_sa>  (1) 
-0.45305089461339221

>  <r_i_glide_lipo>  (1) 
-4.6720557980746023

>  <r_i_glide_metal>  (1) 
-0

>  <r_i_glide_rewards>  (1) 
-0.76886279789366097

>  <r_lp_Energy>  (1) 
58.587302999999999

>  <s_epik_Chemistry_Notes>  (1) 
This compound has an imine and may undergo hydrolysis.

>  <s_epik_cmdline>  (1) 
J2VwaWtfcHl0aG9uJywgJy1waHQnLCAnMS4wJywgJy1waCcsICc3LjQnLCAnLXRuJywgJzgnLCAnLW1hJywgJzUwMCcsICctaW1hZScsICc8aW5maWxlLm1hZT4nLCAnLW9tYWUnLCAnPG91dGZpbGUubWFlPic=

>  <s_epik_input>  (1) 
bjFbY0hdYyhbQ0gzXSluKGMxMilbQ0gyXVtDSF09QyhbQ0hdPVtDSF0yKVtDSDJdW0NASF0oW0NAQEhdM1tDSDNdKVtDQEhdKGM0W2NIXVtjSF1bY0hdW2NIXVtjSF00KVtDSDJdW0NAQEhdKFtDQEhdMzUpU1tDSDJdQyhbQ0gzXSkoW0NIM10pW0NIMl1bQ0gyXVtDQF0oW0NIM10pKFtDSDJdXE49W0NIXVw1KVtDSDJdL1tDSF09W0NIXS9bQ0BASF0oW09IXSlDKD1bQ0gyXSlbQ0gyXVtDSDJdW0NAQEhdKFtDSDNdKVtPSF0=

>  <s_glide_docking_method>  (1) 
confgen

>  <s_i_glide_gridfile>  (1) 
gpcr_5ht2c_6bqh_protein_autoprepared_prepared

>  <s_lp_Force_Field>  (1) 
S-OPLS

>  <s_lp_Variant>  (1) 
DiffSBDD_66_num_sample_100-7

>  <s_m_source_file>  (1) 
generated__ligand_DiffSBDD_2026-05-06_prepared.sdf

>  <GenAI_Model>  (1) 
DiffSBDD

>  <Protein>  (1) 
GPCR_5HT2C

$$$$
DiffSBDD_35_num_sample_100
     RDKit          3D

  0  0  0  0  0  0  0  0  0  0999 V3000
M  V30 BEGIN CTAB
M  V30 COUNTS 23 23 0 0 1
M  V30 BEGIN ATOM
M  V30 1 C 39.057367 28.032412 51.339305 0
M  V30 2 C 39.024414 29.431208 53.342675 0
M  V30 3 C 38.594445 31.715750 55.878307 0
M  V30 4 N 37.867661 32.223296 56.872430 0
M  V30 5 O 38.603295 29.646617 54.633321 0
M  V30 6 C 37.860348 30.844090 54.858962 0
M  V30 7 C 37.752378 27.237934 53.365935 0
M  V30 8 O 39.796331 31.923995 55.765489 0
M  V30 9 C 40.267403 30.152627 51.363085 0
M  V30 10 C 38.633519 28.255962 52.666733 0
M  V30 11 C 39.849525 30.377591 52.690131 0
M  V30 12 C 39.867545 28.982756 50.687738 0
M  V30 13 H 38.755405 27.134629 50.818189 0
M  V30 14 H 36.852419 32.027965 56.922250 0
M  V30 15 H 38.305999 32.805280 57.567055 0
M  V30 16 H 37.688596 31.421068 53.949171 0
M  V30 17 H 36.877557 30.564162 55.240607 0
M  V30 18 H 36.834874 27.709175 53.720378 0
M  V30 19 H 37.471218 26.421896 52.703717 0
M  V30 20 H 38.271908 26.811246 54.224451 0
M  V30 21 H 40.892312 30.879119 50.862528 0
M  V30 22 H 40.155157 31.274033 53.206490 0
M  V30 23 H 40.183584 28.813835 49.669376 0
M  V30 END ATOM
M  V30 BEGIN BOND
M  V30 1 1 4 3
M  V30 2 1 5 2
M  V30 3 1 6 3
M  V30 4 1 6 5
M  V30 5 2 8 3
M  V30 6 2 10 1
M  V30 7 1 10 2
M  V30 8 1 10 7
M  V30 9 2 11 2
M  V30 10 1 11 9
M  V30 11 1 12 1
M  V30 12 2 12 9
M  V30 13 1 13 1
M  V30 14 1 14 4
M  V30 15 1 15 4
M  V30 16 1 16 6
M  V30 17 1 17 6
M  V30 18 1 18 7
M  V30 19 1 19 7
M  V30 20 1 20 7
M  V30 21 1 21 9
M  V30 22 1 22 11
M  V30 23 1 23 12
M  V30 END BOND
M  V30 END CTAB
M  END
>  <i_epik_Tot_Q>  (1) 
0

>  <i_epik_Tot_abs_Q>  (1) 
0

>  <i_i_glide_confnum>  (1) 
1

>  <i_i_glide_lignum>  (1) 
90

>  <i_i_glide_posenum>  (1) 
45

>  <i_i_glide_rotatable_bonds>  (1) 
3

>  <i_lp_mmshare_version>  (1) 
72125

>  <i_m_source_file_index>  (1) 
36

>  <i_f3d_flags>  (1) 
0

>  <num_sample>  (1) 
100

>  <b_lp_Chiralities_Consistent>  (1) 
1

>  <r_epik_Charging_Adjusted_Penalty>  (1) 
0

>  <r_epik_Ionization_Penalty>  (1) 
6.1062296302935647e-07

>  <r_epik_Ionization_Penalty_Charging>  (1) 
0

>  <r_epik_Ionization_Penalty_Neutral>  (1) 
6.1062296302935647e-07

>  <r_epik_State_Penalty>  (1) 
-0

>  <r_glide_ring_energy>  (1) 
0

>  <r_i_docking_score>  (1) 
-6.0622489041890439

>  <r_i_glide_ecoul>  (1) 
-7.0050033938655156

>  <r_i_glide_eff_state_penalty>  (1) 
-0

>  <r_i_glide_einternal>  (1) 
1.4017449527688655

>  <r_i_glide_emodel>  (1) 
-38.491879405098373

>  <r_i_glide_emodel_strain>  (1) 
1.2439313406821491

>  <r_i_glide_energy>  (1) 
-28.494371290080323

>  <r_i_glide_erotb>  (1) 
1.1185107559780281

>  <r_i_glide_esite>  (1) 
-0.16340089898672991

>  <r_i_glide_evdw>  (1) 
-21.489367896214809

>  <r_i_glide_gscore>  (1) 
-6.0622489041890439

>  <r_i_glide_gscore_strain>  (1) 
0

>  <r_i_glide_hbond>  (1) 
-0.1543062570392188

>  <r_i_glide_ligand_efficiency>  (1) 
-0.50518740868242029

>  <r_i_glide_ligand_efficiency_ln>  (1) 
-1.739572824585655

>  <r_i_glide_ligand_efficiency_sa>  (1) 
-1.1565904437547547

>  <r_i_glide_lipo>  (1) 
-2.1503365338336535

>  <r_i_glide_metal>  (1) 
-0

>  <r_i_glide_rewards>  (1) 
-2.5874970664169026

>  <r_lp_Energy>  (1) 
12.862938

>  <r_lp_tautomer_probability>  (1) 
1

>  <s_epik_cmdline>  (1) 
J2VwaWtfcHl0aG9uJywgJy1waHQnLCAnMS4wJywgJy1waCcsICc3LjQnLCAnLXRuJywgJzgnLCAnLW1hJywgJzUwMCcsICctaW1hZScsICc8aW5maWxlLm1hZT4nLCAnLW9tYWUnLCAnPG91dGZpbGUubWFlPic=

>  <s_epik_input>  (1) 
W2NIXTFbY0hdW2NIXVtjSF1jKFtDSDNdKWMxT1tDSDJdQyg9TylbTkgyXQ==

>  <s_glide_docking_method>  (1) 
confgen

>  <s_i_glide_gridfile>  (1) 
gpcr_5ht2c_6bqh_protein_autoprepared_prepared

>  <s_lp_Force_Field>  (1) 
S-OPLS

>  <s_lp_Variant>  (1) 
DiffSBDD_35_num_sample_100-1

>  <s_m_source_file>  (1) 
generated__ligand_DiffSBDD_2026-05-06_prepared.sdf

>  <GenAI_Model>  (1) 
DiffSBDD

>  <Protein>  (1) 
GPCR_5HT2C

$$$$
DiffSBDD_18_num_sample_100
     RDKit          3D

  0  0  0  0  0  0  0  0  0  0999 V3000
M  V30 BEGIN CTAB
M  V30 COUNTS 71 73 0 0 1
M  V30 BEGIN ATOM
M  V30 1 O 37.420031 35.263896 61.053591 0
M  V30 2 C 39.789434 26.538547 56.223949 0
M  V30 3 C 36.935884 30.418881 59.416267 0
M  V30 4 C 39.438394 26.085579 55.025651 0
M  V30 5 O 35.467376 31.698893 61.452960 0
M  V30 6 C 39.934664 28.651687 57.502109 0 CFG=2
M  V30 7 C 41.398401 30.065216 63.171161 0
M  V30 8 N 39.655593 27.821418 56.297718 0 CHG=1
M  V30 9 N 41.049432 28.155233 58.320085 0
M  V30 10 C 38.614499 33.325157 61.853468 0
M  V30 11 C 42.093094 32.426723 62.638100 0
M  V30 12 O 42.078935 29.049232 63.053491 0
M  V30 13 O 38.632192 27.132858 53.056241 0
M  V30 14 C 41.510018 30.707108 66.144997 0
M  V30 15 C 37.883668 30.895859 57.104260 0
M  V30 16 C 39.067381 27.121347 54.322605 0
M  V30 17 C 42.267369 33.051298 65.572099 0
M  V30 18 C 41.034029 32.965864 62.022226 0
M  V30 19 C 35.818477 32.342233 60.463323 0
M  V30 20 N 40.050114 30.150875 62.928134 0
M  V30 21 C 38.180737 30.294444 58.499523 0 CFG=2
M  V30 22 C 38.727689 34.745465 61.318227 0 CFG=2
M  V30 23 C 38.700744 28.834124 58.414410 0 CFG=2
M  V30 24 C 39.230942 28.299114 59.749217 0
M  V30 25 O 43.297292 32.844746 66.253377 0 CHG=-1
M  V30 26 C 39.119691 28.517317 54.996476 0
M  V30 27 C 39.267340 31.133422 62.671240 0
M  V30 28 C 35.490080 33.834893 60.347557 0
M  V30 29 C 36.691925 34.738546 59.940489 0
M  V30 30 C 39.325796 35.730910 62.338903 0
M  V30 31 C 39.644540 32.518218 62.180601 0
M  V30 32 C 42.030431 31.340630 63.669640 0 CFG=1
M  V30 33 C 41.496681 31.815622 65.066700 0 CFG=1
M  V30 34 N 36.506396 31.808217 59.453505 0
M  V30 35 N 40.684106 28.325688 59.674158 0
M  V30 36 O 41.808366 34.172207 65.261098 0
M  V30 37 H 40.145500 25.953935 57.063652 0
M  V30 38 H 36.114958 29.809465 59.034439 0
M  V30 39 H 37.157277 30.067928 60.422533 0
M  V30 40 H 39.471423 25.043664 54.739126 0
M  V30 41 H 40.266972 29.614442 57.119299 0
M  V30 42 H 41.238608 27.171066 58.149463 0
M  V30 43 H 37.620279 32.964986 61.995555 0
M  V30 44 H 43.067397 32.834110 62.442538 0
M  V30 45 H 39.867355 29.206179 54.603039 0
M  V30 46 H 41.260626 31.104961 67.129661 0
M  V30 47 H 40.777673 29.929563 65.926520 0
M  V30 48 H 42.489469 30.232942 66.214681 0
M  V30 49 H 37.067467 30.366376 56.611735 0
M  V30 50 H 37.595392 31.944876 57.162064 0
M  V30 51 H 38.745107 30.887709 56.441455 0
M  V30 52 H 41.220965 33.795620 61.359923 0
M  V30 53 H 38.976690 30.896455 58.942621 0
M  V30 54 H 39.321751 34.755617 60.403293 0
M  V30 55 H 37.879320 28.197813 58.080494 0
M  V30 56 H 38.915765 27.261113 59.853458 0
M  V30 57 H 38.892878 28.837305 60.632734 0
M  V30 58 H 38.140666 28.957300 55.179548 0
M  V30 59 H 38.187813 30.996929 62.773024 0
M  V30 60 H 34.701731 33.927821 59.599443 0
M  V30 61 H 35.067427 34.183947 61.289319 0
M  V30 62 H 37.357006 34.266413 59.215894 0
M  V30 63 H 36.284447 35.605403 59.419305 0
M  V30 64 H 40.336422 35.468519 62.648248 0
M  V30 65 H 39.372084 36.736128 61.918598 0
M  V30 66 H 38.715737 35.784096 63.240122 0
M  V30 67 H 43.078174 31.081699 63.832309 0
M  V30 68 H 40.462646 32.145094 64.968466 0
M  V30 69 H 36.738426 32.389419 58.659820 0
M  V30 70 H 41.111148 27.611247 60.263078 0
M  V30 71 H 38.594248 26.240392 52.747120 0
M  V30 END ATOM
M  V30 BEGIN BOND
M  V30 1 1 4 2
M  V30 2 2 8 2
M  V30 3 1 8 6
M  V30 4 1 9 6
M  V30 5 2 12 7
M  V30 6 2 16 4
M  V30 7 1 16 13
M  V30 8 2 18 11
M  V30 9 2 19 5
M  V30 10 1 20 7
M  V30 11 1 21 3
M  V30 12 1 21 15
M  V30 13 1 22 1
M  V30 14 1 22 10
M  V30 15 1 23 6
M  V30 16 1 23 21
M  V30 17 1 24 23
M  V30 18 1 25 17
M  V30 19 1 26 8
M  V30 20 1 26 16
M  V30 21 2 27 20
M  V30 22 1 28 19
M  V30 23 1 29 1
M  V30 24 1 29 28
M  V30 25 1 30 22
M  V30 26 2 31 10
M  V30 27 1 31 18
M  V30 28 1 31 27
M  V30 29 1 32 7
M  V30 30 1 32 11
M  V30 31 1 33 14
M  V30 32 1 33 17
M  V30 33 1 33 32
M  V30 34 1 34 3
M  V30 35 1 34 19
M  V30 36 1 35 9
M  V30 37 1 35 24
M  V30 38 2 36 17
M  V30 39 1 37 2
M  V30 40 1 38 3
M  V30 41 1 39 3
M  V30 42 1 40 4
M  V30 43 1 6 41 CFG=3
M  V30 44 1 42 9
M  V30 45 1 43 10
M  V30 46 1 44 11
M  V30 47 1 45 26
M  V30 48 1 46 14
M  V30 49 1 47 14
M  V30 50 1 48 14
M  V30 51 1 49 15
M  V30 52 1 50 15
M  V30 53 1 51 15
M  V30 54 1 52 18
M  V30 55 1 21 53 CFG=1
M  V30 56 1 22 54 CFG=3
M  V30 57 1 23 55 CFG=3
M  V30 58 1 56 24
M  V30 59 1 57 24
M  V30 60 1 58 26
M  V30 61 1 59 27
M  V30 62 1 60 28
M  V30 63 1 61 28
M  V30 64 1 62 29
M  V30 65 1 63 29
M  V30 66 1 64 30
M  V30 67 1 65 30
M  V30 68 1 66 30
M  V30 69 1 32 67 CFG=1
M  V30 70 1 33 68 CFG=3
M  V30 71 1 69 34
M  V30 72 1 70 35
M  V30 73 1 71 13
M  V30 END BOND
M  V30 END CTAB
M  END
>  <i_epik_Tot_Q>  (1) 
0

>  <i_epik_Tot_abs_Q>  (1) 
2

>  <i_i_glide_confnum>  (1) 
683

>  <i_i_glide_lignum>  (1) 
45

>  <i_i_glide_posenum>  (1) 
330

>  <i_i_glide_rotatable_bonds>  (1) 
13

>  <i_lp_mmshare_version>  (1) 
72125

>  <i_m_source_file_index>  (1) 
19

>  <i_f3d_flags>  (1) 
0

>  <num_sample>  (1) 
100

>  <b_lp_Chiralities_Consistent>  (1) 
1

>  <r_epik_Charging_Adjusted_Penalty>  (1) 
0.76693695219889413

>  <r_epik_Ionization_Penalty>  (1) 
0.76778133156762796

>  <r_epik_Ionization_Penalty_Charging>  (1) 
0.00011398914501928687

>  <r_epik_Ionization_Penalty_Neutral>  (1) 
0.7676673424226087

>  <r_epik_State_Penalty>  (1) 
0.76682296305387487

>  <r_glide_ring_energy>  (1) 
1.7561163794185919

>  <r_i_docking_score>  (1) 
-6.0605155592754505

>  <r_i_glide_ecoul>  (1) 
-2.8484034453682043

>  <r_i_glide_eff_state_penalty>  (1) 
0.76682296305387487

>  <r_i_glide_einternal>  (1) 
12.007316486700233

>  <r_i_glide_emodel>  (1) 
-64.012789608432939

>  <r_i_glide_emodel_strain>  (1) 
4.1943751137876006

>  <r_i_glide_energy>  (1) 
-52.182792061267051

>  <r_i_glide_erotb>  (1) 
0.89312676016186854

>  <r_i_glide_esite>  (1) 
-0.17394792831871836

>  <r_i_glide_evdw>  (1) 
-49.334388615898845

>  <r_i_glide_gscore>  (1) 
-6.8273385223293257

>  <r_i_glide_gscore_strain>  (1) 
0.04859377844690016

>  <r_i_glide_hbond>  (1) 
-0.40647294082619717

>  <r_i_glide_ligand_efficiency>  (1) 
-0.16834765442431807

>  <r_i_glide_ligand_efficiency_ln>  (1) 
-1.3222407588255423

>  <r_i_glide_ligand_efficiency_sa>  (1) 
-0.555871707431152

>  <r_i_glide_lipo>  (1) 
-2.7654443674970328

>  <r_i_glide_metal>  (1) 
-0

>  <r_i_glide_rewards>  (1) 
-1.5292138766959715

>  <r_lp_Energy>  (1) 
33.335281999999999

>  <r_lp_tautomer_probability>  (1) 
0.99929914239148299

>  <s_epik_Chemistry_Notes>  (1) 
This compound has an imine and may undergo hydrolysis. This compound contains an acetal/aminal-like group ( X-CH(R)-Y where X, Y are N, S, or O) that may be acid/base labile, releasing an aldehyde.

>  <s_epik_cmdline>  (1) 
J2VwaWtfcHl0aG9uJywgJy1waHQnLCAnMS4wJywgJy1waCcsICc3LjQnLCAnLXRuJywgJzgnLCAnLW1hJywgJzUwMCcsICctaW1hZScsICc8aW5maWxlLm1hZT4nLCAnLW9tYWUnLCAnPG91dGZpbGUubWFlPic=

>  <s_epik_input>  (1) 
W09IXUMoPU8pW0NASF0oW0NIM10pW0NAQEhdMVtDSF09W0NIXS9DKFtDSF09TkMxPU8pPVtDSF1cW0NASF0oW0NIM10pT1tDSDJdW0NIMl1DKD1PKVtOSF1bQ0gyXVtDQEhdKFtDSDNdKVtDQEBIXTJbQ0gyXVtOSF1bTkhdW0NASF0ybjNbY0hdW2NIXWMoW09IXSlbY0hdMw==

>  <s_glide_docking_method>  (1) 
confgen

>  <s_i_glide_gridfile>  (1) 
gpcr_5ht2c_6bqh_protein_autoprepared_prepared

>  <s_lp_Force_Field>  (1) 
S-OPLS

>  <s_lp_Variant>  (1) 
DiffSBDD_18_num_sample_100-5

>  <s_m_source_file>  (1) 
generated__ligand_DiffSBDD_2026-05-06_prepared.sdf

>  <GenAI_Model>  (1) 
DiffSBDD

>  <Protein>  (1) 
GPCR_5HT2C

$$$$
DiffSBDD_44_num_sample_100
     RDKit          3D

  0  0  0  0  0  0  0  0  0  0999 V3000
M  V30 BEGIN CTAB
M  V30 COUNTS 58 59 0 0 1
M  V30 BEGIN ATOM
M  V30 1 C 37.522429 31.722480 60.890101 0
M  V30 2 O 39.200426 32.821430 57.283623 0 CHG=-1
M  V30 3 C 38.948283 26.678718 55.575746 0
M  V30 4 C 36.654548 33.246833 59.160568 0 CFG=1
M  V30 5 N 37.484660 32.169022 58.569968 0 CFG=2 CHG=1
M  V30 6 C 38.745743 25.692075 57.821336 0
M  V30 7 N 39.638477 29.221416 56.860143 0
M  V30 8 C 39.235893 26.757377 56.850233 0
M  V30 9 O 41.396137 27.690926 57.222906 0
M  V30 10 C 36.492175 32.837402 60.642555 0 CFG=1
M  V30 11 C 35.067402 32.383136 60.947000 0
M  V30 12 C 38.055117 31.031598 56.300798 0 CFG=1
M  V30 13 C 38.474203 29.733173 57.007452 0
M  V30 14 C 38.409365 31.749492 59.652930 0
M  V30 15 C 42.243420 28.162952 58.253575 0
M  V30 16 C 37.541835 24.883802 54.653498 0
M  V30 17 C 37.997320 32.346494 57.167578 0 CFG=2
M  V30 18 C 40.014683 27.933510 57.441203 0 CFG=1
M  V30 19 F 36.475511 23.350499 55.965468 0
M  V30 20 C 37.092133 24.523499 56.094103 0 CFG=1
M  V30 21 C 38.355086 26.157565 54.539468 0
M  V30 22 C 38.800366 31.240765 54.960493 0
M  V30 23 C 37.388517 29.092406 57.876835 0
M  V30 24 C 37.282655 34.646601 59.050395 0
M  V30 25 C 38.221972 24.381186 57.159397 0
M  V30 26 H 37.031858 30.750674 60.960270 0
M  V30 27 H 38.091249 31.872383 61.808512 0
M  V30 28 H 35.690393 33.266607 58.653506 0
M  V30 29 H 39.578701 25.451942 58.481416 0
M  V30 30 H 37.967545 26.126083 58.448157 0
M  V30 31 H 36.724683 33.681055 61.294520 0
M  V30 32 H 34.737007 31.621437 60.240004 0
M  V30 33 H 34.982508 31.962063 61.945007 0
M  V30 34 H 34.372237 33.221420 60.877205 0
M  V30 35 H 37.045796 30.821437 55.971427 0
M  V30 36 H 38.907728 30.799495 59.478385 0
M  V30 37 H 39.191643 32.496764 59.794820 0
M  V30 38 H 43.285364 28.017535 57.968351 0
M  V30 39 H 42.085319 29.221440 58.444642 0
M  V30 40 H 42.067141 27.621409 59.182360 0
M  V30 41 H 36.667427 24.969758 54.007585 0
M  V30 42 H 38.140609 24.065375 54.261417 0
M  V30 43 H 37.257327 32.961147 56.658753 0
M  V30 44 H 39.819197 27.943273 58.516164 0
M  V30 45 H 36.333076 25.224077 56.444678 0
M  V30 46 H 38.428516 26.608469 53.560709 0
M  V30 47 H 38.702442 30.372664 54.308284 0
M  V30 48 H 38.398056 32.102170 54.426471 0
M  V30 49 H 39.865130 31.420513 55.115578 0
M  V30 50 H 36.501274 29.721742 57.938700 0
M  V30 51 H 37.067394 28.144705 57.453502 0
M  V30 52 H 37.744942 28.910629 58.890015 0
M  V30 53 H 36.621320 35.405457 59.468702 0
M  V30 54 H 38.233339 34.700843 59.580736 0
M  V30 55 H 37.467403 34.915649 58.012026 0
M  V30 56 H 39.067426 23.855837 56.717491 0
M  V30 57 H 37.863438 23.730950 57.958402 0
M  V30 58 H 36.807048 31.430053 58.448407 0
M  V30 END ATOM
M  V30 BEGIN BOND
M  V30 1 1 5 4
M  V30 2 2 8 3
M  V30 3 1 8 6
M  V30 4 1 10 1
M  V30 5 1 10 4
M  V30 6 1 11 10
M  V30 7 2 13 7
M  V30 8 1 13 12
M  V30 9 1 14 1
M  V30 10 1 14 5
M  V30 11 1 15 9
M  V30 12 1 17 2
M  V30 13 1 17 5
M  V30 14 1 17 12
M  V30 15 1 18 7
M  V30 16 1 18 8
M  V30 17 1 18 9
M  V30 18 1 20 16
M  V30 19 1 20 19
M  V30 20 2 21 3
M  V30 21 1 21 16
M  V30 22 1 22 12
M  V30 23 1 23 13
M  V30 24 1 24 4
M  V30 25 1 25 6
M  V30 26 1 25 20
M  V30 27 1 26 1
M  V30 28 1 27 1
M  V30 29 1 4 28 CFG=3
M  V30 30 1 29 6
M  V30 31 1 30 6
M  V30 32 1 10 31 CFG=1
M  V30 33 1 32 11
M  V30 34 1 33 11
M  V30 35 1 34 11
M  V30 36 1 12 35 CFG=3
M  V30 37 1 36 14
M  V30 38 1 37 14
M  V30 39 1 38 15
M  V30 40 1 39 15
M  V30 41 1 40 15
M  V30 42 1 41 16
M  V30 43 1 42 16
M  V30 44 1 17 43 CFG=3
M  V30 45 1 18 44 CFG=1
M  V30 46 1 20 45 CFG=1
M  V30 47 1 46 21
M  V30 48 1 47 22
M  V30 49 1 48 22
M  V30 50 1 49 22
M  V30 51 1 50 23
M  V30 52 1 51 23
M  V30 53 1 52 23
M  V30 54 1 53 24
M  V30 55 1 54 24
M  V30 56 1 55 24
M  V30 57 1 56 25
M  V30 58 1 57 25
M  V30 59 1 5 58 CFG=3
M  V30 END BOND
M  V30 END CTAB
M  END
>  <i_epik_Tot_Q>  (1) 
0

>  <i_epik_Tot_abs_Q>  (1) 
2

>  <i_i_glide_confnum>  (1) 
10

>  <i_i_glide_lignum>  (1) 
113

>  <i_i_glide_posenum>  (1) 
323

>  <i_i_glide_rotatable_bonds>  (1) 
6

>  <i_lp_mmshare_version>  (1) 
72125

>  <i_m_source_file_index>  (1) 
45

>  <i_f3d_flags>  (1) 
0

>  <num_sample>  (1) 
100

>  <b_lp_Chiralities_Consistent>  (1) 
1

>  <r_epik_Charging_Adjusted_Penalty>  (1) 
0.41733257654759531

>  <r_epik_Ionization_Penalty>  (1) 
0.0069177268181324029

>  <r_epik_Ionization_Penalty_Charging>  (1) 
0.0066527375949913311

>  <r_epik_Ionization_Penalty_Neutral>  (1) 
0.00026498922314107146

>  <r_epik_State_Penalty>  (1) 
0.41067983895260396

>  <r_glide_ring_energy>  (1) 
0

>  <r_i_docking_score>  (1) 
-6.0580320972730108

>  <r_i_glide_ecoul>  (1) 
-2.8869604988363662

>  <r_i_glide_eff_state_penalty>  (1) 
0.41067983895260396

>  <r_i_glide_einternal>  (1) 
6.8422072338324398

>  <r_i_glide_emodel>  (1) 
-49.82975522583363

>  <r_i_glide_emodel_strain>  (1) 
0.24278609001704865

>  <r_i_glide_energy>  (1) 
-35.856930640329061

>  <r_i_glide_erotb>  (1) 
0.61440649929112812

>  <r_i_glide_esite>  (1) 
-0.22020584096918269

>  <r_i_glide_evdw>  (1) 
-32.969970141492695

>  <r_i_glide_gscore>  (1) 
-6.4687119362256151

>  <r_i_glide_gscore_strain>  (1) 
0

>  <r_i_glide_hbond>  (1) 
-0.037767862833862437

>  <r_i_glide_ligand_efficiency>  (1) 
-0.24232128389092045

>  <r_i_glide_ligand_efficiency_ln>  (1) 
-1.4359351516259111

>  <r_i_glide_ligand_efficiency_sa>  (1) 
-0.70855173244356706

>  <r_i_glide_lipo>  (1) 
-2.4661315209540153

>  <r_i_glide_metal>  (1) 
-0

>  <r_i_glide_rewards>  (1) 
-2.2774706288595929

>  <r_lp_Energy>  (1) 
18.805842999999999

>  <r_lp_tautomer_probability>  (1) 
0.49999399997599986

>  <s_epik_Chemistry_Notes>  (1) 
This compound has an imine and may undergo hydrolysis. This compound contains an acetal/aminal-like group ( X-CH(R)-Y where X, Y are N, S, or O) that may be acid/base labile, releasing an aldehyde.

>  <s_epik_cmdline>  (1) 
J2VwaWtfcHl0aG9uJywgJy1waHQnLCAnMS4wJywgJy1waCcsICc3LjQnLCAnLXRuJywgJzgnLCAnLW1hJywgJzUwMCcsICctaW1hZScsICc8aW5maWxlLm1hZT4nLCAnLW9tYWUnLCAnPG91dGZpbGUubWFlPic=

>  <s_epik_input>  (1) 
W0NIM11bQ0BIXTFbQ0gyXVtDSDJdTihbQ0BASF0xW0NIM10pW0NAQEhdKFtPSF0pW0NAQEhdKFtDSDNdKVxDKFtDSDNdKT1OXFtDQEBIXShPW0NIM10pQzI9Qz1bQ0hdW0NIMl1bQ0BASF0oRilbQ0gyXVtDSDJdMg==

>  <s_glide_docking_method>  (1) 
confgen

>  <s_i_glide_gridfile>  (1) 
gpcr_5ht2c_6bqh_protein_autoprepared_prepared

>  <s_lp_Force_Field>  (1) 
S-OPLS

>  <s_lp_Variant>  (1) 
DiffSBDD_44_num_sample_100-6

>  <s_m_source_file>  (1) 
generated__ligand_DiffSBDD_2026-05-06_prepared.sdf

>  <GenAI_Model>  (1) 
DiffSBDD

>  <Protein>  (1) 
GPCR_5HT2C

$$$$
DiffSBDD_90_num_sample_100
     RDKit          3D

  0  0  0  0  0  0  0  0  0  0999 V3000
M  V30 BEGIN CTAB
M  V30 COUNTS 84 87 0 0 1
M  V30 BEGIN ATOM
M  V30 1 C 39.116489 29.481597 59.380128 0
M  V30 2 O 39.023860 37.221360 64.760975 0
M  V30 3 F 39.067424 31.564443 52.791569 0
M  V30 4 C 38.677905 26.100163 55.770096 0 CFG=1
M  V30 5 C 40.432046 35.234627 62.078523 0 CFG=2
M  V30 6 C 38.311375 34.646200 61.077885 0 CFG=1
M  V30 7 C 36.473207 23.109088 55.826858 0
M  V30 8 C 37.045434 33.385870 59.242285 0
M  V30 9 C 37.907896 24.969461 56.510605 0
M  V30 10 N 39.598531 37.214776 63.432840 0
M  V30 11 C 39.100099 31.642793 55.068326 0
M  V30 12 C 38.883700 24.226149 57.432995 0
M  V30 13 C 39.798875 34.801041 60.747720 0
M  V30 14 C 38.063481 35.903623 61.919210 0
M  V30 15 O 40.661822 32.921410 62.652947 0
M  V30 16 N 38.063110 29.806324 58.407232 0
M  V30 17 C 37.423203 34.536800 59.855201 0
M  V30 18 F 37.286876 32.128308 53.920511 0
M  V30 19 C 38.989368 28.900975 53.939371 0 CFG=1
M  V30 20 N 38.053470 29.156292 57.119076 0
M  V30 21 C 40.233880 30.656364 55.210604 0
M  V30 22 C 37.845910 31.250229 58.325404 0
M  V30 23 O 37.498297 24.037317 55.500706 0
M  V30 24 C 36.700671 25.523538 57.296409 0
M  V30 25 C 38.785599 30.082298 60.742517 0
M  V30 26 C 37.801461 29.842959 53.899113 0
M  V30 27 C 37.437577 31.938252 59.635106 0 CFG=1
M  V30 28 C 39.278462 35.909227 62.860312 0 CFG=1
M  V30 29 C 37.820895 26.740059 54.661898 0
M  V30 30 O 41.895093 34.402976 63.768373 0 CHG=-1
M  V30 31 C 39.309551 28.617657 56.574877 0 CFG=1
M  V30 32 C 38.519729 31.589688 60.688339 0
M  V30 33 O 41.467417 36.133178 61.816889 0
M  V30 34 C 39.419179 27.084341 56.737923 0
M  V30 35 C 39.788593 29.172306 55.215670 0 CFG=1
M  V30 36 C 38.658101 27.445499 53.604834 0
M  V30 37 C 38.304139 31.298333 53.855083 0
M  V30 38 C 41.048539 34.083600 62.903925 0
M  V30 39 H 39.212934 28.400369 59.470858 0
M  V30 40 H 40.072047 29.882401 59.043362 0
M  V30 41 H 38.578595 38.055435 64.778477 0
M  V30 42 H 39.473769 25.577746 55.236628 0
M  V30 43 H 38.125015 33.834794 61.765289 0
M  V30 44 H 36.444077 22.327472 55.068406 0
M  V30 45 H 36.666643 22.628826 56.784666 0
M  V30 46 H 35.489603 23.578240 55.853198 0
M  V30 47 H 36.400092 33.463941 58.377322 0
M  V30 48 H 40.588127 37.293133 63.642358 0
M  V30 49 H 39.467709 32.666345 55.027010 0
M  V30 50 H 38.430271 31.604490 55.911477 0
M  V30 51 H 39.177202 24.862073 58.253498 0
M  V30 52 H 38.465643 23.313867 57.853528 0
M  V30 53 H 39.807326 23.989107 56.912981 0
M  V30 54 H 40.267387 33.927744 60.308487 0
M  V30 55 H 39.918921 35.594030 60.012498 0
M  V30 56 H 37.114804 35.880863 62.455212 0
M  V30 57 H 38.068114 36.794858 61.289622 0
M  V30 58 H 37.067141 35.474538 59.450142 0
M  V30 59 H 39.627999 29.200582 53.107432 0
M  V30 60 H 37.602119 29.773441 56.445980 0
M  V30 61 H 40.971773 30.829387 54.426516 0
M  V30 62 H 40.666750 30.969551 56.123384 0
M  V30 63 H 37.067655 31.411378 57.591540 0
M  V30 64 H 38.760051 31.720584 57.961421 0
M  V30 65 H 36.937367 26.446115 57.825350 0
M  V30 66 H 35.872782 25.724230 56.622264 0
M  V30 67 H 36.345559 24.821418 58.046527 0
M  V30 68 H 37.867747 29.621635 61.053490 0
M  V30 69 H 39.553034 29.842225 61.479804 0
M  V30 70 H 37.209702 29.555443 53.053474 0
M  V30 71 H 37.142158 29.703990 54.753833 0
M  V30 72 H 36.505602 31.478508 59.967015 0
M  V30 73 H 39.067467 35.231427 63.676044 0
M  V30 74 H 37.260180 25.965659 54.137504 0
M  V30 75 H 37.067591 27.406852 55.061852 0
M  V30 76 H 40.106404 28.973878 57.219228 0
M  V30 77 H 39.464268 32.065432 60.458497 0
M  V30 78 H 38.210589 31.852843 61.696400 0
M  V30 79 H 42.031545 36.063528 62.578056 0
M  V30 80 H 40.477893 26.821977 56.713591 0
M  V30 81 H 39.129867 26.894481 57.768665 0
M  V30 82 H 40.667411 28.586000 55.104358 0
M  V30 83 H 39.574804 26.887030 53.411861 0
M  V30 84 H 38.111459 27.421809 52.659936 0
M  V30 END ATOM
M  V30 BEGIN BOND
M  V30 1 1 9 4
M  V30 2 1 10 2
M  V30 3 1 12 9
M  V30 4 1 13 5
M  V30 5 1 13 6
M  V30 6 1 14 6
M  V30 7 1 16 1
M  V30 8 1 17 6
M  V30 9 2 17 8
M  V30 10 1 20 16
M  V30 11 1 21 11
M  V30 12 1 22 16
M  V30 13 1 23 7
M  V30 14 1 23 9
M  V30 15 1 24 9
M  V30 16 1 25 1
M  V30 17 1 26 19
M  V30 18 1 27 8
M  V30 19 1 27 22
M  V30 20 1 28 5
M  V30 21 1 28 10
M  V30 22 1 28 14
M  V30 23 1 29 4
M  V30 24 1 31 20
M  V30 25 1 32 25
M  V30 26 1 32 27
M  V30 27 1 5 33 CFG=3
M  V30 28 1 34 4
M  V30 29 1 34 31
M  V30 30 1 35 19
M  V30 31 1 35 21
M  V30 32 1 35 31
M  V30 33 1 36 19
M  V30 34 1 36 29
M  V30 35 1 37 3
M  V30 36 1 37 11
M  V30 37 1 37 18
M  V30 38 1 37 26
M  V30 39 1 38 5
M  V30 40 2 38 15
M  V30 41 1 38 30
M  V30 42 1 39 1
M  V30 43 1 40 1
M  V30 44 1 41 2
M  V30 45 1 4 42 CFG=3
M  V30 46 1 6 43 CFG=1
M  V30 47 1 44 7
M  V30 48 1 45 7
M  V30 49 1 46 7
M  V30 50 1 47 8
M  V30 51 1 48 10
M  V30 52 1 49 11
M  V30 53 1 50 11
M  V30 54 1 51 12
M  V30 55 1 52 12
M  V30 56 1 53 12
M  V30 57 1 54 13
M  V30 58 1 55 13
M  V30 59 1 56 14
M  V30 60 1 57 14
M  V30 61 1 58 17
M  V30 62 1 19 59 CFG=3
M  V30 63 1 60 20
M  V30 64 1 61 21
M  V30 65 1 62 21
M  V30 66 1 63 22
M  V30 67 1 64 22
M  V30 68 1 65 24
M  V30 69 1 66 24
M  V30 70 1 67 24
M  V30 71 1 68 25
M  V30 72 1 69 25
M  V30 73 1 70 26
M  V30 74 1 71 26
M  V30 75 1 27 72 CFG=1
M  V30 76 1 28 73 CFG=1
M  V30 77 1 74 29
M  V30 78 1 75 29
M  V30 79 1 31 76 CFG=1
M  V30 80 1 77 32
M  V30 81 1 78 32
M  V30 82 1 79 33
M  V30 83 1 80 34
M  V30 84 1 81 34
M  V30 85 1 35 82 CFG=3
M  V30 86 1 83 36
M  V30 87 1 84 36
M  V30 END BOND
M  V30 END CTAB
M  END
>  <i_epik_Tot_Q>  (1) 
-1

>  <i_epik_Tot_abs_Q>  (1) 
1

>  <i_i_glide_confnum>  (1) 
428

>  <i_i_glide_lignum>  (1) 
231

>  <i_i_glide_posenum>  (1) 
171

>  <i_i_glide_rotatable_bonds>  (1) 
10

>  <i_lp_mmshare_version>  (1) 
72125

>  <i_m_source_file_index>  (1) 
91

>  <i_f3d_flags>  (1) 
0

>  <num_sample>  (1) 
100

>  <b_lp_Chiralities_Consistent>  (1) 
1

>  <r_epik_Charging_Adjusted_Penalty>  (1) 
0.43821527866000726

>  <r_epik_Ionization_Penalty>  (1) 
0.52002734918543769

>  <r_epik_Ionization_Penalty_Charging>  (1) 
0.00012691742049533285

>  <r_epik_Ionization_Penalty_Neutral>  (1) 
0.51990043176494238

>  <r_epik_State_Penalty>  (1) 
0.43808836123951195

>  <r_glide_ring_energy>  (1) 
0.35261698705849204

>  <r_i_docking_score>  (1) 
-6.0569674901771622

>  <r_i_glide_ecoul>  (1) 
-1.5600674084800323

>  <r_i_glide_eff_state_penalty>  (1) 
0.43808836123951195

>  <r_i_glide_einternal>  (1) 
40.454582575445698

>  <r_i_glide_emodel>  (1) 
0.86822471303802118

>  <r_i_glide_emodel_strain>  (1) 
3.7175528024941968

>  <r_i_glide_energy>  (1) 
-17.495044977622516

>  <r_i_glide_erotb>  (1) 
0.42146348941000378

>  <r_i_glide_esite>  (1) 
-0.061780613150413971

>  <r_i_glide_evdw>  (1) 
-15.934977569142484

>  <r_i_glide_gscore>  (1) 
-6.4950558514166739

>  <r_i_glide_gscore_strain>  (1) 
0

>  <r_i_glide_hbond>  (1) 
-0.22866320836250439

>  <r_i_glide_ligand_efficiency>  (1) 
-0.15939388132045162

>  <r_i_glide_ligand_efficiency_ln>  (1) 
-1.3060603688136156

>  <r_i_glide_ligand_efficiency_sa>  (1) 
-0.53587830899359123

>  <r_i_glide_lipo>  (1) 
-4.4370403756887127

>  <r_i_glide_metal>  (1) 
-0

>  <r_i_glide_rewards>  (1) 
-1.1582761538959183

>  <r_lp_Energy>  (1) 
56.361058

>  <s_epik_Chemistry_Notes>  (1) 
This compound has a N-S or N-O group and may undergo hydrolysis at high or low pH.

>  <s_epik_cmdline>  (1) 
J2VwaWtfcHl0aG9uJywgJy1waHQnLCAnMS4wJywgJy1waCcsICc3LjQnLCAnLXRuJywgJzgnLCAnLW1hJywgJzUwMCcsICctaW1hZScsICc8aW5maWxlLm1hZT4nLCAnLW9tYWUnLCAnPG91dGZpbGUubWFlPic=

>  <s_epik_input>  (1) 
RkMoRikoW0NIMl0xKVtDSDJdW0NIMl1bQ0BIXShbQ0BASF0xMilbQ0BIXShbQ0gyXVtDQEhdKFtDSDJdW0NIMl0yKUMoW0NIM10pKFtDSDNdKU9bQ0gzXSlbTkhdTjNbQ0gyXVtDSDJdW0NIMl1bQ0BIXShbQ0gyXTMpL1tDSF09W0NIXVxbQ0BASF0oW0NIMl1bQ0BdNChbT0hdKUMoPU8pW09IXSlbQ0gyXVtDQEBIXTRbTkhdW09IXQ==

>  <s_glide_docking_method>  (1) 
confgen

>  <s_i_glide_gridfile>  (1) 
gpcr_5ht2c_6bqh_protein_autoprepared_prepared

>  <s_lp_Force_Field>  (1) 
S-OPLS

>  <s_lp_Variant>  (1) 
DiffSBDD_90_num_sample_100-3

>  <s_m_source_file>  (1) 
generated__ligand_DiffSBDD_2026-05-06_prepared.sdf

>  <GenAI_Model>  (1) 
DiffSBDD

>  <Protein>  (1) 
GPCR_5HT2C

$$$$
DiffSBDD_85_num_sample_100
     RDKit          3D

  0  0  0  0  0  0  0  0  0  0999 V3000
M  V30 BEGIN CTAB
M  V30 COUNTS 83 87 0 0 1
M  V30 BEGIN ATOM
M  V30 1 C 42.336505 35.909812 64.032324 0
M  V30 2 N 38.942839 30.263018 54.593919 0
M  V30 3 C 39.633299 29.717790 50.944731 0
M  V30 4 Cl 39.272115 36.421456 64.247465 0
M  V30 5 C 41.223645 33.821335 64.803976 0 CFG=1
M  V30 6 C 37.856342 28.510851 58.782425 0
M  V30 7 C 38.680744 29.656717 53.309479 0
M  V30 8 C 39.870139 28.208318 51.016618 0
M  V30 9 O 39.834407 30.989737 63.489824 0
M  V30 10 S 37.637344 31.371895 61.062001 0
M  V30 11 C 38.843424 27.521666 51.924250 0
M  V30 12 O 41.467347 30.666473 62.022898 0 CHG=-1
M  V30 13 C 39.666064 30.335089 52.342222 0
M  V30 14 C 38.329067 33.063597 61.118618 0 CFG=1
M  V30 15 C 36.483853 33.079168 59.381802 0 CFG=1
M  V30 16 C 37.562961 30.975059 58.250949 0 CFG=1
M  V30 17 C 42.567053 34.467384 64.474298 0
M  V30 18 N 37.793589 30.108459 55.470818 0 CHG=1
M  V30 19 C 40.301601 33.834981 63.545313 0 CFG=2
M  V30 20 C 39.327343 28.603861 58.441839 0 CFG=1
M  V30 21 C 38.834633 28.119939 53.340040 0
M  V30 22 C 41.399188 32.491338 65.555525 0
M  V30 23 C 37.916077 29.072544 56.517268 0 CFG=2
M  V30 24 C 39.067399 31.125400 58.297381 0
M  V30 25 C 37.218455 29.511135 57.827906 0 CFG=1
M  V30 26 C 41.424468 36.006627 62.795206 0
M  V30 27 C 40.668334 31.388225 62.653718 0
M  V30 28 C 40.711892 32.902904 62.357126 0 CFG=1
M  V30 29 C 39.344476 28.597150 56.909052 0
M  V30 30 O 35.336301 33.361748 60.168285 0
M  V30 31 C 39.894168 33.143051 61.066376 0
M  V30 32 C 37.688766 33.853568 59.952622 0 CFG=1
M  V30 33 C 40.087839 35.334065 63.084161 0 CFG=2
M  V30 34 C 39.816087 29.938734 58.990639 0
M  V30 35 C 36.782410 31.563667 59.473065 0 CFG=1
M  V30 36 O 37.294346 35.146567 60.362358 0
M  V30 37 H 41.894634 36.421130 64.882780 0
M  V30 38 H 43.269371 36.421620 63.853500 0
M  V30 39 H 39.629908 29.721933 55.100169 0
M  V30 40 H 38.667645 29.912733 50.491239 0
M  V30 41 H 40.379985 30.192450 50.306477 0
M  V30 42 H 40.742330 34.462277 65.543203 0
M  V30 43 H 37.499152 27.511981 58.536209 0
M  V30 44 H 37.647510 28.751502 59.825280 0
M  V30 45 H 37.655266 29.890890 53.053100 0
M  V30 46 H 39.819953 27.783857 50.017606 0
M  V30 47 H 40.872287 28.021436 51.395948 0
M  V30 48 H 37.853976 27.612320 51.476820 0
M  V30 49 H 39.067430 26.456582 51.978949 0
M  V30 50 H 39.468154 31.406400 52.281127 0
M  V30 51 H 40.667444 30.245028 52.743065 0
M  V30 52 H 37.970545 33.481749 62.056286 0
M  V30 53 H 36.267442 33.407442 58.363984 0
M  V30 54 H 37.324590 31.641954 57.434115 0
M  V30 55 H 43.216436 34.424607 65.345728 0
M  V30 56 H 43.064141 33.918346 63.684281 0
M  V30 57 H 36.984076 29.935503 54.890930 0
M  V30 58 H 39.385547 33.373697 63.853465 0
M  V30 59 H 39.899216 27.778659 58.867363 0
M  V30 60 H 39.748759 27.830191 53.853025 0
M  V30 61 H 38.021336 27.668405 53.908432 0
M  V30 62 H 42.014985 31.780658 65.005779 0
M  V30 63 H 41.887130 32.651953 66.516292 0
M  V30 64 H 40.433857 32.028638 65.760757 0
M  V30 65 H 37.467375 28.168236 56.121967 0
M  V30 66 H 39.458463 31.219276 57.284196 0
M  V30 67 H 39.289518 32.102560 58.686392 0
M  V30 68 H 36.137476 29.393344 57.783053 0
M  V30 69 H 41.254360 37.050706 62.533797 0
M  V30 70 H 41.867622 35.542540 61.918401 0
M  V30 71 H 41.747158 33.123472 62.099813 0
M  V30 72 H 40.173251 29.195936 56.531953 0
M  V30 73 H 39.509818 27.582336 56.542741 0
M  V30 74 H 34.592099 32.965902 59.739824 0
M  V30 75 H 40.293782 32.436547 60.354347 0
M  V30 76 H 40.189855 34.106210 60.650817 0
M  V30 77 H 38.414963 33.995278 59.153930 0
M  V30 78 H 39.454739 35.397289 62.204255 0
M  V30 79 H 40.891353 29.965026 58.845080 0
M  V30 80 H 39.686678 29.950937 60.070467 0
M  V30 81 H 35.836335 31.025112 59.529989 0
M  V30 82 H 36.438086 35.039513 60.756602 0
M  V30 83 H 37.669147 31.006123 55.922155 0
M  V30 END ATOM
M  V30 BEGIN BOND
M  V30 1 1 7 2
M  V30 2 1 8 3
M  V30 3 1 11 8
M  V30 4 1 13 3
M  V30 5 1 13 7
M  V30 6 1 14 10
M  V30 7 1 17 1
M  V30 8 1 17 5
M  V30 9 1 18 2
M  V30 10 1 19 5
M  V30 11 1 20 6
M  V30 12 1 21 7
M  V30 13 1 21 11
M  V30 14 1 22 5
M  V30 15 1 23 18
M  V30 16 1 24 16
M  V30 17 1 25 6
M  V30 18 1 25 16
M  V30 19 1 25 23
M  V30 20 1 26 1
M  V30 21 2 27 9
M  V30 22 1 27 12
M  V30 23 1 28 19
M  V30 24 1 28 27
M  V30 25 1 29 20
M  V30 26 1 29 23
M  V30 27 1 30 15
M  V30 28 1 31 14
M  V30 29 1 31 28
M  V30 30 1 32 14
M  V30 31 1 32 15
M  V30 32 1 33 4
M  V30 33 1 33 19
M  V30 34 1 33 26
M  V30 35 1 34 20
M  V30 36 1 34 24
M  V30 37 1 35 10
M  V30 38 1 35 15
M  V30 39 1 35 16
M  V30 40 1 36 32
M  V30 41 1 37 1
M  V30 42 1 38 1
M  V30 43 1 39 2
M  V30 44 1 40 3
M  V30 45 1 41 3
M  V30 46 1 5 42 CFG=1
M  V30 47 1 43 6
M  V30 48 1 44 6
M  V30 49 1 45 7
M  V30 50 1 46 8
M  V30 51 1 47 8
M  V30 52 1 48 11
M  V30 53 1 49 11
M  V30 54 1 50 13
M  V30 55 1 51 13
M  V30 56 1 14 52 CFG=1
M  V30 57 1 15 53 CFG=3
M  V30 58 1 16 54 CFG=3
M  V30 59 1 55 17
M  V30 60 1 56 17
M  V30 61 1 57 18
M  V30 62 1 19 58 CFG=1
M  V30 63 1 20 59 CFG=1
M  V30 64 1 60 21
M  V30 65 1 61 21
M  V30 66 1 62 22
M  V30 67 1 63 22
M  V30 68 1 64 22
M  V30 69 1 23 65 CFG=3
M  V30 70 1 66 24
M  V30 71 1 67 24
M  V30 72 1 25 68 CFG=3
M  V30 73 1 69 26
M  V30 74 1 70 26
M  V30 75 1 28 71 CFG=3
M  V30 76 1 72 29
M  V30 77 1 73 29
M  V30 78 1 74 30
M  V30 79 1 75 31
M  V30 80 1 76 31
M  V30 81 1 32 77 CFG=3
M  V30 82 1 33 78 CFG=3
M  V30 83 1 79 34
M  V30 84 1 80 34
M  V30 85 1 35 81 CFG=1
M  V30 86 1 82 36
M  V30 87 1 83 18
M  V30 END BOND
M  V30 END CTAB
M  END
>  <i_epik_Tot_Q>  (1) 
0

>  <i_epik_Tot_abs_Q>  (1) 
2

>  <i_i_glide_confnum>  (1) 
140

>  <i_i_glide_lignum>  (1) 
220

>  <i_i_glide_posenum>  (1) 
57

>  <i_i_glide_rotatable_bonds>  (1) 
10

>  <i_lp_mmshare_version>  (1) 
72125

>  <i_m_source_file_index>  (1) 
86

>  <i_f3d_flags>  (1) 
0

>  <num_sample>  (1) 
100

>  <b_lp_Chiralities_Consistent>  (1) 
1

>  <r_epik_Charging_Adjusted_Penalty>  (1) 
0.24139881983135253

>  <r_epik_Ionization_Penalty>  (1) 
0.013577590547947769

>  <r_epik_Ionization_Penalty_Charging>  (1) 
0.013577468157686226

>  <r_epik_Ionization_Penalty_Neutral>  (1) 
1.223902615442005e-07

>  <r_epik_State_Penalty>  (1) 
0.22782135167366629

>  <r_glide_ring_energy>  (1) 
0

>  <r_i_docking_score>  (1) 
-6.0558202864529704

>  <r_i_glide_ecoul>  (1) 
-6.2388771315992289

>  <r_i_glide_eff_state_penalty>  (1) 
0.22782135167366629

>  <r_i_glide_einternal>  (1) 
20.282978432482327

>  <r_i_glide_emodel>  (1) 
-30.580619881350067

>  <r_i_glide_emodel_strain>  (1) 
0.60935652345146707

>  <r_i_glide_energy>  (1) 
-25.803500863134914

>  <r_i_glide_erotb>  (1) 
0.49083612240102314

>  <r_i_glide_esite>  (1) 
-0.03194086579132515

>  <r_i_glide_evdw>  (1) 
-19.564623731535686

>  <r_i_glide_gscore>  (1) 
-6.2836416381266371

>  <r_i_glide_gscore_strain>  (1) 
0

>  <r_i_glide_hbond>  (1) 
-0.16

>  <r_i_glide_ligand_efficiency>  (1) 
-0.16821723017924917

>  <r_i_glide_ligand_efficiency_ln>  (1) 
-1.3212163771472891

>  <r_i_glide_ligand_efficiency_sa>  (1) 
-0.55544105606244254

>  <r_i_glide_lipo>  (1) 
-3.794733846059763

>  <r_i_glide_metal>  (1) 
-0

>  <r_i_glide_rewards>  (1) 
-0.87374029235990402

>  <r_lp_Energy>  (1) 
69.240732999999992

>  <s_epik_cmdline>  (1) 
J2VwaWtfcHl0aG9uJywgJy1waHQnLCAnMS4wJywgJy1waCcsICc3LjQnLCAnLXRuJywgJzgnLCAnLW1hJywgJzUwMCcsICctaW1hZScsICc8aW5maWxlLm1hZT4nLCAnLW9tYWUnLCAnPG91dGZpbGUubWFlPic=

>  <s_epik_input>  (1) 
W0NIM11bQ0BIXTFbQ0gyXVtDSDJdW0NIMl1bQ0BIXShDbClbQ0BIXTFbQ0BASF0oQyg9TylbT0hdKVtDSDJdW0NAQEhdMlNbQ0BASF0oW0NAQEhdKFtPSF0pW0NASF0yW09IXSlbQ0BASF0oW0NIMl1bQ0gyXTMpW0NASF0oW0NIMl1bQ0BIXTM0KVtDQEhdKFtDSDJdNClbTkhdW05IXVtDSF01W0NIMl1bQ0gyXVtDSDJdW0NIMl1bQ0gyXTU=

>  <s_glide_docking_method>  (1) 
confgen

>  <s_i_glide_gridfile>  (1) 
gpcr_5ht2c_6bqh_protein_autoprepared_prepared

>  <s_lp_Force_Field>  (1) 
S-OPLS

>  <s_lp_Variant>  (1) 
DiffSBDD_85_num_sample_100-1

>  <s_m_source_file>  (1) 
generated__ligand_DiffSBDD_2026-05-06_prepared.sdf

>  <GenAI_Model>  (1) 
DiffSBDD

>  <Protein>  (1) 
GPCR_5HT2C

$$$$
DiffSBDD_87_num_sample_100
     RDKit          3D

  0  0  0  0  0  0  0  0  0  0999 V3000
M  V30 BEGIN CTAB
M  V30 COUNTS 53 56 0 0 1
M  V30 BEGIN ATOM
M  V30 1 C 40.061658 34.410373 61.603142 0 CFG=1
M  V30 2 C 40.347478 35.753797 60.931305 0
M  V30 3 C 38.068489 33.424562 56.752534 0
M  V30 4 C 41.372796 34.789279 63.822006 0 CFG=1
M  V30 5 C 36.367487 33.813903 60.407372 0
M  V30 6 C 38.165373 32.151213 57.603579 0
M  V30 7 C 40.680207 33.458225 63.960571 0
M  V30 8 C 40.073285 34.562467 63.100224 0 CFG=2
M  V30 9 C 37.595411 30.929806 59.844599 0 CFG=1
M  V30 10 N 41.281917 35.621431 65.032028 0 CHG=1
M  V30 11 O 36.251803 30.821424 60.253754 0
M  V30 12 C 38.915818 30.204139 61.011934 0
M  V30 13 C 39.041783 33.066186 59.736826 0
M  V30 14 C 38.235854 27.853015 57.661752 0
M  V30 15 C 38.773678 33.718963 61.090068 0 CFG=2
M  V30 16 C 38.877891 29.244030 59.940134 0
M  V30 17 F 39.877268 26.168464 58.253507 0
M  V30 18 C 39.250637 27.332828 58.542922 0
M  V30 19 C 39.578336 28.057464 59.728843 0
M  V30 20 C 37.591464 29.080756 57.999718 0
M  V30 21 C 38.014594 29.700381 59.178983 0
M  V30 22 C 37.846025 32.307731 59.116635 0 CFG=1
M  V30 23 C 37.553179 34.634870 60.920672 0
M  V30 24 O 36.685276 33.161327 59.171510 0
M  V30 25 F 38.874228 33.329628 55.697244 0
M  V30 26 H 40.901769 33.758073 61.360496 0
M  V30 27 H 39.638041 36.517596 61.248931 0
M  V30 28 H 41.350714 36.115995 61.158163 0
M  V30 29 H 40.267401 35.648488 59.853531 0
M  V30 30 H 37.067404 33.536402 56.365587 0
M  V30 31 H 38.267403 34.348909 57.281441 0
M  V30 32 H 42.267403 34.908541 63.232385 0
M  V30 33 H 35.511679 34.466222 60.233464 0
M  V30 34 H 36.054978 33.105545 61.172862 0
M  V30 35 H 39.150620 31.700681 57.481573 0
M  V30 36 H 37.467411 31.471979 57.132521 0
M  V30 37 H 40.267400 33.221464 64.937397 0
M  V30 38 H 41.132073 32.611080 63.447051 0
M  V30 39 H 39.228158 35.144836 63.453502 0
M  V30 40 H 40.362322 35.546318 65.440707 0
M  V30 41 H 41.973340 35.320131 65.702286 0
M  V30 42 H 35.743134 31.156679 59.525718 0
M  V30 43 H 39.882376 30.696843 61.089390 0
M  V30 44 H 38.549158 29.807324 61.958426 0
M  V30 45 H 39.867403 32.386080 59.853501 0
M  V30 46 H 39.404043 33.825913 59.051831 0
M  V30 47 H 37.963630 27.319591 56.762987 0
M  V30 48 H 38.512126 32.928763 61.795508 0
M  V30 49 H 40.323004 27.702457 60.426080 0
M  V30 50 H 36.816549 29.503982 57.377765 0
M  V30 51 H 37.759391 35.429602 60.203251 0
M  V30 52 H 37.293172 35.120716 61.859076 0
M  V30 53 H 41.467400 36.594738 64.799567 0
M  V30 END ATOM
M  V30 BEGIN BOND
M  V30 1 1 2 1
M  V30 2 1 6 3
M  V30 3 1 7 4
M  V30 4 1 8 1
M  V30 5 1 8 4
M  V30 6 1 8 7
M  V30 7 1 10 4
M  V30 8 1 9 11 CFG=1
M  V30 9 1 12 9
M  V30 10 1 15 1
M  V30 11 1 15 13
M  V30 12 1 16 12
M  V30 13 1 18 14
M  V30 14 1 18 17
M  V30 15 1 19 16
M  V30 16 2 19 18
M  V30 17 2 20 14
M  V30 18 1 21 9
M  V30 19 2 21 16
M  V30 20 1 21 20
M  V30 21 1 22 6 CFG=3
M  V30 22 1 22 9
M  V30 23 1 22 13
M  V30 24 1 23 5
M  V30 25 1 23 15
M  V30 26 1 24 5
M  V30 27 1 24 22
M  V30 28 1 25 3
M  V30 29 1 1 26 CFG=1
M  V30 30 1 27 2
M  V30 31 1 28 2
M  V30 32 1 29 2
M  V30 33 1 30 3
M  V30 34 1 31 3
M  V30 35 1 4 32 CFG=3
M  V30 36 1 33 5
M  V30 37 1 34 5
M  V30 38 1 35 6
M  V30 39 1 36 6
M  V30 40 1 37 7
M  V30 41 1 38 7
M  V30 42 1 8 39 CFG=1
M  V30 43 1 40 10
M  V30 44 1 41 10
M  V30 45 1 42 11
M  V30 46 1 43 12
M  V30 47 1 44 12
M  V30 48 1 45 13
M  V30 49 1 46 13
M  V30 50 1 47 14
M  V30 51 1 15 48 CFG=1
M  V30 52 1 49 19
M  V30 53 1 50 20
M  V30 54 1 51 23
M  V30 55 1 52 23
M  V30 56 1 53 10
M  V30 END BOND
M  V30 END CTAB
M  END
>  <i_epik_Tot_Q>  (1) 
1

>  <i_epik_Tot_abs_Q>  (1) 
1

>  <i_i_glide_confnum>  (1) 
77

>  <i_i_glide_lignum>  (1) 
225

>  <i_i_glide_posenum>  (1) 
232

>  <i_i_glide_rotatable_bonds>  (1) 
6

>  <i_lp_mmshare_version>  (1) 
72125

>  <i_m_source_file_index>  (1) 
88

>  <i_f3d_flags>  (1) 
0

>  <num_sample>  (1) 
100

>  <b_lp_Chiralities_Consistent>  (1) 
1

>  <r_epik_Charging_Adjusted_Penalty>  (1) 
0.053606202930604946

>  <r_epik_Ionization_Penalty>  (1) 
0.026803441766302651

>  <r_epik_Ionization_Penalty_Charging>  (1) 
0.026803101465302424

>  <r_epik_Ionization_Penalty_Neutral>  (1) 
3.4030100022513842e-07

>  <r_epik_State_Penalty>  (1) 
0.026803101465302525

>  <r_glide_ring_energy>  (1) 
0

>  <r_i_docking_score>  (1) 
-6.0489674279657253

>  <r_i_glide_ecoul>  (1) 
-6.3827153969324444

>  <r_i_glide_eff_state_penalty>  (1) 
0.026803101465302525

>  <r_i_glide_einternal>  (1) 
34.416666328584832

>  <r_i_glide_emodel>  (1) 
-28.456097471956792

>  <r_i_glide_emodel_strain>  (1) 
3.2407684405808936

>  <r_i_glide_energy>  (1) 
-32.793350077048579

>  <r_i_glide_erotb>  (1) 
0.61455583154011373

>  <r_i_glide_esite>  (1) 
-0.028862619798379664

>  <r_i_glide_evdw>  (1) 
-26.410634680116132

>  <r_i_glide_gscore>  (1) 
-6.0757705294310282

>  <r_i_glide_gscore_strain>  (1) 
0

>  <r_i_glide_hbond>  (1) 
0

>  <r_i_glide_ligand_efficiency>  (1) 
-0.24195869711862902

>  <r_i_glide_ligand_efficiency_ln>  (1) 
-1.4337865533538658

>  <r_i_glide_ligand_efficiency_sa>  (1) 
-0.70749152228974554

>  <r_i_glide_lipo>  (1) 
-2.5693161146664223

>  <r_i_glide_metal>  (1) 
-0

>  <r_i_glide_rewards>  (1) 
-1.8142085829606671

>  <r_lp_Energy>  (1) 
36.003222999999998

>  <s_epik_cmdline>  (1) 
J2VwaWtfcHl0aG9uJywgJy1waHQnLCAnMS4wJywgJy1waCcsICc3LjQnLCAnLXRuJywgJzgnLCAnLW1hJywgJzUwMCcsICctaW1hZScsICc8aW5maWxlLm1hZT4nLCAnLW9tYWUnLCAnPG91dGZpbGUubWFlPic=

>  <s_epik_input>  (1) 
W05IMl1bQ0BIXTFbQ0gyXVtDQEBIXTFbQ0BIXShbQ0gzXSlbQ0BASF0oW0NIMl1bQ0gyXU8yKVtDSDJdW0NAQF0yKFtDSDJdW0NIMl1GKVtDQF0oW09IXSkoW0NIMl0zKWMoYzM0KVtjSF1bY0hdYyhGKVtjSF00

>  <s_glide_docking_method>  (1) 
confgen

>  <s_i_glide_gridfile>  (1) 
gpcr_5ht2c_6bqh_protein_autoprepared_prepared

>  <s_lp_Force_Field>  (1) 
S-OPLS

>  <s_lp_Variant>  (1) 
DiffSBDD_87_num_sample_100-1

>  <s_m_source_file>  (1) 
generated__ligand_DiffSBDD_2026-05-06_prepared.sdf

>  <GenAI_Model>  (1) 
DiffSBDD

>  <Protein>  (1) 
GPCR_5HT2C

$$$$
DiffSBDD_1_num_sample_100
     RDKit          3D

  0  0  0  0  0  0  0  0  0  0999 V3000
M  V30 BEGIN CTAB
M  V30 COUNTS 63 66 0 0 1
M  V30 BEGIN ATOM
M  V30 1 C 38.971332 26.613673 57.820660 0
M  V30 2 C 38.209745 35.473881 61.551994 0
M  V30 3 O 37.624786 24.982895 57.072892 0
M  V30 4 C 36.529001 33.712242 60.790927 0 CFG=1
M  V30 5 C 39.293638 27.930107 58.426640 0
M  V30 6 C 37.224122 31.355011 61.039858 0
M  V30 7 C 41.695366 35.774166 63.430284 0
M  V30 8 C 38.120456 37.785031 61.475209 0
M  V30 9 N 39.393914 37.380859 62.127796 0 CHG=1
M  V30 10 C 38.208095 32.394037 57.579450 0
M  V30 11 C 38.131054 28.820101 58.896506 0
M  V30 12 C 40.757496 35.268163 62.307301 0 CFG=2
M  V30 13 C 39.350542 35.933895 62.435697 0 CFG=2
M  V30 14 C 37.371112 31.221494 59.520461 0 CFG=2
M  V30 15 C 38.634143 30.919409 57.489137 0
M  V30 16 C 37.757508 26.197055 57.629588 0
M  V30 17 N 36.200335 32.382235 61.337903 0
M  V30 18 C 37.727067 34.219513 61.586310 0
M  V30 19 O 40.450576 28.326504 58.571817 0
M  V30 20 C 40.773543 33.728690 62.290975 0
M  V30 21 C 39.045002 24.597322 56.883980 0
M  V30 22 C 36.708981 33.619899 59.249729 0
M  V30 23 C 37.630257 36.562928 60.699919 0
M  V30 24 N 37.680911 32.550737 58.947268 0 CFG=2 CHG=1
M  V30 25 O 36.082354 30.845652 59.053501 0
M  V30 26 C 40.057265 25.726843 57.409791 0
M  V30 27 C 38.458866 30.326850 58.908442 0 CFG=2
M  V30 28 O 41.120792 35.621428 64.710897 0
M  V30 29 H 35.698809 34.389026 60.997337 0
M  V30 30 H 38.185419 31.576166 61.501382 0
M  V30 31 H 36.899047 30.421397 61.465336 0
M  V30 32 H 41.926401 36.821430 63.262064 0
M  V30 33 H 42.649721 35.252729 63.453501 0
M  V30 34 H 38.241180 38.667251 60.845454 0
M  V30 35 H 37.393442 38.021432 62.253309 0
M  V30 36 H 39.579626 37.914890 62.966061 0
M  V30 37 H 39.054839 33.066238 57.436740 0
M  V30 38 H 37.467405 32.637145 56.819551 0
M  V30 39 H 37.867404 28.500711 59.902589 0
M  V30 40 H 37.255534 28.668116 58.267498 0
M  V30 41 H 41.192050 35.579132 61.355505 0
M  V30 42 H 38.973409 35.829520 63.453350 0
M  V30 43 H 39.650383 30.803271 57.111808 0
M  V30 44 H 37.973714 30.409346 56.785495 0
M  V30 45 H 36.826643 26.693109 57.853505 0
M  V30 46 H 35.339343 32.070114 60.891156 0
M  V30 47 H 38.184925 33.510845 62.253510 0
M  V30 48 H 40.288090 33.313470 63.175050 0
M  V30 49 H 40.287283 33.327924 61.402430 0
M  V30 50 H 41.795960 33.350040 62.276257 0
M  V30 51 H 39.229542 23.655660 57.403084 0
M  V30 52 H 39.211886 24.421423 55.820932 0
M  V30 53 H 35.755854 33.415932 58.759815 0
M  V30 54 H 37.064679 34.562979 58.836489 0
M  V30 55 H 38.075826 36.536595 59.707707 0
M  V30 56 H 36.544740 36.529005 60.607441 0
M  V30 57 H 35.883835 31.221434 58.178484 0
M  V30 58 H 40.667445 26.161856 56.617526 0
M  V30 59 H 40.667357 25.403834 58.253473 0
M  V30 60 H 39.376336 30.498915 59.473886 0
M  V30 61 H 41.589264 36.188236 65.310198 0
M  V30 62 H 40.141853 37.529750 61.466042 0
M  V30 63 H 38.494621 32.826494 59.475142 0
M  V30 END ATOM
M  V30 BEGIN BOND
M  V30 1 1 5 1
M  V30 2 1 9 8
M  V30 3 1 11 5
M  V30 4 1 12 7
M  V30 5 1 13 2
M  V30 6 1 13 9
M  V30 7 1 13 12
M  V30 8 1 14 6
M  V30 9 1 15 10
M  V30 10 2 16 1
M  V30 11 1 16 3
M  V30 12 1 17 4
M  V30 13 1 17 6
M  V30 14 2 18 2
M  V30 15 1 18 4
M  V30 16 2 19 5
M  V30 17 1 20 12
M  V30 18 1 21 3
M  V30 19 1 22 4
M  V30 20 1 23 2
M  V30 21 1 23 8
M  V30 22 1 24 10
M  V30 23 1 24 14
M  V30 24 1 24 22
M  V30 25 1 14 25 CFG=3
M  V30 26 1 26 1
M  V30 27 1 26 21
M  V30 28 1 27 11
M  V30 29 1 27 14
M  V30 30 1 27 15
M  V30 31 1 28 7
M  V30 32 1 4 29 CFG=3
M  V30 33 1 30 6
M  V30 34 1 31 6
M  V30 35 1 32 7
M  V30 36 1 33 7
M  V30 37 1 34 8
M  V30 38 1 35 8
M  V30 39 1 36 9
M  V30 40 1 37 10
M  V30 41 1 38 10
M  V30 42 1 39 11
M  V30 43 1 40 11
M  V30 44 1 12 41 CFG=3
M  V30 45 1 13 42 CFG=1
M  V30 46 1 43 15
M  V30 47 1 44 15
M  V30 48 1 45 16
M  V30 49 1 46 17
M  V30 50 1 47 18
M  V30 51 1 48 20
M  V30 52 1 49 20
M  V30 53 1 50 20
M  V30 54 1 51 21
M  V30 55 1 52 21
M  V30 56 1 53 22
M  V30 57 1 54 22
M  V30 58 1 55 23
M  V30 59 1 56 23
M  V30 60 1 57 25
M  V30 61 1 58 26
M  V30 62 1 59 26
M  V30 63 1 27 60 CFG=1
M  V30 64 1 61 28
M  V30 65 1 62 9
M  V30 66 1 24 63 CFG=1
M  V30 END BOND
M  V30 END CTAB
M  END
>  <i_epik_Tot_Q>  (1) 
2

>  <i_epik_Tot_abs_Q>  (1) 
2

>  <i_i_glide_confnum>  (1) 
203

>  <i_i_glide_lignum>  (1) 
15

>  <i_i_glide_posenum>  (1) 
141

>  <i_i_glide_rotatable_bonds>  (1) 
8

>  <i_lp_mmshare_version>  (1) 
72125

>  <i_m_source_file_index>  (1) 
2

>  <i_f3d_flags>  (1) 
0

>  <num_sample>  (1) 
100

>  <b_lp_Chiralities_Consistent>  (1) 
1

>  <r_epik_Charging_Adjusted_Penalty>  (1) 
2.3622130296898831

>  <r_epik_Ionization_Penalty>  (1) 
1.4312966064593899

>  <r_epik_Ionization_Penalty_Charging>  (1) 
1.1852885594971458

>  <r_epik_Ionization_Penalty_Neutral>  (1) 
0.24600804696224418

>  <r_epik_State_Penalty>  (1) 
1.176924470192737

>  <r_glide_ring_energy>  (1) 
0

>  <r_i_docking_score>  (1) 
-6.0486818812608663

>  <r_i_glide_ecoul>  (1) 
-10.213545063284236

>  <r_i_glide_eff_state_penalty>  (1) 
1.176924470192737

>  <r_i_glide_einternal>  (1) 
4.9450193064290868

>  <r_i_glide_emodel>  (1) 
-57.504313327418515

>  <r_i_glide_emodel_strain>  (1) 
1.1330613635861511

>  <r_i_glide_energy>  (1) 
-42.60811827808962

>  <r_i_glide_erotb>  (1) 
0.75687532201182384

>  <r_i_glide_esite>  (1) 
-0.12830660140468972

>  <r_i_glide_evdw>  (1) 
-32.394573214805384

>  <r_i_glide_gscore>  (1) 
-7.2256063514536031

>  <r_i_glide_gscore_strain>  (1) 
0

>  <r_i_glide_hbond>  (1) 
-0.22146314048092974

>  <r_i_glide_ligand_efficiency>  (1) 
-0.21602435290217378

>  <r_i_glide_ligand_efficiency_ln>  (1) 
-1.3962133752121142

>  <r_i_glide_ligand_efficiency_sa>  (1) 
-0.65597716767931735

>  <r_i_glide_lipo>  (1) 
-2.658838274596663

>  <r_i_glide_metal>  (1) 
-0

>  <r_i_glide_rewards>  (1) 
-1.8221132367502402

>  <r_lp_Energy>  (1) 
19.420013000000001

>  <s_epik_cmdline>  (1) 
J2VwaWtfcHl0aG9uJywgJy1waHQnLCAnMS4wJywgJy1waCcsICc3LjQnLCAnLXRuJywgJzgnLCAnLW1hJywgJzUwMCcsICctaW1hZScsICc8aW5maWxlLm1hZT4nLCAnLW9tYWUnLCAnPG91dGZpbGUubWFlPic=

>  <s_epik_input>  (1) 
W0NIMl0xW0NIMl1PW0NIXT1DMUMoPU8pW0NIMl1bQ0BIXTJbQ0gyXVtDSDJdTihbQ0BAXTIzW09IXSlbQ0gyXVtDQEBIXShbTkhdW0NIMl0zKVxbQ0hdPUM0XFtDQEBIXShbTkhdW0NIMl1bQ0gyXTQpW0NASF0oW0NIM10pW0NIMl1bT0hd

>  <s_glide_docking_method>  (1) 
confgen

>  <s_i_glide_gridfile>  (1) 
gpcr_5ht2c_6bqh_protein_autoprepared_prepared

>  <s_lp_Force_Field>  (1) 
S-OPLS

>  <s_lp_Variant>  (1) 
DiffSBDD_1_num_sample_100-9

>  <s_m_source_file>  (1) 
generated__ligand_DiffSBDD_2026-05-06_prepared.sdf

>  <GenAI_Model>  (1) 
DiffSBDD

>  <Protein>  (1) 
GPCR_5HT2C

$$$$
DiffSBDD_59_num_sample_100
     RDKit          3D

  0  0  0  0  0  0  0  0  0  0999 V3000
M  V30 BEGIN CTAB
M  V30 COUNTS 54 55 0 0 1
M  V30 BEGIN ATOM
M  V30 1 O 40.828837 36.421300 63.053332 0
M  V30 2 N 38.772931 29.580406 56.486882 0 CFG=2 CHG=1
M  V30 3 C 39.330742 30.583578 53.573574 0
M  V30 4 C 38.024567 29.530411 57.780599 0
M  V30 5 C 39.041203 35.355287 61.857159 0
M  V30 6 C 39.340941 28.368200 51.829631 0
M  V30 7 C 38.673633 28.281891 53.067553 0
M  V30 8 C 38.665094 29.395567 53.948043 0
M  V30 9 C 37.690629 33.333272 59.976448 0
M  V30 10 C 37.724797 30.778353 60.013622 0
M  V30 11 Cl 37.867034 26.821448 53.496574 0
M  V30 12 C 38.687041 30.383405 58.874668 0
M  V30 13 O 38.735442 33.621787 59.394633 0
M  V30 14 N 37.096440 34.061756 60.898215 0
M  V30 15 N 35.972213 33.551826 61.416191 0
M  V30 16 C 39.466794 36.566497 62.704457 0
M  V30 17 C 36.938097 32.071045 59.703372 0 CFG=1
M  V30 18 C 37.914363 29.327842 55.287646 0 CFG=2
M  V30 19 C 39.984640 28.722705 56.525120 0
M  V30 20 C 37.562196 35.375434 61.389367 0 CFG=2
M  V30 21 C 39.992133 30.661943 52.332967 0
M  V30 22 C 35.879139 32.430667 60.759098 0
M  V30 23 C 37.269027 36.469520 60.347969 0
M  V30 24 C 36.743789 30.312438 55.217547 0
M  V30 25 C 39.996992 29.556716 51.462058 0
M  V30 26 H 41.076232 37.101275 63.670823 0
M  V30 27 H 39.325114 31.439060 54.233368 0
M  V30 28 H 37.904394 28.498221 58.113006 0
M  V30 29 H 37.015391 29.916789 57.675208 0
M  V30 30 H 39.707186 35.291620 60.995626 0
M  V30 31 H 39.213950 34.451367 62.442741 0
M  V30 32 H 39.345402 27.520873 51.159439 0
M  V30 33 H 38.300700 30.919015 60.930178 0
M  V30 34 H 37.034306 29.959805 60.219498 0
M  V30 35 H 39.067389 31.293631 58.417125 0
M  V30 36 H 39.546661 29.856209 59.289015 0
M  V30 37 H 38.864744 36.635599 63.611558 0
M  V30 38 H 39.346254 37.499545 62.154079 0
M  V30 39 H 36.522542 32.084405 58.698292 0
M  V30 40 H 37.482454 28.342451 55.440534 0
M  V30 41 H 39.718536 27.665400 56.494595 0
M  V30 42 H 40.648407 28.930740 55.686703 0
M  V30 43 H 40.565484 28.892518 57.431399 0
M  V30 44 H 36.955841 35.621761 62.260774 0
M  V30 45 H 40.495641 31.574711 52.047528 0
M  V30 46 H 35.058397 31.739435 60.945972 0
M  V30 47 H 37.477609 37.466265 60.735906 0
M  V30 48 H 37.867405 36.330356 59.452858 0
M  V30 49 H 36.222506 36.450793 60.044116 0
M  V30 50 H 36.267390 30.315438 54.253501 0
M  V30 51 H 35.942601 30.021435 55.892362 0
M  V30 52 H 37.067292 31.335116 55.424033 0
M  V30 53 H 40.505095 29.621480 50.511307 0
M  V30 54 H 39.090172 30.534803 56.387992 0
M  V30 END ATOM
M  V30 BEGIN BOND
M  V30 1 1 4 2
M  V30 2 2 7 6
M  V30 3 2 8 3
M  V30 4 1 8 7
M  V30 5 1 11 7
M  V30 6 1 12 4
M  V30 7 1 12 10
M  V30 8 2 13 9
M  V30 9 1 14 9
M  V30 10 1 15 14
M  V30 11 1 16 1
M  V30 12 1 16 5
M  V30 13 1 17 9
M  V30 14 1 17 10
M  V30 15 1 18 2
M  V30 16 1 18 8
M  V30 17 1 19 2
M  V30 18 1 20 5
M  V30 19 1 20 14
M  V30 20 1 21 3
M  V30 21 2 22 15
M  V30 22 1 22 17
M  V30 23 1 23 20
M  V30 24 1 24 18
M  V30 25 1 25 6
M  V30 26 2 25 21
M  V30 27 1 26 1
M  V30 28 1 27 3
M  V30 29 1 28 4
M  V30 30 1 29 4
M  V30 31 1 30 5
M  V30 32 1 31 5
M  V30 33 1 32 6
M  V30 34 1 33 10
M  V30 35 1 34 10
M  V30 36 1 35 12
M  V30 37 1 36 12
M  V30 38 1 37 16
M  V30 39 1 38 16
M  V30 40 1 17 39 CFG=3
M  V30 41 1 18 40 CFG=1
M  V30 42 1 41 19
M  V30 43 1 42 19
M  V30 44 1 43 19
M  V30 45 1 20 44 CFG=1
M  V30 46 1 45 21
M  V30 47 1 46 22
M  V30 48 1 47 23
M  V30 49 1 48 23
M  V30 50 1 49 23
M  V30 51 1 50 24
M  V30 52 1 51 24
M  V30 53 1 52 24
M  V30 54 1 53 25
M  V30 55 1 2 54 CFG=3
M  V30 END BOND
M  V30 END CTAB
M  END
>  <i_epik_Tot_Q>  (1) 
1

>  <i_epik_Tot_abs_Q>  (1) 
1

>  <i_i_glide_confnum>  (1) 
332

>  <i_i_glide_lignum>  (1) 
151

>  <i_i_glide_posenum>  (1) 
91

>  <i_i_glide_rotatable_bonds>  (1) 
10

>  <i_lp_mmshare_version>  (1) 
72125

>  <i_m_source_file_index>  (1) 
60

>  <i_f3d_flags>  (1) 
0

>  <num_sample>  (1) 
100

>  <b_lp_Chiralities_Consistent>  (1) 
1

>  <r_epik_Charging_Adjusted_Penalty>  (1) 
0.90698054963472508

>  <r_epik_Ionization_Penalty>  (1) 
0.11890783771570668

>  <r_epik_Ionization_Penalty_Charging>  (1) 
0.11890771087092902

>  <r_epik_Ionization_Penalty_Neutral>  (1) 
1.2684477765112781e-07

>  <r_epik_State_Penalty>  (1) 
0.78807283876379608

>  <r_glide_ring_energy>  (1) 
0

>  <r_i_docking_score>  (1) 
-6.0470473770247324

>  <r_i_glide_ecoul>  (1) 
-4.4172266041751254

>  <r_i_glide_eff_state_penalty>  (1) 
0.78807283876379608

>  <r_i_glide_einternal>  (1) 
2.2321322895287938

>  <r_i_glide_emodel>  (1) 
-64.228771880649333

>  <r_i_glide_emodel_strain>  (1) 
0.16951047477214587

>  <r_i_glide_energy>  (1) 
-44.807997847653539

>  <r_i_glide_erotb>  (1) 
1.1440711446639862

>  <r_i_glide_esite>  (1) 
-0.025059393398165736

>  <r_i_glide_evdw>  (1) 
-40.390771243478412

>  <r_i_glide_gscore>  (1) 
-6.8351202157885282

>  <r_i_glide_gscore_strain>  (1) 
0

>  <r_i_glide_hbond>  (1) 
-0.32000000000000001

>  <r_i_glide_ligand_efficiency>  (1) 
-0.24188189508098928

>  <r_i_glide_ligand_efficiency_ln>  (1) 
-1.433331443741567

>  <r_i_glide_ligand_efficiency_sa>  (1) 
-0.70726695176935617

>  <r_i_glide_lipo>  (1) 
-3.1602489026034366

>  <r_i_glide_metal>  (1) 
-0

>  <r_i_glide_rewards>  (1) 
-1.7917605116507214

>  <r_lp_Energy>  (1) 
20.477868999999998

>  <r_lp_tautomer_probability>  (1) 
0.26444745842670125

>  <s_epik_Chemistry_Notes>  (1) 
This compound has an imine and may undergo hydrolysis.

>  <s_epik_cmdline>  (1) 
J2VwaWtfcHl0aG9uJywgJy1waHQnLCAnMS4wJywgJy1waCcsICc3LjQnLCAnLXRuJywgJzgnLCAnLW1hJywgJzUwMCcsICctaW1hZScsICc8aW5maWxlLm1hZT4nLCAnLW9tYWUnLCAnPG91dGZpbGUubWFlPic=

>  <s_epik_input>  (1) 
W09IXVtDSDJdW0NIMl1bQ0BASF0oW0NIM10pTihDMT1PKU49W0NIXVtDQEBIXTFbQ0gyXVtDSDJdW0NIMl1OKFtDSDNdKVtDQEBIXShbQ0gzXSljMltjSF1bY0hdW2NIXVtjSF1jMkNs

>  <s_glide_docking_method>  (1) 
confgen

>  <s_i_glide_gridfile>  (1) 
gpcr_5ht2c_6bqh_protein_autoprepared_prepared

>  <s_lp_Force_Field>  (1) 
S-OPLS

>  <s_lp_Variant>  (1) 
DiffSBDD_59_num_sample_100-4

>  <s_m_source_file>  (1) 
generated__ligand_DiffSBDD_2026-05-06_prepared.sdf

>  <GenAI_Model>  (1) 
DiffSBDD

>  <Protein>  (1) 
GPCR_5HT2C

$$$$
DiffSBDD_30_num_sample_100
     RDKit          3D

  0  0  0  0  0  0  0  0  0  0999 V3000
M  V30 BEGIN CTAB
M  V30 COUNTS 70 73 0 0 1
M  V30 BEGIN ATOM
M  V30 1 C 43.951537 29.664490 64.478908 0
M  V30 2 C 41.309654 33.322477 64.068914 0 CFG=1
M  V30 3 O 42.192153 29.300669 66.120847 0
M  V30 4 C 39.467470 29.969856 52.521227 0
M  V30 5 C 39.334285 28.928598 51.585392 0
M  V30 6 N 41.492069 30.355368 63.141172 0
M  V30 7 C 38.936655 27.349885 53.397970 0
M  V30 8 C 41.756846 31.023555 64.416310 0 CFG=1
M  V30 9 O 42.621775 33.621727 66.673538 0
M  V30 10 O 40.972208 32.717610 61.740051 0
M  V30 11 C 38.149648 26.057931 57.099581 0
M  V30 12 C 41.067687 33.621405 62.572875 0
M  V30 13 C 40.940783 35.087194 62.162567 0
M  V30 14 C 37.020623 25.059427 57.158339 0
M  V30 15 C 37.894381 28.608904 56.736498 0 CFG=2
M  V30 16 C 40.161283 29.084052 60.742213 0
M  V30 17 N 40.667052 28.444594 61.976314 0 CHG=1
M  V30 18 C 38.257389 24.755259 56.343918 0
M  V30 19 C 39.895202 28.816547 58.203021 0 CFG=1
M  V30 20 C 39.066924 27.621707 52.022551 0
M  V30 21 C 38.351162 28.823112 58.165709 0
M  V30 22 N 37.867486 27.226360 56.221576 0 CFG=1 CHG=1
M  V30 23 C 39.330894 29.708627 53.897018 0
M  V30 24 C 40.524237 29.267180 63.193256 0
M  V30 25 C 39.067457 28.390159 54.349881 0
M  V30 26 C 40.473263 28.232338 59.503996 0
M  V30 27 C 41.667916 34.472016 66.075952 0
M  V30 28 C 42.794237 30.271678 65.292038 0 CFG=2
M  V30 29 C 38.958228 28.095022 55.816783 0 CFG=1
M  V30 30 O 39.466306 30.731539 54.792700 0
M  V30 31 S 40.509385 27.921919 56.741908 0
M  V30 32 O 42.267362 32.304068 64.190227 0
M  V30 33 O 41.741164 34.499901 64.683660 0
M  V30 34 H 44.422288 30.421245 63.853600 0
M  V30 35 H 44.721943 29.264356 65.139245 0
M  V30 36 H 43.623110 28.851962 63.830364 0
M  V30 37 H 40.359369 33.037213 64.521440 0
M  V30 38 H 42.042807 28.516909 65.617105 0
M  V30 39 H 39.675066 30.975347 52.182270 0
M  V30 40 H 39.437267 29.134510 50.529685 0
M  V30 41 H 41.171831 31.074504 62.489307 0
M  V30 42 H 38.742235 26.340643 53.724786 0
M  V30 43 H 40.830747 31.120068 64.987108 0
M  V30 44 H 42.654032 33.816065 67.598243 0
M  V30 45 H 38.768174 26.197297 57.981233 0
M  V30 46 H 40.130009 35.564414 62.713062 0
M  V30 47 H 41.864575 35.625826 62.373631 0
M  V30 48 H 40.729707 35.170240 61.096300 0
M  V30 49 H 36.892589 24.505989 58.085854 0
M  V30 50 H 36.102256 25.278001 56.616793 0
M  V30 51 H 37.081362 29.221450 56.345224 0
M  V30 52 H 40.608677 30.070787 60.616610 0
M  V30 53 H 39.086169 29.234495 60.847182 0
M  V30 54 H 40.144685 27.592283 62.123027 0
M  V30 55 H 38.151684 24.757645 55.261259 0
M  V30 56 H 38.956400 24.021424 56.738684 0
M  V30 57 H 40.242253 29.841402 58.077741 0
M  V30 58 H 38.966094 26.821599 51.301744 0
M  V30 59 H 37.905797 28.076591 58.821178 0
M  V30 60 H 37.977946 29.787356 58.513102 0
M  V30 61 H 39.509194 29.658188 63.273807 0
M  V30 62 H 40.698919 28.627513 64.058085 0
M  V30 63 H 40.093149 27.221493 59.645999 0
M  V30 64 H 41.556207 28.138027 59.402702 0
M  V30 65 H 41.872622 35.483505 66.429610 0
M  V30 66 H 40.675170 34.181353 66.424144 0
M  V30 67 H 43.210680 31.008832 65.979896 0
M  V30 68 H 39.291295 30.515083 55.693302 0
M  V30 69 H 41.642924 28.200349 61.864165 0
M  V30 70 H 37.203122 27.083137 55.473975 0
M  V30 END ATOM
M  V30 BEGIN BOND
M  V30 1 1 5 4
M  V30 2 1 8 6
M  V30 3 1 12 2
M  V30 4 2 12 10
M  V30 5 1 13 12
M  V30 6 1 14 11
M  V30 7 1 17 16
M  V30 8 1 18 11
M  V30 9 1 18 14
M  V30 10 2 20 5
M  V30 11 1 20 7
M  V30 12 1 21 15
M  V30 13 1 21 19
M  V30 14 1 22 11
M  V30 15 1 22 15
M  V30 16 2 23 4
M  V30 17 1 24 6
M  V30 18 1 24 17
M  V30 19 2 25 7
M  V30 20 1 25 23
M  V30 21 1 26 16
M  V30 22 1 26 19
M  V30 23 1 27 9
M  V30 24 1 28 1
M  V30 25 1 28 3
M  V30 26 1 28 8
M  V30 27 1 29 15
M  V30 28 1 29 22
M  V30 29 1 29 25 CFG=3
M  V30 30 1 30 23
M  V30 31 1 31 19
M  V30 32 1 31 29
M  V30 33 1 32 2
M  V30 34 1 32 8
M  V30 35 1 33 2
M  V30 36 1 33 27
M  V30 37 1 34 1
M  V30 38 1 35 1
M  V30 39 1 36 1
M  V30 40 1 2 37 CFG=1
M  V30 41 1 38 3
M  V30 42 1 39 4
M  V30 43 1 40 5
M  V30 44 1 41 6
M  V30 45 1 42 7
M  V30 46 1 8 43 CFG=1
M  V30 47 1 44 9
M  V30 48 1 45 11
M  V30 49 1 46 13
M  V30 50 1 47 13
M  V30 51 1 48 13
M  V30 52 1 49 14
M  V30 53 1 50 14
M  V30 54 1 15 51 CFG=3
M  V30 55 1 52 16
M  V30 56 1 53 16
M  V30 57 1 54 17
M  V30 58 1 55 18
M  V30 59 1 56 18
M  V30 60 1 19 57 CFG=3
M  V30 61 1 58 20
M  V30 62 1 59 21
M  V30 63 1 60 21
M  V30 64 1 61 24
M  V30 65 1 62 24
M  V30 66 1 63 26
M  V30 67 1 64 26
M  V30 68 1 65 27
M  V30 69 1 66 27
M  V30 70 1 28 67 CFG=1
M  V30 71 1 68 30
M  V30 72 1 69 17
M  V30 73 1 22 70 CFG=3
M  V30 END BOND
M  V30 END CTAB
M  END
>  <i_epik_Tot_Q>  (1) 
2

>  <i_epik_Tot_abs_Q>  (1) 
2

>  <i_i_glide_confnum>  (1) 
5325

>  <i_i_glide_lignum>  (1) 
81

>  <i_i_glide_posenum>  (1) 
303

>  <i_i_glide_rotatable_bonds>  (1) 
17

>  <i_lp_mmshare_version>  (1) 
72125

>  <i_m_source_file_index>  (1) 
31

>  <i_f3d_flags>  (1) 
0

>  <num_sample>  (1) 
100

>  <b_lp_Chiralities_Consistent>  (1) 
1

>  <r_epik_Charging_Adjusted_Penalty>  (1) 
1.979093595035226

>  <r_epik_Ionization_Penalty>  (1) 
0.79989620662071081

>  <r_epik_Ionization_Penalty_Charging>  (1) 
0.66086891892205935

>  <r_epik_Ionization_Penalty_Neutral>  (1) 
0.13902728769865147

>  <r_epik_State_Penalty>  (1) 
1.3182246761131666

>  <r_glide_ring_energy>  (1) 
0

>  <r_i_docking_score>  (1) 
-6.043442886831901

>  <r_i_glide_ecoul>  (1) 
-3.4551375814110208

>  <r_i_glide_eff_state_penalty>  (1) 
1.3182246761131666

>  <r_i_glide_einternal>  (1) 
15.747955191835617

>  <r_i_glide_emodel>  (1) 
-67.827294774752374

>  <r_i_glide_emodel_strain>  (1) 
1.6377593897640352

>  <r_i_glide_energy>  (1) 
-48.677442296758556

>  <r_i_glide_erotb>  (1) 
1.1283805066766976

>  <r_i_glide_esite>  (1) 
-0.039498006102992145

>  <r_i_glide_evdw>  (1) 
-45.222304715347533

>  <r_i_glide_gscore>  (1) 
-7.3616675629450681

>  <r_i_glide_gscore_strain>  (1) 
0

>  <r_i_glide_hbond>  (1) 
-0.057108052075148116

>  <r_i_glide_ligand_efficiency>  (1) 
-0.18313463293430002

>  <r_i_glide_ligand_efficiency_ln>  (1) 
-1.3440304067588196

>  <r_i_glide_ligand_efficiency_sa>  (1) 
-0.5874106221479517

>  <r_i_glide_lipo>  (1) 
-4.1131460815276393

>  <r_i_glide_metal>  (1) 
-0

>  <r_i_glide_rewards>  (1) 
-1.5009100569369569

>  <r_lp_Energy>  (1) 
32.029553999999997

>  <r_lp_tautomer_probability>  (1) 
0.99999996999736518

>  <s_epik_Chemistry_Notes>  (1) 
This compound contains an acetal/aminal-like group ( X-CH(R)-Y where X, Y are N, S, or O) that may be acid/base labile, releasing an aldehyde.

>  <s_epik_cmdline>  (1) 
J2VwaWtfcHl0aG9uJywgJy1waHQnLCAnMS4wJywgJy1waCcsICc3LjQnLCAnLXRuJywgJzgnLCAnLW1hJywgJzUwMCcsICctaW1hZScsICc8aW5maWxlLm1hZT4nLCAnLW9tYWUnLCAnPG91dGZpbGUubWFlPic=

>  <s_epik_input>  (1) 
W09IXVtDSDJdT1tDQEBIXShDKD1PKVtDSDNdKU9bQ0BIXShbQ0BIXShbQ0gzXSlbT0hdKVtOSF1bQ0gyXVtOSF1bQ0gyXVtDSDJdW0NAQEhdKFMxKVtDSDJdW0NASF0oTjJbQ0hdM1tDSDJdW0NIMl0zKVtDQEBdMTJjNFtjSF1bY0hdW2NIXVtjSF1jNFtPSF0=

>  <s_glide_docking_method>  (1) 
confgen

>  <s_i_glide_gridfile>  (1) 
gpcr_5ht2c_6bqh_protein_autoprepared_prepared

>  <s_lp_Force_Field>  (1) 
S-OPLS

>  <s_lp_Variant>  (1) 
DiffSBDD_30_num_sample_100-3

>  <s_m_source_file>  (1) 
generated__ligand_DiffSBDD_2026-05-06_prepared.sdf

>  <GenAI_Model>  (1) 
DiffSBDD

>  <Protein>  (1) 
GPCR_5HT2C

$$$$
DiffSBDD_1_num_sample_100
     RDKit          3D

  0  0  0  0  0  0  0  0  0  0999 V3000
M  V30 BEGIN CTAB
M  V30 COUNTS 63 66 0 0 1
M  V30 BEGIN ATOM
M  V30 1 C 38.764296 26.426818 56.798192 0
M  V30 2 C 38.411908 34.111320 60.684366 0
M  V30 3 O 37.871445 24.487104 57.480217 0
M  V30 4 C 38.170491 32.340125 58.879779 0 CFG=1
M  V30 5 C 39.552666 27.671125 56.968476 0
M  V30 6 C 37.631672 30.147889 58.089380 0
M  V30 7 C 34.855322 33.819221 59.473945 0
M  V30 8 C 38.491102 36.156913 61.779103 0
M  V30 9 N 37.094378 35.897547 61.354048 0 CHG=1
M  V30 10 C 38.630098 32.213895 55.102157 0
M  V30 11 C 39.653407 28.636353 55.780590 0
M  V30 12 C 35.752041 33.878292 60.738148 0 CFG=2
M  V30 13 C 37.038245 34.719707 60.447804 0 CFG=2
M  V30 14 C 38.041894 30.525409 56.649509 0 CFG=2
M  V30 15 C 39.678690 31.088483 54.966491 0
M  V30 16 C 38.608133 25.575126 57.758235 0
M  V30 17 N 38.400332 30.911356 59.060922 0
M  V30 18 C 38.909769 33.074283 59.980423 0
M  V30 19 O 40.123684 27.955987 58.021447 0
M  V30 20 C 35.968296 32.508246 61.420805 0
M  V30 21 C 37.511033 24.739823 56.061259 0
M  V30 22 C 38.581966 32.796194 57.469115 0
M  V30 23 C 39.195609 34.803229 61.754467 0
M  V30 24 N 37.945026 31.983519 56.392708 0 CFG=1 CHG=1
M  V30 25 O 37.065912 30.021435 55.765865 0
M  V30 26 C 38.125929 26.121506 55.514295 0
M  V30 27 C 39.439031 30.122676 56.147174 0 CFG=2
M  V30 28 O 33.616914 33.221430 59.745882 0
M  V30 29 H 37.115264 32.527877 58.965283 0
M  V30 30 H 37.741085 29.081265 58.270832 0
M  V30 31 H 36.570092 30.353500 58.239742 0
M  V30 32 H 35.300214 33.267805 58.653641 0
M  V30 33 H 34.667319 34.821469 59.087554 0
M  V30 34 H 38.535955 36.636721 62.757902 0
M  V30 35 H 38.953254 36.827287 61.054107 0
M  V30 36 H 36.684782 36.715098 60.924436 0
M  V30 37 H 39.067372 33.211233 55.053487 0
M  V30 38 H 37.898038 32.143623 54.296054 0
M  V30 39 H 38.990411 28.360733 54.963480 0
M  V30 40 H 40.667472 28.525393 55.415705 0
M  V30 41 H 35.168809 34.421442 61.479837 0
M  V30 42 H 37.031002 35.101872 59.425075 0
M  V30 43 H 40.693405 31.484413 54.996178 0
M  V30 44 H 39.556051 30.585041 54.006685 0
M  V30 45 H 38.992969 25.621412 58.766694 0
M  V30 46 H 38.108057 30.633591 59.993231 0
M  V30 47 H 39.905099 32.718828 60.204258 0
M  V30 48 H 36.299149 31.730714 60.738275 0
M  V30 49 H 36.690773 32.576390 62.234306 0
M  V30 50 H 35.035359 32.147371 61.853482 0
M  V30 51 H 37.865125 23.906923 55.452102 0
M  V30 52 H 36.423627 24.753258 55.973898 0
M  V30 53 H 38.291373 33.837376 57.323635 0
M  V30 54 H 39.666090 32.765626 57.371169 0
M  V30 55 H 39.067371 34.270236 62.696323 0
M  V30 56 H 40.260329 34.876188 61.528748 0
M  V30 57 H 36.237082 30.427516 56.013092 0
M  V30 58 H 37.356068 26.842638 55.239711 0
M  V30 59 H 38.848368 25.977228 54.709805 0
M  V30 60 H 40.144794 30.381312 56.934872 0
M  V30 61 H 33.088419 33.825463 60.249551 0
M  V30 62 H 36.571909 35.664442 62.187304 0
M  V30 63 H 36.954927 32.231949 56.353410 0
M  V30 END ATOM
M  V30 BEGIN BOND
M  V30 1 1 5 1
M  V30 2 1 9 8
M  V30 3 1 11 5
M  V30 4 1 12 7
M  V30 5 1 13 2
M  V30 6 1 13 9
M  V30 7 1 13 12
M  V30 8 1 14 6
M  V30 9 1 15 10
M  V30 10 2 16 1
M  V30 11 1 16 3
M  V30 12 1 17 4
M  V30 13 1 17 6
M  V30 14 2 18 2
M  V30 15 1 18 4
M  V30 16 2 19 5
M  V30 17 1 20 12
M  V30 18 1 21 3
M  V30 19 1 22 4
M  V30 20 1 23 2
M  V30 21 1 23 8
M  V30 22 1 24 10
M  V30 23 1 24 14
M  V30 24 1 24 22
M  V30 25 1 14 25 CFG=3
M  V30 26 1 26 1
M  V30 27 1 26 21
M  V30 28 1 27 11
M  V30 29 1 27 14
M  V30 30 1 27 15
M  V30 31 1 28 7
M  V30 32 1 4 29 CFG=1
M  V30 33 1 30 6
M  V30 34 1 31 6
M  V30 35 1 32 7
M  V30 36 1 33 7
M  V30 37 1 34 8
M  V30 38 1 35 8
M  V30 39 1 36 9
M  V30 40 1 37 10
M  V30 41 1 38 10
M  V30 42 1 39 11
M  V30 43 1 40 11
M  V30 44 1 12 41 CFG=1
M  V30 45 1 13 42 CFG=3
M  V30 46 1 43 15
M  V30 47 1 44 15
M  V30 48 1 45 16
M  V30 49 1 46 17
M  V30 50 1 47 18
M  V30 51 1 48 20
M  V30 52 1 49 20
M  V30 53 1 50 20
M  V30 54 1 51 21
M  V30 55 1 52 21
M  V30 56 1 53 22
M  V30 57 1 54 22
M  V30 58 1 55 23
M  V30 59 1 56 23
M  V30 60 1 57 25
M  V30 61 1 58 26
M  V30 62 1 59 26
M  V30 63 1 27 60 CFG=1
M  V30 64 1 61 28
M  V30 65 1 62 9
M  V30 66 1 24 63 CFG=3
M  V30 END BOND
M  V30 END CTAB
M  END
>  <i_epik_Tot_Q>  (1) 
2

>  <i_epik_Tot_abs_Q>  (1) 
2

>  <i_i_glide_confnum>  (1) 
80

>  <i_i_glide_lignum>  (1) 
18

>  <i_i_glide_posenum>  (1) 
235

>  <i_i_glide_rotatable_bonds>  (1) 
8

>  <i_lp_mmshare_version>  (1) 
72125

>  <i_m_source_file_index>  (1) 
2

>  <i_f3d_flags>  (1) 
0

>  <num_sample>  (1) 
100

>  <b_lp_Chiralities_Consistent>  (1) 
1

>  <r_epik_Charging_Adjusted_Penalty>  (1) 
2.3622130296898831

>  <r_epik_Ionization_Penalty>  (1) 
1.4312966064593899

>  <r_epik_Ionization_Penalty_Charging>  (1) 
1.1852885594971458

>  <r_epik_Ionization_Penalty_Neutral>  (1) 
0.24600804696224418

>  <r_epik_State_Penalty>  (1) 
1.176924470192737

>  <r_glide_ring_energy>  (1) 
0

>  <r_i_docking_score>  (1) 
-6.0421534497196454

>  <r_i_glide_ecoul>  (1) 
-8.7773112044672938

>  <r_i_glide_eff_state_penalty>  (1) 
1.176924470192737

>  <r_i_glide_einternal>  (1) 
25.12198896228815

>  <r_i_glide_emodel>  (1) 
-55.845411431017496

>  <r_i_glide_emodel_strain>  (1) 
0.81093885637083929

>  <r_i_glide_energy>  (1) 
-42.463608732013512

>  <r_i_glide_erotb>  (1) 
0.75687532201182384

>  <r_i_glide_esite>  (1) 
-0.18504913727481356

>  <r_i_glide_evdw>  (1) 
-33.686297527546216

>  <r_i_glide_gscore>  (1) 
-7.2190779199123822

>  <r_i_glide_gscore_strain>  (1) 
0

>  <r_i_glide_hbond>  (1) 
-0.42870171972783355

>  <r_i_glide_ligand_efficiency>  (1) 
-0.21579119463284449

>  <r_i_glide_ligand_efficiency_ln>  (1) 
-1.3947064215293212

>  <r_i_glide_ligand_efficiency_sa>  (1) 
-0.65526916184997031

>  <r_i_glide_lipo>  (1) 
-2.728915289671773

>  <r_i_glide_metal>  (1) 
-0

>  <r_i_glide_rewards>  (1) 
-1.6323755382023821

>  <r_lp_Energy>  (1) 
23.60812

>  <s_epik_cmdline>  (1) 
J2VwaWtfcHl0aG9uJywgJy1waHQnLCAnMS4wJywgJy1waCcsICc3LjQnLCAnLXRuJywgJzgnLCAnLW1hJywgJzUwMCcsICctaW1hZScsICc8aW5maWxlLm1hZT4nLCAnLW9tYWUnLCAnPG91dGZpbGUubWFlPic=

>  <s_epik_input>  (1) 
W0NIMl0xW0NIMl1PW0NIXT1DMUMoPU8pW0NIMl1bQ0BIXTJbQ0gyXVtDSDJdTihbQ0BAXTIzW09IXSlbQ0gyXVtDQEBIXShbTkhdW0NIMl0zKS9bQ0hdPUM0XFtDQEBIXShbTkhdW0NIMl1bQ0gyXTQpW0NASF0oW0NIM10pW0NIMl1bT0hd

>  <s_glide_docking_method>  (1) 
confgen

>  <s_i_glide_gridfile>  (1) 
gpcr_5ht2c_6bqh_protein_autoprepared_prepared

>  <s_lp_Force_Field>  (1) 
S-OPLS

>  <s_lp_Variant>  (1) 
DiffSBDD_1_num_sample_100-12

>  <s_m_source_file>  (1) 
generated__ligand_DiffSBDD_2026-05-06_prepared.sdf

>  <GenAI_Model>  (1) 
DiffSBDD

>  <Protein>  (1) 
GPCR_5HT2C

$$$$
DiffSBDD_15_num_sample_100
     RDKit          3D

  0  0  0  0  0  0  0  0  0  0999 V3000
M  V30 BEGIN CTAB
M  V30 COUNTS 74 79 0 0 1
M  V30 BEGIN ATOM
M  V30 1 C 38.789472 31.288982 60.012650 0
M  V30 2 S 38.267407 31.817936 55.927533 0
M  V30 3 N 40.667338 32.174359 65.674561 0
M  V30 4 C 40.184515 28.549712 50.715322 0
M  V30 5 C 41.080435 35.211819 65.083958 0
M  V30 6 C 42.842076 30.725018 67.379857 0
M  V30 7 S 41.126044 29.011798 63.525961 0
M  V30 8 S 41.509855 34.039397 63.763255 0
M  V30 9 O 40.667388 27.881066 64.340813 0
M  V30 10 C 38.863806 29.057798 53.314583 0
M  V30 11 C 39.490881 30.119629 52.770410 0
M  V30 12 C 38.682974 30.976611 57.497167 0 CFG=1
M  V30 13 C 41.455667 30.203402 67.034142 0 CFG=1
M  V30 14 N 38.371966 29.385316 54.564017 0
M  V30 15 C 42.254619 35.506061 66.012555 0
M  V30 16 C 42.667379 34.276065 66.849392 0
M  V30 17 C 40.821657 30.688219 65.729368 0 CFG=2
M  V30 18 C 39.736953 28.288142 58.979445 0
M  V30 19 S 40.267292 30.297375 51.225200 0
M  V30 20 C 38.676908 27.709272 52.702791 0
M  V30 21 N 41.866096 31.439696 63.945713 0
M  V30 22 C 38.378531 29.817314 60.256108 0 CFG=2
M  V30 23 N 41.427601 28.758971 67.162868 0
M  V30 24 O 38.778449 33.183413 58.545453 0
M  V30 25 C 38.895773 27.808366 51.168970 0
M  V30 26 C 39.753822 29.817557 62.527722 0
M  V30 27 C 38.274533 31.873172 58.687276 0 CFG=2
M  V30 28 N 41.656532 30.272105 64.551221 0
M  V30 29 C 39.306282 29.049464 61.251564 0 CFG=2
M  V30 30 C 40.590472 29.539037 68.054840 0
M  V30 31 C 41.286009 32.439282 64.591291 0
M  V30 32 C 40.422492 28.563557 60.321831 0
M  V30 33 O 42.267150 28.798709 62.653504 0
M  V30 34 C 38.718805 30.679828 54.664863 0
M  V30 35 N 38.432404 28.989515 59.018916 0 CFG=1 CHG=1
M  V30 36 O 39.445424 31.179895 53.618538 0
M  V30 37 C 37.996154 29.618332 57.740171 0
M  V30 38 H 39.867406 31.374205 60.048532 0
M  V30 39 H 38.425642 31.903717 60.837759 0
M  V30 40 H 40.267266 28.515183 49.631895 0
M  V30 41 H 41.057989 28.055761 51.131105 0
M  V30 42 H 40.738930 36.135153 64.615595 0
M  V30 43 H 40.267505 34.833503 65.689129 0
M  V30 44 H 42.777895 31.750327 67.732992 0
M  V30 45 H 43.296418 30.136036 68.177248 0
M  V30 46 H 43.501305 30.689169 66.512328 0
M  V30 47 H 39.759277 30.821979 57.453777 0
M  V30 48 H 43.067391 35.879336 65.402046 0
M  V30 49 H 41.966325 36.332613 66.659847 0
M  V30 50 H 43.466703 34.421404 67.568283 0
M  V30 51 H 41.817791 33.883566 67.407407 0
M  V30 52 H 43.065768 33.492390 66.209506 0
M  V30 53 H 39.832502 30.234786 65.632061 0
M  V30 54 H 40.368465 28.610836 58.150269 0
M  V30 55 H 39.548272 27.221126 58.850881 0
M  V30 56 H 39.388668 27.001361 53.127333 0
M  V30 57 H 37.679109 27.319808 52.906323 0
M  V30 58 H 42.394047 31.517261 63.088770 0
M  V30 59 H 37.349450 29.857215 60.603802 0
M  V30 60 H 42.224961 28.304073 67.580313 0
M  V30 61 H 38.417959 33.543800 57.746080 0
M  V30 62 H 38.048118 28.334070 50.738173 0
M  V30 63 H 38.878778 26.809210 50.734569 0
M  V30 64 H 40.126426 30.793420 62.234419 0
M  V30 65 H 38.918931 30.021488 63.196443 0
M  V30 66 H 37.185790 31.953346 58.723571 0
M  V30 67 H 38.796156 28.146015 61.590882 0
M  V30 68 H 40.875247 29.600582 69.104169 0
M  V30 69 H 39.519883 29.512896 67.854779 0
M  V30 70 H 41.164500 29.348053 60.183997 0
M  V30 71 H 40.935302 27.677294 60.698048 0
M  V30 72 H 38.199574 28.895919 56.954789 0
M  V30 73 H 36.914795 29.756804 57.763059 0
M  V30 74 H 37.767849 28.246090 59.180091 0
M  V30 END ATOM
M  V30 BEGIN BOND
M  V30 1 1 8 5
M  V30 2 2 9 7
M  V30 3 2 11 10
M  V30 4 1 12 2
M  V30 5 1 13 6 CFG=1
M  V30 6 1 14 10
M  V30 7 1 15 5
M  V30 8 1 16 15
M  V30 9 1 17 3
M  V30 10 1 17 13
M  V30 11 1 19 4
M  V30 12 1 19 11
M  V30 13 1 20 10
M  V30 14 1 22 1
M  V30 15 1 23 13
M  V30 16 1 25 4
M  V30 17 1 25 20
M  V30 18 1 26 7
M  V30 19 1 27 1
M  V30 20 1 27 12
M  V30 21 1 27 24
M  V30 22 1 28 7
M  V30 23 1 28 17
M  V30 24 1 28 21
M  V30 25 1 29 22
M  V30 26 1 29 26
M  V30 27 1 30 13
M  V30 28 1 30 23
M  V30 29 2 31 3
M  V30 30 1 31 8
M  V30 31 1 31 21
M  V30 32 1 32 18
M  V30 33 1 32 29
M  V30 34 2 33 7
M  V30 35 1 34 2
M  V30 36 2 34 14
M  V30 37 1 35 18
M  V30 38 1 35 22
M  V30 39 1 36 11
M  V30 40 1 36 34
M  V30 41 1 37 12
M  V30 42 1 37 35
M  V30 43 1 38 1
M  V30 44 1 39 1
M  V30 45 1 40 4
M  V30 46 1 41 4
M  V30 47 1 42 5
M  V30 48 1 43 5
M  V30 49 1 44 6
M  V30 50 1 45 6
M  V30 51 1 46 6
M  V30 52 1 12 47 CFG=3
M  V30 53 1 48 15
M  V30 54 1 49 15
M  V30 55 1 50 16
M  V30 56 1 51 16
M  V30 57 1 52 16
M  V30 58 1 17 53 CFG=3
M  V30 59 1 54 18
M  V30 60 1 55 18
M  V30 61 1 56 20
M  V30 62 1 57 20
M  V30 63 1 58 21
M  V30 64 1 22 59 CFG=1
M  V30 65 1 60 23
M  V30 66 1 61 24
M  V30 67 1 62 25
M  V30 68 1 63 25
M  V30 69 1 64 26
M  V30 70 1 65 26
M  V30 71 1 27 66 CFG=1
M  V30 72 1 29 67 CFG=1
M  V30 73 1 68 30
M  V30 74 1 69 30
M  V30 75 1 70 32
M  V30 76 1 71 32
M  V30 77 1 72 37
M  V30 78 1 73 37
M  V30 79 1 35 74 CFG=1
M  V30 END BOND
M  V30 END CTAB
M  END
>  <i_epik_Tot_Q>  (1) 
1

>  <i_epik_Tot_abs_Q>  (1) 
1

>  <i_i_glide_confnum>  (1) 
246

>  <i_i_glide_lignum>  (1) 
34

>  <i_i_glide_posenum>  (1) 
181

>  <i_i_glide_rotatable_bonds>  (1) 
10

>  <i_lp_mmshare_version>  (1) 
72125

>  <i_m_source_file_index>  (1) 
16

>  <i_f3d_flags>  (1) 
0

>  <num_sample>  (1) 
100

>  <b_lp_Chiralities_Consistent>  (1) 
1

>  <r_epik_Charging_Adjusted_Penalty>  (1) 
0.0082019649409003706

>  <r_epik_Ionization_Penalty>  (1) 
0.015626865898487191

>  <r_epik_Ionization_Penalty_Charging>  (1) 
0.0082019649409003706

>  <r_epik_Ionization_Penalty_Neutral>  (1) 
0.0074249009575868222

>  <r_epik_State_Penalty>  (1) 
-0

>  <r_glide_ring_energy>  (1) 
0

>  <r_i_docking_score>  (1) 
-6.0409511645747056

>  <r_i_glide_ecoul>  (1) 
1.2793452027535854

>  <r_i_glide_eff_state_penalty>  (1) 
-0

>  <r_i_glide_einternal>  (1) 
4.8631403164284821

>  <r_i_glide_emodel>  (1) 
-53.941249128156905

>  <r_i_glide_emodel_strain>  (1) 
1.4547536087937232

>  <r_i_glide_energy>  (1) 
-43.263589028618583

>  <r_i_glide_erotb>  (1) 
0.37349522713264072

>  <r_i_glide_esite>  (1) 
-0.088217040470974117

>  <r_i_glide_evdw>  (1) 
-44.542934231372165

>  <r_i_glide_gscore>  (1) 
-6.0409511645747056

>  <r_i_glide_gscore_strain>  (1) 
0

>  <r_i_glide_hbond>  (1) 
0

>  <r_i_glide_ligand_efficiency>  (1) 
-0.16326895039391096

>  <r_i_glide_ligand_efficiency_ln>  (1) 
-1.3101406876077739

>  <r_i_glide_ligand_efficiency_sa>  (1) 
-0.54404836419788938

>  <r_i_glide_lipo>  (1) 
-3.2095313622441775

>  <r_i_glide_metal>  (1) 
-0

>  <r_i_glide_rewards>  (1) 
-1.0814530578366253

>  <r_lp_Energy>  (1) 
9.9370189999999994

>  <r_lp_tautomer_probability>  (1) 
1

>  <s_epik_Chemistry_Notes>  (1) 
This compound has an imine and may undergo hydrolysis. This compound contains an acetal/aminal-like group ( X-CH(R)-Y where X, Y are N, S, or O) that may be acid/base labile, releasing an aldehyde.

>  <s_epik_cmdline>  (1) 
J2VwaWtfcHl0aG9uJywgJy1waHQnLCAnMS4wJywgJy1waCcsICc3LjQnLCAnLXRuJywgJzgnLCAnLW1hJywgJzUwMCcsICctaW1hZScsICc8aW5maWxlLm1hZT4nLCAnLW9tYWUnLCAnPG91dGZpbGUubWFlPic=

>  <s_epik_input>  (1) 
W0NIMl0xW0NIMl1bQ0gyXVNjKGMxMilvYyhuMilTW0NAQEhdKFtDQEBIXShbQ0gyXTMpW09IXSlbQ0gyXU4oW0NASF0zNClbQ0gyXVtDSDJdW0NASF00W0NIMl1TKD1PKSg9TylONVtOSF1DKFNbQ0gyXVtDSDJdW0NIM10pPU5bQ0BASF01W0NAXTYoW0NIM10pW05IXVtDSDJdNg==

>  <s_glide_docking_method>  (1) 
confgen

>  <s_i_glide_gridfile>  (1) 
gpcr_5ht2c_6bqh_protein_autoprepared_prepared

>  <s_lp_Force_Field>  (1) 
S-OPLS

>  <s_lp_Variant>  (1) 
DiffSBDD_15_num_sample_100-1

>  <s_m_source_file>  (1) 
generated__ligand_DiffSBDD_2026-05-06_prepared.sdf

>  <GenAI_Model>  (1) 
DiffSBDD

>  <Protein>  (1) 
GPCR_5HT2C

$$$$
DiffSBDD_66_num_sample_100
     RDKit          3D

  0  0  0  0  0  0  0  0  0  0999 V3000
M  V30 BEGIN CTAB
M  V30 COUNTS 112 116 0 0 1
M  V30 BEGIN ATOM
M  V30 1 C 39.213258 29.113920 55.885180 0
M  V30 2 C 42.023432 32.876746 63.039749 0
M  V30 3 C 34.510556 34.392236 59.053071 0
M  V30 4 C 38.940791 36.212067 67.065973 0
M  V30 5 C 41.368717 28.620025 63.409628 0
M  V30 6 C 39.437515 28.130118 61.792483 0
M  V30 7 C 35.794808 33.085215 60.635816 0
M  V30 8 S 41.066364 35.876992 63.474833 0
M  V30 9 C 40.961913 33.429283 62.095449 0 CFG=1
M  V30 10 C 39.248896 28.837001 57.332474 0
M  V30 11 C 39.051581 31.927208 57.273760 0
M  V30 12 C 38.858866 31.140964 58.358594 0
M  V30 13 C 42.641935 27.664721 65.432789 0
M  V30 14 C 39.064513 28.724979 53.729159 0
M  V30 15 C 42.520247 32.671493 66.659370 0 CFG=2
M  V30 16 C 39.609461 31.531840 55.940768 0
M  V30 17 C 38.282055 31.775979 59.615961 0
M  V30 18 O 40.717711 27.066293 66.808258 0
M  V30 19 C 38.122396 33.799467 61.321202 0 CFG=1
M  V30 20 N 39.043703 28.168820 54.977253 0 CHG=1
M  V30 21 C 34.643420 33.252424 59.853966 0
M  V30 22 C 36.833066 34.050150 60.584581 0
M  V30 23 C 41.868837 27.360938 64.145117 0
M  V30 24 C 39.467353 31.184002 52.921809 0
M  V30 25 C 39.113380 29.692728 58.379715 0
M  V30 26 C 42.189146 34.194802 66.482834 0
M  V30 27 C 40.923007 28.371789 61.946698 0 CFG=1
M  V30 28 C 41.463991 31.814838 67.422962 0
M  V30 29 C 39.046037 32.864366 60.476150 0 CFG=1
M  V30 30 C 40.074442 32.309322 61.487997 0 CFG=2
M  V30 31 C 41.201799 37.027746 66.964556 0
M  V30 32 C 41.887515 30.352667 67.463901 0
M  V30 33 N 39.351576 30.278612 55.271702 0
M  V30 34 C 36.679582 35.201642 59.805678 0
M  V30 35 C 39.285968 30.080943 53.901964 0
M  V30 36 C 43.876187 32.608134 67.413519 0
M  V30 37 O 41.067433 29.465430 61.109392 0
M  V30 38 C 42.728392 32.057464 65.259505 0
M  V30 39 C 40.699822 34.547071 66.521555 0
M  V30 40 C 40.252357 36.025593 66.291194 0
M  V30 41 C 40.090616 34.530025 62.748790 0 CFG=2
M  V30 42 N 41.719767 32.483638 64.242130 0 CHG=1
M  V30 43 C 41.349529 29.394212 66.688399 0
M  V30 44 C 39.933800 36.426489 64.808186 0
M  V30 45 C 35.515637 35.376580 59.053552 0
M  V30 46 C 39.370161 31.485925 62.602725 0
M  V30 47 C 43.986164 27.680240 65.457709 0
M  V30 48 C 41.806438 27.947646 66.690431 0 CFG=2
M  V30 49 C 38.947281 35.016134 61.819115 0
M  V30 50 H 43.060894 32.813102 62.734592 0
M  V30 51 H 33.626086 34.524581 58.446627 0
M  V30 52 H 38.267389 35.376115 66.932698 0
M  V30 53 H 38.430103 37.130760 66.772829 0
M  V30 54 H 39.097580 36.264945 68.145373 0
M  V30 55 H 40.531376 29.018410 63.975413 0
M  V30 56 H 42.154320 29.373804 63.420311 0
M  V30 57 H 39.068382 27.621493 62.653657 0
M  V30 58 H 39.191982 27.621487 60.870046 0
M  V30 59 H 38.867795 29.047376 61.770499 0
M  V30 60 H 35.911280 32.196361 61.236978 0
M  V30 61 H 39.371277 27.793028 57.581207 0
M  V30 62 H 38.810642 32.976133 57.364750 0
M  V30 63 H 38.950081 28.136711 52.830677 0
M  V30 64 H 39.155995 32.282316 55.293482 0
M  V30 65 H 40.665075 31.754768 55.853329 0
M  V30 66 H 37.438445 32.223561 59.104484 0
M  V30 67 H 37.837039 30.999944 60.234006 0
M  V30 68 H 40.301853 27.217761 67.652192 0
M  V30 69 H 37.751589 33.290229 62.205913 0
M  V30 70 H 33.867072 32.501530 59.855713 0
M  V30 71 H 41.048841 26.668420 64.332579 0
M  V30 72 H 42.554357 26.828200 63.484923 0
M  V30 73 H 39.467457 30.801543 51.900936 0
M  V30 74 H 40.446547 31.620913 53.083242 0
M  V30 75 H 38.710658 31.957669 53.054845 0
M  V30 76 H 39.134433 29.238512 59.353708 0
M  V30 77 H 42.697568 34.781639 67.228369 0
M  V30 78 H 42.630917 34.576810 65.559673 0
M  V30 79 H 41.546507 27.621469 61.479784 0
M  V30 80 H 41.309315 32.188207 68.436268 0
M  V30 81 H 40.500600 31.867171 66.917546 0
M  V30 82 H 39.572140 33.489663 59.751192 0
M  V30 83 H 40.736195 31.711487 60.879250 0
M  V30 84 H 42.218177 36.939945 66.584799 0
M  V30 85 H 41.219509 36.885784 68.043739 0
M  V30 86 H 40.867693 38.052802 66.805266 0
M  V30 87 H 42.679619 30.099611 68.152557 0
M  V30 88 H 37.461253 35.946121 59.768400 0
M  V30 89 H 44.638324 33.217484 66.925423 0
M  V30 90 H 44.282267 31.598471 67.460997 0
M  V30 91 H 43.780774 32.977813 68.435373 0
M  V30 92 H 40.879937 29.183883 60.225286 0
M  V30 93 H 43.719166 32.407360 65.053524 0
M  V30 94 H 42.788050 30.970445 65.223824 0
M  V30 95 H 40.267434 33.895501 65.784608 0
M  V30 96 H 40.322403 34.226919 67.493153 0
M  V30 97 H 39.609784 34.067520 63.584155 0
M  V30 98 H 40.552790 29.647893 66.006443 0
M  V30 99 H 38.933888 36.097039 64.536517 0
M  V30 100 H 39.867384 37.513115 64.745353 0
M  V30 101 H 35.394998 36.266054 58.455833 0
M  V30 102 H 39.070643 32.082002 63.453796 0
M  V30 103 H 40.024619 30.748516 63.026879 0
M  V30 104 H 38.463303 30.995367 62.270892 0
M  V30 105 H 44.524166 27.897085 66.367810 0
M  V30 106 H 44.560138 27.476641 64.564669 0
M  V30 107 H 42.442275 27.789524 67.564848 0
M  V30 108 H 38.292448 35.701611 62.356791 0
M  V30 109 H 39.365922 35.573386 60.979059 0
M  V30 110 H 38.916285 27.185013 55.177896 0
M  V30 111 H 41.503755 33.903118 61.278687 0
M  V30 112 H 40.749938 32.508909 64.537303 0
M  V30 END ATOM
M  V30 BEGIN BOND
M  V30 1 1 9 2
M  V30 2 1 10 1
M  V30 3 2 12 11
M  V30 4 1 16 11
M  V30 5 1 17 12
M  V30 6 2 20 1
M  V30 7 1 20 14
M  V30 8 2 21 3
M  V30 9 1 21 7
M  V30 10 2 22 7
M  V30 11 1 22 19
M  V30 12 1 23 5
M  V30 13 1 23 13
M  V30 14 2 25 10
M  V30 15 1 25 12
M  V30 16 1 26 15
M  V30 17 1 27 5
M  V30 18 1 27 6
M  V30 19 1 15 28 CFG=1
M  V30 20 1 29 17
M  V30 21 1 29 19
M  V30 22 1 30 9
M  V30 23 1 30 29
M  V30 24 1 32 28
M  V30 25 1 33 1
M  V30 26 1 33 16
M  V30 27 1 34 22
M  V30 28 2 35 14
M  V30 29 1 35 24
M  V30 30 1 35 33
M  V30 31 1 36 15
M  V30 32 1 37 27
M  V30 33 1 38 15
M  V30 34 1 39 26
M  V30 35 1 40 4
M  V30 36 1 40 31
M  V30 37 1 40 39
M  V30 38 1 41 8
M  V30 39 1 41 9
M  V30 40 2 42 2
M  V30 41 1 42 38
M  V30 42 2 43 32
M  V30 43 1 44 8
M  V30 44 1 44 40
M  V30 45 1 45 3
M  V30 46 2 45 34
M  V30 47 1 46 30
M  V30 48 2 47 13
M  V30 49 1 48 13
M  V30 50 1 48 18
M  V30 51 1 48 43
M  V30 52 1 49 19
M  V30 53 1 49 41
M  V30 54 1 50 2
M  V30 55 1 51 3
M  V30 56 1 52 4
M  V30 57 1 53 4
M  V30 58 1 54 4
M  V30 59 1 55 5
M  V30 60 1 56 5
M  V30 61 1 57 6
M  V30 62 1 58 6
M  V30 63 1 59 6
M  V30 64 1 60 7
M  V30 65 1 61 10
M  V30 66 1 62 11
M  V30 67 1 63 14
M  V30 68 1 64 16
M  V30 69 1 65 16
M  V30 70 1 66 17
M  V30 71 1 67 17
M  V30 72 1 68 18
M  V30 73 1 19 69 CFG=1
M  V30 74 1 70 21
M  V30 75 1 71 23
M  V30 76 1 72 23
M  V30 77 1 73 24
M  V30 78 1 74 24
M  V30 79 1 75 24
M  V30 80 1 76 25
M  V30 81 1 77 26
M  V30 82 1 78 26
M  V30 83 1 27 79 CFG=3
M  V30 84 1 80 28
M  V30 85 1 81 28
M  V30 86 1 29 82 CFG=3
M  V30 87 1 30 83 CFG=3
M  V30 88 1 84 31
M  V30 89 1 85 31
M  V30 90 1 86 31
M  V30 91 1 87 32
M  V30 92 1 88 34
M  V30 93 1 89 36
M  V30 94 1 90 36
M  V30 95 1 91 36
M  V30 96 1 92 37
M  V30 97 1 93 38
M  V30 98 1 94 38
M  V30 99 1 95 39
M  V30 100 1 96 39
M  V30 101 1 41 97 CFG=1
M  V30 102 1 98 43
M  V30 103 1 99 44
M  V30 104 1 100 44
M  V30 105 1 101 45
M  V30 106 1 102 46
M  V30 107 1 103 46
M  V30 108 1 104 46
M  V30 109 1 105 47
M  V30 110 1 106 47
M  V30 111 1 48 107 CFG=1
M  V30 112 1 108 49
M  V30 113 1 109 49
M  V30 114 1 110 20
M  V30 115 1 9 111 CFG=3
M  V30 116 1 112 42
M  V30 END BOND
M  V30 END CTAB
M  END
>  <i_epik_Tot_Q>  (1) 
2

>  <i_epik_Tot_abs_Q>  (1) 
2

>  <i_i_glide_confnum>  (1) 
1295

>  <i_i_glide_lignum>  (1) 
166

>  <i_i_glide_posenum>  (1) 
117

>  <i_i_glide_rotatable_bonds>  (1) 
12

>  <i_lp_mmshare_version>  (1) 
72125

>  <i_m_source_file_index>  (1) 
67

>  <i_f3d_flags>  (1) 
0

>  <num_sample>  (1) 
100

>  <b_lp_Chiralities_Consistent>  (1) 
1

>  <r_epik_Charging_Adjusted_Penalty>  (1) 
0.52025287817150023

>  <r_epik_Ionization_Penalty>  (1) 
3.4472135568412989

>  <r_epik_Ionization_Penalty_Charging>  (1) 
0.14055655438482481

>  <r_epik_Ionization_Penalty_Neutral>  (1) 
3.3066570024564741

>  <r_epik_State_Penalty>  (1) 
0.37969632378667539

>  <r_glide_ring_energy>  (1) 
0

>  <r_i_docking_score>  (1) 
-6.0404426457825755

>  <r_i_glide_ecoul>  (1) 
-7.1897944654714525

>  <r_i_glide_eff_state_penalty>  (1) 
0.37969632378667539

>  <r_i_glide_einternal>  (1) 
8.2957470696188

>  <r_i_glide_emodel>  (1) 
-46.437441439366076

>  <r_i_glide_emodel_strain>  (1) 
9.2063419864387015

>  <r_i_glide_energy>  (1) 
-28.328248883922406

>  <r_i_glide_erotb>  (1) 
0.28524200512041686

>  <r_i_glide_esite>  (1) 
0

>  <r_i_glide_evdw>  (1) 
-21.138454418450952

>  <r_i_glide_gscore>  (1) 
-6.4201389695692512

>  <r_i_glide_gscore_strain>  (1) 
1.3015854966096754

>  <r_i_glide_hbond>  (1) 
-0.60799999999999998

>  <r_i_glide_ligand_efficiency>  (1) 
-0.12327433970984848

>  <r_i_glide_ligand_efficiency_ln>  (1) 
-1.234804689803422

>  <r_i_glide_ligand_efficiency_sa>  (1) 
-0.45109849519956013

>  <r_i_glide_lipo>  (1) 
-4.1013659743283783

>  <r_i_glide_metal>  (1) 
-0

>  <r_i_glide_rewards>  (1) 
-1.1622086062277011

>  <r_lp_Energy>  (1) 
64.638955999999993

>  <s_epik_Chemistry_Notes>  (1) 
This compound has an imine and may undergo hydrolysis.

>  <s_epik_cmdline>  (1) 
J2VwaWtfcHl0aG9uJywgJy1waHQnLCAnMS4wJywgJy1waCcsICc3LjQnLCAnLXRuJywgJzgnLCAnLW1hJywgJzUwMCcsICctaW1hZScsICc8aW5maWxlLm1hZT4nLCAnLW9tYWUnLCAnPG91dGZpbGUubWFlPic=

>  <s_epik_input>  (1) 
bjFbY0hdYyhbQ0gzXSluKGMxMilbQ0gyXVtDSF09QyhbQ0hdPVtDSF0yKVtDSDJdW0NASF0oW0NAQEhdM1tDSDNdKVtDQEhdKGM0W2NIXVtjSF1bY0hdW2NIXVtjSF00KVtDSDJdW0NAQEhdKFtDQEhdMzUpU1tDSDJdQyhbQ0gzXSkoW0NIM10pW0NIMl1bQ0gyXVtDQF0oW0NIM10pKFtDSDJdXE49W0NIXVw1KVtDSDJdL1tDSF09W0NIXS9bQ0BASF0oW09IXSlDKD1bQ0gyXSlbQ0gyXVtDSDJdW0NAQEhdKFtDSDNdKVtPSF0=

>  <s_glide_docking_method>  (1) 
confgen

>  <s_i_glide_gridfile>  (1) 
gpcr_5ht2c_6bqh_protein_autoprepared_prepared

>  <s_lp_Force_Field>  (1) 
S-OPLS

>  <s_lp_Variant>  (1) 
DiffSBDD_66_num_sample_100-3

>  <s_m_source_file>  (1) 
generated__ligand_DiffSBDD_2026-05-06_prepared.sdf

>  <GenAI_Model>  (1) 
DiffSBDD

>  <Protein>  (1) 
GPCR_5HT2C

$$$$
DiffSBDD_44_num_sample_100
     RDKit          3D

  0  0  0  0  0  0  0  0  0  0999 V3000
M  V30 BEGIN CTAB
M  V30 COUNTS 58 59 0 0 1
M  V30 BEGIN ATOM
M  V30 1 C 37.371156 33.996275 57.872482 0
M  V30 2 O 36.862699 30.821461 61.104935 0 CHG=-1
M  V30 3 C 38.267398 26.941562 57.484729 0
M  V30 4 C 36.196318 33.342549 59.898078 0 CFG=1
M  V30 5 N 37.258560 32.347303 59.554116 0 CFG=1 CHG=1
M  V30 6 C 38.553645 27.554254 55.120084 0
M  V30 7 N 38.024927 29.764296 58.337657 0
M  V30 8 C 38.293619 27.891961 56.585786 0
M  V30 9 O 38.892521 30.243217 56.186804 0
M  V30 10 C 36.288643 34.462097 58.840759 0 CFG=1
M  V30 11 C 36.637074 35.829791 59.453533 0
M  V30 12 C 39.084942 30.682882 60.381381 0 CFG=1
M  V30 13 C 39.067311 29.853682 59.073560 0
M  V30 14 C 38.235131 33.078795 58.715250 0
M  V30 15 C 38.231780 30.991380 55.174643 0
M  V30 16 C 38.623270 24.564237 56.928435 0
M  V30 17 C 37.838799 31.591376 60.705397 0 CFG=2
M  V30 18 C 38.039539 29.370782 56.930711 0 CFG=2
M  V30 19 F 37.070605 25.032382 55.188827 0
M  V30 20 C 38.377026 24.908881 55.427388 0 CFG=1
M  V30 21 C 38.366160 25.706396 57.894585 0
M  V30 22 C 39.513707 29.835940 61.600646 0
M  V30 23 C 40.392266 29.172406 58.724901 0
M  V30 24 C 34.777809 32.745446 59.954316 0
M  V30 25 C 39.145787 26.135256 54.853213 0
M  V30 26 H 37.867405 34.821436 57.382258 0
M  V30 27 H 36.956463 33.411245 57.060801 0
M  V30 28 H 36.422569 33.764659 60.878797 0
M  V30 29 H 37.614907 27.673511 54.577611 0
M  V30 30 H 39.246241 28.283881 54.701753 0
M  V30 31 H 35.347863 34.557550 58.295662 0
M  V30 32 H 37.580807 35.793795 59.998084 0
M  V30 33 H 36.729462 36.592738 58.679882 0
M  V30 34 H 35.867412 36.160975 60.145807 0
M  V30 35 H 39.897521 31.395895 60.253497 0
M  V30 36 H 38.906718 33.665175 59.344311 0
M  V30 37 H 38.842179 32.427598 58.089051 0
M  V30 38 H 38.951651 31.621651 54.652948 0
M  V30 39 H 37.759809 30.338069 54.440172 0
M  V30 40 H 37.467443 31.639987 55.602256 0
M  V30 41 H 39.652693 24.232785 57.069949 0
M  V30 42 H 37.984675 23.730490 57.221222 0
M  V30 43 H 38.232950 32.359384 61.373911 0
M  V30 44 H 37.019899 29.537029 56.581825 0
M  V30 45 H 38.667296 24.034708 54.846405 0
M  V30 46 H 38.267412 25.451645 58.938183 0
M  V30 47 H 40.517211 29.427657 61.490927 0
M  V30 48 H 39.506405 30.435762 62.511160 0
M  V30 49 H 38.839088 28.998149 61.762020 0
M  V30 50 H 41.229326 29.621429 59.256358 0
M  V30 51 H 40.356536 28.123525 59.017364 0
M  V30 52 H 40.618934 29.221462 57.661869 0
M  V30 53 H 34.029601 33.529572 60.075083 0
M  V30 54 H 34.534331 32.186550 59.053507 0
M  V30 55 H 34.667507 32.068151 60.798174 0
M  V30 56 H 39.212056 26.021500 53.771789 0
M  V30 57 H 40.177654 26.099334 55.205659 0
M  V30 58 H 36.827023 31.653017 58.955023 0
M  V30 END ATOM
M  V30 BEGIN BOND
M  V30 1 1 5 4
M  V30 2 2 8 3
M  V30 3 1 8 6
M  V30 4 1 10 1
M  V30 5 1 10 4
M  V30 6 1 11 10
M  V30 7 2 13 7
M  V30 8 1 13 12
M  V30 9 1 14 1
M  V30 10 1 14 5
M  V30 11 1 15 9
M  V30 12 1 17 2
M  V30 13 1 17 5
M  V30 14 1 17 12
M  V30 15 1 18 7
M  V30 16 1 18 8
M  V30 17 1 18 9
M  V30 18 1 20 16
M  V30 19 1 20 19
M  V30 20 2 21 3
M  V30 21 1 21 16
M  V30 22 1 22 12
M  V30 23 1 23 13
M  V30 24 1 24 4
M  V30 25 1 25 6
M  V30 26 1 25 20
M  V30 27 1 26 1
M  V30 28 1 27 1
M  V30 29 1 4 28 CFG=1
M  V30 30 1 29 6
M  V30 31 1 30 6
M  V30 32 1 10 31 CFG=3
M  V30 33 1 32 11
M  V30 34 1 33 11
M  V30 35 1 34 11
M  V30 36 1 12 35 CFG=3
M  V30 37 1 36 14
M  V30 38 1 37 14
M  V30 39 1 38 15
M  V30 40 1 39 15
M  V30 41 1 40 15
M  V30 42 1 41 16
M  V30 43 1 42 16
M  V30 44 1 17 43 CFG=1
M  V30 45 1 18 44 CFG=3
M  V30 46 1 20 45 CFG=3
M  V30 47 1 46 21
M  V30 48 1 47 22
M  V30 49 1 48 22
M  V30 50 1 49 22
M  V30 51 1 50 23
M  V30 52 1 51 23
M  V30 53 1 52 23
M  V30 54 1 53 24
M  V30 55 1 54 24
M  V30 56 1 55 24
M  V30 57 1 56 25
M  V30 58 1 57 25
M  V30 59 1 5 58 CFG=3
M  V30 END BOND
M  V30 END CTAB
M  END
>  <i_epik_Tot_Q>  (1) 
0

>  <i_epik_Tot_abs_Q>  (1) 
2

>  <i_i_glide_confnum>  (1) 
23

>  <i_i_glide_lignum>  (1) 
108

>  <i_i_glide_posenum>  (1) 
362

>  <i_i_glide_rotatable_bonds>  (1) 
6

>  <i_lp_mmshare_version>  (1) 
72125

>  <i_m_source_file_index>  (1) 
45

>  <i_f3d_flags>  (1) 
0

>  <num_sample>  (1) 
100

>  <b_lp_Chiralities_Consistent>  (1) 
1

>  <r_epik_Charging_Adjusted_Penalty>  (1) 
0.41733257654759531

>  <r_epik_Ionization_Penalty>  (1) 
0.0069177268181324029

>  <r_epik_Ionization_Penalty_Charging>  (1) 
0.0066527375949913311

>  <r_epik_Ionization_Penalty_Neutral>  (1) 
0.00026498922314107146

>  <r_epik_State_Penalty>  (1) 
0.41067983895260396

>  <r_glide_ring_energy>  (1) 
0

>  <r_i_docking_score>  (1) 
-6.0402343781617809

>  <r_i_glide_ecoul>  (1) 
-3.7329424942078608

>  <r_i_glide_eff_state_penalty>  (1) 
0.41067983895260396

>  <r_i_glide_einternal>  (1) 
2.3596310365267943

>  <r_i_glide_emodel>  (1) 
-47.352709149164632

>  <r_i_glide_emodel_strain>  (1) 
1.3601927348008402

>  <r_i_glide_energy>  (1) 
-36.097823201134695

>  <r_i_glide_erotb>  (1) 
0.61440649929112812

>  <r_i_glide_esite>  (1) 
-0.09562456119878969

>  <r_i_glide_evdw>  (1) 
-32.364880706926833

>  <r_i_glide_gscore>  (1) 
-6.4509142171143852

>  <r_i_glide_gscore_strain>  (1) 
0

>  <r_i_glide_hbond>  (1) 
-0.16

>  <r_i_glide_ligand_efficiency>  (1) 
-0.24160937512647124

>  <r_i_glide_ligand_efficiency_ln>  (1) 
-1.4317165588419469

>  <r_i_glide_ligand_efficiency_sa>  (1) 
-0.70647009858832832

>  <r_i_glide_lipo>  (1) 
-2.2941714712521133

>  <r_i_glide_metal>  (1) 
-0

>  <r_i_glide_rewards>  (1) 
-2.3373392744770891

>  <r_lp_Energy>  (1) 
13.770411999999999

>  <r_lp_tautomer_probability>  (1) 
0.49999399997599986

>  <s_epik_Chemistry_Notes>  (1) 
This compound has an imine and may undergo hydrolysis. This compound contains an acetal/aminal-like group ( X-CH(R)-Y where X, Y are N, S, or O) that may be acid/base labile, releasing an aldehyde.

>  <s_epik_cmdline>  (1) 
J2VwaWtfcHl0aG9uJywgJy1waHQnLCAnMS4wJywgJy1waCcsICc3LjQnLCAnLXRuJywgJzgnLCAnLW1hJywgJzUwMCcsICctaW1hZScsICc8aW5maWxlLm1hZT4nLCAnLW9tYWUnLCAnPG91dGZpbGUubWFlPic=

>  <s_epik_input>  (1) 
W0NIM11bQ0BIXTFbQ0gyXVtDSDJdTihbQ0BASF0xW0NIM10pW0NAQEhdKFtPSF0pW0NAQEhdKFtDSDNdKVxDKFtDSDNdKT1OXFtDQEBIXShPW0NIM10pQzI9Qz1bQ0hdW0NIMl1bQ0BASF0oRilbQ0gyXVtDSDJdMg==

>  <s_glide_docking_method>  (1) 
confgen

>  <s_i_glide_gridfile>  (1) 
gpcr_5ht2c_6bqh_protein_autoprepared_prepared

>  <s_lp_Force_Field>  (1) 
S-OPLS

>  <s_lp_Variant>  (1) 
DiffSBDD_44_num_sample_100-1

>  <s_m_source_file>  (1) 
generated__ligand_DiffSBDD_2026-05-06_prepared.sdf

>  <GenAI_Model>  (1) 
DiffSBDD

>  <Protein>  (1) 
GPCR_5HT2C

$$$$
DiffSBDD_1_num_sample_100
     RDKit          3D

  0  0  0  0  0  0  0  0  0  0999 V3000
M  V30 BEGIN CTAB
M  V30 COUNTS 62 65 0 0 1
M  V30 BEGIN ATOM
M  V30 1 C 39.234016 26.687394 56.464029 0
M  V30 2 C 39.776315 35.030710 61.366022 0
M  V30 3 O 39.422169 25.238906 54.769327 0
M  V30 4 C 38.044345 33.325617 60.574142 0 CFG=1
M  V30 5 C 39.747153 27.507966 57.586774 0
M  V30 6 C 38.671795 30.893649 60.599231 0
M  V30 7 C 36.492070 36.557427 62.906117 0
M  V30 8 C 41.183318 36.148668 62.799787 0
M  V30 9 N 39.794991 36.572124 63.092012 0 CHG=1
M  V30 10 C 38.445016 31.930082 57.044465 0
M  V30 11 C 38.754556 28.385616 58.358363 0
M  V30 12 C 37.597802 36.460560 61.833605 0 CFG=2
M  V30 13 C 38.859406 35.693013 62.352636 0 CFG=1
M  V30 14 C 38.259154 30.820788 59.112013 0 CFG=2
M  V30 15 C 38.934129 30.489836 56.816229 0
M  V30 16 C 40.005554 25.930775 55.757012 0
M  V30 17 N 38.018488 32.027055 61.283571 0
M  V30 18 C 39.427331 33.972814 60.600860 0
M  V30 19 O 40.933190 27.512739 57.917838 0
M  V30 20 C 37.885105 37.806649 61.142671 0
M  V30 21 C 38.008540 25.667761 54.908991 0
M  V30 22 C 37.636779 33.166496 59.086161 0
M  V30 23 C 41.149603 35.605382 61.369291 0
M  V30 24 N 38.438254 32.108950 58.480737 0
M  V30 25 O 36.886947 30.459961 59.004555 0
M  V30 26 C 37.811821 26.712284 56.114921 0
M  V30 27 C 39.096775 29.884364 58.232225 0 CFG=2
M  V30 28 O 37.013916 36.821478 64.184373 0
M  V30 29 H 37.312734 33.947888 61.069539 0
M  V30 30 H 39.753553 31.013842 60.663218 0
M  V30 31 H 38.436785 29.958686 61.107131 0
M  V30 32 H 35.931895 35.621518 62.961591 0
M  V30 33 H 35.773237 37.338802 62.661566 0
M  V30 34 H 41.470846 35.362781 63.500859 0
M  V30 35 H 41.869001 36.976472 62.930421 0
M  V30 36 H 39.672824 37.509775 62.741869 0
M  V30 37 H 37.467405 32.077019 56.609246 0
M  V30 38 H 39.109887 32.657411 56.577388 0
M  V30 39 H 38.802699 28.089325 59.405853 0
M  V30 40 H 37.726353 28.213596 58.049430 0
M  V30 41 H 37.126889 35.904653 61.029475 0
M  V30 42 H 38.667404 34.893542 63.052700 0
M  V30 43 H 38.184031 29.945033 56.243327 0
M  V30 44 H 39.867374 30.458753 56.254893 0
M  V30 45 H 41.067399 25.777983 55.852905 0
M  V30 46 H 38.387791 32.128729 62.222298 0
M  V30 47 H 40.162350 33.537441 59.943140 0
M  V30 48 H 38.602102 38.423408 61.675939 0
M  V30 49 H 38.267337 37.638168 60.139461 0
M  V30 50 H 36.974561 38.393801 61.015424 0
M  V30 51 H 37.681449 26.112202 53.967814 0
M  V30 52 H 37.387952 24.785049 55.070189 0
M  V30 53 H 36.571820 32.945599 59.000251 0
M  V30 54 H 37.793189 34.103850 58.552551 0
M  V30 55 H 41.900588 34.854064 61.149933 0
M  V30 56 H 41.217092 36.421328 60.653525 0
M  V30 57 H 36.479964 31.001927 58.334742 0
M  V30 58 H 37.173947 26.325734 56.910658 0
M  V30 59 H 37.477294 27.690104 55.767476 0
M  V30 60 H 40.138009 30.021386 58.522119 0
M  V30 61 H 36.307509 36.730745 64.810551 0
M  V30 62 H 39.590328 36.571991 64.082474 0
M  V30 END ATOM
M  V30 BEGIN BOND
M  V30 1 1 5 1
M  V30 2 1 9 8
M  V30 3 1 11 5
M  V30 4 1 12 7
M  V30 5 1 13 2
M  V30 6 1 13 9
M  V30 7 1 13 12
M  V30 8 1 14 6
M  V30 9 1 15 10
M  V30 10 2 16 1
M  V30 11 1 16 3
M  V30 12 1 17 4
M  V30 13 1 17 6
M  V30 14 2 18 2
M  V30 15 1 18 4
M  V30 16 2 19 5
M  V30 17 1 20 12
M  V30 18 1 21 3
M  V30 19 1 22 4
M  V30 20 1 23 2
M  V30 21 1 23 8
M  V30 22 1 24 10
M  V30 23 1 24 14
M  V30 24 1 24 22
M  V30 25 1 14 25 CFG=1
M  V30 26 1 26 1
M  V30 27 1 26 21
M  V30 28 1 27 11
M  V30 29 1 27 14
M  V30 30 1 27 15
M  V30 31 1 28 7
M  V30 32 1 4 29 CFG=1
M  V30 33 1 30 6
M  V30 34 1 31 6
M  V30 35 1 32 7
M  V30 36 1 33 7
M  V30 37 1 34 8
M  V30 38 1 35 8
M  V30 39 1 36 9
M  V30 40 1 37 10
M  V30 41 1 38 10
M  V30 42 1 39 11
M  V30 43 1 40 11
M  V30 44 1 12 41 CFG=3
M  V30 45 1 13 42 CFG=1
M  V30 46 1 43 15
M  V30 47 1 44 15
M  V30 48 1 45 16
M  V30 49 1 46 17
M  V30 50 1 47 18
M  V30 51 1 48 20
M  V30 52 1 49 20
M  V30 53 1 50 20
M  V30 54 1 51 21
M  V30 55 1 52 21
M  V30 56 1 53 22
M  V30 57 1 54 22
M  V30 58 1 55 23
M  V30 59 1 56 23
M  V30 60 1 57 25
M  V30 61 1 58 26
M  V30 62 1 59 26
M  V30 63 1 27 60 CFG=1
M  V30 64 1 61 28
M  V30 65 1 62 9
M  V30 END BOND
M  V30 END CTAB
M  END
>  <i_epik_Tot_Q>  (1) 
1

>  <i_epik_Tot_abs_Q>  (1) 
1

>  <i_i_glide_confnum>  (1) 
15

>  <i_i_glide_lignum>  (1) 
8

>  <i_i_glide_posenum>  (1) 
147

>  <i_i_glide_rotatable_bonds>  (1) 
8

>  <i_lp_mmshare_version>  (1) 
72125

>  <i_m_source_file_index>  (1) 
2

>  <i_f3d_flags>  (1) 
0

>  <num_sample>  (1) 
100

>  <b_lp_Chiralities_Consistent>  (1) 
1

>  <r_epik_Charging_Adjusted_Penalty>  (1) 
0.089223518210420474

>  <r_epik_Ionization_Penalty>  (1) 
0.15303808439063821

>  <r_epik_Ionization_Penalty_Charging>  (1) 
0.0017986555257548985

>  <r_epik_Ionization_Penalty_Neutral>  (1) 
0.15123942886488331

>  <r_epik_State_Penalty>  (1) 
0.08742486268466558

>  <r_glide_ring_energy>  (1) 
0

>  <r_i_docking_score>  (1) 
-6.0379295933006354

>  <r_i_glide_ecoul>  (1) 
-5.3217656607670332

>  <r_i_glide_eff_state_penalty>  (1) 
0.08742486268466558

>  <r_i_glide_einternal>  (1) 
6.5900894578932512

>  <r_i_glide_emodel>  (1) 
-45.218840279513969

>  <r_i_glide_emodel_strain>  (1) 
2.5479436221366427

>  <r_i_glide_energy>  (1) 
-34.727007459260996

>  <r_i_glide_erotb>  (1) 
0.76037187950223806

>  <r_i_glide_esite>  (1) 
-0.029078594733993008

>  <r_i_glide_evdw>  (1) 
-29.405241798493961

>  <r_i_glide_gscore>  (1) 
-6.1253544559853008

>  <r_i_glide_gscore_strain>  (1) 
0

>  <r_i_glide_hbond>  (1) 
-0.16

>  <r_i_glide_ligand_efficiency>  (1) 
-0.21564034261787984

>  <r_i_glide_ligand_efficiency_ln>  (1) 
-1.3937314314500004

>  <r_i_glide_ligand_efficiency_sa>  (1) 
-0.65481108628494344

>  <r_i_glide_lipo>  (1) 
-2.9847775454956293

>  <r_i_glide_metal>  (1) 
-0

>  <r_i_glide_rewards>  (1) 
-1.4433432562181636

>  <r_lp_Energy>  (1) 
12.069678999999999

>  <s_epik_cmdline>  (1) 
J2VwaWtfcHl0aG9uJywgJy1waHQnLCAnMS4wJywgJy1waCcsICc3LjQnLCAnLXRuJywgJzgnLCAnLW1hJywgJzUwMCcsICctaW1hZScsICc8aW5maWxlLm1hZT4nLCAnLW9tYWUnLCAnPG91dGZpbGUubWFlPic=

>  <s_epik_input>  (1) 
W0NIMl0xW0NIMl1PW0NIXT1DMUMoPU8pW0NIMl1bQ0BIXTJbQ0gyXVtDSDJdTihbQ0BAXTIzW09IXSlbQ0gyXVtDQEBIXShbTkhdW0NIMl0zKS9bQ0hdPUM0XFtDQEBIXShbTkhdW0NIMl1bQ0gyXTQpW0NASF0oW0NIM10pW0NIMl1bT0hd

>  <s_glide_docking_method>  (1) 
confgen

>  <s_i_glide_gridfile>  (1) 
gpcr_5ht2c_6bqh_protein_autoprepared_prepared

>  <s_lp_Force_Field>  (1) 
S-OPLS

>  <s_lp_Variant>  (1) 
DiffSBDD_1_num_sample_100-2

>  <s_m_source_file>  (1) 
generated__ligand_DiffSBDD_2026-05-06_prepared.sdf

>  <GenAI_Model>  (1) 
DiffSBDD

>  <Protein>  (1) 
GPCR_5HT2C

$$$$
DiffSBDD_81_num_sample_100
     RDKit          3D

  0  0  0  0  0  0  0  0  0  0999 V3000
M  V30 BEGIN CTAB
M  V30 COUNTS 56 57 0 0 1
M  V30 BEGIN ATOM
M  V30 1 N 41.281029 27.902677 57.341572 0 CHG=1
M  V30 2 C 37.645039 26.089121 54.337167 0
M  V30 3 C 38.943510 28.805177 57.404966 0
M  V30 4 C 38.394757 31.379937 57.086358 0
M  V30 5 S 37.025961 30.863647 59.453539 0
M  V30 6 C 38.667384 32.856400 59.095297 0
M  V30 7 C 39.655355 30.144659 55.336167 0
M  V30 8 C 38.136162 31.797602 58.516139 0
M  V30 9 C 38.872765 27.848858 53.282392 0 CFG=2
M  V30 10 O 40.528682 28.889793 59.256155 0
M  V30 11 O 36.667426 32.021398 61.853500 0
M  V30 12 C 39.657292 27.245348 52.128647 0
M  V30 13 C 39.352826 30.201461 56.843286 0 CFG=2
M  V30 14 C 38.313961 33.193584 60.507066 0
M  V30 15 C 39.161303 27.659540 50.742255 0
M  V30 16 O 37.625846 27.177499 53.422999 0
M  V30 17 O 39.980449 28.714260 50.267969 0
M  V30 18 C 40.070012 28.088220 58.182203 0 CFG=2
M  V30 19 C 37.274984 32.077580 60.796884 0
M  V30 20 C 38.380480 30.009647 54.465593 0
M  V30 21 C 38.614373 29.361544 53.098466 0 CFG=1
M  V30 22 C 39.676430 30.156462 52.291084 0
M  V30 23 C 42.556290 27.577674 58.014937 0
M  V30 24 C 39.643958 30.003001 50.752882 0
M  V30 25 H 41.084560 27.162844 56.682190 0
M  V30 26 H 36.796987 25.430379 54.153157 0
M  V30 27 H 38.549044 25.485876 54.253613 0
M  V30 28 H 37.572911 26.453215 55.361704 0
M  V30 29 H 38.618372 28.156429 56.593589 0
M  V30 30 H 38.069783 28.871853 58.044605 0
M  V30 31 H 38.762968 32.261183 56.558696 0
M  V30 32 H 37.453394 31.153902 56.620600 0
M  V30 33 H 39.357394 33.500887 58.570291 0
M  V30 34 H 40.187042 31.049811 55.035562 0
M  V30 35 H 40.357912 29.338617 55.149912 0
M  V30 36 H 39.462535 27.678269 54.182076 0
M  V30 37 H 39.917028 28.813758 59.975007 0
M  V30 38 H 39.712415 26.162588 52.215172 0
M  V30 39 H 40.667366 27.621085 52.252333 0
M  V30 40 H 40.267395 30.469289 57.342641 0
M  V30 41 H 39.179890 33.117621 61.164460 0
M  V30 42 H 37.865479 34.184515 60.584618 0
M  V30 43 H 38.108383 27.934892 50.742958 0
M  V30 44 H 39.260831 26.821434 50.060515 0
M  V30 45 H 39.737157 27.122807 58.565673 0
M  V30 46 H 37.615021 29.432519 54.984966 0
M  V30 47 H 37.939535 30.997559 54.321288 0
M  V30 48 H 37.677795 29.428397 52.555021 0
M  V30 49 H 39.536544 31.219278 52.495805 0
M  V30 50 H 40.667422 29.927060 52.661118 0
M  V30 51 H 43.285122 27.221210 57.287948 0
M  V30 52 H 42.970491 28.466818 58.485310 0
M  V30 53 H 42.428256 26.812324 58.774041 0
M  V30 54 H 38.688853 30.299869 50.330970 0
M  V30 55 H 40.369969 30.694949 50.325128 0
M  V30 56 H 41.423669 28.755469 56.822419 0
M  V30 END ATOM
M  V30 BEGIN BOND
M  V30 1 1 8 4
M  V30 2 1 8 5
M  V30 3 2 8 6
M  V30 4 1 12 9
M  V30 5 1 13 3
M  V30 6 1 13 4
M  V30 7 1 13 7
M  V30 8 1 14 6
M  V30 9 1 15 12
M  V30 10 1 16 2
M  V30 11 1 16 9
M  V30 12 1 17 15
M  V30 13 1 18 1
M  V30 14 1 18 3
M  V30 15 1 18 10
M  V30 16 1 19 5
M  V30 17 2 19 11
M  V30 18 1 19 14
M  V30 19 1 20 7
M  V30 20 1 21 9
M  V30 21 1 21 20
M  V30 22 1 22 21
M  V30 23 1 23 1
M  V30 24 1 24 17
M  V30 25 1 24 22
M  V30 26 1 25 1
M  V30 27 1 26 2
M  V30 28 1 27 2
M  V30 29 1 28 2
M  V30 30 1 29 3
M  V30 31 1 30 3
M  V30 32 1 31 4
M  V30 33 1 32 4
M  V30 34 1 33 6
M  V30 35 1 34 7
M  V30 36 1 35 7
M  V30 37 1 9 36 CFG=1
M  V30 38 1 37 10
M  V30 39 1 38 12
M  V30 40 1 39 12
M  V30 41 1 13 40 CFG=1
M  V30 42 1 41 14
M  V30 43 1 42 14
M  V30 44 1 43 15
M  V30 45 1 44 15
M  V30 46 1 18 45 CFG=1
M  V30 47 1 46 20
M  V30 48 1 47 20
M  V30 49 1 21 48 CFG=3
M  V30 50 1 49 22
M  V30 51 1 50 22
M  V30 52 1 51 23
M  V30 53 1 52 23
M  V30 54 1 53 23
M  V30 55 1 54 24
M  V30 56 1 55 24
M  V30 57 1 56 1
M  V30 END BOND
M  V30 END CTAB
M  END
>  <i_epik_Tot_Q>  (1) 
1

>  <i_epik_Tot_abs_Q>  (1) 
1

>  <i_i_glide_confnum>  (1) 
945

>  <i_i_glide_lignum>  (1) 
213

>  <i_i_glide_posenum>  (1) 
216

>  <i_i_glide_rotatable_bonds>  (1) 
10

>  <i_lp_mmshare_version>  (1) 
72125

>  <i_m_source_file_index>  (1) 
82

>  <i_f3d_flags>  (1) 
0

>  <num_sample>  (1) 
100

>  <b_lp_Chiralities_Consistent>  (1) 
1

>  <r_epik_Charging_Adjusted_Penalty>  (1) 
0.12825581378160511

>  <r_epik_Ionization_Penalty>  (1) 
0.099187303221023815

>  <r_epik_Ionization_Penalty_Charging>  (1) 
0.032441492902706343

>  <r_epik_Ionization_Penalty_Neutral>  (1) 
0.066745810318317472

>  <r_epik_State_Penalty>  (1) 
0.095814320878898754

>  <r_glide_ring_energy>  (1) 
0.093239952567165579

>  <r_i_docking_score>  (1) 
-6.0287044466699307

>  <r_i_glide_ecoul>  (1) 
-3.9731333501970236

>  <r_i_glide_eff_state_penalty>  (1) 
0.095814320878898754

>  <r_i_glide_einternal>  (1) 
6.9159325275180485

>  <r_i_glide_emodel>  (1) 
-45.493374216363279

>  <r_i_glide_emodel_strain>  (1) 
1.8718381399924908

>  <r_i_glide_energy>  (1) 
-34.70300314924669

>  <r_i_glide_erotb>  (1) 
0.89420468902182859

>  <r_i_glide_esite>  (1) 
-0.012197003516697958

>  <r_i_glide_evdw>  (1) 
-30.72986979904967

>  <r_i_glide_gscore>  (1) 
-6.1245187675488291

>  <r_i_glide_gscore_strain>  (1) 
0

>  <r_i_glide_hbond>  (1) 
-0.32000000000000001

>  <r_i_glide_ligand_efficiency>  (1) 
-0.25119601861124713

>  <r_i_glide_ligand_efficiency_ln>  (1) 
-1.4429456133091192

>  <r_i_glide_ligand_efficiency_sa>  (1) 
-0.72457469981000577

>  <r_i_glide_lipo>  (1) 
-2.5981077977482774

>  <r_i_glide_metal>  (1) 
-0

>  <r_i_glide_rewards>  (1) 
-1.9559551628236442

>  <r_lp_Energy>  (1) 
15.540376999999999

>  <s_epik_Chemistry_Notes>  (1) 
This compound contains an acetal/aminal-like group ( X-CH(R)-Y where X, Y are N, S, or O) that may be acid/base labile, releasing an aldehyde.

>  <s_epik_cmdline>  (1) 
J2VwaWtfcHl0aG9uJywgJy1waHQnLCAnMS4wJywgJy1waCcsICc3LjQnLCAnLXRuJywgJzgnLCAnLW1hJywgJzUwMCcsICctaW1hZScsICc8aW5maWxlLm1hZT4nLCAnLW9tYWUnLCAnPG91dGZpbGUubWFlPic=

>  <s_epik_input>  (1) 
UzFDKD1PKVtDSDJdW0NIXT1DMVtDSDJdW0NAQEhdKFtDSDJdW0NASF0oW09IXSlbTkhdW0NIM10pW0NIMl1bQ0gyXVtDQEhdMltDSDJdW0NIMl1PW0NIMl1bQ0gyXVtDQEBIXTJPW0NIM10=

>  <s_glide_docking_method>  (1) 
confgen

>  <s_i_glide_gridfile>  (1) 
gpcr_5ht2c_6bqh_protein_autoprepared_prepared

>  <s_lp_Force_Field>  (1) 
S-OPLS

>  <s_lp_Variant>  (1) 
DiffSBDD_81_num_sample_100-1

>  <s_m_source_file>  (1) 
generated__ligand_DiffSBDD_2026-05-06_prepared.sdf

>  <GenAI_Model>  (1) 
DiffSBDD

>  <Protein>  (1) 
GPCR_5HT2C

$$$$
DiffSBDD_18_num_sample_100
     RDKit          3D

  0  0  0  0  0  0  0  0  0  0999 V3000
M  V30 BEGIN CTAB
M  V30 COUNTS 71 73 0 0 1
M  V30 BEGIN ATOM
M  V30 1 O 37.330860 31.851597 59.247917 0
M  V30 2 C 39.009954 28.024748 51.454552 0
M  V30 3 C 39.155485 26.714419 57.400695 0
M  V30 4 C 39.623880 28.729647 50.512267 0
M  V30 5 O 40.106534 28.276110 59.546044 0
M  V30 6 C 38.356873 28.166718 53.825088 0 CFG=2
M  V30 7 C 41.538120 34.757772 63.848625 0
M  V30 8 N 39.041550 28.635894 52.587700 0 CHG=1
M  V30 9 N 37.467403 29.234286 54.273668 0
M  V30 10 C 38.650804 32.700837 61.061330 0
M  V30 11 C 40.901931 35.561469 61.526013 0
M  V30 12 O 42.532685 35.018346 64.522666 0
M  V30 13 O 40.715007 30.821430 50.480971 0
M  V30 14 C 39.408876 36.890543 64.871196 0
M  V30 15 C 39.066818 25.349915 55.291271 0
M  V30 16 C 40.052855 29.822932 51.068709 0
M  V30 17 C 38.759095 37.221427 62.469472 0
M  V30 18 C 40.267388 34.539534 60.949694 0
M  V30 19 C 38.966299 28.461953 59.123580 0
M  V30 20 N 40.892367 33.536308 63.823206 0
M  V30 21 C 38.709814 26.706398 55.916363 0 CFG=2
M  V30 22 C 38.107827 32.957910 59.667293 0 CFG=2
M  V30 23 C 39.280772 27.858454 55.022235 0 CFG=2
M  V30 24 C 39.345268 29.254103 55.655615 0
M  V30 25 O 39.466408 38.053836 61.853528 0 CHG=-1
M  V30 26 C 39.775269 30.034545 52.577366 0
M  V30 27 C 39.992340 33.017980 63.064501 0
M  V30 28 C 38.098735 29.573294 59.704123 0
M  V30 29 C 38.066886 30.760252 58.732074 0
M  V30 30 C 37.143442 34.153175 59.664475 0
M  V30 31 C 39.610110 33.435361 61.662739 0
M  V30 32 C 40.905014 35.835944 62.990457 0 CFG=1
M  V30 33 C 39.473769 36.279171 63.458036 0 CFG=1
M  V30 34 N 38.421189 27.738829 58.134756 0
M  V30 35 N 38.049619 29.872267 55.399280 0
M  V30 36 O 37.520157 37.090719 62.356980 0
M  V30 37 H 38.520844 27.062806 51.339493 0
M  V30 38 H 38.936905 25.758013 57.878221 0
M  V30 39 H 40.237287 26.852124 57.459088 0
M  V30 40 H 39.711484 28.421427 49.485428 0
M  V30 41 H 37.757646 27.297895 53.546823 0
M  V30 42 H 37.298772 29.915083 53.536757 0
M  V30 43 H 38.193987 31.884395 61.601315 0
M  V30 44 H 41.365727 36.312618 60.901771 0
M  V30 45 H 40.667403 30.021431 53.195012 0
M  V30 46 H 38.373972 37.011620 65.194410 0
M  V30 47 H 39.906789 36.265904 65.611914 0
M  V30 48 H 39.867390 37.877338 64.898047 0
M  V30 49 H 40.148040 25.214008 55.263802 0
M  V30 50 H 38.641597 24.521441 55.859481 0
M  V30 51 H 38.689490 25.272288 54.272966 0
M  V30 52 H 40.254875 34.518758 59.873265 0
M  V30 53 H 37.621142 26.778051 55.912952 0
M  V30 54 H 38.905428 33.151331 58.949488 0
M  V30 55 H 40.267325 27.546977 54.698923 0
M  V30 56 H 40.107702 29.854316 55.166866 0
M  V30 57 H 39.622378 29.295489 56.701613 0
M  V30 58 H 39.079017 30.839871 52.811589 0
M  V30 59 H 39.422420 32.158099 63.422774 0
M  V30 60 H 37.079174 29.221428 59.853509 0
M  V30 61 H 38.497324 29.861804 60.675398 0
M  V30 62 H 39.067242 31.041945 58.398816 0
M  V30 63 H 37.520172 30.454480 57.843687 0
M  V30 64 H 37.644113 35.078557 59.952005 0
M  V30 65 H 36.716605 34.304973 58.671785 0
M  V30 66 H 36.316624 33.996934 60.358301 0
M  V30 67 H 41.549551 36.710733 63.092984 0
M  V30 68 H 38.841242 35.403991 63.453499 0
M  V30 69 H 37.477810 27.945669 57.839399 0
M  V30 70 H 38.121914 30.879339 55.257206 0
M  V30 71 H 40.817253 30.611705 49.565616 0
M  V30 END ATOM
M  V30 BEGIN BOND
M  V30 1 1 4 2
M  V30 2 2 8 2
M  V30 3 1 8 6
M  V30 4 1 9 6
M  V30 5 2 12 7
M  V30 6 2 16 4
M  V30 7 1 16 13
M  V30 8 2 18 11
M  V30 9 2 19 5
M  V30 10 1 20 7
M  V30 11 1 21 3
M  V30 12 1 21 15
M  V30 13 1 22 1
M  V30 14 1 22 10
M  V30 15 1 23 6
M  V30 16 1 23 21
M  V30 17 1 24 23
M  V30 18 1 25 17
M  V30 19 1 26 8
M  V30 20 1 26 16
M  V30 21 2 27 20
M  V30 22 1 28 19
M  V30 23 1 29 1
M  V30 24 1 29 28
M  V30 25 1 30 22
M  V30 26 2 31 10
M  V30 27 1 31 18
M  V30 28 1 31 27
M  V30 29 1 32 7
M  V30 30 1 32 11
M  V30 31 1 33 14
M  V30 32 1 33 17
M  V30 33 1 33 32
M  V30 34 1 34 3
M  V30 35 1 34 19
M  V30 36 1 35 9
M  V30 37 1 35 24
M  V30 38 2 36 17
M  V30 39 1 37 2
M  V30 40 1 38 3
M  V30 41 1 39 3
M  V30 42 1 40 4
M  V30 43 1 6 41 CFG=3
M  V30 44 1 42 9
M  V30 45 1 43 10
M  V30 46 1 44 11
M  V30 47 1 45 26
M  V30 48 1 46 14
M  V30 49 1 47 14
M  V30 50 1 48 14
M  V30 51 1 49 15
M  V30 52 1 50 15
M  V30 53 1 51 15
M  V30 54 1 52 18
M  V30 55 1 21 53 CFG=1
M  V30 56 1 22 54 CFG=3
M  V30 57 1 23 55 CFG=3
M  V30 58 1 56 24
M  V30 59 1 57 24
M  V30 60 1 58 26
M  V30 61 1 59 27
M  V30 62 1 60 28
M  V30 63 1 61 28
M  V30 64 1 62 29
M  V30 65 1 63 29
M  V30 66 1 64 30
M  V30 67 1 65 30
M  V30 68 1 66 30
M  V30 69 1 32 67 CFG=3
M  V30 70 1 33 68 CFG=1
M  V30 71 1 69 34
M  V30 72 1 70 35
M  V30 73 1 71 13
M  V30 END BOND
M  V30 END CTAB
M  END
>  <i_epik_Tot_Q>  (1) 
0

>  <i_epik_Tot_abs_Q>  (1) 
2

>  <i_i_glide_confnum>  (1) 
1879

>  <i_i_glide_lignum>  (1) 
45

>  <i_i_glide_posenum>  (1) 
277

>  <i_i_glide_rotatable_bonds>  (1) 
13

>  <i_lp_mmshare_version>  (1) 
72125

>  <i_m_source_file_index>  (1) 
19

>  <i_f3d_flags>  (1) 
0

>  <num_sample>  (1) 
100

>  <b_lp_Chiralities_Consistent>  (1) 
1

>  <r_epik_Charging_Adjusted_Penalty>  (1) 
0.76693695219889413

>  <r_epik_Ionization_Penalty>  (1) 
0.76778133156762796

>  <r_epik_Ionization_Penalty_Charging>  (1) 
0.00011398914501928687

>  <r_epik_Ionization_Penalty_Neutral>  (1) 
0.7676673424226087

>  <r_epik_State_Penalty>  (1) 
0.76682296305387487

>  <r_glide_ring_energy>  (1) 
1.7561163794185919

>  <r_i_docking_score>  (1) 
-6.0280756473108514

>  <r_i_glide_ecoul>  (1) 
-0.6668135301364575

>  <r_i_glide_eff_state_penalty>  (1) 
0.76682296305387487

>  <r_i_glide_einternal>  (1) 
7.6359642485971415

>  <r_i_glide_emodel>  (1) 
-64.992433621464983

>  <r_i_glide_emodel_strain>  (1) 
4.8041172037214608

>  <r_i_glide_energy>  (1) 
-51.6911676305998

>  <r_i_glide_erotb>  (1) 
0.89312676016186854

>  <r_i_glide_esite>  (1) 
-0.001494905118085285

>  <r_i_glide_evdw>  (1) 
-51.024354100463341

>  <r_i_glide_gscore>  (1) 
-6.7948986103647266

>  <r_i_glide_gscore_strain>  (1) 
0.2010293009303652

>  <r_i_glide_hbond>  (1) 
0

>  <r_i_glide_ligand_efficiency>  (1) 
-0.16744654575863477

>  <r_i_glide_ligand_efficiency_ln>  (1) 
-1.3151632464600045

>  <r_i_glide_ligand_efficiency_sa>  (1) 
-0.55289631217371726

>  <r_i_glide_lipo>  (1) 
-3.3031630257198086

>  <r_i_glide_metal>  (1) 
-0

>  <r_i_glide_rewards>  (1) 
-1.9331570060754308

>  <r_lp_Energy>  (1) 
33.335281999999999

>  <r_lp_tautomer_probability>  (1) 
0.99929914239148299

>  <s_epik_Chemistry_Notes>  (1) 
This compound has an imine and may undergo hydrolysis. This compound contains an acetal/aminal-like group ( X-CH(R)-Y where X, Y are N, S, or O) that may be acid/base labile, releasing an aldehyde.

>  <s_epik_cmdline>  (1) 
J2VwaWtfcHl0aG9uJywgJy1waHQnLCAnMS4wJywgJy1waCcsICc3LjQnLCAnLXRuJywgJzgnLCAnLW1hJywgJzUwMCcsICctaW1hZScsICc8aW5maWxlLm1hZT4nLCAnLW9tYWUnLCAnPG91dGZpbGUubWFlPic=

>  <s_epik_input>  (1) 
W09IXUMoPU8pW0NASF0oW0NIM10pW0NAQEhdMVtDSF09W0NIXS9DKFtDSF09TkMxPU8pPVtDSF1cW0NASF0oW0NIM10pT1tDSDJdW0NIMl1DKD1PKVtOSF1bQ0gyXVtDQEhdKFtDSDNdKVtDQEBIXTJbQ0gyXVtOSF1bTkhdW0NASF0ybjNbY0hdW2NIXWMoW09IXSlbY0hdMw==

>  <s_glide_docking_method>  (1) 
confgen

>  <s_i_glide_gridfile>  (1) 
gpcr_5ht2c_6bqh_protein_autoprepared_prepared

>  <s_lp_Force_Field>  (1) 
S-OPLS

>  <s_lp_Variant>  (1) 
DiffSBDD_18_num_sample_100-5

>  <s_m_source_file>  (1) 
generated__ligand_DiffSBDD_2026-05-06_prepared.sdf

>  <GenAI_Model>  (1) 
DiffSBDD

>  <Protein>  (1) 
GPCR_5HT2C

$$$$
DiffSBDD_44_num_sample_100
     RDKit          3D

  0  0  0  0  0  0  0  0  0  0999 V3000
M  V30 BEGIN CTAB
M  V30 COUNTS 58 59 0 0 1
M  V30 BEGIN ATOM
M  V30 1 C 39.258976 31.124778 55.788865 0
M  V30 2 O 38.677624 27.436091 58.527522 0 CHG=-1
M  V30 3 C 38.988297 33.519477 61.787674 0
M  V30 4 C 38.845222 28.716991 56.046180 0 CFG=1
M  V30 5 N 39.110740 29.311793 57.393222 0 CFG=1 CHG=1
M  V30 6 C 37.553565 35.055699 60.510869 0
M  V30 7 N 37.832080 31.328554 59.985345 0
M  V30 8 C 37.954561 33.666462 60.998406 0
M  V30 9 O 36.096135 32.093760 61.452064 0
M  V30 10 C 39.231918 29.805911 55.024474 0 CFG=1
M  V30 11 C 38.310298 29.838739 53.802413 0
M  V30 12 C 39.004783 29.150141 59.978222 0 CFG=1
M  V30 13 C 38.431177 30.415892 60.649831 0
M  V30 14 C 38.858540 30.760174 57.209579 0
M  V30 15 C 35.061896 33.059015 61.617769 0
M  V30 16 C 40.280847 35.411822 62.686023 0
M  V30 17 C 38.409867 28.716794 58.582664 0 CFG=2
M  V30 18 C 37.103610 32.479894 60.514079 0 CFG=2
M  V30 19 F 39.942880 37.552981 61.856814 0
M  V30 20 C 39.650880 36.286774 61.564264 0 CFG=2
M  V30 21 C 39.964919 33.935903 62.547603 0
M  V30 22 C 40.550243 29.152619 60.025443 0
M  V30 23 C 38.638408 30.474410 62.162984 0
M  V30 24 C 39.636428 27.425550 55.731808 0
M  V30 25 C 38.107310 36.223877 61.378528 0
M  V30 26 H 38.585964 31.877959 55.375100 0
M  V30 27 H 40.266892 31.543510 55.773179 0
M  V30 28 H 37.774636 28.521045 55.973197 0
M  V30 29 H 37.869542 35.163900 59.475190 0
M  V30 30 H 36.468105 35.139740 60.484634 0
M  V30 31 H 40.250675 29.627992 54.677321 0
M  V30 32 H 37.289171 30.097093 54.085036 0
M  V30 33 H 38.667674 30.572351 53.080674 0
M  V30 34 H 38.283254 28.871328 53.301714 0
M  V30 35 H 38.700490 28.350175 60.657431 0
M  V30 36 H 37.791574 30.964133 57.321137 0
M  V30 37 H 39.398371 31.371313 57.924016 0
M  V30 38 H 34.267466 32.665012 62.252013 0
M  V30 39 H 35.430306 33.960742 62.108100 0
M  V30 40 H 34.610124 33.334417 60.662763 0
M  V30 41 H 39.938128 35.747129 63.665866 0
M  V30 42 H 41.364561 35.536712 62.677868 0
M  V30 43 H 37.370432 29.049750 58.540372 0
M  V30 44 H 36.571976 32.861674 59.639530 0
M  V30 45 H 40.138646 36.024763 60.622547 0
M  V30 46 H 40.562021 33.247805 63.126698 0
M  V30 47 H 40.914308 29.176742 61.052946 0
M  V30 48 H 40.968087 28.254544 59.570003 0
M  V30 49 H 40.967028 30.014665 59.511727 0
M  V30 50 H 38.668138 29.476248 62.589682 0
M  V30 51 H 39.605887 30.920043 62.386975 0
M  V30 52 H 37.868231 31.031419 62.687328 0
M  V30 53 H 39.536361 27.161257 54.679042 0
M  V30 54 H 40.698375 27.546005 55.946160 0
M  V30 55 H 39.280963 26.561844 56.291483 0
M  V30 56 H 37.780360 37.151695 60.907332 0
M  V30 57 H 37.628406 36.211056 62.358470 0
M  V30 58 H 40.093391 29.173508 57.565706 0
M  V30 END ATOM
M  V30 BEGIN BOND
M  V30 1 1 5 4
M  V30 2 2 8 3
M  V30 3 1 8 6
M  V30 4 1 10 1
M  V30 5 1 10 4
M  V30 6 1 11 10
M  V30 7 2 13 7
M  V30 8 1 13 12
M  V30 9 1 14 1
M  V30 10 1 14 5
M  V30 11 1 15 9
M  V30 12 1 17 2
M  V30 13 1 17 5
M  V30 14 1 17 12
M  V30 15 1 18 7
M  V30 16 1 18 8
M  V30 17 1 18 9
M  V30 18 1 20 16
M  V30 19 1 20 19
M  V30 20 2 21 3
M  V30 21 1 21 16
M  V30 22 1 22 12
M  V30 23 1 23 13
M  V30 24 1 24 4
M  V30 25 1 25 6
M  V30 26 1 25 20
M  V30 27 1 26 1
M  V30 28 1 27 1
M  V30 29 1 4 28 CFG=1
M  V30 30 1 29 6
M  V30 31 1 30 6
M  V30 32 1 10 31 CFG=3
M  V30 33 1 32 11
M  V30 34 1 33 11
M  V30 35 1 34 11
M  V30 36 1 12 35 CFG=1
M  V30 37 1 36 14
M  V30 38 1 37 14
M  V30 39 1 38 15
M  V30 40 1 39 15
M  V30 41 1 40 15
M  V30 42 1 41 16
M  V30 43 1 42 16
M  V30 44 1 17 43 CFG=1
M  V30 45 1 18 44 CFG=3
M  V30 46 1 20 45 CFG=3
M  V30 47 1 46 21
M  V30 48 1 47 22
M  V30 49 1 48 22
M  V30 50 1 49 22
M  V30 51 1 50 23
M  V30 52 1 51 23
M  V30 53 1 52 23
M  V30 54 1 53 24
M  V30 55 1 54 24
M  V30 56 1 55 24
M  V30 57 1 56 25
M  V30 58 1 57 25
M  V30 59 1 5 58 CFG=1
M  V30 END BOND
M  V30 END CTAB
M  END
>  <i_epik_Tot_Q>  (1) 
0

>  <i_epik_Tot_abs_Q>  (1) 
2

>  <i_i_glide_confnum>  (1) 
28

>  <i_i_glide_lignum>  (1) 
116

>  <i_i_glide_posenum>  (1) 
181

>  <i_i_glide_rotatable_bonds>  (1) 
6

>  <i_lp_mmshare_version>  (1) 
72125

>  <i_m_source_file_index>  (1) 
45

>  <i_f3d_flags>  (1) 
0

>  <num_sample>  (1) 
100

>  <b_lp_Chiralities_Consistent>  (1) 
1

>  <r_epik_Charging_Adjusted_Penalty>  (1) 
0.41733257654759531

>  <r_epik_Ionization_Penalty>  (1) 
0.0069177268181324029

>  <r_epik_Ionization_Penalty_Charging>  (1) 
0.0066527375949913311

>  <r_epik_Ionization_Penalty_Neutral>  (1) 
0.00026498922314107146

>  <r_epik_State_Penalty>  (1) 
0.41067983895260396

>  <r_glide_ring_energy>  (1) 
0

>  <r_i_docking_score>  (1) 
-6.025450016693207

>  <r_i_glide_ecoul>  (1) 
-2.1917354409918368

>  <r_i_glide_eff_state_penalty>  (1) 
0.41067983895260396

>  <r_i_glide_einternal>  (1) 
5.0645744311469514

>  <r_i_glide_emodel>  (1) 
-43.960843248535141

>  <r_i_glide_emodel_strain>  (1) 
1.4950930802696973

>  <r_i_glide_energy>  (1) 
-31.674788869015082

>  <r_i_glide_erotb>  (1) 
0.61440649929112812

>  <r_i_glide_esite>  (1) 
-0.015909287499176833

>  <r_i_glide_evdw>  (1) 
-29.483053428023243

>  <r_i_glide_gscore>  (1) 
-6.4361298556458113

>  <r_i_glide_gscore_strain>  (1) 
0

>  <r_i_glide_hbond>  (1) 
-0.26057667928660749

>  <r_i_glide_ligand_efficiency>  (1) 
-0.24101800066772827

>  <r_i_glide_ligand_efficiency_ln>  (1) 
-1.4282122221223337

>  <r_i_glide_ligand_efficiency_sa>  (1) 
-0.70474090918103793

>  <r_i_glide_lipo>  (1) 
-2.6078053881135381

>  <r_i_glide_metal>  (1) 
-0

>  <r_i_glide_rewards>  (1) 
-2.3633320124876791

>  <r_lp_Energy>  (1) 
7.1252040000000001

>  <r_lp_tautomer_probability>  (1) 
0.49999399997599986

>  <s_epik_Chemistry_Notes>  (1) 
This compound has an imine and may undergo hydrolysis. This compound contains an acetal/aminal-like group ( X-CH(R)-Y where X, Y are N, S, or O) that may be acid/base labile, releasing an aldehyde.

>  <s_epik_cmdline>  (1) 
J2VwaWtfcHl0aG9uJywgJy1waHQnLCAnMS4wJywgJy1waCcsICc3LjQnLCAnLXRuJywgJzgnLCAnLW1hJywgJzUwMCcsICctaW1hZScsICc8aW5maWxlLm1hZT4nLCAnLW9tYWUnLCAnPG91dGZpbGUubWFlPic=

>  <s_epik_input>  (1) 
W0NIM11bQ0BIXTFbQ0gyXVtDSDJdTihbQ0BASF0xW0NIM10pW0NAQEhdKFtPSF0pW0NAQEhdKFtDSDNdKVxDKFtDSDNdKT1OXFtDQEBIXShPW0NIM10pQzI9Qz1bQ0hdW0NIMl1bQ0BASF0oRilbQ0gyXVtDSDJdMg==

>  <s_glide_docking_method>  (1) 
confgen

>  <s_i_glide_gridfile>  (1) 
gpcr_5ht2c_6bqh_protein_autoprepared_prepared

>  <s_lp_Force_Field>  (1) 
S-OPLS

>  <s_lp_Variant>  (1) 
DiffSBDD_44_num_sample_100-9

>  <s_m_source_file>  (1) 
generated__ligand_DiffSBDD_2026-05-06_prepared.sdf

>  <GenAI_Model>  (1) 
DiffSBDD

>  <Protein>  (1) 
GPCR_5HT2C

$$$$
DiffSBDD_46_num_sample_100
     RDKit          3D

  0  0  0  0  0  0  0  0  0  0999 V3000
M  V30 BEGIN CTAB
M  V30 COUNTS 66 69 0 0 1
M  V30 BEGIN ATOM
M  V30 1 N 37.513950 34.558910 59.985157 0 CHG=-1
M  V30 2 N 38.331692 27.177068 55.826220 0
M  V30 3 C 38.395019 30.421160 60.749013 0
M  V30 4 C 43.657621 31.944616 66.253562 0
M  V30 5 C 38.339561 29.634715 58.229860 0
M  V30 6 O 39.610953 36.800378 61.877302 0
M  V30 7 O 36.267531 36.821419 59.365470 0
M  V30 8 C 42.210400 33.382459 64.937159 0
M  V30 9 N 43.067667 32.969691 65.954947 0
M  V30 10 F 42.261925 35.621853 65.794426 0
M  V30 11 C 37.645410 30.080528 59.518932 0 CFG=2
M  V30 12 N 39.557283 34.497181 61.874332 0
M  V30 13 C 38.578611 28.100640 58.222792 0 CFG=2
M  V30 14 C 40.938565 35.147529 63.856780 0
M  V30 15 C 37.460340 37.015089 60.079443 0
M  V30 16 C 41.542420 27.483964 57.991237 0
M  V30 17 C 39.067334 29.221594 52.197590 0
M  V30 18 C 38.569021 27.882398 54.630372 0
M  V30 19 C 41.812639 34.734729 64.875941 0
M  V30 20 C 36.649565 33.590248 60.353580 0
M  V30 21 C 40.936290 32.853195 63.066473 0
M  V30 22 C 40.483587 34.178275 62.929428 0
M  V30 23 N 41.788412 32.453062 64.038836 0
M  V30 24 C 40.710420 27.783153 56.731968 0
M  V30 25 C 38.554551 27.913658 52.187797 0
M  V30 26 C 37.714111 35.715814 60.872160 0 CFG=2
M  V30 27 C 39.455162 27.644739 59.414481 0
M  V30 28 C 38.301374 27.247575 53.400097 0
M  V30 29 C 36.732279 32.215385 60.355373 0
M  V30 30 C 39.314180 29.873792 53.421842 0
M  V30 31 C 40.920861 28.091037 59.259391 0
M  V30 32 C 39.062345 35.727751 61.622214 0
M  V30 33 C 39.064997 29.208784 54.638088 0
M  V30 34 O 44.349170 31.039768 66.550592 0
M  V30 35 C 39.215639 27.462455 56.966392 0 CFG=2
M  V30 36 N 37.825298 31.480357 59.923848 0
M  V30 37 H 38.031394 26.217687 55.733183 0
M  V30 38 H 39.479018 30.508184 60.730211 0
M  V30 39 H 37.908466 30.421269 61.722493 0
M  V30 40 H 37.706014 29.918101 57.388855 0
M  V30 41 H 39.277110 30.176159 58.108122 0
M  V30 42 H 36.348335 35.915787 59.072862 0
M  V30 43 H 36.610608 29.761635 59.631109 0
M  V30 44 H 39.195371 33.727414 61.322815 0
M  V30 45 H 37.598212 27.636875 58.316503 0
M  V30 46 H 40.618646 36.172760 63.808454 0
M  V30 47 H 38.252196 37.216425 59.360669 0
M  V30 48 H 37.367097 37.883821 60.732081 0
M  V30 49 H 42.565288 27.841044 57.867070 0
M  V30 50 H 41.609325 26.407452 58.123488 0
M  V30 51 H 39.262513 29.731102 51.264940 0
M  V30 52 H 35.684536 33.988729 60.735368 0
M  V30 53 H 40.603054 32.088879 62.379331 0
M  V30 54 H 40.883186 28.821427 56.475433 0
M  V30 55 H 41.067573 27.185960 55.895237 0
M  V30 56 H 38.355734 27.417795 51.248312 0
M  V30 57 H 36.973136 35.711728 61.674394 0
M  V30 58 H 39.049069 27.968934 60.370236 0
M  V30 59 H 39.441367 26.556479 59.453477 0
M  V30 60 H 37.911651 26.240165 53.387388 0
M  V30 61 H 35.915445 31.602782 60.707788 0
M  V30 62 H 39.696307 30.884209 53.427813 0
M  V30 63 H 40.993351 29.177884 59.230977 0
M  V30 64 H 41.493063 27.774476 60.130928 0
M  V30 65 H 39.250035 29.716404 55.569208 0
M  V30 66 H 39.297001 26.418528 57.272908 0
M  V30 END ATOM
M  V30 BEGIN BOND
M  V30 1 2 9 4
M  V30 2 1 9 8
M  V30 3 1 11 3
M  V30 4 1 11 5
M  V30 5 1 13 5
M  V30 6 1 15 7
M  V30 7 1 18 2
M  V30 8 2 19 8
M  V30 9 1 19 10
M  V30 10 1 19 14
M  V30 11 1 20 1
M  V30 12 1 22 12
M  V30 13 2 22 14
M  V30 14 1 22 21
M  V30 15 1 23 8
M  V30 16 2 23 21
M  V30 17 1 24 16
M  V30 18 2 25 17
M  V30 19 1 26 1
M  V30 20 1 26 15
M  V30 21 1 27 13
M  V30 22 2 28 18
M  V30 23 1 28 25
M  V30 24 2 29 20
M  V30 25 1 30 17
M  V30 26 1 31 16
M  V30 27 1 31 27
M  V30 28 2 32 6
M  V30 29 1 32 12
M  V30 30 1 32 26
M  V30 31 1 33 18
M  V30 32 2 33 30
M  V30 33 2 34 4
M  V30 34 1 35 2
M  V30 35 1 35 13
M  V30 36 1 35 24
M  V30 37 1 36 3
M  V30 38 1 36 11
M  V30 39 1 36 29
M  V30 40 1 37 2
M  V30 41 1 38 3
M  V30 42 1 39 3
M  V30 43 1 40 5
M  V30 44 1 41 5
M  V30 45 1 42 7
M  V30 46 1 11 43 CFG=1
M  V30 47 1 44 12
M  V30 48 1 13 45 CFG=1
M  V30 49 1 46 14
M  V30 50 1 47 15
M  V30 51 1 48 15
M  V30 52 1 49 16
M  V30 53 1 50 16
M  V30 54 1 51 17
M  V30 55 1 52 20
M  V30 56 1 53 21
M  V30 57 1 54 24
M  V30 58 1 55 24
M  V30 59 1 56 25
M  V30 60 1 26 57 CFG=1
M  V30 61 1 58 27
M  V30 62 1 59 27
M  V30 63 1 60 28
M  V30 64 1 61 29
M  V30 65 1 62 30
M  V30 66 1 63 31
M  V30 67 1 64 31
M  V30 68 1 65 33
M  V30 69 1 35 66 CFG=1
M  V30 END BOND
M  V30 END CTAB
M  END
>  <i_epik_Tot_Q>  (1) 
-1

>  <i_epik_Tot_abs_Q>  (1) 
1

>  <i_i_glide_confnum>  (1) 
3431

>  <i_i_glide_lignum>  (1) 
127

>  <i_i_glide_posenum>  (1) 
304

>  <i_i_glide_rotatable_bonds>  (1) 
13

>  <i_lp_mmshare_version>  (1) 
72125

>  <i_m_source_file_index>  (1) 
47

>  <i_f3d_flags>  (1) 
0

>  <num_sample>  (1) 
100

>  <b_lp_Chiralities_Consistent>  (1) 
1

>  <r_epik_Charging_Adjusted_Penalty>  (1) 
0.89067625700486475

>  <r_epik_Ionization_Penalty>  (1) 
0.26609996420413234

>  <r_epik_Ionization_Penalty_Charging>  (1) 
0.17619897240493029

>  <r_epik_Ionization_Penalty_Neutral>  (1) 
0.089900991799202065

>  <r_epik_State_Penalty>  (1) 
0.71447728459993443

>  <r_glide_ring_energy>  (1) 
0

>  <r_i_docking_score>  (1) 
-6.0211856754794733

>  <r_i_glide_ecoul>  (1) 
-0.69818584492517077

>  <r_i_glide_eff_state_penalty>  (1) 
0.71447728459993443

>  <r_i_glide_einternal>  (1) 
14.723173578295459

>  <r_i_glide_emodel>  (1) 
-67.627681889824643

>  <r_i_glide_emodel_strain>  (1) 
2.6339196308942263

>  <r_i_glide_energy>  (1) 
-53.996088035181494

>  <r_i_glide_erotb>  (1) 
1.0035370279361706

>  <r_i_glide_esite>  (1) 
-0.044826333200431515

>  <r_i_glide_evdw>  (1) 
-53.297902190256323

>  <r_i_glide_gscore>  (1) 
-6.7356629600794076

>  <r_i_glide_gscore_strain>  (1) 
0

>  <r_i_glide_hbond>  (1) 
0

>  <r_i_glide_ligand_efficiency>  (1) 
-0.16725515765220758

>  <r_i_glide_ligand_efficiency_ln>  (1) 
-1.313660040751925

>  <r_i_glide_ligand_efficiency_sa>  (1) 
-0.55226436256999101

>  <r_i_glide_lipo>  (1) 
-4.25628022050285

>  <r_i_glide_metal>  (1) 
-0

>  <r_i_glide_rewards>  (1) 
-0.66847044806070555

>  <r_lp_Energy>  (1) 
55.207712000000001

>  <s_epik_Chemistry_Notes>  (1) 
This compound has an imine and may undergo hydrolysis.

>  <s_epik_cmdline>  (1) 
J2VwaWtfcHl0aG9uJywgJy1waHQnLCAnMS4wJywgJy1waCcsICc3LjQnLCAnLXRuJywgJzgnLCAnLW1hJywgJzUwMCcsICctaW1hZScsICc8aW5maWxlLm1hZT4nLCAnLW9tYWUnLCAnPG91dGZpbGUubWFlPic=

>  <s_epik_input>  (1) 
Tz1DPU5jMWMoRilbY0hdYyhbY0hdbjEpW05IXUMoPU8pW0NAQEhdKFtDSDJdW09IXSkvTj1bQ0hdL1tDSDJdTjJbQ0gyXVtDQEBIXTJbQ0gyXVtDQEBIXTNbQ0gyXVtDSDJdW0NIMl1bQ0gyXVtDQEBIXTNbTkhdYzRbY0hdW2NIXVtjSF1bY0hdW2NIXTQ=

>  <s_glide_docking_method>  (1) 
confgen

>  <s_i_glide_gridfile>  (1) 
gpcr_5ht2c_6bqh_protein_autoprepared_prepared

>  <s_lp_Force_Field>  (1) 
S-OPLS

>  <s_lp_Variant>  (1) 
DiffSBDD_46_num_sample_100-3

>  <s_m_source_file>  (1) 
generated__ligand_DiffSBDD_2026-05-06_prepared.sdf

>  <GenAI_Model>  (1) 
DiffSBDD

>  <Protein>  (1) 
GPCR_5HT2C

$$$$
DiffSBDD_43_num_sample_100
     RDKit          3D

  0  0  0  0  0  0  0  0  0  0999 V3000
M  V30 BEGIN CTAB
M  V30 COUNTS 72 75 0 0 1
M  V30 BEGIN ATOM
M  V30 1 C 39.412262 36.418150 63.188115 0 CFG=2
M  V30 2 N 39.748137 29.300865 58.532471 0
M  V30 3 O 36.262840 30.408737 58.998710 0
M  V30 4 C 37.971270 38.069309 61.709061 0
M  V30 5 C 38.976965 33.477359 60.536005 0
M  V30 6 C 40.642498 35.623678 61.273723 0
M  V30 7 C 41.865731 35.176994 61.053524 0
M  V30 8 C 38.532533 34.322471 61.748625 0 CFG=1
M  V30 9 C 39.728827 35.114501 62.373016 0 CFG=2
M  V30 10 F 38.371291 36.421378 64.011045 0
M  V30 11 C 38.685498 29.693741 60.639439 0 CFG=2
M  V30 12 C 37.743710 37.376498 60.384494 0
M  V30 13 O 41.808526 27.937421 57.825542 0
M  V30 14 C 38.507559 31.097344 61.163333 0 CFG=2
M  V30 15 C 39.521032 27.458733 56.611015 0
M  V30 16 C 38.094768 32.255199 60.257044 0 CFG=2
M  V30 17 C 38.223902 27.047494 54.258335 0
M  V30 18 O 39.804724 30.561405 60.902510 0
M  V30 19 C 39.469026 28.437030 55.613669 0
M  V30 20 C 38.103359 27.636289 51.955645 0
M  V30 21 C 39.310531 37.757023 62.434852 0
M  V30 22 C 37.501077 24.704193 54.972489 0
M  V30 23 C 37.248805 35.130778 61.424195 0
M  V30 24 O 39.867390 26.794450 59.055417 0
M  V30 25 C 38.438225 29.395120 59.176786 0 CFG=1
M  V30 26 C 38.147924 31.888020 58.754050 0 CFG=1
M  V30 27 S 40.373940 27.778935 58.100110 0
M  V30 28 C 40.483054 34.094492 63.292819 0
M  V30 29 C 37.580697 30.476973 58.491971 0 CFG=2
M  V30 30 C 37.421170 36.082422 60.256940 0
M  V30 31 C 38.883245 26.232052 56.430882 0
M  V30 32 N 38.831734 28.253275 54.441734 0
M  V30 33 C 38.212567 26.017612 55.228495 0
M  V30 34 C 37.513358 32.957055 57.850048 0
M  V30 35 O 37.612586 26.865800 53.051214 0
M  V30 36 H 40.251008 36.547216 63.876465 0
M  V30 37 H 40.428241 29.811322 59.096530 0
M  V30 38 H 35.732020 30.943534 58.405805 0
M  V30 39 H 37.952244 39.129543 61.453215 0
M  V30 40 H 37.112879 37.907572 62.362133 0
M  V30 41 H 39.994599 33.113538 60.663424 0
M  V30 42 H 39.045370 34.124476 59.667361 0
M  V30 43 H 40.254120 36.400746 60.648874 0
M  V30 44 H 42.477525 35.605586 60.268841 0
M  V30 45 H 42.267014 34.379921 61.639842 0
M  V30 46 H 38.263395 33.585618 62.499877 0
M  V30 47 H 38.667355 28.841877 61.314574 0
M  V30 48 H 37.856058 37.985894 59.498210 0
M  V30 49 H 38.274193 31.202780 62.221648 0
M  V30 50 H 37.054601 32.476984 60.489600 0
M  V30 51 H 39.953304 29.391930 55.754024 0
M  V30 52 H 37.869410 27.109182 51.038762 0
M  V30 53 H 37.631166 28.618969 51.925376 0
M  V30 54 H 39.190276 27.753269 51.966495 0
M  V30 55 H 40.165193 38.025274 61.819202 0
M  V30 56 H 39.471374 38.421188 63.262766 0
M  V30 57 H 37.159880 24.274964 55.918449 0
M  V30 58 H 36.633400 24.826376 54.325422 0
M  V30 59 H 38.185755 23.997463 54.509408 0
M  V30 60 H 36.429689 34.458473 61.169791 0
M  V30 61 H 36.884343 35.664334 62.298145 0
M  V30 62 H 37.918214 28.439633 59.095221 0
M  V30 63 H 39.186732 31.865557 58.447779 0
M  V30 64 H 39.867591 33.648020 64.062575 0
M  V30 65 H 40.839051 33.226143 62.740113 0
M  V30 66 H 41.347682 34.533717 63.790432 0
M  V30 67 H 37.533623 30.279434 57.418594 0
M  V30 68 H 37.280163 35.665949 59.269621 0
M  V30 69 H 38.909905 25.470824 57.196391 0
M  V30 70 H 36.517871 33.221673 58.207290 0
M  V30 71 H 38.093410 33.875845 57.798805 0
M  V30 72 H 37.467409 32.598843 56.820683 0
M  V30 END ATOM
M  V30 BEGIN BOND
M  V30 1 2 7 6
M  V30 2 1 8 5
M  V30 3 1 9 1
M  V30 4 1 9 6
M  V30 5 1 9 8
M  V30 6 1 10 1
M  V30 7 1 12 4
M  V30 8 1 14 11
M  V30 9 1 16 5
M  V30 10 1 16 14
M  V30 11 1 18 11
M  V30 12 1 18 14
M  V30 13 1 19 15
M  V30 14 1 21 1
M  V30 15 1 21 4
M  V30 16 1 23 8
M  V30 17 1 25 2
M  V30 18 1 25 11
M  V30 19 1 26 16
M  V30 20 1 27 2
M  V30 21 2 27 13
M  V30 22 1 27 15
M  V30 23 2 27 24
M  V30 24 1 9 28 CFG=1
M  V30 25 1 29 3
M  V30 26 1 29 25
M  V30 27 1 29 26
M  V30 28 2 30 12
M  V30 29 1 30 23
M  V30 30 2 31 15
M  V30 31 1 32 17
M  V30 32 2 32 19
M  V30 33 2 33 17
M  V30 34 1 33 22
M  V30 35 1 33 31
M  V30 36 1 34 26
M  V30 37 1 35 17
M  V30 38 1 35 20
M  V30 39 1 1 36 CFG=1
M  V30 40 1 37 2
M  V30 41 1 38 3
M  V30 42 1 39 4
M  V30 43 1 40 4
M  V30 44 1 41 5
M  V30 45 1 42 5
M  V30 46 1 43 6
M  V30 47 1 44 7
M  V30 48 1 45 7
M  V30 49 1 8 46 CFG=1
M  V30 50 1 11 47 CFG=1
M  V30 51 1 48 12
M  V30 52 1 14 49 CFG=1
M  V30 53 1 16 50 CFG=1
M  V30 54 1 51 19
M  V30 55 1 52 20
M  V30 56 1 53 20
M  V30 57 1 54 20
M  V30 58 1 55 21
M  V30 59 1 56 21
M  V30 60 1 57 22
M  V30 61 1 58 22
M  V30 62 1 59 22
M  V30 63 1 60 23
M  V30 64 1 61 23
M  V30 65 1 25 62 CFG=1
M  V30 66 1 26 63 CFG=3
M  V30 67 1 64 28
M  V30 68 1 65 28
M  V30 69 1 66 28
M  V30 70 1 29 67 CFG=3
M  V30 71 1 68 30
M  V30 72 1 69 31
M  V30 73 1 70 34
M  V30 74 1 71 34
M  V30 75 1 72 34
M  V30 END BOND
M  V30 END CTAB
M  END
>  <i_epik_Tot_Q>  (1) 
0

>  <i_epik_Tot_abs_Q>  (1) 
0

>  <i_i_glide_confnum>  (1) 
126

>  <i_i_glide_lignum>  (1) 
107

>  <i_i_glide_posenum>  (1) 
310

>  <i_i_glide_rotatable_bonds>  (1) 
8

>  <i_lp_mmshare_version>  (1) 
72125

>  <i_m_source_file_index>  (1) 
44

>  <i_f3d_flags>  (1) 
0

>  <num_sample>  (1) 
100

>  <b_lp_Chiralities_Consistent>  (1) 
1

>  <r_epik_Charging_Adjusted_Penalty>  (1) 
0

>  <r_epik_Ionization_Penalty>  (1) 
0.00039719250782603149

>  <r_epik_Ionization_Penalty_Charging>  (1) 
0

>  <r_epik_Ionization_Penalty_Neutral>  (1) 
0.00039719250782603149

>  <r_epik_State_Penalty>  (1) 
-0

>  <r_glide_ring_energy>  (1) 
0

>  <r_i_docking_score>  (1) 
-6.0178268327354738

>  <r_i_glide_ecoul>  (1) 
-4.0805455694051922

>  <r_i_glide_eff_state_penalty>  (1) 
-0

>  <r_i_glide_einternal>  (1) 
10.906912411244139

>  <r_i_glide_emodel>  (1) 
-37.824907211980999

>  <r_i_glide_emodel_strain>  (1) 
1.1276913949600242

>  <r_i_glide_energy>  (1) 
-31.50702398741787

>  <r_i_glide_erotb>  (1) 
0.47480880431145434

>  <r_i_glide_esite>  (1) 
0

>  <r_i_glide_evdw>  (1) 
-27.426478418012678

>  <r_i_glide_gscore>  (1) 
-6.0178268327354738

>  <r_i_glide_gscore_strain>  (1) 
0

>  <r_i_glide_hbond>  (1) 
-0.16

>  <r_i_glide_ligand_efficiency>  (1) 
-0.17193790950672783

>  <r_i_glide_ligand_efficiency_ln>  (1) 
-1.3210465482560492

>  <r_i_glide_ligand_efficiency_sa>  (1) 
-0.56242030323171188

>  <r_i_glide_lipo>  (1) 
-3.9470413808904956

>  <r_i_glide_metal>  (1) 
-0

>  <r_i_glide_rewards>  (1) 
-0.40218849984501948

>  <r_lp_Energy>  (1) 
35.002376999999996

>  <r_lp_tautomer_probability>  (1) 
1

>  <s_epik_cmdline>  (1) 
J2VwaWtfcHl0aG9uJywgJy1waHQnLCAnMS4wJywgJy1waCcsICc3LjQnLCAnLXRuJywgJzgnLCAnLW1hJywgJzUwMCcsICctaW1hZScsICc8aW5maWxlLm1hZT4nLCAnLW9tYWUnLCAnPG91dGZpbGUubWFlPic=

>  <s_epik_input>  (1) 
W0NIMl09W0NIXVtDQEBdMShbQ0gzXSlbQ0BIXShGKVtDSDJdW0NIMl0vW0NIXT1bQ0hdXFtDSDJdW0NASF0xW0NIMl1bQ0BIXShbQ0BIXShPMilbQ0BIXTIzKVtDQEhdKFtDSDNdKVtDQEhdKFtPSF0pW0NASF0zW05IXVMoPU8pKD1PKWM0W2NIXW5jKGMoW0NIM10pW2NIXTQpT1tDSDNd

>  <s_glide_docking_method>  (1) 
confgen

>  <s_i_glide_gridfile>  (1) 
gpcr_5ht2c_6bqh_protein_autoprepared_prepared

>  <s_lp_Force_Field>  (1) 
S-OPLS

>  <s_lp_Variant>  (1) 
DiffSBDD_43_num_sample_100-1

>  <s_m_source_file>  (1) 
generated__ligand_DiffSBDD_2026-05-06_prepared.sdf

>  <GenAI_Model>  (1) 
DiffSBDD

>  <Protein>  (1) 
GPCR_5HT2C

$$$$
DiffSBDD_85_num_sample_100
     RDKit          3D

  0  0  0  0  0  0  0  0  0  0999 V3000
M  V30 BEGIN CTAB
M  V30 COUNTS 83 87 0 0 1
M  V30 BEGIN ATOM
M  V30 1 C 41.326364 34.972485 63.114957 0
M  V30 2 N 38.505159 27.632618 52.465808 0
M  V30 3 C 40.197307 30.998965 51.632626 0
M  V30 4 Cl 40.103961 31.083763 63.263234 0
M  V30 5 C 39.806279 34.654893 61.089832 0 CFG=1
M  V30 6 C 37.918753 25.663146 56.779033 0
M  V30 7 C 38.806537 28.823608 51.675134 0
M  V30 8 C 41.088662 30.405526 50.546363 0
M  V30 9 O 36.296703 32.670256 61.453491 0
M  V30 10 S 40.593319 29.221432 58.550378 0
M  V30 11 C 40.246075 29.515370 49.647725 0
M  V30 12 O 37.062816 33.804201 59.697773 0 CHG=-1
M  V30 13 C 39.512597 29.933222 52.494539 0
M  V30 14 C 39.569426 30.124997 59.790382 0 CFG=1
M  V30 15 C 38.054593 28.542379 58.716553 0 CFG=2
M  V30 16 C 39.207293 27.861515 56.553749 0 CFG=1
M  V30 17 C 41.137871 35.231538 61.610098 0
M  V30 18 N 38.071537 27.957617 53.834061 0 CHG=1
M  V30 19 C 39.730527 33.113781 61.397135 0 CFG=2
M  V30 20 C 38.947881 25.053221 55.871895 0 CFG=1
M  V30 21 C 39.657162 28.353700 50.474548 0
M  V30 22 C 38.654637 35.543461 61.619759 0
M  V30 23 C 37.716044 26.809973 54.696506 0 CFG=2
M  V30 24 C 40.443303 27.129301 56.038660 0
M  V30 25 C 37.912599 27.069004 56.188928 0 CFG=1
M  V30 26 C 41.255074 33.473782 63.419398 0
M  V30 27 C 37.185129 32.983122 60.630665 0
M  V30 28 C 38.546971 32.283131 60.775723 0 CFG=1
M  V30 29 C 38.509135 25.516580 54.485841 0
M  V30 30 O 37.336737 29.481306 57.932872 0
M  V30 31 C 38.931097 31.538691 59.471549 0
M  V30 32 C 38.463311 29.128057 60.090700 0 CFG=1
M  V30 33 C 39.955481 32.833756 62.906216 0 CFG=2
M  V30 34 C 40.322567 25.622325 56.236074 0
M  V30 35 C 39.329373 28.071181 58.062562 0 CFG=1
M  V30 36 O 39.067488 28.143315 60.917409 0
M  V30 37 H 42.281542 35.372478 63.451790 0
M  V30 38 H 40.565042 35.496532 63.693073 0
M  V30 39 H 37.680140 27.164679 52.111999 0
M  V30 40 H 39.467397 31.651513 51.160554 0
M  V30 41 H 40.796616 31.621438 52.281697 0
M  V30 42 H 39.817710 34.765317 60.003107 0
M  V30 43 H 36.946431 25.180224 56.660010 0
M  V30 44 H 38.185918 25.599504 57.832904 0
M  V30 45 H 37.867391 29.221456 51.306090 0
M  V30 46 H 41.551641 31.199730 49.960012 0
M  V30 47 H 41.890131 29.819380 50.990760 0
M  V30 48 H 39.467506 30.123132 49.205979 0
M  V30 49 H 40.832067 29.177694 48.796449 0
M  V30 50 H 38.807051 30.433394 53.158232 0
M  V30 51 H 40.267370 29.509651 53.140473 0
M  V30 52 H 40.231915 30.257917 60.643487 0
M  V30 53 H 37.467602 27.646404 58.653512 0
M  V30 54 H 39.169926 28.851932 56.096128 0
M  V30 55 H 41.957039 34.785798 61.053559 0
M  V30 56 H 41.199374 36.300670 61.407488 0
M  V30 57 H 37.298484 28.605555 53.769260 0
M  V30 58 H 40.625975 32.707408 60.926245 0
M  V30 59 H 38.943612 23.980877 55.969197 0
M  V30 60 H 40.479325 27.738263 50.830404 0
M  V30 61 H 39.060939 27.695421 49.853501 0
M  V30 62 H 39.003095 36.402607 62.193865 0
M  V30 63 H 38.070291 35.946340 60.793997 0
M  V30 64 H 37.968240 34.992795 62.253476 0
M  V30 65 H 36.667466 26.593728 54.516086 0
M  V30 66 H 40.542524 27.307628 54.980558 0
M  V30 67 H 41.366755 27.502373 56.483007 0
M  V30 68 H 37.067404 27.552596 56.606320 0
M  V30 69 H 42.107596 32.976052 62.954805 0
M  V30 70 H 41.351450 33.300918 64.491519 0
M  V30 71 H 38.297047 31.506329 61.492453 0
M  V30 72 H 39.384646 25.621663 53.853408 0
M  V30 73 H 37.827484 24.783879 54.063271 0
M  V30 74 H 36.701515 29.938994 58.468049 0
M  V30 75 H 39.467384 32.225564 58.833401 0
M  V30 76 H 38.029752 31.440885 58.883906 0
M  V30 77 H 37.632565 29.621436 60.590978 0
M  V30 78 H 39.095375 33.202634 63.453431 0
M  V30 79 H 41.067276 25.221435 55.572324 0
M  V30 80 H 40.587768 25.345094 57.256725 0
M  V30 81 H 39.623808 27.134658 58.539450 0
M  V30 82 H 39.325304 28.541525 61.737239 0
M  V30 83 H 38.860317 28.429455 54.252954 0
M  V30 END ATOM
M  V30 BEGIN BOND
M  V30 1 1 7 2
M  V30 2 1 8 3
M  V30 3 1 11 8
M  V30 4 1 13 3
M  V30 5 1 13 7
M  V30 6 1 14 10
M  V30 7 1 17 1
M  V30 8 1 17 5
M  V30 9 1 18 2
M  V30 10 1 19 5
M  V30 11 1 20 6
M  V30 12 1 21 7
M  V30 13 1 21 11
M  V30 14 1 22 5
M  V30 15 1 23 18
M  V30 16 1 24 16
M  V30 17 1 25 6
M  V30 18 1 25 16
M  V30 19 1 25 23
M  V30 20 1 26 1
M  V30 21 2 27 9
M  V30 22 1 27 12
M  V30 23 1 28 19
M  V30 24 1 28 27
M  V30 25 1 29 20
M  V30 26 1 29 23
M  V30 27 1 30 15
M  V30 28 1 31 14
M  V30 29 1 31 28
M  V30 30 1 32 14
M  V30 31 1 32 15
M  V30 32 1 33 4
M  V30 33 1 33 19
M  V30 34 1 33 26
M  V30 35 1 34 20
M  V30 36 1 34 24
M  V30 37 1 35 10
M  V30 38 1 35 15
M  V30 39 1 35 16
M  V30 40 1 36 32
M  V30 41 1 37 1
M  V30 42 1 38 1
M  V30 43 1 39 2
M  V30 44 1 40 3
M  V30 45 1 41 3
M  V30 46 1 5 42 CFG=3
M  V30 47 1 43 6
M  V30 48 1 44 6
M  V30 49 1 45 7
M  V30 50 1 46 8
M  V30 51 1 47 8
M  V30 52 1 48 11
M  V30 53 1 49 11
M  V30 54 1 50 13
M  V30 55 1 51 13
M  V30 56 1 14 52 CFG=1
M  V30 57 1 15 53 CFG=1
M  V30 58 1 16 54 CFG=3
M  V30 59 1 55 17
M  V30 60 1 56 17
M  V30 61 1 57 18
M  V30 62 1 19 58 CFG=3
M  V30 63 1 20 59 CFG=3
M  V30 64 1 60 21
M  V30 65 1 61 21
M  V30 66 1 62 22
M  V30 67 1 63 22
M  V30 68 1 64 22
M  V30 69 1 23 65 CFG=1
M  V30 70 1 66 24
M  V30 71 1 67 24
M  V30 72 1 25 68 CFG=1
M  V30 73 1 69 26
M  V30 74 1 70 26
M  V30 75 1 28 71 CFG=1
M  V30 76 1 72 29
M  V30 77 1 73 29
M  V30 78 1 74 30
M  V30 79 1 75 31
M  V30 80 1 76 31
M  V30 81 1 32 77 CFG=1
M  V30 82 1 33 78 CFG=1
M  V30 83 1 79 34
M  V30 84 1 80 34
M  V30 85 1 35 81 CFG=1
M  V30 86 1 82 36
M  V30 87 1 83 18
M  V30 END BOND
M  V30 END CTAB
M  END
>  <i_epik_Tot_Q>  (1) 
0

>  <i_epik_Tot_abs_Q>  (1) 
2

>  <i_i_glide_confnum>  (1) 
979

>  <i_i_glide_lignum>  (1) 
221

>  <i_i_glide_posenum>  (1) 
103

>  <i_i_glide_rotatable_bonds>  (1) 
10

>  <i_lp_mmshare_version>  (1) 
72125

>  <i_m_source_file_index>  (1) 
86

>  <i_f3d_flags>  (1) 
0

>  <num_sample>  (1) 
100

>  <b_lp_Chiralities_Consistent>  (1) 
1

>  <r_epik_Charging_Adjusted_Penalty>  (1) 
0.24139881983135253

>  <r_epik_Ionization_Penalty>  (1) 
0.013577590547947769

>  <r_epik_Ionization_Penalty_Charging>  (1) 
0.013577468157686226

>  <r_epik_Ionization_Penalty_Neutral>  (1) 
1.223902615442005e-07

>  <r_epik_State_Penalty>  (1) 
0.22782135167366629

>  <r_glide_ring_energy>  (1) 
0.99272498419856225

>  <r_i_docking_score>  (1) 
-6.0133011452042355

>  <r_i_glide_ecoul>  (1) 
-0.73029326928177951

>  <r_i_glide_eff_state_penalty>  (1) 
0.22782135167366629

>  <r_i_glide_einternal>  (1) 
17.231571052433996

>  <r_i_glide_emodel>  (1) 
-10.333987382673406

>  <r_i_glide_emodel_strain>  (1) 
8.6027569228682381

>  <r_i_glide_energy>  (1) 
-21.463900577813629

>  <r_i_glide_erotb>  (1) 
0.49083612240102314

>  <r_i_glide_esite>  (1) 
0

>  <r_i_glide_evdw>  (1) 
-20.733607308531848

>  <r_i_glide_gscore>  (1) 
-6.2411224968779022

>  <r_i_glide_gscore_strain>  (1) 
1.1506892307170595

>  <r_i_glide_hbond>  (1) 
-0.08151295569959674

>  <r_i_glide_ligand_efficiency>  (1) 
-0.16703614292233987

>  <r_i_glide_ligand_efficiency_ln>  (1) 
-1.3119398492612593

>  <r_i_glide_ligand_efficiency_sa>  (1) 
-0.55154119186553152

>  <r_i_glide_lipo>  (1) 
-5.7992164709891476

>  <r_i_glide_metal>  (1) 
-0

>  <r_i_glide_rewards>  (1) 
-0.85569406748838117

>  <r_lp_Energy>  (1) 
69.175754999999995

>  <s_epik_cmdline>  (1) 
J2VwaWtfcHl0aG9uJywgJy1waHQnLCAnMS4wJywgJy1waCcsICc3LjQnLCAnLXRuJywgJzgnLCAnLW1hJywgJzUwMCcsICctaW1hZScsICc8aW5maWxlLm1hZT4nLCAnLW9tYWUnLCAnPG91dGZpbGUubWFlPic=

>  <s_epik_input>  (1) 
W0NIM11bQ0BIXTFbQ0gyXVtDSDJdW0NIMl1bQ0BIXShDbClbQ0BIXTFbQ0BASF0oQyg9TylbT0hdKVtDSDJdW0NAQEhdMlNbQ0BASF0oW0NAQEhdKFtPSF0pW0NASF0yW09IXSlbQ0BASF0oW0NIMl1bQ0gyXTMpW0NASF0oW0NIMl1bQ0BIXTM0KVtDQEhdKFtDSDJdNClbTkhdW05IXVtDSF01W0NIMl1bQ0gyXVtDSDJdW0NIMl1bQ0gyXTU=

>  <s_glide_docking_method>  (1) 
confgen

>  <s_i_glide_gridfile>  (1) 
gpcr_5ht2c_6bqh_protein_autoprepared_prepared

>  <s_lp_Force_Field>  (1) 
S-OPLS

>  <s_lp_Variant>  (1) 
DiffSBDD_85_num_sample_100-2

>  <s_m_source_file>  (1) 
generated__ligand_DiffSBDD_2026-05-06_prepared.sdf

>  <GenAI_Model>  (1) 
DiffSBDD

>  <Protein>  (1) 
GPCR_5HT2C

$$$$
DiffSBDD_29_num_sample_100
     RDKit          3D

  0  0  0  0  0  0  0  0  0  0999 V3000
M  V30 BEGIN CTAB
M  V30 COUNTS 85 89 0 0 1
M  V30 BEGIN ATOM
M  V30 1 F 39.522076 33.011357 63.322847 0
M  V30 2 C 36.772179 31.089868 59.492048 0
M  V30 3 C 38.776347 34.859264 61.084041 0
M  V30 4 C 39.844777 26.960030 57.308798 0 CFG=2
M  V30 5 C 38.922396 31.078963 56.957399 0
M  V30 6 C 41.228210 27.619855 57.091780 0
M  V30 7 C 41.108246 34.554096 63.850706 0
M  V30 8 N 38.082289 31.118316 60.163903 0
M  V30 9 C 37.711395 26.146602 55.787125 0 CFG=1
M  V30 10 C 38.643286 31.646360 54.059232 0
M  V30 11 C 39.650837 29.817111 61.703661 0
M  V30 12 C 38.942475 30.221379 54.502770 0 CFG=2
M  V30 13 C 40.188778 34.135493 63.050024 0
M  V30 14 C 39.054650 28.748612 60.824051 0 CFG=2
M  V30 15 C 35.863137 32.758156 61.148175 0
M  V30 16 C 36.705755 23.785455 55.399414 0
M  V30 17 C 38.879209 27.197134 56.076404 0 CFG=1
M  V30 18 C 39.793285 28.429838 59.543106 0 CFG=1
M  V30 19 C 40.785500 36.145617 61.893576 0
M  V30 20 N 37.119523 32.573778 61.853402 0
M  V30 21 N 39.953703 34.924764 61.959592 0
M  V30 22 F 41.470378 33.920209 64.978198 0
M  V30 23 S 37.467423 29.210161 54.597693 0
M  V30 24 C 38.241273 32.357592 60.927822 0 CFG=2
M  V30 25 C 35.586689 31.466914 60.392739 0
M  V30 26 C 37.471298 24.390285 57.664681 0
M  V30 27 O 41.081639 28.079451 59.978345 0
M  V30 28 C 38.315623 28.655967 56.105290 0 CFG=2
M  V30 29 C 39.212101 27.257455 58.716283 0
M  V30 30 C 38.281499 32.630621 55.172256 0
M  V30 31 C 39.173105 32.468559 56.387798 0
M  V30 32 C 38.635883 33.625098 60.157076 0
M  V30 33 O 37.554321 26.165651 54.376344 0
M  V30 34 C 39.214742 29.937996 55.992727 0 CFG=2
M  V30 35 C 38.267478 30.031529 61.131507 0 CFG=2
M  V30 36 C 37.757975 24.627937 56.170507 0
M  V30 37 O 40.265306 25.618339 57.306137 0
M  V30 38 S 41.867386 36.021422 63.453489 0
M  V30 39 H 36.784311 31.840596 58.703550 0
M  V30 40 H 36.607430 30.121533 59.017781 0
M  V30 41 H 38.811368 35.734877 60.435528 0
M  V30 42 H 37.882672 35.005394 61.689468 0
M  V30 43 H 39.467407 30.988703 57.880569 0
M  V30 44 H 37.871319 31.021727 57.203158 0
M  V30 45 H 41.285658 28.648060 57.431669 0
M  V30 46 H 42.039533 27.111036 57.617449 0
M  V30 47 H 41.467398 27.627489 56.034064 0
M  V30 48 H 36.788114 26.496941 56.231588 0
M  V30 49 H 39.467234 32.021415 53.459007 0
M  V30 50 H 37.763042 31.633216 53.453502 0
M  V30 51 H 39.719753 29.612241 62.769790 0
M  V30 52 H 40.474148 30.400672 61.292060 0
M  V30 53 H 39.657944 29.712203 53.855246 0
M  V30 54 H 38.728868 27.857696 61.355824 0
M  V30 55 H 35.912843 33.609900 60.470475 0
M  V30 56 H 35.058336 32.960872 61.853411 0
M  V30 57 H 35.702964 24.178815 55.543670 0
M  V30 58 H 36.899013 23.749100 54.328297 0
M  V30 59 H 36.667414 22.750628 55.736199 0
M  V30 60 H 39.531460 27.119900 55.205440 0
M  V30 61 H 39.863217 29.329968 58.955922 0
M  V30 62 H 41.403333 36.155285 60.996126 0
M  V30 63 H 40.176421 37.050019 61.924014 0
M  V30 64 H 37.325783 33.375966 62.431309 0
M  V30 65 H 39.142651 32.165235 61.478484 0
M  V30 66 H 34.695123 31.615450 59.780770 0
M  V30 67 H 35.367908 30.670374 61.095965 0
M  V30 68 H 36.512526 24.821384 57.950131 0
M  V30 69 H 37.456372 23.323577 57.889089 0
M  V30 70 H 38.210273 24.816543 58.326771 0
M  V30 71 H 41.021041 27.327017 60.547511 0
M  V30 72 H 37.610512 28.778725 56.926452 0
M  V30 73 H 38.137080 27.391542 58.615006 0
M  V30 74 H 39.320094 26.378221 59.344021 0
M  V30 75 H 38.267383 33.655638 54.813820 0
M  V30 76 H 37.258815 32.421578 55.474950 0
M  V30 77 H 40.222763 32.608821 56.132862 0
M  V30 78 H 38.918481 33.221481 57.133636 0
M  V30 79 H 39.567846 33.455452 59.616705 0
M  V30 80 H 37.888413 33.841042 59.392938 0
M  V30 81 H 36.783370 25.669509 54.148463 0
M  V30 82 H 40.267369 29.709311 56.006396 0
M  V30 83 H 37.562541 30.021496 61.955179 0
M  V30 84 H 38.731811 24.214632 55.909855 0
M  V30 85 H 40.946667 25.514029 56.654429 0
M  V30 END ATOM
M  V30 BEGIN BOND
M  V30 1 1 6 4
M  V30 2 1 8 2
M  V30 3 1 12 10
M  V30 4 1 13 1
M  V30 5 2 13 7
M  V30 6 1 14 11
M  V30 7 1 17 4
M  V30 8 1 17 9
M  V30 9 1 18 14
M  V30 10 1 20 15
M  V30 11 1 21 3
M  V30 12 1 21 13
M  V30 13 1 21 19
M  V30 14 1 22 7
M  V30 15 1 23 12
M  V30 16 1 24 8
M  V30 17 1 24 20
M  V30 18 1 25 2
M  V30 19 1 25 15
M  V30 20 1 27 18
M  V30 21 1 28 17
M  V30 22 1 28 23
M  V30 23 1 29 4
M  V30 24 1 29 18
M  V30 25 1 30 10
M  V30 26 1 31 5
M  V30 27 1 31 30
M  V30 28 1 32 3
M  V30 29 1 32 24
M  V30 30 1 33 9
M  V30 31 1 34 5
M  V30 32 1 34 12
M  V30 33 1 34 28
M  V30 34 1 35 8
M  V30 35 1 35 11
M  V30 36 1 35 14
M  V30 37 1 36 9
M  V30 38 1 36 16
M  V30 39 1 36 26
M  V30 40 1 4 37 CFG=1
M  V30 41 1 38 7
M  V30 42 1 38 19
M  V30 43 1 39 2
M  V30 44 1 40 2
M  V30 45 1 41 3
M  V30 46 1 42 3
M  V30 47 1 43 5
M  V30 48 1 44 5
M  V30 49 1 45 6
M  V30 50 1 46 6
M  V30 51 1 47 6
M  V30 52 1 9 48 CFG=1
M  V30 53 1 49 10
M  V30 54 1 50 10
M  V30 55 1 51 11
M  V30 56 1 52 11
M  V30 57 1 12 53 CFG=3
M  V30 58 1 14 54 CFG=1
M  V30 59 1 55 15
M  V30 60 1 56 15
M  V30 61 1 57 16
M  V30 62 1 58 16
M  V30 63 1 59 16
M  V30 64 1 17 60 CFG=3
M  V30 65 1 18 61 CFG=3
M  V30 66 1 62 19
M  V30 67 1 63 19
M  V30 68 1 64 20
M  V30 69 1 24 65 CFG=1
M  V30 70 1 66 25
M  V30 71 1 67 25
M  V30 72 1 68 26
M  V30 73 1 69 26
M  V30 74 1 70 26
M  V30 75 1 71 27
M  V30 76 1 28 72 CFG=1
M  V30 77 1 73 29
M  V30 78 1 74 29
M  V30 79 1 75 30
M  V30 80 1 76 30
M  V30 81 1 77 31
M  V30 82 1 78 31
M  V30 83 1 79 32
M  V30 84 1 80 32
M  V30 85 1 81 33
M  V30 86 1 34 82 CFG=3
M  V30 87 1 35 83 CFG=1
M  V30 88 1 84 36
M  V30 89 1 85 37
M  V30 END BOND
M  V30 END CTAB
M  END
>  <i_epik_Tot_Q>  (1) 
0

>  <i_epik_Tot_abs_Q>  (1) 
0

>  <i_i_glide_confnum>  (1) 
1291

>  <i_i_glide_lignum>  (1) 
73

>  <i_i_glide_posenum>  (1) 
2

>  <i_i_glide_rotatable_bonds>  (1) 
14

>  <i_lp_mmshare_version>  (1) 
72125

>  <i_m_source_file_index>  (1) 
30

>  <i_f3d_flags>  (1) 
0

>  <num_sample>  (1) 
100

>  <b_lp_Chiralities_Consistent>  (1) 
1

>  <r_epik_Charging_Adjusted_Penalty>  (1) 
0.89739717629826321

>  <r_epik_Ionization_Penalty>  (1) 
1.0966562263345743

>  <r_epik_Ionization_Penalty_Charging>  (1) 
8.0809776118824917e-09

>  <r_epik_Ionization_Penalty_Neutral>  (1) 
1.0966562182535966

>  <r_epik_State_Penalty>  (1) 
0.89739716821728555

>  <r_glide_ring_energy>  (1) 
1.6720993256359071

>  <r_i_docking_score>  (1) 
-6.0118388572568477

>  <r_i_glide_ecoul>  (1) 
-3.944240471998282

>  <r_i_glide_eff_state_penalty>  (1) 
0.89739716821728555

>  <r_i_glide_einternal>  (1) 
23.777437634275305

>  <r_i_glide_emodel>  (1) 
-32.83121062191676

>  <r_i_glide_emodel_strain>  (1) 
7.2742677353874683

>  <r_i_glide_energy>  (1) 
-40.32461284733391

>  <r_i_glide_erotb>  (1) 
0.47112220270256994

>  <r_i_glide_esite>  (1) 
0

>  <r_i_glide_evdw>  (1) 
-36.380372375335625

>  <r_i_glide_gscore>  (1) 
-6.909236025474133

>  <r_i_glide_gscore_strain>  (1) 
0.81856693384686707

>  <r_i_glide_hbond>  (1) 
-0.18396726852719056

>  <r_i_glide_ligand_efficiency>  (1) 
-0.15820628571728546

>  <r_i_glide_ligand_efficiency_ln>  (1) 
-1.2963293080061162

>  <r_i_glide_ligand_efficiency_sa>  (1) 
-0.53188564178252395

>  <r_i_glide_lipo>  (1) 
-4.2351302822654793

>  <r_i_glide_metal>  (1) 
-0

>  <r_i_glide_rewards>  (1) 
-1.3691729216643764

>  <r_lp_Energy>  (1) 
28.047854999999998

>  <s_epik_Chemistry_Notes>  (1) 
This compound has an imine and may undergo hydrolysis. This compound contains an acetal/aminal-like group ( X-CH(R)-Y where X, Y are N, S, or O) that may be acid/base labile, releasing an aldehyde.

>  <s_epik_cmdline>  (1) 
J2VwaWtfcHl0aG9uJywgJy1waHQnLCAnMS4wJywgJy1waCcsICc3LjQnLCAnLXRuJywgJzgnLCAnLW1hJywgJzUwMCcsICctaW1hZScsICc8aW5maWxlLm1hZT4nLCAnLW9tYWUnLCAnPG91dGZpbGUubWFlPic=

>  <s_epik_input>  (1) 
RkMxPUMoRilOKFtDSDJdUzEpW0NIMl1bQ0gyXVtDQEhdMltOSF1bQ0gyXVtDSDJdW0NIMl1OMltDQEBIXTNbQ0gyXVtDQEBIXTNbQ0BASF0oW09IXSlbQ0gyXVtDQEBdKFtDSDNdKShbT0hdKVtDQEBIXShbQ0BASF0oW09IXSlbQ0hdKFtDSDNdKVtDSDNdKVtDQEhdKFM0KVtDQEBIXShbQ0BASF00NSlbQ0gyXVtDSDJdW0NIMl1bQ0gyXTU=

>  <s_glide_docking_method>  (1) 
confgen

>  <s_i_glide_gridfile>  (1) 
gpcr_5ht2c_6bqh_protein_autoprepared_prepared

>  <s_lp_Force_Field>  (1) 
S-OPLS

>  <s_lp_Variant>  (1) 
DiffSBDD_29_num_sample_100-3

>  <s_m_source_file>  (1) 
generated__ligand_DiffSBDD_2026-05-06_prepared.sdf

>  <GenAI_Model>  (1) 
DiffSBDD

>  <Protein>  (1) 
GPCR_5HT2C

$$$$
DiffSBDD_74_num_sample_100
     RDKit          3D

  0  0  0  0  0  0  0  0  0  0999 V3000
M  V30 BEGIN CTAB
M  V30 COUNTS 24 24 0 0 1
M  V30 BEGIN ATOM
M  V30 1 C 40.291886 30.163790 49.453506 0
M  V30 2 C 37.195421 27.621441 54.253498 0
M  V30 3 C 39.067404 28.329288 52.736940 0
M  V30 4 C 39.936498 27.560031 55.784818 0
M  V30 5 C 39.867409 30.393507 51.976038 0
M  V30 6 C 39.388690 29.621427 53.083912 0
M  V30 7 S 39.363573 28.055470 51.053501 0
M  V30 8 C 39.892549 29.683856 50.801306 0
M  V30 9 C 39.559114 26.652776 54.603309 0
M  V30 10 C 38.531967 27.243252 53.613123 0 CFG=1
M  V30 11 H 40.542305 31.224460 49.472338 0
M  V30 12 H 41.152381 29.621430 49.071148 0
M  V30 13 H 39.467573 30.021304 48.754919 0
M  V30 14 H 36.446033 27.807213 53.483907 0
M  V30 15 H 36.830836 26.816661 54.890982 0
M  V30 16 H 37.285677 28.523044 54.859850 0
M  V30 17 H 40.661131 27.062924 56.430395 0
M  V30 18 H 40.386089 28.494429 55.453526 0
M  V30 19 H 39.067394 27.803910 56.395804 0
M  V30 20 H 40.157020 31.429634 52.077110 0
M  V30 21 H 39.294834 30.035538 54.076959 0
M  V30 22 H 39.156796 25.723747 55.009195 0
M  V30 23 H 40.461309 26.368414 54.060332 0
M  V30 24 H 38.286697 26.421408 52.943909 0
M  V30 END ATOM
M  V30 BEGIN BOND
M  V30 1 2 6 3
M  V30 2 1 6 5
M  V30 3 1 7 3
M  V30 4 1 8 1
M  V30 5 2 8 5
M  V30 6 1 8 7
M  V30 7 1 9 4
M  V30 8 1 10 2
M  V30 9 1 10 3
M  V30 10 1 10 9
M  V30 11 1 11 1
M  V30 12 1 12 1
M  V30 13 1 13 1
M  V30 14 1 14 2
M  V30 15 1 15 2
M  V30 16 1 16 2
M  V30 17 1 17 4
M  V30 18 1 18 4
M  V30 19 1 19 4
M  V30 20 1 20 5
M  V30 21 1 21 6
M  V30 22 1 22 9
M  V30 23 1 23 9
M  V30 24 1 10 24 CFG=3
M  V30 END BOND
M  V30 END CTAB
M  END
>  <i_epik_Tot_Q>  (1) 
0

>  <i_epik_Tot_abs_Q>  (1) 
0

>  <i_i_glide_confnum>  (1) 
2

>  <i_i_glide_lignum>  (1) 
186

>  <i_i_glide_posenum>  (1) 
72

>  <i_i_glide_rotatable_bonds>  (1) 
2

>  <i_lp_mmshare_version>  (1) 
72125

>  <i_m_source_file_index>  (1) 
75

>  <i_f3d_flags>  (1) 
0

>  <num_sample>  (1) 
100

>  <b_lp_Chiralities_Consistent>  (1) 
1

>  <r_epik_Charging_Adjusted_Penalty>  (1) 
0

>  <r_epik_Ionization_Penalty>  (1) 
0

>  <r_epik_Ionization_Penalty_Charging>  (1) 
0

>  <r_epik_Ionization_Penalty_Neutral>  (1) 
0

>  <r_epik_State_Penalty>  (1) 
-0

>  <r_glide_ring_energy>  (1) 
0

>  <r_i_docking_score>  (1) 
-6.010893221968054

>  <r_i_glide_ecoul>  (1) 
-0.66917316015851624

>  <r_i_glide_eff_state_penalty>  (1) 
-0

>  <r_i_glide_einternal>  (1) 
2.4785815375110802

>  <r_i_glide_emodel>  (1) 
-28.941770809787357

>  <r_i_glide_emodel_strain>  (1) 
0.00179138936942147

>  <r_i_glide_energy>  (1) 
-21.739863811131322

>  <r_i_glide_erotb>  (1) 
0.62454345272379397

>  <r_i_glide_esite>  (1) 
0

>  <r_i_glide_evdw>  (1) 
-21.070690650972807

>  <r_i_glide_gscore>  (1) 
-6.010893221968054

>  <r_i_glide_gscore_strain>  (1) 
0

>  <r_i_glide_hbond>  (1) 
0

>  <r_i_glide_ligand_efficiency>  (1) 
-0.60108932219680544

>  <r_i_glide_ligand_efficiency_ln>  (1) 
-1.8200570319048825

>  <r_i_glide_ligand_efficiency_sa>  (1) 
-1.2950076875485497

>  <r_i_glide_lipo>  (1) 
-2.7347678004990441

>  <r_i_glide_metal>  (1) 
-0

>  <r_i_glide_rewards>  (1) 
-2.7467583676203859

>  <r_lp_Energy>  (1) 
7.9688679999999996

>  <r_lp_tautomer_probability>  (1) 
1

>  <s_epik_cmdline>  (1) 
J2VwaWtfcHl0aG9uJywgJy1waHQnLCAnMS4wJywgJy1waCcsICc3LjQnLCAnLXRuJywgJzgnLCAnLW1hJywgJzUwMCcsICctaW1hZScsICc8aW5maWxlLm1hZT4nLCAnLW9tYWUnLCAnPG91dGZpbGUubWFlPic=

>  <s_epik_input>  (1) 
W0NIM11jKHMxKVtjSF1bY0hdYzFbQ0BIXShbQ0gzXSlbQ0gyXVtDSDNd

>  <s_glide_docking_method>  (1) 
confgen

>  <s_i_glide_gridfile>  (1) 
gpcr_5ht2c_6bqh_protein_autoprepared_prepared

>  <s_lp_Force_Field>  (1) 
S-OPLS

>  <s_lp_Variant>  (1) 
DiffSBDD_74_num_sample_100-1

>  <s_m_source_file>  (1) 
generated__ligand_DiffSBDD_2026-05-06_prepared.sdf

>  <GenAI_Model>  (1) 
DiffSBDD

>  <Protein>  (1) 
GPCR_5HT2C

$$$$
DiffSBDD_59_num_sample_100
     RDKit          3D

  0  0  0  0  0  0  0  0  0  0999 V3000
M  V30 BEGIN CTAB
M  V30 COUNTS 54 55 0 0 1
M  V30 BEGIN ATOM
M  V30 1 O 41.150134 29.321896 65.073067 0
M  V30 2 N 38.479061 27.597783 55.597037 0 CFG=1 CHG=1
M  V30 3 C 38.434691 27.999036 52.331100 0
M  V30 4 C 39.680162 28.214165 56.230957 0
M  V30 5 C 40.019963 30.121648 63.082867 0
M  V30 6 C 40.046940 30.291115 52.152990 0
M  V30 7 C 39.344238 30.024335 53.345030 0
M  V30 8 C 38.523767 28.868338 53.444642 0
M  V30 9 C 39.461495 30.163039 60.157534 0
M  V30 10 C 38.546185 28.414334 58.511668 0
M  V30 11 Cl 39.514322 31.144171 54.651165 0
M  V30 12 C 39.766871 27.893718 57.732071 0
M  V30 13 O 40.667385 29.937969 60.253635 0
M  V30 14 N 38.644847 30.675894 61.088483 0
M  V30 15 N 37.375567 30.828134 60.641189 0
M  V30 16 C 40.218798 30.272035 64.600356 0
M  V30 17 C 38.630047 29.904980 58.913772 0 CFG=1
M  V30 18 C 37.721491 28.541984 54.710531 0 CFG=2
M  V30 19 C 38.816369 26.300236 54.958033 0
M  V30 20 C 38.962197 31.069895 62.467688 0 CFG=2
M  V30 21 C 39.141717 28.270483 51.145170 0
M  V30 22 C 37.321383 30.417159 59.426029 0
M  V30 23 C 39.374196 32.553441 62.519498 0
M  V30 24 C 37.290277 29.845662 55.419712 0
M  V30 25 C 39.949382 29.417108 51.055770 0
M  V30 26 H 40.793689 28.455556 64.943691 0
M  V30 27 H 37.813386 27.116832 52.370728 0
M  V30 28 H 39.682818 29.291805 56.070335 0
M  V30 29 H 40.598045 27.861535 55.757769 0
M  V30 30 H 40.979762 30.286788 62.593957 0
M  V30 31 H 39.750124 29.086517 62.867729 0
M  V30 32 H 40.666160 31.173314 52.077791 0
M  V30 33 H 38.414276 27.806401 59.409279 0
M  V30 34 H 37.650671 28.254673 57.909119 0
M  V30 35 H 40.680758 28.318487 58.149111 0
M  V30 36 H 39.846510 26.818823 57.868770 0
M  V30 37 H 39.278137 30.167297 65.140410 0
M  V30 38 H 40.602158 31.267760 64.825074 0
M  V30 39 H 38.983581 30.523118 58.088031 0
M  V30 40 H 36.792138 28.043272 54.439427 0
M  V30 41 H 39.414051 26.449919 54.057738 0
M  V30 42 H 39.383610 25.666860 55.641475 0
M  V30 43 H 37.923084 25.734506 54.694429 0
M  V30 44 H 38.046501 30.968775 63.053406 0
M  V30 45 H 39.061056 27.601650 50.300415 0
M  V30 46 H 36.416750 30.436745 58.818135 0
M  V30 47 H 39.467305 32.905916 63.546209 0
M  V30 48 H 40.329072 32.725295 62.022157 0
M  V30 49 H 38.627759 33.181662 62.032405 0
M  V30 50 H 36.807539 30.522857 54.713816 0
M  V30 51 H 36.562564 29.661600 56.210084 0
M  V30 52 H 38.133678 30.377601 55.860211 0
M  V30 53 H 40.489548 29.628757 50.144521 0
M  V30 54 H 37.854872 27.367242 56.357146 0
M  V30 END ATOM
M  V30 BEGIN BOND
M  V30 1 1 4 2
M  V30 2 2 7 6
M  V30 3 2 8 3
M  V30 4 1 8 7
M  V30 5 1 11 7
M  V30 6 1 12 4
M  V30 7 1 12 10
M  V30 8 2 13 9
M  V30 9 1 14 9
M  V30 10 1 15 14
M  V30 11 1 16 1
M  V30 12 1 16 5
M  V30 13 1 17 9
M  V30 14 1 17 10
M  V30 15 1 18 2
M  V30 16 1 18 8
M  V30 17 1 19 2
M  V30 18 1 20 5
M  V30 19 1 20 14
M  V30 20 1 21 3
M  V30 21 2 22 15
M  V30 22 1 22 17
M  V30 23 1 23 20
M  V30 24 1 24 18
M  V30 25 1 25 6
M  V30 26 2 25 21
M  V30 27 1 26 1
M  V30 28 1 27 3
M  V30 29 1 28 4
M  V30 30 1 29 4
M  V30 31 1 30 5
M  V30 32 1 31 5
M  V30 33 1 32 6
M  V30 34 1 33 10
M  V30 35 1 34 10
M  V30 36 1 35 12
M  V30 37 1 36 12
M  V30 38 1 37 16
M  V30 39 1 38 16
M  V30 40 1 17 39 CFG=3
M  V30 41 1 18 40 CFG=3
M  V30 42 1 41 19
M  V30 43 1 42 19
M  V30 44 1 43 19
M  V30 45 1 20 44 CFG=1
M  V30 46 1 45 21
M  V30 47 1 46 22
M  V30 48 1 47 23
M  V30 49 1 48 23
M  V30 50 1 49 23
M  V30 51 1 50 24
M  V30 52 1 51 24
M  V30 53 1 52 24
M  V30 54 1 53 25
M  V30 55 1 2 54 CFG=1
M  V30 END BOND
M  V30 END CTAB
M  END
>  <i_epik_Tot_Q>  (1) 
1

>  <i_epik_Tot_abs_Q>  (1) 
1

>  <i_i_glide_confnum>  (1) 
178

>  <i_i_glide_lignum>  (1) 
150

>  <i_i_glide_posenum>  (1) 
112

>  <i_i_glide_rotatable_bonds>  (1) 
10

>  <i_lp_mmshare_version>  (1) 
72125

>  <i_m_source_file_index>  (1) 
60

>  <i_f3d_flags>  (1) 
0

>  <num_sample>  (1) 
100

>  <b_lp_Chiralities_Consistent>  (1) 
1

>  <r_epik_Charging_Adjusted_Penalty>  (1) 
0.90698054963472508

>  <r_epik_Ionization_Penalty>  (1) 
0.11890783771570668

>  <r_epik_Ionization_Penalty_Charging>  (1) 
0.11890771087092902

>  <r_epik_Ionization_Penalty_Neutral>  (1) 
1.2684477765112781e-07

>  <r_epik_State_Penalty>  (1) 
0.78807283876379608

>  <r_glide_ring_energy>  (1) 
0

>  <r_i_docking_score>  (1) 
-6.0092829559329379

>  <r_i_glide_ecoul>  (1) 
-4.2413563389567113

>  <r_i_glide_eff_state_penalty>  (1) 
0.78807283876379608

>  <r_i_glide_einternal>  (1) 
6.5303827382341382

>  <r_i_glide_emodel>  (1) 
-58.98450156631808

>  <r_i_glide_emodel_strain>  (1) 
1.4030712013897073

>  <r_i_glide_energy>  (1) 
-42.31862071635355

>  <r_i_glide_erotb>  (1) 
1.1440711446639862

>  <r_i_glide_esite>  (1) 
-0.043588145088456147

>  <r_i_glide_evdw>  (1) 
-38.077264377396837

>  <r_i_glide_gscore>  (1) 
-6.7973557946967338

>  <r_i_glide_gscore_strain>  (1) 
0

>  <r_i_glide_hbond>  (1) 
-0.12876005857364858

>  <r_i_glide_ligand_efficiency>  (1) 
-0.24037131823731753

>  <r_i_glide_ligand_efficiency_ln>  (1) 
-1.4243801442344348

>  <r_i_glide_ligand_efficiency_sa>  (1) 
-0.70284999828352623

>  <r_i_glide_lipo>  (1) 
-3.4929345111248846

>  <r_i_glide_metal>  (1) 
-0

>  <r_i_glide_rewards>  (1) 
-1.7360775548603811

>  <r_lp_Energy>  (1) 
23.407125000000001

>  <r_lp_tautomer_probability>  (1) 
0.26444745842670125

>  <s_epik_Chemistry_Notes>  (1) 
This compound has an imine and may undergo hydrolysis.

>  <s_epik_cmdline>  (1) 
J2VwaWtfcHl0aG9uJywgJy1waHQnLCAnMS4wJywgJy1waCcsICc3LjQnLCAnLXRuJywgJzgnLCAnLW1hJywgJzUwMCcsICctaW1hZScsICc8aW5maWxlLm1hZT4nLCAnLW9tYWUnLCAnPG91dGZpbGUubWFlPic=

>  <s_epik_input>  (1) 
W09IXVtDSDJdW0NIMl1bQ0BASF0oW0NIM10pTihDMT1PKU49W0NIXVtDQEBIXTFbQ0gyXVtDSDJdW0NIMl1OKFtDSDNdKVtDQEBIXShbQ0gzXSljMltjSF1bY0hdW2NIXVtjSF1jMkNs

>  <s_glide_docking_method>  (1) 
confgen

>  <s_i_glide_gridfile>  (1) 
gpcr_5ht2c_6bqh_protein_autoprepared_prepared

>  <s_lp_Force_Field>  (1) 
S-OPLS

>  <s_lp_Variant>  (1) 
DiffSBDD_59_num_sample_100-3

>  <s_m_source_file>  (1) 
generated__ligand_DiffSBDD_2026-05-06_prepared.sdf

>  <GenAI_Model>  (1) 
DiffSBDD

>  <Protein>  (1) 
GPCR_5HT2C

$$$$
DiffSBDD_88_num_sample_100
     RDKit          3D

  0  0  0  0  0  0  0  0  0  0999 V3000
M  V30 BEGIN CTAB
M  V30 COUNTS 72 75 0 0 1
M  V30 BEGIN ATOM
M  V30 1 C 37.078229 30.225359 55.272219 0
M  V30 2 C 39.785786 28.286977 50.438531 0
M  V30 3 C 38.621685 32.199288 61.670908 0 CFG=1
M  V30 4 C 37.969602 31.599473 57.309876 0
M  V30 5 C 38.212604 30.531026 54.289920 0
M  V30 6 C 38.095469 30.871471 61.084813 0
M  V30 7 O 40.539710 28.684234 62.157037 0
M  V30 8 C 36.219458 34.635929 60.089409 0 CFG=1
M  V30 9 C 39.037953 28.224078 54.470277 0
M  V30 10 C 37.467430 30.239934 56.766659 0
M  V30 11 O 40.984577 29.942443 63.938847 0 CHG=-1
M  V30 12 N 37.731840 31.763268 58.774482 0 CFG=2 CHG=1
M  V30 13 C 38.002506 33.158299 59.248990 0 CFG=1
M  V30 14 C 40.166946 32.233762 61.973642 0 CFG=1
M  V30 15 C 39.979514 30.784266 50.336104 0
M  V30 16 C 38.401307 30.718536 59.588764 0
M  V30 17 C 37.098387 35.731273 60.707351 0
M  V30 18 C 40.428238 32.873923 63.363011 0
M  V30 19 C 41.067071 30.971524 61.792348 0
M  V30 20 N 39.307058 27.384596 55.221242 0
M  V30 21 C 40.838983 29.763760 62.711447 0
M  V30 22 C 39.453443 35.375290 61.436691 0
M  V30 23 O 37.671452 28.821429 52.658087 0
M  V30 24 C 39.939697 29.621788 52.644295 0 CFG=1
M  V30 25 C 39.867449 29.605630 49.718561 0
M  V30 26 C 36.860120 34.114562 58.790680 0
M  V30 27 C 40.410387 28.399000 51.824561 0
M  V30 28 C 37.987903 33.360575 60.802779 0 CFG=1
M  V30 29 C 40.058879 30.940161 51.834840 0
M  V30 30 C 36.460210 33.453853 61.026158 0
M  V30 31 C 38.696570 29.294021 53.507484 0 CFG=1
M  V30 32 C 38.277147 34.863668 61.029837 0
M  V30 33 H 36.267402 30.917873 55.053532 0
M  V30 34 H 36.667269 29.245048 55.045173 0
M  V30 35 H 38.747071 27.961342 50.471006 0
M  V30 36 H 40.319114 27.528228 49.875203 0
M  V30 37 H 38.145326 32.265650 62.650646 0
M  V30 38 H 39.032752 31.718955 57.093604 0
M  V30 39 H 37.467526 32.405078 56.773192 0
M  V30 40 H 39.053339 30.972222 54.823240 0
M  V30 41 H 37.867880 31.310984 53.614986 0
M  V30 42 H 37.018724 30.795633 61.229804 0
M  V30 43 H 38.465669 30.019029 61.639244 0
M  V30 44 H 35.174970 34.908620 59.955517 0
M  V30 45 H 36.584164 29.939366 57.328973 0
M  V30 46 H 38.213497 29.468384 56.960446 0
M  V30 47 H 38.969157 33.478897 58.854918 0
M  V30 48 H 40.595427 32.862982 61.198779 0
M  V30 49 H 40.028489 31.689799 49.751547 0
M  V30 50 H 38.060146 29.730502 59.282491 0
M  V30 51 H 39.467374 30.749209 59.391475 0
M  V30 52 H 36.667531 36.145809 61.620036 0
M  V30 53 H 37.341338 36.535804 60.011420 0
M  V30 54 H 40.092459 32.231010 64.176143 0
M  V30 55 H 41.489080 33.074474 63.517406 0
M  V30 56 H 39.890020 33.807750 63.502105 0
M  V30 57 H 41.066655 30.631189 60.760840 0
M  V30 58 H 42.089671 31.292462 61.985139 0
M  V30 59 H 39.574380 36.441611 61.557147 0
M  V30 60 H 40.299492 34.762357 61.642638 0
M  V30 61 H 38.040014 28.721133 51.792957 0
M  V30 62 H 40.667156 29.849812 53.415568 0
M  V30 63 H 39.818611 29.572172 48.645104 0
M  V30 64 H 36.087840 33.621428 58.209776 0
M  V30 65 H 37.249683 34.928892 58.187356 0
M  V30 66 H 41.478253 28.500385 51.658574 0
M  V30 67 H 40.267317 27.461575 52.360232 0
M  V30 68 H 39.433854 31.749043 52.190134 0
M  V30 69 H 41.067261 31.314654 51.981258 0
M  V30 70 H 35.891199 32.577809 60.712943 0
M  V30 71 H 36.186678 33.679658 62.059092 0
M  V30 72 H 36.736265 31.622014 58.884717 0
M  V30 END ATOM
M  V30 BEGIN BOND
M  V30 1 1 5 1
M  V30 2 1 6 3
M  V30 3 1 10 1
M  V30 4 1 10 4
M  V30 5 1 12 4
M  V30 6 1 13 12
M  V30 7 1 14 3
M  V30 8 1 16 6
M  V30 9 1 16 12
M  V30 10 1 17 8
M  V30 11 1 18 14
M  V30 12 1 19 14
M  V30 13 3 20 9
M  V30 14 2 21 7
M  V30 15 1 21 11
M  V30 16 1 21 19
M  V30 17 1 25 2
M  V30 18 2 25 15
M  V30 19 1 26 8
M  V30 20 1 26 13
M  V30 21 1 27 2
M  V30 22 1 27 24
M  V30 23 1 28 3
M  V30 24 1 28 13
M  V30 25 1 29 15
M  V30 26 1 29 24
M  V30 27 1 30 8
M  V30 28 1 30 28
M  V30 29 1 31 5
M  V30 30 1 31 9 CFG=1
M  V30 31 1 31 23
M  V30 32 1 31 24
M  V30 33 1 32 17
M  V30 34 2 32 22
M  V30 35 1 28 32 CFG=3
M  V30 36 1 33 1
M  V30 37 1 34 1
M  V30 38 1 35 2
M  V30 39 1 36 2
M  V30 40 1 3 37 CFG=1
M  V30 41 1 38 4
M  V30 42 1 39 4
M  V30 43 1 40 5
M  V30 44 1 41 5
M  V30 45 1 42 6
M  V30 46 1 43 6
M  V30 47 1 8 44 CFG=3
M  V30 48 1 45 10
M  V30 49 1 46 10
M  V30 50 1 13 47 CFG=3
M  V30 51 1 14 48 CFG=3
M  V30 52 1 49 15
M  V30 53 1 50 16
M  V30 54 1 51 16
M  V30 55 1 52 17
M  V30 56 1 53 17
M  V30 57 1 54 18
M  V30 58 1 55 18
M  V30 59 1 56 18
M  V30 60 1 57 19
M  V30 61 1 58 19
M  V30 62 1 59 22
M  V30 63 1 60 22
M  V30 64 1 61 23
M  V30 65 1 24 62 CFG=1
M  V30 66 1 63 25
M  V30 67 1 64 26
M  V30 68 1 65 26
M  V30 69 1 66 27
M  V30 70 1 67 27
M  V30 71 1 68 29
M  V30 72 1 69 29
M  V30 73 1 70 30
M  V30 74 1 71 30
M  V30 75 1 12 72 CFG=3
M  V30 END BOND
M  V30 END CTAB
M  END
>  <i_epik_Tot_Q>  (1) 
0

>  <i_epik_Tot_abs_Q>  (1) 
2

>  <i_i_glide_confnum>  (1) 
777

>  <i_i_glide_lignum>  (1) 
227

>  <i_i_glide_posenum>  (1) 
134

>  <i_i_glide_rotatable_bonds>  (1) 
10

>  <i_lp_mmshare_version>  (1) 
72125

>  <i_m_source_file_index>  (1) 
89

>  <i_f3d_flags>  (1) 
0

>  <num_sample>  (1) 
100

>  <b_lp_Chiralities_Consistent>  (1) 
1

>  <r_epik_Charging_Adjusted_Penalty>  (1) 
0.0020242395650179774

>  <r_epik_Ionization_Penalty>  (1) 
0.0021859291232044671

>  <r_epik_Ionization_Penalty_Charging>  (1) 
0.0020242395650179774

>  <r_epik_Ionization_Penalty_Neutral>  (1) 
0.00016168955818648959

>  <r_epik_State_Penalty>  (1) 
-0

>  <r_glide_ring_energy>  (1) 
1.8266832637363264

>  <r_i_docking_score>  (1) 
-6.0058451078414201

>  <r_i_glide_ecoul>  (1) 
0.37498583802501662

>  <r_i_glide_eff_state_penalty>  (1) 
-0

>  <r_i_glide_einternal>  (1) 
10.294149909734809

>  <r_i_glide_emodel>  (1) 
-40.805878588616011

>  <r_i_glide_emodel_strain>  (1) 
1.0900415479359253

>  <r_i_glide_energy>  (1) 
-30.079382754106028

>  <r_i_glide_erotb>  (1) 
0.71992511853168706

>  <r_i_glide_esite>  (1) 
-0.11386400504836597

>  <r_i_glide_evdw>  (1) 
-30.454368592131043

>  <r_i_glide_gscore>  (1) 
-6.0058451078414201

>  <r_i_glide_gscore_strain>  (1) 
0

>  <r_i_glide_hbond>  (1) 
-0.0019599727926497266

>  <r_i_glide_ligand_efficiency>  (1) 
-0.18768265962004438

>  <r_i_glide_ligand_efficiency_ln>  (1) 
-1.3448724328001898

>  <r_i_glide_ligand_efficiency_sa>  (1) 
-0.59585530263409603

>  <r_i_glide_lipo>  (1) 
-3.5973867562812778

>  <r_i_glide_metal>  (1) 
-0

>  <r_i_glide_rewards>  (1) 
-1.5460889383480141

>  <r_lp_Energy>  (1) 
58.990349999999999

>  <r_lp_tautomer_probability>  (1) 
1

>  <s_epik_cmdline>  (1) 
J2VwaWtfcHl0aG9uJywgJy1waHQnLCAnMS4wJywgJy1waCcsICc3LjQnLCAnLXRuJywgJzgnLCAnLW1hJywgJzUwMCcsICctaW1hZScsICc8aW5maWxlLm1hZT4nLCAnLW9tYWUnLCAnPG91dGZpbGUubWFlPic=

>  <s_epik_input>  (1) 
W0NIMl0xW0NIXT1bQ0hdW0NIMl1bQ0gyXVtDQEBIXTFbQ0BdKEMjTikoW09IXSlbQ0gyXVtDSDJdW0NIMl1bQ0gyXU4oW0NASF0oW0NAXTIzNClbQ0gyXVtDQEBIXShbQ0gyXTMpW0NIMl1DND1bQ0gyXSlbQ0gyXVtDSDJdW0NASF0yW0NAQEhdKFtDSDNdKVtDSDJdQyg9TylbT0hd

>  <s_glide_docking_method>  (1) 
confgen

>  <s_i_glide_gridfile>  (1) 
gpcr_5ht2c_6bqh_protein_autoprepared_prepared

>  <s_lp_Force_Field>  (1) 
S-OPLS

>  <s_lp_Variant>  (1) 
DiffSBDD_88_num_sample_100-2

>  <s_m_source_file>  (1) 
generated__ligand_DiffSBDD_2026-05-06_prepared.sdf

>  <GenAI_Model>  (1) 
DiffSBDD

>  <Protein>  (1) 
GPCR_5HT2C

$$$$
DiffSBDD_29_num_sample_100
     RDKit          3D

  0  0  0  0  0  0  0  0  0  0999 V3000
M  V30 BEGIN CTAB
M  V30 COUNTS 85 89 0 0 1
M  V30 BEGIN ATOM
M  V30 1 F 37.378486 38.399891 61.027433 0
M  V30 2 C 36.297508 31.868204 59.224646 0
M  V30 3 C 36.894829 35.571118 61.349662 0
M  V30 4 C 40.218039 28.783819 56.205665 0 CFG=2
M  V30 5 C 39.500322 30.692453 52.697387 0
M  V30 6 C 40.434353 30.043603 55.365323 0
M  V30 7 C 39.470445 37.990698 61.854277 0
M  V30 8 N 37.651153 32.164669 59.683127 0
M  V30 9 C 39.326193 26.231671 55.876230 0 CFG=1
M  V30 10 C 39.215036 28.702171 50.420591 0
M  V30 11 C 38.107066 32.902841 57.241714 0
M  V30 12 C 38.485886 28.553469 51.744296 0 CFG=1
M  V30 13 C 38.302840 37.568050 61.533471 0
M  V30 14 C 38.896526 31.637572 57.493992 0 CFG=2
M  V30 15 C 35.411521 32.421513 61.453526 0
M  V30 16 C 37.022314 25.469994 55.091951 0
M  V30 17 C 39.615898 27.663078 55.244347 0 CFG=1
M  V30 18 C 38.368029 30.193766 57.480215 0 CFG=1
M  V30 19 C 39.262542 35.494330 62.238917 0
M  V30 20 N 36.791110 32.659787 61.853448 0
M  V30 21 N 38.098507 36.263008 61.725837 0
M  V30 22 F 39.867375 39.261132 61.705930 0
M  V30 23 S 38.639607 27.023915 52.675215 0
M  V30 24 C 37.598388 33.161527 60.745168 0 CFG=2
M  V30 25 C 35.467079 31.380211 60.370292 0
M  V30 26 C 37.250195 26.422628 57.443009 0
M  V30 27 O 37.437604 30.021602 56.435562 0
M  V30 28 C 38.731308 28.223119 54.041033 0 CFG=2
M  V30 29 C 39.473975 29.123298 57.513924 0
M  V30 30 C 39.516239 30.200575 50.131108 0
M  V30 31 C 40.093073 30.973830 51.304814 0
M  V30 32 C 37.116307 34.550957 60.243161 0
M  V30 33 O 40.159318 25.935100 56.979757 0
M  V30 34 C 39.285419 29.172685 52.862950 0 CFG=2
M  V30 35 C 38.592319 32.581485 58.638929 0 CFG=2
M  V30 36 C 37.937556 25.696704 56.279998 0
M  V30 37 O 41.467744 28.290157 56.653821 0
M  V30 38 S 40.584219 36.821577 62.494963 0
M  V30 39 H 35.826115 32.730587 58.753387 0
M  V30 40 H 36.267937 31.051373 58.528673 0
M  V30 41 H 36.267448 36.342350 60.920120 0
M  V30 42 H 36.361378 35.182728 62.214550 0
M  V30 43 H 40.317719 31.122342 53.262932 0
M  V30 44 H 38.667388 31.296257 53.053563 0
M  V30 45 H 39.473016 30.465145 55.106099 0
M  V30 46 H 41.067127 30.913411 55.453520 0
M  V30 47 H 40.982566 29.692859 54.542919 0
M  V30 48 H 39.672890 25.515561 55.127718 0
M  V30 49 H 40.161764 28.162052 50.457958 0
M  V30 50 H 38.668025 28.255233 49.605269 0
M  V30 51 H 38.626770 33.695611 56.704525 0
M  V30 52 H 37.067523 32.821073 56.976001 0
M  V30 53 H 37.452285 28.878849 51.736955 0
M  V30 54 H 39.867481 31.741795 57.052863 0
M  V30 55 H 34.925310 33.335092 61.108793 0
M  V30 56 H 34.795117 32.031697 62.253347 0
M  V30 57 H 36.667519 26.423212 54.713436 0
M  V30 58 H 37.524080 24.942320 54.281308 0
M  V30 59 H 36.170764 24.853989 55.384098 0
M  V30 60 H 40.487388 27.289731 54.714287 0
M  V30 61 H 37.866879 29.971775 58.415557 0
M  V30 62 H 39.067398 34.940006 63.155102 0
M  V30 63 H 39.670022 34.825522 61.485899 0
M  V30 64 H 36.814954 33.335944 62.602371 0
M  V30 65 H 38.607135 33.218960 61.138914 0
M  V30 66 H 34.487757 31.240441 59.965994 0
M  V30 67 H 35.834371 30.424341 60.741899 0
M  V30 68 H 37.068020 27.470336 57.223804 0
M  V30 69 H 36.292802 25.963704 57.688339 0
M  V30 70 H 37.863546 26.369846 58.339676 0
M  V30 71 H 36.737904 30.663048 56.558706 0
M  V30 72 H 37.721691 28.502859 54.342731 0
M  V30 73 H 39.092092 28.209616 57.954512 0
M  V30 74 H 40.196925 29.472396 58.254700 0
M  V30 75 H 40.195838 30.264406 49.285857 0
M  V30 76 H 38.667532 30.820330 49.853709 0
M  V30 77 H 41.164898 30.774926 51.324549 0
M  V30 78 H 39.973446 32.021193 51.094145 0
M  V30 79 H 37.800312 34.962745 59.502637 0
M  V30 80 H 36.164111 34.484306 59.725476 0
M  V30 81 H 40.962089 26.437230 56.891477 0
M  V30 82 H 40.267393 28.801990 52.652810 0
M  V30 83 H 39.466435 33.141533 58.963033 0
M  V30 84 H 38.119750 24.688767 56.653514 0
M  V30 85 H 42.100164 28.375785 55.955716 0
M  V30 END ATOM
M  V30 BEGIN BOND
M  V30 1 1 6 4
M  V30 2 1 8 2
M  V30 3 1 12 10
M  V30 4 1 13 1
M  V30 5 2 13 7
M  V30 6 1 14 11
M  V30 7 1 17 4
M  V30 8 1 17 9
M  V30 9 1 18 14
M  V30 10 1 20 15
M  V30 11 1 21 3
M  V30 12 1 21 13
M  V30 13 1 21 19
M  V30 14 1 22 7
M  V30 15 1 23 12
M  V30 16 1 24 8
M  V30 17 1 24 20
M  V30 18 1 25 2
M  V30 19 1 25 15
M  V30 20 1 27 18
M  V30 21 1 28 17
M  V30 22 1 28 23
M  V30 23 1 29 4
M  V30 24 1 29 18
M  V30 25 1 30 10
M  V30 26 1 31 5
M  V30 27 1 31 30
M  V30 28 1 32 3
M  V30 29 1 32 24
M  V30 30 1 33 9
M  V30 31 1 34 5
M  V30 32 1 34 12
M  V30 33 1 34 28
M  V30 34 1 35 8
M  V30 35 1 35 11
M  V30 36 1 35 14
M  V30 37 1 36 9
M  V30 38 1 36 16
M  V30 39 1 36 26
M  V30 40 1 4 37 CFG=1
M  V30 41 1 38 7
M  V30 42 1 38 19
M  V30 43 1 39 2
M  V30 44 1 40 2
M  V30 45 1 41 3
M  V30 46 1 42 3
M  V30 47 1 43 5
M  V30 48 1 44 5
M  V30 49 1 45 6
M  V30 50 1 46 6
M  V30 51 1 47 6
M  V30 52 1 9 48 CFG=3
M  V30 53 1 49 10
M  V30 54 1 50 10
M  V30 55 1 51 11
M  V30 56 1 52 11
M  V30 57 1 12 53 CFG=3
M  V30 58 1 14 54 CFG=3
M  V30 59 1 55 15
M  V30 60 1 56 15
M  V30 61 1 57 16
M  V30 62 1 58 16
M  V30 63 1 59 16
M  V30 64 1 17 60 CFG=3
M  V30 65 1 18 61 CFG=1
M  V30 66 1 62 19
M  V30 67 1 63 19
M  V30 68 1 64 20
M  V30 69 1 24 65 CFG=1
M  V30 70 1 66 25
M  V30 71 1 67 25
M  V30 72 1 68 26
M  V30 73 1 69 26
M  V30 74 1 70 26
M  V30 75 1 71 27
M  V30 76 1 28 72 CFG=1
M  V30 77 1 73 29
M  V30 78 1 74 29
M  V30 79 1 75 30
M  V30 80 1 76 30
M  V30 81 1 77 31
M  V30 82 1 78 31
M  V30 83 1 79 32
M  V30 84 1 80 32
M  V30 85 1 81 33
M  V30 86 1 34 82 CFG=3
M  V30 87 1 35 83 CFG=1
M  V30 88 1 84 36
M  V30 89 1 85 37
M  V30 END BOND
M  V30 END CTAB
M  END
>  <i_epik_Tot_Q>  (1) 
0

>  <i_epik_Tot_abs_Q>  (1) 
0

>  <i_i_glide_confnum>  (1) 
753

>  <i_i_glide_lignum>  (1) 
74

>  <i_i_glide_posenum>  (1) 
15

>  <i_i_glide_rotatable_bonds>  (1) 
14

>  <i_lp_mmshare_version>  (1) 
72125

>  <i_m_source_file_index>  (1) 
30

>  <i_f3d_flags>  (1) 
0

>  <num_sample>  (1) 
100

>  <b_lp_Chiralities_Consistent>  (1) 
1

>  <r_epik_Charging_Adjusted_Penalty>  (1) 
0.89739717629826321

>  <r_epik_Ionization_Penalty>  (1) 
1.0966562263345743

>  <r_epik_Ionization_Penalty_Charging>  (1) 
8.0809776118824917e-09

>  <r_epik_Ionization_Penalty_Neutral>  (1) 
1.0966562182535966

>  <r_epik_State_Penalty>  (1) 
0.89739716821728555

>  <r_glide_ring_energy>  (1) 
1.6720993256358943

>  <r_i_docking_score>  (1) 
-6.0028639065088818

>  <r_i_glide_ecoul>  (1) 
-7.2935415015631175

>  <r_i_glide_eff_state_penalty>  (1) 
0.89739716821728555

>  <r_i_glide_einternal>  (1) 
85.897704665963303

>  <r_i_glide_emodel>  (1) 
23.689880229130562

>  <r_i_glide_emodel_strain>  (1) 
2.9085438426343728

>  <r_i_glide_energy>  (1) 
-11.345375333281755

>  <r_i_glide_erotb>  (1) 
0.47112220270256994

>  <r_i_glide_esite>  (1) 
-0.051384443401955054

>  <r_i_glide_evdw>  (1) 
-4.0518338317186373

>  <r_i_glide_gscore>  (1) 
-6.900261074726167

>  <r_i_glide_gscore_strain>  (1) 
0

>  <r_i_glide_hbond>  (1) 
-0.16363156696074441

>  <r_i_glide_ligand_efficiency>  (1) 
-0.1579701028028653

>  <r_i_glide_ligand_efficiency_ln>  (1) 
-1.2943940446085527

>  <r_i_glide_ligand_efficiency_sa>  (1) 
-0.5310916006327373

>  <r_i_glide_lipo>  (1) 
-4.6478591949666272

>  <r_i_glide_metal>  (1) 
-0

>  <r_i_glide_rewards>  (1) 
-1.2118851552790106

>  <r_lp_Energy>  (1) 
34.086382999999998

>  <s_epik_Chemistry_Notes>  (1) 
This compound has an imine and may undergo hydrolysis. This compound contains an acetal/aminal-like group ( X-CH(R)-Y where X, Y are N, S, or O) that may be acid/base labile, releasing an aldehyde.

>  <s_epik_cmdline>  (1) 
J2VwaWtfcHl0aG9uJywgJy1waHQnLCAnMS4wJywgJy1waCcsICc3LjQnLCAnLXRuJywgJzgnLCAnLW1hJywgJzUwMCcsICctaW1hZScsICc8aW5maWxlLm1hZT4nLCAnLW9tYWUnLCAnPG91dGZpbGUubWFlPic=

>  <s_epik_input>  (1) 
RkMxPUMoRilOKFtDSDJdUzEpW0NIMl1bQ0gyXVtDQEhdMltOSF1bQ0gyXVtDSDJdW0NIMl1OMltDQEBIXTNbQ0gyXVtDQEBIXTNbQ0BASF0oW09IXSlbQ0gyXVtDQEBdKFtDSDNdKShbT0hdKVtDQEBIXShbQ0BASF0oW09IXSlbQ0hdKFtDSDNdKVtDSDNdKVtDQEhdKFM0KVtDQEBIXShbQ0BASF00NSlbQ0gyXVtDSDJdW0NIMl1bQ0gyXTU=

>  <s_glide_docking_method>  (1) 
confgen

>  <s_i_glide_gridfile>  (1) 
gpcr_5ht2c_6bqh_protein_autoprepared_prepared

>  <s_lp_Force_Field>  (1) 
S-OPLS

>  <s_lp_Variant>  (1) 
DiffSBDD_29_num_sample_100-4

>  <s_m_source_file>  (1) 
generated__ligand_DiffSBDD_2026-05-06_prepared.sdf

>  <GenAI_Model>  (1) 
DiffSBDD

>  <Protein>  (1) 
GPCR_5HT2C

$$$$
DiffSBDD_66_num_sample_100
     RDKit          3D

  0  0  0  0  0  0  0  0  0  0999 V3000
M  V30 BEGIN CTAB
M  V30 COUNTS 111 115 0 0 1
M  V30 BEGIN ATOM
M  V30 1 C 40.518613 34.710915 67.637410 0
M  V30 2 C 39.889639 32.446824 61.013677 0
M  V30 3 C 36.060408 39.957588 62.253231 0
M  V30 4 C 34.228584 32.214054 59.228283 0
M  V30 5 C 37.970344 26.304599 54.381383 0
M  V30 6 C 36.879663 25.603837 56.654274 0
M  V30 7 C 37.918590 38.992396 61.041135 0
M  V30 8 S 37.581226 33.435375 59.034707 0
M  V30 9 C 39.212869 33.748856 61.378875 0 CFG=1
M  V30 10 C 39.650645 35.854727 67.282583 0
M  V30 11 C 41.548904 35.651144 64.858934 0
M  V30 12 C 40.388564 36.337072 64.880844 0
M  V30 13 C 38.738262 28.808952 54.086089 0
M  V30 14 C 41.228949 32.913175 68.679032 0
M  V30 15 C 38.768244 29.550788 59.387049 0 CFG=2
M  V30 16 C 42.268335 35.093896 66.017021 0
M  V30 17 C 39.882278 36.940666 63.576085 0
M  V30 18 O 39.810607 30.998914 54.057212 0
M  V30 19 C 38.574766 36.583168 61.379728 0 CFG=1
M  V30 20 N 40.260819 33.880119 68.630770 0 CHG=1
M  V30 21 C 37.099132 40.090191 61.331544 0
M  V30 22 C 37.690415 37.758783 61.677506 0
M  V30 23 C 38.055531 27.739591 54.908848 0
M  V30 24 C 43.403368 32.531022 67.255740 0
M  V30 25 C 39.596486 36.554228 66.111283 0
M  V30 26 C 37.298315 29.779460 59.869562 0
M  V30 27 C 37.898095 25.290010 55.548220 0 CFG=1
M  V30 28 C 38.923228 30.069005 57.944105 0
M  V30 29 C 39.197836 35.940742 62.629475 0 CFG=1
M  V30 30 C 40.072987 34.727037 62.199929 0 CFG=2
M  V30 31 C 35.105939 31.306941 61.375809 0
M  V30 32 C 40.140418 29.573274 57.214197 0
M  V30 33 N 41.642570 34.344912 67.053450 0
M  V30 34 C 36.628275 37.624409 62.596123 0
M  V30 35 C 42.133419 33.204470 67.671816 0
M  V30 36 C 39.018476 28.023207 59.421465 0
M  V30 37 O 37.544386 24.022681 55.053456 0
M  V30 38 C 39.809627 30.175011 60.381670 0
M  V30 39 C 36.267182 30.689920 59.151706 0
M  V30 40 C 35.487848 31.782564 59.971776 0
M  V30 41 C 38.594319 34.447133 60.126582 0 CFG=2
M  V30 42 N 39.278671 31.351627 61.029700 0
M  V30 43 C 40.267898 29.549350 55.873676 0
M  V30 44 C 36.270938 33.065364 60.216067 0
M  V30 45 C 35.814792 38.727051 62.880678 0
M  V30 46 C 41.358073 35.143073 61.456047 0
M  V30 47 C 38.898645 28.703058 52.749985 0
M  V30 48 C 39.223204 30.018091 54.882560 0 CFG=2
M  V30 49 C 37.747737 35.626784 60.569500 0
M  V30 50 H 40.935212 32.523860 60.716713 0
M  V30 51 H 35.467686 40.807559 62.487492 0
M  V30 52 H 34.407534 33.063562 58.579606 0
M  V30 53 H 33.442720 32.601331 59.853525 0
M  V30 54 H 33.851713 31.379383 58.652765 0
M  V30 55 H 37.108640 26.208942 53.719023 0
M  V30 56 H 38.859586 26.075047 53.792854 0
M  V30 57 H 37.037047 26.580692 57.108073 0
M  V30 58 H 36.936453 24.869525 57.459645 0
M  V30 59 H 35.867781 25.583682 56.258676 0
M  V30 60 H 38.723999 39.099023 60.334222 0
M  V30 61 H 38.948415 36.137819 68.047589 0
M  V30 62 H 42.065169 35.547637 63.922263 0
M  V30 63 H 41.217387 32.117773 69.410184 0
M  V30 64 H 43.066885 34.485045 65.596286 0
M  V30 65 H 42.727481 35.955659 66.496260 0
M  V30 66 H 39.182693 37.729335 63.838584 0
M  V30 67 H 40.688566 37.458443 63.059433 0
M  V30 68 H 39.141979 31.623162 53.824957 0
M  V30 69 H 39.400855 36.821413 60.745072 0
M  V30 70 H 37.277503 41.041040 60.852675 0
M  V30 71 H 37.067469 28.140832 55.055632 0
M  V30 72 H 38.540846 27.701417 55.884761 0
M  V30 73 H 43.636260 31.710706 67.935340 0
M  V30 74 H 44.238061 33.231311 67.284484 0
M  V30 75 H 43.309549 32.130457 66.244749 0
M  V30 76 H 38.845005 37.329328 66.059436 0
M  V30 77 H 36.813319 28.823591 59.841106 0
M  V30 78 H 37.337161 30.021664 60.914084 0
M  V30 79 H 38.888488 25.212841 55.997485 0
M  V30 80 H 38.063706 29.725361 57.370149 0
M  V30 81 H 38.938423 31.159274 57.926694 0
M  V30 82 H 38.350098 35.621603 63.213414 0
M  V30 83 H 40.361154 34.181648 63.096784 0
M  V30 84 H 36.028281 31.066704 61.853532 0
M  V30 85 H 34.494688 30.422638 61.453572 0
M  V30 86 H 34.667298 32.104011 61.970260 0
M  V30 87 H 40.957709 29.219702 57.830377 0
M  V30 88 H 36.445323 36.678583 63.086826 0
M  V30 89 H 38.761547 27.622089 60.399426 0
M  V30 90 H 40.058591 27.758762 59.242882 0
M  V30 91 H 38.415213 27.501947 58.682841 0
M  V30 92 H 36.670855 24.072497 54.686328 0
M  V30 93 H 40.054223 29.459301 61.166066 0
M  V30 94 H 40.752154 30.356787 59.872290 0
M  V30 95 H 36.689810 31.129251 58.265912 0
M  V30 96 H 35.533316 30.014571 58.715362 0
M  V30 97 H 39.380097 34.793286 59.461939 0
M  V30 98 H 41.178979 29.175655 55.453596 0
M  V30 99 H 35.592430 33.919351 60.272742 0
M  V30 100 H 36.711982 33.000203 61.198597 0
M  V30 101 H 35.010220 38.636495 63.592411 0
M  V30 102 H 41.162540 35.392462 60.421090 0
M  V30 103 H 42.057850 34.320016 61.453167 0
M  V30 104 H 41.862862 36.006173 61.882387 0
M  V30 105 H 39.386766 29.481449 52.181856 0
M  V30 106 H 38.542423 27.838334 52.210204 0
M  V30 107 H 38.373424 30.473719 55.388535 0
M  V30 108 H 37.322603 36.134365 59.699775 0
M  V30 109 H 36.916751 35.313818 61.196507 0
M  V30 110 H 39.460464 33.940317 69.244316 0
M  V30 111 H 38.431641 33.479790 62.085669 0
M  V30 END ATOM
M  V30 BEGIN BOND
M  V30 1 1 9 2
M  V30 2 1 10 1
M  V30 3 2 12 11
M  V30 4 1 16 11
M  V30 5 1 17 12
M  V30 6 2 20 1
M  V30 7 1 20 14
M  V30 8 2 21 3
M  V30 9 1 21 7
M  V30 10 2 22 7
M  V30 11 1 22 19
M  V30 12 1 23 5
M  V30 13 1 23 13
M  V30 14 2 25 10
M  V30 15 1 25 12
M  V30 16 1 26 15
M  V30 17 1 27 5
M  V30 18 1 27 6
M  V30 19 1 15 28 CFG=3
M  V30 20 1 29 17
M  V30 21 1 29 19
M  V30 22 1 30 9
M  V30 23 1 30 29
M  V30 24 1 32 28
M  V30 25 1 33 1
M  V30 26 1 33 16
M  V30 27 1 34 22
M  V30 28 2 35 14
M  V30 29 1 35 24
M  V30 30 1 35 33
M  V30 31 1 36 15
M  V30 32 1 37 27
M  V30 33 1 38 15
M  V30 34 1 39 26
M  V30 35 1 40 4
M  V30 36 1 40 31
M  V30 37 1 40 39
M  V30 38 1 41 8
M  V30 39 1 41 9
M  V30 40 2 42 2
M  V30 41 1 42 38
M  V30 42 2 43 32
M  V30 43 1 44 8
M  V30 44 1 44 40
M  V30 45 1 45 3
M  V30 46 2 45 34
M  V30 47 1 46 30
M  V30 48 2 47 13
M  V30 49 1 48 13
M  V30 50 1 48 18
M  V30 51 1 48 43
M  V30 52 1 49 19
M  V30 53 1 49 41
M  V30 54 1 50 2
M  V30 55 1 51 3
M  V30 56 1 52 4
M  V30 57 1 53 4
M  V30 58 1 54 4
M  V30 59 1 55 5
M  V30 60 1 56 5
M  V30 61 1 57 6
M  V30 62 1 58 6
M  V30 63 1 59 6
M  V30 64 1 60 7
M  V30 65 1 61 10
M  V30 66 1 62 11
M  V30 67 1 63 14
M  V30 68 1 64 16
M  V30 69 1 65 16
M  V30 70 1 66 17
M  V30 71 1 67 17
M  V30 72 1 68 18
M  V30 73 1 19 69 CFG=3
M  V30 74 1 70 21
M  V30 75 1 71 23
M  V30 76 1 72 23
M  V30 77 1 73 24
M  V30 78 1 74 24
M  V30 79 1 75 24
M  V30 80 1 76 25
M  V30 81 1 77 26
M  V30 82 1 78 26
M  V30 83 1 27 79 CFG=1
M  V30 84 1 80 28
M  V30 85 1 81 28
M  V30 86 1 29 82 CFG=1
M  V30 87 1 30 83 CFG=1
M  V30 88 1 84 31
M  V30 89 1 85 31
M  V30 90 1 86 31
M  V30 91 1 87 32
M  V30 92 1 88 34
M  V30 93 1 89 36
M  V30 94 1 90 36
M  V30 95 1 91 36
M  V30 96 1 92 37
M  V30 97 1 93 38
M  V30 98 1 94 38
M  V30 99 1 95 39
M  V30 100 1 96 39
M  V30 101 1 41 97 CFG=3
M  V30 102 1 98 43
M  V30 103 1 99 44
M  V30 104 1 100 44
M  V30 105 1 101 45
M  V30 106 1 102 46
M  V30 107 1 103 46
M  V30 108 1 104 46
M  V30 109 1 105 47
M  V30 110 1 106 47
M  V30 111 1 48 107 CFG=1
M  V30 112 1 108 49
M  V30 113 1 109 49
M  V30 114 1 110 20
M  V30 115 1 9 111 CFG=1
M  V30 END BOND
M  V30 END CTAB
M  END
>  <i_epik_Tot_Q>  (1) 
1

>  <i_epik_Tot_abs_Q>  (1) 
1

>  <i_i_glide_confnum>  (1) 
1536

>  <i_i_glide_lignum>  (1) 
175

>  <i_i_glide_posenum>  (1) 
243

>  <i_i_glide_rotatable_bonds>  (1) 
12

>  <i_lp_mmshare_version>  (1) 
72125

>  <i_m_source_file_index>  (1) 
67

>  <i_f3d_flags>  (1) 
0

>  <num_sample>  (1) 
100

>  <b_lp_Chiralities_Consistent>  (1) 
1

>  <r_epik_Charging_Adjusted_Penalty>  (1) 
1.1641737349406356

>  <r_epik_Ionization_Penalty>  (1) 
1.1550326719201827

>  <r_epik_Ionization_Penalty_Charging>  (1) 
0

>  <r_epik_Ionization_Penalty_Neutral>  (1) 
1.1550326719201827

>  <r_epik_State_Penalty>  (1) 
1.1641737349406356

>  <r_glide_ring_energy>  (1) 
0

>  <r_i_docking_score>  (1) 
-5.9987275326369902

>  <r_i_glide_ecoul>  (1) 
0.85590005695929205

>  <r_i_glide_eff_state_penalty>  (1) 
1.1641737349406356

>  <r_i_glide_einternal>  (1) 
8.8265735894405459

>  <r_i_glide_emodel>  (1) 
-36.820137777666766

>  <r_i_glide_emodel_strain>  (1) 
6.7409668633365385

>  <r_i_glide_energy>  (1) 
-19.762382358879712

>  <r_i_glide_erotb>  (1) 
0.28694684240539414

>  <r_i_glide_esite>  (1) 
0

>  <r_i_glide_evdw>  (1) 
-20.618282415839005

>  <r_i_glide_gscore>  (1) 
-7.1629012675776256

>  <r_i_glide_gscore_strain>  (1) 
0.68524171583413462

>  <r_i_glide_hbond>  (1) 
0

>  <r_i_glide_ligand_efficiency>  (1) 
-0.12242301087014265

>  <r_i_glide_ligand_efficiency_ln>  (1) 
-1.2262771661816534

>  <r_i_glide_ligand_efficiency_sa>  (1) 
-0.44798322271531738

>  <r_i_glide_lipo>  (1) 
-5.6369570811856669

>  <r_i_glide_metal>  (1) 
-0

>  <r_i_glide_rewards>  (1) 
-1.5956036323834315

>  <r_lp_Energy>  (1) 
61.575507999999999

>  <s_epik_Chemistry_Notes>  (1) 
This compound has an imine and may undergo hydrolysis.

>  <s_epik_cmdline>  (1) 
J2VwaWtfcHl0aG9uJywgJy1waHQnLCAnMS4wJywgJy1waCcsICc3LjQnLCAnLXRuJywgJzgnLCAnLW1hJywgJzUwMCcsICctaW1hZScsICc8aW5maWxlLm1hZT4nLCAnLW9tYWUnLCAnPG91dGZpbGUubWFlPic=

>  <s_epik_input>  (1) 
bjFbY0hdYyhbQ0gzXSluKGMxMilbQ0gyXVtDSF09QyhbQ0hdPVtDSF0yKVtDSDJdW0NASF0oW0NAQEhdM1tDSDNdKVtDQEhdKGM0W2NIXVtjSF1bY0hdW2NIXVtjSF00KVtDSDJdW0NAQEhdKFtDQEhdMzUpU1tDSDJdQyhbQ0gzXSkoW0NIM10pW0NIMl1bQ0gyXVtDQF0oW0NIM10pKFtDSDJdXE49W0NIXVw1KVtDSDJdL1tDSF09W0NIXVxbQ0BASF0oW09IXSlDKD1bQ0gyXSlbQ0gyXVtDSDJdW0NAQEhdKFtDSDNdKVtPSF0=

>  <s_glide_docking_method>  (1) 
confgen

>  <s_i_glide_gridfile>  (1) 
gpcr_5ht2c_6bqh_protein_autoprepared_prepared

>  <s_lp_Force_Field>  (1) 
S-OPLS

>  <s_lp_Variant>  (1) 
DiffSBDD_66_num_sample_100-12

>  <s_m_source_file>  (1) 
generated__ligand_DiffSBDD_2026-05-06_prepared.sdf

>  <GenAI_Model>  (1) 
DiffSBDD

>  <Protein>  (1) 
GPCR_5HT2C

$$$$
DiffSBDD_23_num_sample_100
     RDKit          3D

  0  0  0  0  0  0  0  0  0  0999 V3000
M  V30 BEGIN CTAB
M  V30 COUNTS 83 87 0 0 1
M  V30 BEGIN ATOM
M  V30 1 C 38.765511 30.294888 54.605656 0
M  V30 2 C 41.020446 31.525482 61.710667 0
M  V30 3 C 41.752500 34.609148 63.516299 0
M  V30 4 O 41.446582 32.193224 66.946961 0
M  V30 5 N 39.358064 35.566592 62.906177 0
M  V30 6 C 38.854046 29.899274 61.273707 0
M  V30 7 C 37.867152 31.625040 58.096190 0
M  V30 8 N 40.574759 32.873691 62.156090 0
M  V30 9 C 41.007600 32.533101 64.573752 0
M  V30 10 C 42.267613 35.048498 64.748371 0
M  V30 11 C 37.282132 34.915423 59.908235 0
M  V30 12 C 37.931077 35.493965 61.160610 0
M  V30 13 C 37.981407 30.584033 56.990146 0 CFG=1
M  V30 14 C 37.613076 36.556699 61.792694 0
M  V30 15 N 38.243227 31.206122 55.654968 0 CFG=1 CHG=1
M  V30 16 C 41.085845 29.024081 62.189200 0
M  V30 17 C 40.937485 30.867893 66.856572 0
M  V30 18 C 41.534080 32.977026 65.812099 0
M  V30 19 C 40.170805 30.257409 62.040660 0 CFG=1
M  V30 20 C 37.115129 26.741011 55.078658 0
M  V30 21 C 39.024240 34.895091 61.853354 0
M  V30 22 C 39.327442 29.275420 58.897587 0
M  V30 23 C 39.307880 27.381500 53.171087 0
M  V30 24 O 40.212495 28.489495 59.225828 0
M  V30 25 C 39.493609 27.245230 54.696136 0
M  V30 26 C 41.090753 33.360109 63.427809 0
M  V30 27 C 39.673665 33.548308 61.319783 0
M  V30 28 C 39.007308 32.477944 55.669148 0
M  V30 29 C 38.456873 36.821347 63.007558 0
M  V30 30 C 38.355038 28.069071 56.856433 0
M  V30 31 C 37.916891 29.025300 54.380228 0 CFG=2
M  V30 32 C 42.155219 34.237588 65.893114 0
M  V30 33 C 37.545174 30.910855 59.395028 0
M  V30 34 C 38.214654 27.809281 55.313454 0 CFG=2
M  V30 35 C 38.228076 28.457734 52.973995 0
M  V30 36 O 39.363494 33.113351 60.224395 0
M  V30 37 N 38.644594 30.035937 59.806257 0
M  V30 38 C 38.941485 29.416228 57.378113 0 CFG=1
M  V30 39 H 38.750784 30.872923 53.680536 0
M  V30 40 H 39.816736 30.059783 54.770888 0
M  V30 41 H 41.996906 31.399822 62.178861 0
M  V30 42 H 41.259966 31.533589 60.653591 0
M  V30 43 H 41.860890 35.231581 62.639730 0
M  V30 44 H 38.047166 30.425233 61.784433 0
M  V30 45 H 38.667554 28.850443 61.491103 0
M  V30 46 H 38.809127 32.155948 58.183446 0
M  V30 47 H 37.100359 32.370760 57.883329 0
M  V30 48 H 40.532806 31.574278 64.508040 0
M  V30 49 H 42.757657 36.009963 64.814208 0
M  V30 50 H 37.952662 34.821846 59.061652 0
M  V30 51 H 36.459946 35.557482 59.590697 0
M  V30 52 H 36.848349 33.938621 60.120692 0
M  V30 53 H 36.985523 30.152120 56.888276 0
M  V30 54 H 36.811050 37.222014 61.507492 0
M  V30 55 H 41.531187 28.718086 61.247363 0
M  V30 56 H 40.538696 28.166420 62.583277 0
M  V30 57 H 41.902050 29.214567 62.888322 0
M  V30 58 H 41.009608 30.391629 67.834387 0
M  V30 59 H 41.516730 30.263008 66.157399 0
M  V30 60 H 39.886370 30.855679 66.564974 0
M  V30 61 H 39.804741 30.390089 63.053266 0
M  V30 62 H 36.267759 27.221391 54.596587 0
M  V30 63 H 36.776060 26.255896 55.994979 0
M  V30 64 H 37.416830 25.937317 54.406814 0
M  V30 65 H 38.963505 26.438643 52.744876 0
M  V30 66 H 40.232075 27.621245 52.649186 0
M  V30 67 H 40.311905 27.854925 55.053762 0
M  V30 68 H 39.706053 26.219113 55.000920 0
M  V30 69 H 39.982222 32.354930 56.141074 0
M  V30 70 H 38.463386 33.278534 56.171738 0
M  V30 71 H 39.165810 32.821370 54.653276 0
M  V30 72 H 37.870011 36.831751 63.926624 0
M  V30 73 H 39.048365 37.730145 62.911011 0
M  V30 74 H 37.377985 27.961109 57.327785 0
M  V30 75 H 38.932008 27.240304 57.270001 0
M  V30 76 H 36.869364 29.324228 54.430793 0
M  V30 77 H 42.555678 34.579417 66.836107 0
M  V30 78 H 37.316094 31.648124 60.162570 0
M  V30 79 H 36.638616 30.312110 59.284472 0
M  V30 80 H 38.533783 29.211722 52.247063 0
M  V30 81 H 37.332734 27.992407 52.559269 0
M  V30 82 H 39.911488 29.583184 56.913728 0
M  V30 83 H 37.317418 31.488819 55.353245 0
M  V30 END ATOM
M  V30 BEGIN BOND
M  V30 1 1 8 2
M  V30 2 1 10 3
M  V30 3 1 12 11
M  V30 4 1 13 7
M  V30 5 2 14 12
M  V30 6 1 15 1
M  V30 7 1 15 13
M  V30 8 1 17 4
M  V30 9 1 18 4
M  V30 10 2 18 9
M  V30 11 1 19 2
M  V30 12 1 19 6
M  V30 13 1 19 16
M  V30 14 2 21 5
M  V30 15 1 21 12
M  V30 16 2 24 22
M  V30 17 1 25 23
M  V30 18 2 26 3
M  V30 19 1 26 8
M  V30 20 1 26 9
M  V30 21 1 27 8
M  V30 22 1 27 21
M  V30 23 1 28 15
M  V30 24 1 29 5
M  V30 25 1 29 14
M  V30 26 1 31 1
M  V30 27 2 32 10
M  V30 28 1 32 18
M  V30 29 1 33 7
M  V30 30 1 34 20 CFG=1
M  V30 31 1 34 25
M  V30 32 1 34 30
M  V30 33 1 34 31
M  V30 34 1 35 23
M  V30 35 1 35 31
M  V30 36 2 36 27
M  V30 37 1 37 6
M  V30 38 1 37 22
M  V30 39 1 37 33
M  V30 40 1 38 13
M  V30 41 1 38 22
M  V30 42 1 38 30
M  V30 43 1 39 1
M  V30 44 1 40 1
M  V30 45 1 41 2
M  V30 46 1 42 2
M  V30 47 1 43 3
M  V30 48 1 44 6
M  V30 49 1 45 6
M  V30 50 1 46 7
M  V30 51 1 47 7
M  V30 52 1 48 9
M  V30 53 1 49 10
M  V30 54 1 50 11
M  V30 55 1 51 11
M  V30 56 1 52 11
M  V30 57 1 13 53 CFG=3
M  V30 58 1 54 14
M  V30 59 1 55 16
M  V30 60 1 56 16
M  V30 61 1 57 16
M  V30 62 1 58 17
M  V30 63 1 59 17
M  V30 64 1 60 17
M  V30 65 1 19 61 CFG=1
M  V30 66 1 62 20
M  V30 67 1 63 20
M  V30 68 1 64 20
M  V30 69 1 65 23
M  V30 70 1 66 23
M  V30 71 1 67 25
M  V30 72 1 68 25
M  V30 73 1 69 28
M  V30 74 1 70 28
M  V30 75 1 71 28
M  V30 76 1 72 29
M  V30 77 1 73 29
M  V30 78 1 74 30
M  V30 79 1 75 30
M  V30 80 1 31 76 CFG=3
M  V30 81 1 77 32
M  V30 82 1 78 33
M  V30 83 1 79 33
M  V30 84 1 80 35
M  V30 85 1 81 35
M  V30 86 1 38 82 CFG=3
M  V30 87 1 15 83 CFG=3
M  V30 END BOND
M  V30 END CTAB
M  END
>  <i_epik_Tot_Q>  (1) 
1

>  <i_epik_Tot_abs_Q>  (1) 
1

>  <i_i_glide_confnum>  (1) 
445

>  <i_i_glide_lignum>  (1) 
58

>  <i_i_glide_posenum>  (1) 
30

>  <i_i_glide_rotatable_bonds>  (1) 
8

>  <i_lp_mmshare_version>  (1) 
72125

>  <i_m_source_file_index>  (1) 
24

>  <i_f3d_flags>  (1) 
0

>  <num_sample>  (1) 
100

>  <b_lp_Chiralities_Consistent>  (1) 
1

>  <r_epik_Charging_Adjusted_Penalty>  (1) 
0.0029773975431382485

>  <r_epik_Ionization_Penalty>  (1) 
0.013183626931022738

>  <r_epik_Ionization_Penalty_Charging>  (1) 
0.0029773975431382485

>  <r_epik_Ionization_Penalty_Neutral>  (1) 
0.010206229387884489

>  <r_epik_State_Penalty>  (1) 
-0

>  <r_glide_ring_energy>  (1) 
0

>  <r_i_docking_score>  (1) 
-5.99791661640017

>  <r_i_glide_ecoul>  (1) 
-1.8132717758039769

>  <r_i_glide_eff_state_penalty>  (1) 
-0

>  <r_i_glide_einternal>  (1) 
36.340977447314756

>  <r_i_glide_emodel>  (1) 
-39.600432948236964

>  <r_i_glide_emodel_strain>  (1) 
9.1912596852750141

>  <r_i_glide_energy>  (1) 
-46.105332743027326

>  <r_i_glide_erotb>  (1) 
0.5287100460970352

>  <r_i_glide_esite>  (1) 
-0.067745075025576626

>  <r_i_glide_evdw>  (1) 
-44.29206096722335

>  <r_i_glide_gscore>  (1) 
-5.99791661640017

>  <r_i_glide_gscore_strain>  (1) 
1.2978149213187535

>  <r_i_glide_hbond>  (1) 
0

>  <r_i_glide_ligand_efficiency>  (1) 
-0.1578399109578992

>  <r_i_glide_ligand_efficiency_ln>  (1) 
-1.2933272633265842

>  <r_i_glide_ligand_efficiency_sa>  (1) 
-0.53065389885179548

>  <r_i_glide_lipo>  (1) 
-3.8525606998271886

>  <r_i_glide_metal>  (1) 
-0

>  <r_i_glide_rewards>  (1) 
-1.4175419942314296

>  <r_lp_Energy>  (1) 
97.856698999999992

>  <r_lp_tautomer_probability>  (1) 
1

>  <s_epik_Chemistry_Notes>  (1) 
This compound has an imine and may undergo hydrolysis.

>  <s_epik_cmdline>  (1) 
J2VwaWtfcHl0aG9uJywgJy1waHQnLCAnMS4wJywgJy1waCcsICc3LjQnLCAnLXRuJywgJzgnLCAnLW1hJywgJzUwMCcsICctaW1hZScsICc8aW5maWxlLm1hZT4nLCAnLW9tYWUnLCAnPG91dGZpbGUubWFlPic=

>  <s_epik_input>  (1) 
W0NIMl0xW0NIMl1bQ0gyXVtDQEBIXShbQ0BAXTEyW0NIM10pW0NIMl1OKFtDSDNdKVtDQEhdM1tDQEhdKFtDSDJdMilDKD1PKU4oW0NIMl1bQ0gyXTMpW0NIMl1bQ0BASF0oW0NIM10pW0NIMl1OKGMoW2NIXVtjSF1bY0hdNClbY0hdYzRPW0NIM10pQyg9TylDNT1OW0NIMl1bQ0hdPUM1W0NIM10=

>  <s_glide_docking_method>  (1) 
confgen

>  <s_i_glide_gridfile>  (1) 
gpcr_5ht2c_6bqh_protein_autoprepared_prepared

>  <s_lp_Force_Field>  (1) 
S-OPLS

>  <s_lp_Variant>  (1) 
DiffSBDD_23_num_sample_100-1

>  <s_m_source_file>  (1) 
generated__ligand_DiffSBDD_2026-05-06_prepared.sdf

>  <GenAI_Model>  (1) 
DiffSBDD

>  <Protein>  (1) 
GPCR_5HT2C

$$$$
DiffSBDD_44_num_sample_100
     RDKit          3D

  0  0  0  0  0  0  0  0  0  0999 V3000
M  V30 BEGIN CTAB
M  V30 COUNTS 58 59 0 0 1
M  V30 BEGIN ATOM
M  V30 1 C 40.158387 25.475924 56.007837 0
M  V30 2 O 39.066238 27.814658 59.227728 0 CHG=-1
M  V30 3 C 38.561547 34.637626 60.885929 0
M  V30 4 C 38.000469 26.546072 56.140066 0 CFG=1
M  V30 5 N 38.942113 27.260906 57.040893 0 CFG=2 CHG=1
M  V30 6 C 39.711528 32.711283 61.887900 0
M  V30 7 N 38.344762 31.417284 59.543501 0
M  V30 8 C 38.621794 33.339960 61.023898 0
M  V30 9 O 36.735153 31.813312 61.288452 0
M  V30 10 C 38.919207 25.800250 55.165154 0 CFG=1
M  V30 11 C 39.254698 26.651460 53.928879 0
M  V30 12 C 38.520403 29.611542 57.873459 0 CFG=1
M  V30 13 C 37.757043 30.502565 58.869592 0
M  V30 14 C 40.068827 26.326919 57.278849 0
M  V30 15 C 35.538176 32.566586 61.453519 0
M  V30 16 C 40.260287 36.173741 61.813057 0
M  V30 17 C 38.358959 28.082080 58.156249 0 CFG=2
M  V30 18 C 37.622331 32.402782 60.337813 0 CFG=2
M  V30 19 F 40.267417 34.941410 63.842455 0
M  V30 20 C 40.868857 35.015174 62.662753 0 CFG=1
M  V30 21 C 38.979276 35.862243 61.053501 0
M  V30 22 C 38.133690 30.019740 56.432757 0
M  V30 23 C 36.259183 30.217808 58.980027 0
M  V30 24 C 37.067410 25.545590 56.867725 0
M  V30 25 C 40.993932 33.592671 62.033609 0
M  V30 26 H 41.067398 25.687468 55.453509 0
M  V30 27 H 40.172038 24.421442 56.279977 0
M  V30 28 H 37.409602 27.273686 55.591475 0
M  V30 29 H 39.286138 32.498169 62.868846 0
M  V30 30 H 40.009298 31.748722 61.472996 0
M  V30 31 H 38.455554 24.877337 54.812550 0
M  V30 32 H 39.657823 27.622069 54.214393 0
M  V30 33 H 39.991463 26.158306 53.293904 0
M  V30 34 H 38.364935 26.828637 53.322518 0
M  V30 35 H 39.579970 29.859167 57.971080 0
M  V30 36 H 40.994506 26.865980 57.484282 0
M  V30 37 H 39.860757 25.676147 58.130281 0
M  V30 38 H 34.847898 32.021443 62.096695 0
M  V30 39 H 35.743147 33.540714 61.899052 0
M  V30 40 H 35.017132 32.730273 60.509713 0
M  V30 41 H 40.997483 36.486425 61.072235 0
M  V30 42 H 40.085807 37.040225 62.451982 0
M  V30 43 H 37.289901 27.899976 58.136884 0
M  V30 44 H 37.046589 33.006871 59.630166 0
M  V30 45 H 41.872382 35.341949 62.928751 0
M  V30 46 H 38.463992 36.696935 60.602131 0
M  V30 47 H 38.201487 31.100849 56.299311 0
M  V30 48 H 38.796063 29.575180 55.691073 0
M  V30 49 H 37.112508 29.730904 56.183345 0
M  V30 50 H 35.882547 29.684403 58.109765 0
M  V30 51 H 36.059770 29.603950 59.853504 0
M  V30 52 H 35.675515 31.131898 59.053496 0
M  V30 53 H 36.461253 24.995651 56.147315 0
M  V30 54 H 37.630014 24.810737 57.444510 0
M  V30 55 H 36.366773 26.022865 57.549363 0
M  V30 56 H 41.709645 33.028167 62.632222 0
M  V30 57 H 41.453683 33.691889 61.054342 0
M  V30 58 H 39.358179 27.964878 56.451822 0
M  V30 END ATOM
M  V30 BEGIN BOND
M  V30 1 1 5 4
M  V30 2 2 8 3
M  V30 3 1 8 6
M  V30 4 1 10 1
M  V30 5 1 10 4
M  V30 6 1 11 10
M  V30 7 2 13 7
M  V30 8 1 13 12
M  V30 9 1 14 1
M  V30 10 1 14 5
M  V30 11 1 15 9
M  V30 12 1 17 2
M  V30 13 1 17 5
M  V30 14 1 17 12
M  V30 15 1 18 7
M  V30 16 1 18 8
M  V30 17 1 18 9
M  V30 18 1 20 16
M  V30 19 1 20 19
M  V30 20 2 21 3
M  V30 21 1 21 16
M  V30 22 1 22 12
M  V30 23 1 23 13
M  V30 24 1 24 4
M  V30 25 1 25 6
M  V30 26 1 25 20
M  V30 27 1 26 1
M  V30 28 1 27 1
M  V30 29 1 4 28 CFG=3
M  V30 30 1 29 6
M  V30 31 1 30 6
M  V30 32 1 10 31 CFG=3
M  V30 33 1 32 11
M  V30 34 1 33 11
M  V30 35 1 34 11
M  V30 36 1 12 35 CFG=3
M  V30 37 1 36 14
M  V30 38 1 37 14
M  V30 39 1 38 15
M  V30 40 1 39 15
M  V30 41 1 40 15
M  V30 42 1 41 16
M  V30 43 1 42 16
M  V30 44 1 17 43 CFG=1
M  V30 45 1 18 44 CFG=3
M  V30 46 1 20 45 CFG=1
M  V30 47 1 46 21
M  V30 48 1 47 22
M  V30 49 1 48 22
M  V30 50 1 49 22
M  V30 51 1 50 23
M  V30 52 1 51 23
M  V30 53 1 52 23
M  V30 54 1 53 24
M  V30 55 1 54 24
M  V30 56 1 55 24
M  V30 57 1 56 25
M  V30 58 1 57 25
M  V30 59 1 5 58 CFG=3
M  V30 END BOND
M  V30 END CTAB
M  END
>  <i_epik_Tot_Q>  (1) 
0

>  <i_epik_Tot_abs_Q>  (1) 
2

>  <i_i_glide_confnum>  (1) 
7

>  <i_i_glide_lignum>  (1) 
109

>  <i_i_glide_posenum>  (1) 
271

>  <i_i_glide_rotatable_bonds>  (1) 
6

>  <i_lp_mmshare_version>  (1) 
72125

>  <i_m_source_file_index>  (1) 
45

>  <i_f3d_flags>  (1) 
0

>  <num_sample>  (1) 
100

>  <b_lp_Chiralities_Consistent>  (1) 
1

>  <r_epik_Charging_Adjusted_Penalty>  (1) 
0.41733257654759531

>  <r_epik_Ionization_Penalty>  (1) 
0.0069177268181324029

>  <r_epik_Ionization_Penalty_Charging>  (1) 
0.0066527375949913311

>  <r_epik_Ionization_Penalty_Neutral>  (1) 
0.00026498922314107146

>  <r_epik_State_Penalty>  (1) 
0.41067983895260396

>  <r_glide_ring_energy>  (1) 
0

>  <r_i_docking_score>  (1) 
-5.9949430668305501

>  <r_i_glide_ecoul>  (1) 
-2.2967360756908142

>  <r_i_glide_eff_state_penalty>  (1) 
0.41067983895260396

>  <r_i_glide_einternal>  (1) 
57.933894459321536

>  <r_i_glide_emodel>  (1) 
-16.984218180772096

>  <r_i_glide_emodel_strain>  (1) 
2.1975558171260516

>  <r_i_glide_energy>  (1) 
-33.892032949708451

>  <r_i_glide_erotb>  (1) 
0.61440649929112812

>  <r_i_glide_esite>  (1) 
-0.059857614644183592

>  <r_i_glide_evdw>  (1) 
-31.595296874017635

>  <r_i_glide_gscore>  (1) 
-6.4056229057831544

>  <r_i_glide_gscore_strain>  (1) 
0

>  <r_i_glide_hbond>  (1) 
-0.23943035117982958

>  <r_i_glide_ligand_efficiency>  (1) 
-0.239797722673222

>  <r_i_glide_ligand_efficiency_ln>  (1) 
-1.4209811607853697

>  <r_i_glide_ligand_efficiency_sa>  (1) 
-0.70117279467955074

>  <r_i_glide_lipo>  (1) 
-3.0303728688607272

>  <r_i_glide_metal>  (1) 
-0

>  <r_i_glide_rewards>  (1) 
-1.7660933153350391

>  <r_lp_Energy>  (1) 
10.776309999999999

>  <r_lp_tautomer_probability>  (1) 
0.49999399997599986

>  <s_epik_Chemistry_Notes>  (1) 
This compound has an imine and may undergo hydrolysis. This compound contains an acetal/aminal-like group ( X-CH(R)-Y where X, Y are N, S, or O) that may be acid/base labile, releasing an aldehyde.

>  <s_epik_cmdline>  (1) 
J2VwaWtfcHl0aG9uJywgJy1waHQnLCAnMS4wJywgJy1waCcsICc3LjQnLCAnLXRuJywgJzgnLCAnLW1hJywgJzUwMCcsICctaW1hZScsICc8aW5maWxlLm1hZT4nLCAnLW9tYWUnLCAnPG91dGZpbGUubWFlPic=

>  <s_epik_input>  (1) 
W0NIM11bQ0BIXTFbQ0gyXVtDSDJdTihbQ0BASF0xW0NIM10pW0NAQEhdKFtPSF0pW0NAQEhdKFtDSDNdKVxDKFtDSDNdKT1OXFtDQEBIXShPW0NIM10pQzI9Qz1bQ0hdW0NIMl1bQ0BASF0oRilbQ0gyXVtDSDJdMg==

>  <s_glide_docking_method>  (1) 
confgen

>  <s_i_glide_gridfile>  (1) 
gpcr_5ht2c_6bqh_protein_autoprepared_prepared

>  <s_lp_Force_Field>  (1) 
S-OPLS

>  <s_lp_Variant>  (1) 
DiffSBDD_44_num_sample_100-2

>  <s_m_source_file>  (1) 
generated__ligand_DiffSBDD_2026-05-06_prepared.sdf

>  <GenAI_Model>  (1) 
DiffSBDD

>  <Protein>  (1) 
GPCR_5HT2C

$$$$
DiffSBDD_1_num_sample_100
     RDKit          3D

  0  0  0  0  0  0  0  0  0  0999 V3000
M  V30 BEGIN CTAB
M  V30 COUNTS 62 65 0 0 1
M  V30 BEGIN ATOM
M  V30 1 C 38.283941 27.022841 56.468853 0
M  V30 2 C 39.833864 34.787644 62.173601 0
M  V30 3 O 37.054145 25.161545 56.693831 0
M  V30 4 C 37.871411 33.279876 61.519870 0 CFG=1
M  V30 5 C 38.686186 28.417182 56.777031 0
M  V30 6 C 38.230043 30.909337 60.784284 0
M  V30 7 C 36.813720 37.127787 63.269915 0
M  V30 8 C 41.364765 36.180839 63.224317 0
M  V30 9 N 40.066664 36.885033 63.111651 0 CHG=1
M  V30 10 C 37.838866 32.959516 57.720625 0
M  V30 11 C 37.888110 29.179852 57.855190 0
M  V30 12 C 37.730958 36.501646 62.201711 0 CFG=2
M  V30 13 C 39.000740 35.883390 62.855269 0 CFG=1
M  V30 14 C 37.743285 31.309101 59.373318 0 CFG=2
M  V30 15 C 38.260414 31.645861 57.031960 0
M  V30 16 C 37.310782 26.422015 57.076040 0
M  V30 17 N 37.718978 31.838607 61.821327 0
M  V30 18 C 39.337049 33.666348 61.604009 0
M  V30 19 O 39.624048 28.976666 56.207636 0
M  V30 20 C 38.139943 37.449953 61.092806 0
M  V30 21 C 38.081596 24.966171 55.640300 0
M  V30 22 C 37.372022 33.598210 60.087156 0
M  V30 23 C 41.300649 35.059884 62.204777 0
M  V30 24 N 38.021899 32.710848 59.131327 0
M  V30 25 O 36.336511 31.107414 59.319913 0
M  V30 26 C 38.999884 26.271686 55.435565 0
M  V30 27 C 38.408419 30.603790 58.174835 0 CFG=2
M  V30 28 O 35.867417 38.021428 62.719343 0
M  V30 29 H 37.283470 33.814706 62.253483 0
M  V30 30 H 39.319785 30.903249 60.800161 0
M  V30 31 H 37.928197 29.892101 61.007775 0
M  V30 32 H 37.412577 37.621447 64.027040 0
M  V30 33 H 36.267207 36.345771 63.798638 0
M  V30 34 H 41.450372 35.773861 64.233170 0
M  V30 35 H 42.223962 36.821507 63.053607 0
M  V30 36 H 40.120344 37.495910 62.310350 0
M  V30 37 H 36.802864 33.221429 57.514300 0
M  V30 38 H 38.446336 33.800472 57.388967 0
M  V30 39 H 37.906458 28.587588 58.770079 0
M  V30 40 H 36.845452 29.235334 57.540001 0
M  V30 41 H 37.117142 35.749643 61.722631 0
M  V30 42 H 38.739699 35.621429 63.854275 0
M  V30 43 H 37.498034 31.346735 56.311463 0
M  V30 44 H 39.197655 31.764561 56.487644 0
M  V30 45 H 36.667160 26.799131 57.853485 0
M  V30 46 H 38.158985 31.628546 62.711518 0
M  V30 47 H 40.029676 32.969499 61.156185 0
M  V30 48 H 38.479736 38.421361 61.453073 0
M  V30 49 H 38.973134 36.923282 60.653491 0
M  V30 50 H 37.354621 37.592914 60.348575 0
M  V30 51 H 38.695869 24.109929 55.917532 0
M  V30 52 H 37.583096 24.705144 54.705606 0
M  V30 53 H 36.286300 33.504161 60.030483 0
M  V30 54 H 37.599571 34.632325 59.827376 0
M  V30 55 H 41.867401 34.178855 62.502546 0
M  V30 56 H 41.631439 35.396541 61.221151 0
M  V30 57 H 36.017978 31.388290 58.459867 0
M  V30 58 H 38.891599 26.721302 54.447664 0
M  V30 59 H 40.048390 26.110198 55.687750 0
M  V30 60 H 39.467396 30.519202 58.406867 0
M  V30 61 H 36.312119 38.714287 62.255255 0
M  V30 62 H 39.894435 37.436201 63.941651 0
M  V30 END ATOM
M  V30 BEGIN BOND
M  V30 1 1 5 1
M  V30 2 1 9 8
M  V30 3 1 11 5
M  V30 4 1 12 7
M  V30 5 1 13 2
M  V30 6 1 13 9
M  V30 7 1 13 12
M  V30 8 1 14 6
M  V30 9 1 15 10
M  V30 10 2 16 1
M  V30 11 1 16 3
M  V30 12 1 17 4
M  V30 13 1 17 6
M  V30 14 2 18 2
M  V30 15 1 18 4
M  V30 16 2 19 5
M  V30 17 1 20 12
M  V30 18 1 21 3
M  V30 19 1 22 4
M  V30 20 1 23 2
M  V30 21 1 23 8
M  V30 22 1 24 10
M  V30 23 1 24 14
M  V30 24 1 24 22
M  V30 25 1 14 25 CFG=1
M  V30 26 1 26 1
M  V30 27 1 26 21
M  V30 28 1 27 11
M  V30 29 1 27 14
M  V30 30 1 27 15
M  V30 31 1 28 7
M  V30 32 1 4 29 CFG=1
M  V30 33 1 30 6
M  V30 34 1 31 6
M  V30 35 1 32 7
M  V30 36 1 33 7
M  V30 37 1 34 8
M  V30 38 1 35 8
M  V30 39 1 36 9
M  V30 40 1 37 10
M  V30 41 1 38 10
M  V30 42 1 39 11
M  V30 43 1 40 11
M  V30 44 1 12 41 CFG=3
M  V30 45 1 13 42 CFG=1
M  V30 46 1 43 15
M  V30 47 1 44 15
M  V30 48 1 45 16
M  V30 49 1 46 17
M  V30 50 1 47 18
M  V30 51 1 48 20
M  V30 52 1 49 20
M  V30 53 1 50 20
M  V30 54 1 51 21
M  V30 55 1 52 21
M  V30 56 1 53 22
M  V30 57 1 54 22
M  V30 58 1 55 23
M  V30 59 1 56 23
M  V30 60 1 57 25
M  V30 61 1 58 26
M  V30 62 1 59 26
M  V30 63 1 27 60 CFG=1
M  V30 64 1 61 28
M  V30 65 1 62 9
M  V30 END BOND
M  V30 END CTAB
M  END
>  <i_epik_Tot_Q>  (1) 
1

>  <i_epik_Tot_abs_Q>  (1) 
1

>  <i_i_glide_confnum>  (1) 
22

>  <i_i_glide_lignum>  (1) 
8

>  <i_i_glide_posenum>  (1) 
142

>  <i_i_glide_rotatable_bonds>  (1) 
8

>  <i_lp_mmshare_version>  (1) 
72125

>  <i_m_source_file_index>  (1) 
2

>  <i_f3d_flags>  (1) 
0

>  <num_sample>  (1) 
100

>  <b_lp_Chiralities_Consistent>  (1) 
1

>  <r_epik_Charging_Adjusted_Penalty>  (1) 
0.089223518210420474

>  <r_epik_Ionization_Penalty>  (1) 
0.15303808439063821

>  <r_epik_Ionization_Penalty_Charging>  (1) 
0.0017986555257548985

>  <r_epik_Ionization_Penalty_Neutral>  (1) 
0.15123942886488331

>  <r_epik_State_Penalty>  (1) 
0.08742486268466558

>  <r_glide_ring_energy>  (1) 
0

>  <r_i_docking_score>  (1) 
-5.9920662641661044

>  <r_i_glide_ecoul>  (1) 
-7.8738776442088767

>  <r_i_glide_eff_state_penalty>  (1) 
0.08742486268466558

>  <r_i_glide_einternal>  (1) 
2.9846652062556682

>  <r_i_glide_emodel>  (1) 
-48.485324207387642

>  <r_i_glide_emodel_strain>  (1) 
3.1001137411582533

>  <r_i_glide_energy>  (1) 
-36.865255654222203

>  <r_i_glide_erotb>  (1) 
0.76037187950223806

>  <r_i_glide_esite>  (1) 
-0.049599955475036775

>  <r_i_glide_evdw>  (1) 
-28.991378010013328

>  <r_i_glide_gscore>  (1) 
-6.0794911268507699

>  <r_i_glide_gscore_strain>  (1) 
0

>  <r_i_glide_hbond>  (1) 
-0.26466765512000295

>  <r_i_glide_ligand_efficiency>  (1) 
-0.21400236657736088

>  <r_i_glide_ligand_efficiency_ln>  (1) 
-1.3831448284798937

>  <r_i_glide_ligand_efficiency_sa>  (1) 
-0.64983722630410701

>  <r_i_glide_lipo>  (1) 
-2.7119142760904587

>  <r_i_glide_metal>  (1) 
-0

>  <r_i_glide_rewards>  (1) 
-1.1830305725355115

>  <r_lp_Energy>  (1) 
12.069678999999999

>  <s_epik_cmdline>  (1) 
J2VwaWtfcHl0aG9uJywgJy1waHQnLCAnMS4wJywgJy1waCcsICc3LjQnLCAnLXRuJywgJzgnLCAnLW1hJywgJzUwMCcsICctaW1hZScsICc8aW5maWxlLm1hZT4nLCAnLW9tYWUnLCAnPG91dGZpbGUubWFlPic=

>  <s_epik_input>  (1) 
W0NIMl0xW0NIMl1PW0NIXT1DMUMoPU8pW0NIMl1bQ0BIXTJbQ0gyXVtDSDJdTihbQ0BAXTIzW09IXSlbQ0gyXVtDQEBIXShbTkhdW0NIMl0zKS9bQ0hdPUM0XFtDQEBIXShbTkhdW0NIMl1bQ0gyXTQpW0NASF0oW0NIM10pW0NIMl1bT0hd

>  <s_glide_docking_method>  (1) 
confgen

>  <s_i_glide_gridfile>  (1) 
gpcr_5ht2c_6bqh_protein_autoprepared_prepared

>  <s_lp_Force_Field>  (1) 
S-OPLS

>  <s_lp_Variant>  (1) 
DiffSBDD_1_num_sample_100-2

>  <s_m_source_file>  (1) 
generated__ligand_DiffSBDD_2026-05-06_prepared.sdf

>  <GenAI_Model>  (1) 
DiffSBDD

>  <Protein>  (1) 
GPCR_5HT2C

$$$$
DiffSBDD_35_num_sample_100
     RDKit          3D

  0  0  0  0  0  0  0  0  0  0999 V3000
M  V30 BEGIN CTAB
M  V30 COUNTS 23 23 0 0 1
M  V30 BEGIN ATOM
M  V30 1 C 39.464514 28.501613 50.693723 0
M  V30 2 C 39.515460 29.728398 52.803162 0
M  V30 3 C 38.487502 31.504075 55.319267 0
M  V30 4 N 37.867397 30.999141 56.382580 0
M  V30 5 O 39.947699 30.821677 53.526576 0
M  V30 6 C 39.831453 30.882788 54.944417 0
M  V30 7 C 40.696737 30.701713 50.775292 0
M  V30 8 O 38.020811 32.421429 54.653501 0
M  V30 9 C 38.319699 27.602396 52.648746 0
M  V30 10 C 39.872612 29.617843 51.439481 0
M  V30 11 C 38.729322 28.714182 53.405614 0
M  V30 12 C 38.690873 27.495184 51.295801 0
M  V30 13 H 39.739472 28.421453 49.654791 0
M  V30 14 H 38.285716 30.247268 56.905617 0
M  V30 15 H 36.944788 31.369850 56.653493 0
M  V30 16 H 40.012201 29.923479 55.430825 0
M  V30 17 H 40.610941 31.554970 55.300945 0
M  V30 18 H 40.667495 31.621398 51.353587 0
M  V30 19 H 41.733968 30.389039 50.653650 0
M  V30 20 H 40.295505 30.928302 49.787691 0
M  V30 21 H 37.721012 26.828317 53.106275 0
M  V30 22 H 38.442853 28.785684 54.442247 0
M  V30 23 H 38.376128 26.640478 50.715149 0
M  V30 END ATOM
M  V30 BEGIN BOND
M  V30 1 1 4 3
M  V30 2 1 5 2
M  V30 3 1 6 3
M  V30 4 1 6 5
M  V30 5 2 8 3
M  V30 6 2 10 1
M  V30 7 1 10 2
M  V30 8 1 10 7
M  V30 9 2 11 2
M  V30 10 1 11 9
M  V30 11 1 12 1
M  V30 12 2 12 9
M  V30 13 1 13 1
M  V30 14 1 14 4
M  V30 15 1 15 4
M  V30 16 1 16 6
M  V30 17 1 17 6
M  V30 18 1 18 7
M  V30 19 1 19 7
M  V30 20 1 20 7
M  V30 21 1 21 9
M  V30 22 1 22 11
M  V30 23 1 23 12
M  V30 END BOND
M  V30 END CTAB
M  END
>  <i_epik_Tot_Q>  (1) 
0

>  <i_epik_Tot_abs_Q>  (1) 
0

>  <i_i_glide_confnum>  (1) 
5

>  <i_i_glide_lignum>  (1) 
90

>  <i_i_glide_posenum>  (1) 
364

>  <i_i_glide_rotatable_bonds>  (1) 
3

>  <i_lp_mmshare_version>  (1) 
72125

>  <i_m_source_file_index>  (1) 
36

>  <i_f3d_flags>  (1) 
0

>  <num_sample>  (1) 
100

>  <b_lp_Chiralities_Consistent>  (1) 
1

>  <r_epik_Charging_Adjusted_Penalty>  (1) 
0

>  <r_epik_Ionization_Penalty>  (1) 
6.1062296302935647e-07

>  <r_epik_Ionization_Penalty_Charging>  (1) 
0

>  <r_epik_Ionization_Penalty_Neutral>  (1) 
6.1062296302935647e-07

>  <r_epik_State_Penalty>  (1) 
-0

>  <r_glide_ring_energy>  (1) 
0

>  <r_i_docking_score>  (1) 
-5.9912916496725348

>  <r_i_glide_ecoul>  (1) 
-4.5878054528201506

>  <r_i_glide_eff_state_penalty>  (1) 
-0

>  <r_i_glide_einternal>  (1) 
0.41830014303731833

>  <r_i_glide_emodel>  (1) 
-40.054459970848029

>  <r_i_glide_emodel_strain>  (1) 
0.18671382189114816

>  <r_i_glide_energy>  (1) 
-28.64779399666331

>  <r_i_glide_erotb>  (1) 
1.1185107559780281

>  <r_i_glide_esite>  (1) 
-0.12588676117299855

>  <r_i_glide_evdw>  (1) 
-24.059988543843158

>  <r_i_glide_gscore>  (1) 
-5.9912916496725348

>  <r_i_glide_gscore_strain>  (1) 
0

>  <r_i_glide_hbond>  (1) 
-0.16

>  <r_i_glide_ligand_efficiency>  (1) 
-0.4992743041393779

>  <r_i_glide_ligand_efficiency_ln>  (1) 
-1.7192115174841218

>  <r_i_glide_ligand_efficiency_sa>  (1) 
-1.1430528137784997

>  <r_i_glide_lipo>  (1) 
-2.4561260570206835

>  <r_i_glide_metal>  (1) 
-0

>  <r_i_glide_rewards>  (1) 
-2.4766193423416998

>  <r_lp_Energy>  (1) 
12.862938

>  <r_lp_tautomer_probability>  (1) 
1

>  <s_epik_cmdline>  (1) 
J2VwaWtfcHl0aG9uJywgJy1waHQnLCAnMS4wJywgJy1waCcsICc3LjQnLCAnLXRuJywgJzgnLCAnLW1hJywgJzUwMCcsICctaW1hZScsICc8aW5maWxlLm1hZT4nLCAnLW9tYWUnLCAnPG91dGZpbGUubWFlPic=

>  <s_epik_input>  (1) 
W2NIXTFbY0hdW2NIXVtjSF1jKFtDSDNdKWMxT1tDSDJdQyg9TylbTkgyXQ==

>  <s_glide_docking_method>  (1) 
confgen

>  <s_i_glide_gridfile>  (1) 
gpcr_5ht2c_6bqh_protein_autoprepared_prepared

>  <s_lp_Force_Field>  (1) 
S-OPLS

>  <s_lp_Variant>  (1) 
DiffSBDD_35_num_sample_100-1

>  <s_m_source_file>  (1) 
generated__ligand_DiffSBDD_2026-05-06_prepared.sdf

>  <GenAI_Model>  (1) 
DiffSBDD

>  <Protein>  (1) 
GPCR_5HT2C

$$$$
DiffSBDD_28_num_sample_100
     RDKit          3D

  0  0  0  0  0  0  0  0  0  0999 V3000
M  V30 BEGIN CTAB
M  V30 COUNTS 37 38 0 0 1
M  V30 BEGIN ATOM
M  V30 1 C 38.736703 27.676034 52.746124 0
M  V30 2 C 39.762888 29.305484 57.672793 0
M  V30 3 C 40.267404 30.476992 51.103220 0
M  V30 4 O 40.848686 30.647780 50.033221 0
M  V30 5 S 38.267410 32.067281 59.121776 0
M  V30 6 O 36.853017 31.221481 61.222274 0
M  V30 7 C 36.524330 30.009784 59.241791 0
M  V30 8 C 39.204652 30.502027 56.910299 0
M  V30 9 C 39.746247 27.739020 55.675120 0
M  V30 10 C 38.254621 27.592404 55.297319 0
M  V30 11 C 37.101318 31.035352 60.031847 0
M  V30 12 C 36.941754 30.021431 57.992603 0
M  V30 13 C 39.994358 28.093396 57.130867 0
M  V30 14 C 37.936664 31.083342 57.549658 0 CFG=1
M  V30 15 C 39.141152 26.821430 51.469406 0
M  V30 16 C 39.795889 28.085102 50.813383 0
M  V30 17 C 39.719851 29.186357 51.521332 0
M  V30 18 C 38.020893 26.987983 53.898975 0
M  V30 19 C 39.078492 28.957533 52.695200 0
M  V30 20 H 39.976964 29.464177 58.719776 0
M  V30 21 H 40.123622 31.288844 51.816242 0
M  V30 22 H 35.818910 29.303375 59.648053 0
M  V30 23 H 39.939237 31.294494 56.843577 0
M  V30 24 H 38.991820 30.248994 55.875736 0
M  V30 25 H 40.274626 26.807057 55.468593 0
M  V30 26 H 40.230303 28.498942 55.065469 0
M  V30 27 H 37.744447 28.551636 55.354459 0
M  V30 28 H 37.764024 26.952952 56.032317 0
M  V30 29 H 36.595279 29.303858 57.270663 0
M  V30 30 H 40.386079 27.302616 57.754758 0
M  V30 31 H 37.467407 31.755180 56.831867 0
M  V30 32 H 38.300023 26.473574 50.870834 0
M  V30 33 H 39.863499 26.035151 51.689486 0
M  V30 34 H 40.267402 28.023304 49.853502 0
M  V30 35 H 36.956105 26.957059 53.669715 0
M  V30 36 H 38.355893 25.951273 53.917160 0
M  V30 37 H 38.890353 29.692775 53.463985 0
M  V30 END ATOM
M  V30 BEGIN BOND
M  V30 1 2 4 3
M  V30 2 1 8 2
M  V30 3 1 10 9
M  V30 4 1 11 5
M  V30 5 2 11 6
M  V30 6 1 11 7
M  V30 7 2 12 7
M  V30 8 2 13 2
M  V30 9 1 13 9
M  V30 10 1 14 5
M  V30 11 1 14 8
M  V30 12 1 14 12
M  V30 13 1 15 1
M  V30 14 1 16 15
M  V30 15 1 17 3
M  V30 16 2 17 16
M  V30 17 1 18 1
M  V30 18 1 18 10
M  V30 19 2 19 1
M  V30 20 1 19 17
M  V30 21 1 20 2
M  V30 22 1 21 3
M  V30 23 1 22 7
M  V30 24 1 23 8
M  V30 25 1 24 8
M  V30 26 1 25 9
M  V30 27 1 26 9
M  V30 28 1 27 10
M  V30 29 1 28 10
M  V30 30 1 29 12
M  V30 31 1 30 13
M  V30 32 1 14 31 CFG=3
M  V30 33 1 32 15
M  V30 34 1 33 15
M  V30 35 1 34 16
M  V30 36 1 35 18
M  V30 37 1 36 18
M  V30 38 1 37 19
M  V30 END BOND
M  V30 END CTAB
M  END
>  <i_epik_Tot_Q>  (1) 
0

>  <i_epik_Tot_abs_Q>  (1) 
0

>  <i_i_glide_confnum>  (1) 
177

>  <i_i_glide_lignum>  (1) 
69

>  <i_i_glide_posenum>  (1) 
334

>  <i_i_glide_rotatable_bonds>  (1) 
7

>  <i_lp_mmshare_version>  (1) 
72125

>  <i_m_source_file_index>  (1) 
29

>  <i_f3d_flags>  (1) 
0

>  <num_sample>  (1) 
100

>  <b_lp_Chiralities_Consistent>  (1) 
1

>  <r_epik_Charging_Adjusted_Penalty>  (1) 
0

>  <r_epik_Ionization_Penalty>  (1) 
0

>  <r_epik_Ionization_Penalty_Charging>  (1) 
0

>  <r_epik_Ionization_Penalty_Neutral>  (1) 
0

>  <r_epik_State_Penalty>  (1) 
-0

>  <r_glide_ring_energy>  (1) 
0

>  <r_i_docking_score>  (1) 
-5.9850187991704482

>  <r_i_glide_ecoul>  (1) 
-2.4659141909297722

>  <r_i_glide_eff_state_penalty>  (1) 
-0

>  <r_i_glide_einternal>  (1) 
5.9001262090704998

>  <r_i_glide_emodel>  (1) 
-40.914295643317345

>  <r_i_glide_emodel_strain>  (1) 
0.11225341470088779

>  <r_i_glide_energy>  (1) 
-31.632005747844481

>  <r_i_glide_erotb>  (1) 
1.1924995267514154

>  <r_i_glide_esite>  (1) 
-0.047597510904283089

>  <r_i_glide_evdw>  (1) 
-29.166091556914708

>  <r_i_glide_gscore>  (1) 
-5.9850187991704482

>  <r_i_glide_gscore_strain>  (1) 
0

>  <r_i_glide_hbond>  (1) 
-0.32000000000000001

>  <r_i_glide_ligand_efficiency>  (1) 
-0.31500098943002358

>  <r_i_glide_ligand_efficiency_ln>  (1) 
-1.517330812006942

>  <r_i_glide_ligand_efficiency_sa>  (1) 
-0.84054915954411902

>  <r_i_glide_lipo>  (1) 
-2.6236941154856122

>  <r_i_glide_metal>  (1) 
-0

>  <r_i_glide_rewards>  (1) 
-2.3580349930467666

>  <r_lp_Energy>  (1) 
-7.8212549999999998

>  <r_lp_tautomer_probability>  (1) 
1

>  <s_epik_cmdline>  (1) 
J2VwaWtfcHl0aG9uJywgJy1waHQnLCAnMS4wJywgJy1waCcsICc3LjQnLCAnLXRuJywgJzgnLCAnLW1hJywgJzUwMCcsICctaW1hZScsICc8aW5maWxlLm1hZT4nLCAnLW9tYWUnLCAnPG91dGZpbGUubWFlPic=

>  <s_epik_input>  (1) 
Tz1bQ0hdQyg9W0NIXVtDSDJdMSlbQ0hdPUMxW0NIMl1bQ0gyXVtDSDJdL1tDSF09W0NIXVxbQ0gyXVtDQEhdKFNDMj1PKVtDSF09W0NIXTI=

>  <s_glide_docking_method>  (1) 
confgen

>  <s_i_glide_gridfile>  (1) 
gpcr_5ht2c_6bqh_protein_autoprepared_prepared

>  <s_lp_Force_Field>  (1) 
S-OPLS

>  <s_lp_Variant>  (1) 
DiffSBDD_28_num_sample_100-1

>  <s_m_source_file>  (1) 
generated__ligand_DiffSBDD_2026-05-06_prepared.sdf

>  <GenAI_Model>  (1) 
DiffSBDD

>  <Protein>  (1) 
GPCR_5HT2C

$$$$
DiffSBDD_66_num_sample_100
     RDKit          3D

  0  0  0  0  0  0  0  0  0  0999 V3000
M  V30 BEGIN CTAB
M  V30 COUNTS 112 116 0 0 1
M  V30 BEGIN ATOM
M  V30 1 C 43.137143 27.031062 64.862485 0
M  V30 2 C 39.131726 29.798356 61.474598 0
M  V30 3 C 41.639282 35.881039 66.653424 0
M  V30 4 C 36.027733 34.865468 59.123693 0
M  V30 5 C 40.122631 28.160223 51.114705 0
M  V30 6 C 40.088284 29.896040 49.259413 0
M  V30 7 C 42.177171 35.150056 64.414766 0
M  V30 8 S 37.196210 32.203184 62.015313 0
M  V30 9 C 39.599177 30.835398 62.420847 0 CFG=1
M  V30 10 C 43.848581 28.314395 64.959088 0
M  V30 11 C 40.968572 28.940420 65.784006 0
M  V30 12 C 41.862350 29.833595 65.319940 0
M  V30 13 C 38.333311 28.263025 52.922969 0
M  V30 14 C 42.664621 24.988708 64.249073 0
M  V30 15 C 37.660638 30.051529 58.294536 0 CFG=2
M  V30 16 C 41.278684 27.595089 66.284505 0
M  V30 17 C 41.382137 31.198821 64.980394 0
M  V30 18 O 39.661601 27.450983 54.726405 0
M  V30 19 C 41.044071 33.185354 63.386931 0 CFG=1
M  V30 20 N 43.577538 26.004755 64.181873 0 CHG=1
M  V30 21 C 42.370896 36.020766 65.473044 0
M  V30 22 C 41.313409 34.087016 64.558653 0
M  V30 23 C 38.927320 27.455436 51.778869 0
M  V30 24 C 40.320521 24.840839 65.385115 0
M  V30 25 C 43.295716 29.533651 65.164939 0
M  V30 26 C 36.711215 31.032798 59.048765 0
M  V30 27 C 39.847266 29.623376 50.722689 0 CFG=2
M  V30 28 C 38.570289 30.752829 57.249433 0
M  V30 29 C 41.643781 31.775726 63.563713 0 CFG=2
M  V30 30 C 41.135878 30.948378 62.379432 0 CFG=2
M  V30 31 C 34.701698 32.948425 60.010231 0
M  V30 32 C 39.122600 29.739475 56.285441 0
M  V30 33 N 41.973738 26.726206 65.398271 0
M  V30 34 C 40.667371 33.879751 65.791290 0
M  V30 35 C 41.606838 25.459399 65.007922 0
M  V30 36 C 36.739281 29.084107 57.587283 0
M  V30 37 O 40.642803 30.521028 51.454793 0
M  V30 38 C 38.493016 29.176947 59.251679 0
M  V30 39 C 37.042091 32.557767 58.974871 0
M  V30 40 C 36.138354 33.501544 59.826922 0
M  V30 41 C 38.986007 32.218543 62.073619 0 CFG=2
M  V30 42 N 39.093489 30.049011 60.219143 0 CHG=1
M  V30 43 C 38.782237 29.686985 54.996746 0
M  V30 44 C 36.793675 33.755243 61.193502 0
M  V30 45 C 40.807721 34.790134 66.825166 0
M  V30 46 C 41.589745 31.621540 61.053561 0
M  V30 47 C 37.049795 28.619911 52.942591 0
M  V30 48 C 39.289919 28.643758 54.037415 0 CFG=2
M  V30 49 C 39.525116 33.211041 63.080601 0
M  V30 50 H 38.806016 28.824670 61.816889 0
M  V30 51 H 41.733257 36.613022 67.437104 0
M  V30 52 H 36.999605 35.227579 58.787314 0
M  V30 53 H 35.611455 35.627587 59.781059 0
M  V30 54 H 35.374229 34.798161 58.256142 0
M  V30 55 H 40.988676 28.125592 51.770977 0
M  V30 56 H 40.400430 27.576637 50.240894 0
M  V30 57 H 39.475733 29.234243 48.654625 0
M  V30 58 H 41.132867 29.759050 48.978112 0
M  V30 59 H 39.787552 30.923559 49.053888 0
M  V30 60 H 42.672719 35.312240 63.481955 0
M  V30 61 H 44.914548 28.270756 64.788467 0
M  V30 62 H 39.932221 29.237647 65.879072 0
M  V30 63 H 42.813252 24.040446 63.747503 0
M  V30 64 H 41.889158 27.700569 67.184089 0
M  V30 65 H 40.361240 27.128410 66.623544 0
M  V30 66 H 40.317396 31.225333 65.201224 0
M  V30 67 H 41.911635 31.787613 65.726840 0
M  V30 68 H 40.596082 27.450551 54.872485 0
M  V30 69 H 41.523703 33.671643 62.537079 0
M  V30 70 H 43.065598 36.821319 65.369349 0
M  V30 71 H 38.154987 27.266309 51.031227 0
M  V30 72 H 39.228231 26.474187 52.147615 0
M  V30 73 H 40.116705 24.085412 64.636147 0
M  V30 74 H 39.508767 25.558362 65.301625 0
M  V30 75 H 40.350466 24.422858 66.387664 0
M  V30 76 H 43.971004 30.380338 65.144359 0
M  V30 77 H 35.702888 30.900992 58.666884 0
M  V30 78 H 36.577568 30.665299 60.059601 0
M  V30 79 H 38.822468 29.884003 50.927029 0
M  V30 80 H 37.986237 31.457164 56.657656 0
M  V30 81 H 39.373224 31.319827 57.710985 0
M  V30 82 H 42.726085 31.869110 63.473604 0
M  V30 83 H 41.584135 29.956071 62.452275 0
M  V30 84 H 34.683780 32.003409 60.547214 0
M  V30 85 H 34.208915 32.787370 59.053149 0
M  V30 86 H 34.072732 33.620940 60.584090 0
M  V30 87 H 39.818495 29.018249 56.684478 0
M  V30 88 H 39.994945 33.057008 65.916179 0
M  V30 89 H 35.971213 28.692330 58.253538 0
M  V30 90 H 37.265729 28.220456 57.180769 0
M  V30 91 H 36.256958 29.621561 56.773849 0
M  V30 92 H 40.767404 31.318287 50.954448 0
M  V30 93 H 37.872690 28.447244 59.777623 0
M  V30 94 H 39.304274 28.640690 58.760858 0
M  V30 95 H 38.087835 32.735552 59.218493 0
M  V30 96 H 36.976107 32.887490 57.940203 0
M  V30 97 H 39.191181 32.564886 61.072904 0
M  V30 98 H 38.100400 30.422205 54.598391 0
M  V30 99 H 37.699048 34.350584 61.079543 0
M  V30 100 H 36.129242 34.327614 61.841919 0
M  V30 101 H 40.261934 34.655271 67.746095 0
M  V30 102 H 41.089987 32.513887 60.710676 0
M  V30 103 H 41.468338 30.882869 60.261950 0
M  V30 104 H 42.610417 32.019265 61.110661 0
M  V30 105 H 36.661942 29.191748 53.758717 0
M  V30 106 H 36.379034 28.347866 52.147131 0
M  V30 107 H 40.079615 29.221235 53.578913 0
M  V30 108 H 39.156964 34.223644 62.910372 0
M  V30 109 H 39.067460 32.821312 63.954597 0
M  V30 110 H 44.450345 25.979823 63.668017 0
M  V30 111 H 39.256574 30.514303 63.403689 0
M  V30 112 H 39.407588 30.952577 59.886981 0
M  V30 END ATOM
M  V30 BEGIN BOND
M  V30 1 1 9 2
M  V30 2 1 10 1
M  V30 3 2 12 11
M  V30 4 1 16 11
M  V30 5 1 17 12
M  V30 6 2 20 1
M  V30 7 1 20 14
M  V30 8 2 21 3
M  V30 9 1 21 7
M  V30 10 2 22 7
M  V30 11 1 22 19
M  V30 12 1 23 5
M  V30 13 1 23 13
M  V30 14 2 25 10
M  V30 15 1 25 12
M  V30 16 1 26 15
M  V30 17 1 27 5
M  V30 18 1 27 6
M  V30 19 1 15 28 CFG=3
M  V30 20 1 29 17
M  V30 21 1 29 19
M  V30 22 1 30 9
M  V30 23 1 30 29
M  V30 24 1 32 28
M  V30 25 1 33 1
M  V30 26 1 33 16
M  V30 27 1 34 22
M  V30 28 2 35 14
M  V30 29 1 35 24
M  V30 30 1 35 33
M  V30 31 1 36 15
M  V30 32 1 37 27
M  V30 33 1 38 15
M  V30 34 1 39 26
M  V30 35 1 40 4
M  V30 36 1 40 31
M  V30 37 1 40 39
M  V30 38 1 41 8
M  V30 39 1 41 9
M  V30 40 2 42 2
M  V30 41 1 42 38
M  V30 42 2 43 32
M  V30 43 1 44 8
M  V30 44 1 44 40
M  V30 45 1 45 3
M  V30 46 2 45 34
M  V30 47 1 46 30
M  V30 48 2 47 13
M  V30 49 1 48 13
M  V30 50 1 48 18
M  V30 51 1 48 43
M  V30 52 1 49 19
M  V30 53 1 49 41
M  V30 54 1 50 2
M  V30 55 1 51 3
M  V30 56 1 52 4
M  V30 57 1 53 4
M  V30 58 1 54 4
M  V30 59 1 55 5
M  V30 60 1 56 5
M  V30 61 1 57 6
M  V30 62 1 58 6
M  V30 63 1 59 6
M  V30 64 1 60 7
M  V30 65 1 61 10
M  V30 66 1 62 11
M  V30 67 1 63 14
M  V30 68 1 64 16
M  V30 69 1 65 16
M  V30 70 1 66 17
M  V30 71 1 67 17
M  V30 72 1 68 18
M  V30 73 1 19 69 CFG=3
M  V30 74 1 70 21
M  V30 75 1 71 23
M  V30 76 1 72 23
M  V30 77 1 73 24
M  V30 78 1 74 24
M  V30 79 1 75 24
M  V30 80 1 76 25
M  V30 81 1 77 26
M  V30 82 1 78 26
M  V30 83 1 27 79 CFG=1
M  V30 84 1 80 28
M  V30 85 1 81 28
M  V30 86 1 29 82 CFG=3
M  V30 87 1 30 83 CFG=1
M  V30 88 1 84 31
M  V30 89 1 85 31
M  V30 90 1 86 31
M  V30 91 1 87 32
M  V30 92 1 88 34
M  V30 93 1 89 36
M  V30 94 1 90 36
M  V30 95 1 91 36
M  V30 96 1 92 37
M  V30 97 1 93 38
M  V30 98 1 94 38
M  V30 99 1 95 39
M  V30 100 1 96 39
M  V30 101 1 41 97 CFG=3
M  V30 102 1 98 43
M  V30 103 1 99 44
M  V30 104 1 100 44
M  V30 105 1 101 45
M  V30 106 1 102 46
M  V30 107 1 103 46
M  V30 108 1 104 46
M  V30 109 1 105 47
M  V30 110 1 106 47
M  V30 111 1 48 107 CFG=3
M  V30 112 1 108 49
M  V30 113 1 109 49
M  V30 114 1 110 20
M  V30 115 1 9 111 CFG=1
M  V30 116 1 112 42
M  V30 END BOND
M  V30 END CTAB
M  END
>  <i_epik_Tot_Q>  (1) 
2

>  <i_epik_Tot_abs_Q>  (1) 
2

>  <i_i_glide_confnum>  (1) 
1881

>  <i_i_glide_lignum>  (1) 
164

>  <i_i_glide_posenum>  (1) 
290

>  <i_i_glide_rotatable_bonds>  (1) 
12

>  <i_lp_mmshare_version>  (1) 
72125

>  <i_m_source_file_index>  (1) 
67

>  <i_f3d_flags>  (1) 
0

>  <num_sample>  (1) 
100

>  <b_lp_Chiralities_Consistent>  (1) 
1

>  <r_epik_Charging_Adjusted_Penalty>  (1) 
0.52025287817150023

>  <r_epik_Ionization_Penalty>  (1) 
3.4472135568412994

>  <r_epik_Ionization_Penalty_Charging>  (1) 
0.14055655438482481

>  <r_epik_Ionization_Penalty_Neutral>  (1) 
3.3066570024564745

>  <r_epik_State_Penalty>  (1) 
0.37969632378667539

>  <r_glide_ring_energy>  (1) 
0

>  <r_i_docking_score>  (1) 
-5.9815821801871776

>  <r_i_glide_ecoul>  (1) 
-4.2834343934108281

>  <r_i_glide_eff_state_penalty>  (1) 
0.37969632378667539

>  <r_i_glide_einternal>  (1) 
27.814644713665217

>  <r_i_glide_emodel>  (1) 
-128.20480312352728

>  <r_i_glide_emodel_strain>  (1) 
2.7869066756602763

>  <r_i_glide_energy>  (1) 
-1.7914056939586347

>  <r_i_glide_erotb>  (1) 
0.28524200512041686

>  <r_i_glide_esite>  (1) 
0

>  <r_i_glide_evdw>  (1) 
2.4920286994521934

>  <r_i_glide_gscore>  (1) 
-6.3612785039738533

>  <r_i_glide_gscore_strain>  (1) 
0

>  <r_i_glide_hbond>  (1) 
0

>  <r_i_glide_ligand_efficiency>  (1) 
-0.12207310571810566

>  <r_i_glide_ligand_efficiency_ln>  (1) 
-1.2227722638334548

>  <r_i_glide_ligand_efficiency_sa>  (1) 
-0.44670281279450197

>  <r_i_glide_lipo>  (1) 
-4.8880468724927102

>  <r_i_glide_metal>  (1) 
-0

>  <r_i_glide_rewards>  (1) 
-1.2405599125625468

>  <r_lp_Energy>  (1) 
65.322982999999994

>  <s_epik_Chemistry_Notes>  (1) 
This compound has an imine and may undergo hydrolysis.

>  <s_epik_cmdline>  (1) 
J2VwaWtfcHl0aG9uJywgJy1waHQnLCAnMS4wJywgJy1waCcsICc3LjQnLCAnLXRuJywgJzgnLCAnLW1hJywgJzUwMCcsICctaW1hZScsICc8aW5maWxlLm1hZT4nLCAnLW9tYWUnLCAnPG91dGZpbGUubWFlPic=

>  <s_epik_input>  (1) 
bjFbY0hdYyhbQ0gzXSluKGMxMilbQ0gyXVtDSF09QyhbQ0hdPVtDSF0yKVtDSDJdW0NAQEhdKFtDQEBIXTNbQ0gzXSlbQ0BIXShjNFtjSF1bY0hdW2NIXVtjSF1bY0hdNClbQ0gyXVtDQEBIXShbQ0BIXTM1KVNbQ0gyXUMoW0NIM10pKFtDSDNdKVtDSDJdW0NIMl1bQ0BdKFtDSDNdKShbQ0gyXVxOPVtDSF1cNSlbQ0gyXS9bQ0hdPVtDSF0vW0NAQEhdKFtPSF0pQyg9W0NIMl0pW0NIMl1bQ0gyXVtDQEBIXShbQ0gzXSlbT0hd

>  <s_glide_docking_method>  (1) 
confgen

>  <s_i_glide_gridfile>  (1) 
gpcr_5ht2c_6bqh_protein_autoprepared_prepared

>  <s_lp_Force_Field>  (1) 
S-OPLS

>  <s_lp_Variant>  (1) 
DiffSBDD_66_num_sample_100-1

>  <s_m_source_file>  (1) 
generated__ligand_DiffSBDD_2026-05-06_prepared.sdf

>  <GenAI_Model>  (1) 
DiffSBDD

>  <Protein>  (1) 
GPCR_5HT2C

$$$$
DiffSBDD_20_num_sample_100
     RDKit          3D

  0  0  0  0  0  0  0  0  0  0999 V3000
M  V30 BEGIN CTAB
M  V30 COUNTS 55 55 0 0 1
M  V30 BEGIN ATOM
M  V30 1 C 38.053760 25.972148 56.235850 0 CFG=1
M  V30 2 C 38.682693 28.130763 54.761274 0 CFG=2
M  V30 3 C 39.424913 28.334309 58.762975 0
M  V30 4 C 37.448020 23.688229 55.163874 0
M  V30 5 N 39.067331 28.389094 53.398511 0
M  V30 6 C 39.371574 30.821897 53.726077 0
M  V30 7 O 41.537964 32.021214 61.456874 0
M  V30 8 C 39.250951 32.061361 62.111451 0
M  V30 9 C 39.344864 29.929918 60.633798 0
M  V30 10 C 40.374654 31.011253 50.972074 0
M  V30 11 N 38.779972 29.293394 59.445472 0
M  V30 12 O 40.538536 27.910085 59.064759 0
M  V30 13 C 36.909126 25.761985 57.261585 0
M  V30 14 C 38.555663 24.585503 55.770130 0
M  V30 15 C 39.467403 29.510714 52.937466 0
M  V30 16 C 40.600586 32.743220 61.857562 0
M  V30 17 O 39.465199 27.370635 50.754670 0
M  V30 18 N 38.719853 27.893011 57.712642 0
M  V30 19 C 39.850224 27.576763 55.589934 0
M  V30 20 S 37.467113 26.821452 54.742072 0
M  V30 21 C 39.316339 28.753707 50.523206 0
M  V30 22 O 40.664699 33.973026 62.070219 0 CHG=-1
M  V30 23 C 39.215146 26.857572 56.792429 0 CFG=2
M  V30 24 C 40.103619 29.604996 51.535109 0 CFG=1
M  V30 25 C 38.720269 31.320419 60.863695 0
M  V30 26 H 38.222527 28.976523 55.267210 0
M  V30 27 H 37.857881 22.823858 54.653541 0
M  V30 28 H 36.770117 23.317317 55.933537 0
M  V30 29 H 36.846651 24.205510 54.419315 0
M  V30 30 H 39.199886 31.680027 53.081900 0
M  V30 31 H 38.531069 32.824791 62.406977 0
M  V30 32 H 39.342969 31.383404 62.961192 0
M  V30 33 H 39.155170 29.288506 61.495477 0
M  V30 34 H 40.428115 30.007498 60.534690 0
M  V30 35 H 40.944027 31.619457 51.671215 0
M  V30 36 H 40.965950 30.952379 50.056113 0
M  V30 37 H 39.466725 31.554737 50.721931 0
M  V30 38 H 37.870832 29.598432 59.133205 0
M  V30 39 H 37.238363 25.117832 58.077684 0
M  V30 40 H 36.548085 26.685266 57.708141 0
M  V30 41 H 36.038378 25.292656 56.805936 0
M  V30 42 H 39.337851 24.724331 55.023543 0
M  V30 43 H 39.023897 24.060998 56.604430 0
M  V30 44 H 39.204235 27.210283 51.654855 0
M  V30 45 H 37.810355 28.290555 57.527424 0
M  V30 46 H 40.425008 26.856063 55.006461 0
M  V30 47 H 40.543085 28.363550 55.891044 0
M  V30 48 H 39.594049 28.971611 49.490568 0
M  V30 49 H 38.267329 28.981066 50.653547 0
M  V30 50 H 39.952502 26.225873 57.294903 0
M  V30 51 H 41.079638 29.137411 51.625773 0
M  V30 52 H 38.878403 31.944635 59.983595 0
M  V30 53 H 37.640585 31.213972 60.963378 0
M  V30 54 H 38.522407 30.838469 54.406254 0
M  V30 55 H 40.283930 30.989154 54.299533 0
M  V30 END ATOM
M  V30 BEGIN BOND
M  V30 1 1 5 2
M  V30 2 1 11 3
M  V30 3 1 11 9
M  V30 4 2 12 3
M  V30 5 1 1 13 CFG=1
M  V30 6 1 14 1
M  V30 7 1 14 4
M  V30 8 2 15 5
M  V30 9 1 15 6
M  V30 10 2 16 7
M  V30 11 1 16 8
M  V30 12 1 18 3
M  V30 13 1 19 2
M  V30 14 1 20 1
M  V30 15 1 20 2
M  V30 16 1 21 17
M  V30 17 1 22 16
M  V30 18 1 23 1
M  V30 19 1 23 18
M  V30 20 1 23 19
M  V30 21 1 24 10
M  V30 22 1 24 15
M  V30 23 1 24 21
M  V30 24 1 25 8
M  V30 25 1 25 9
M  V30 26 1 2 26 CFG=1
M  V30 27 1 27 4
M  V30 28 1 28 4
M  V30 29 1 29 4
M  V30 30 1 30 6
M  V30 31 1 31 8
M  V30 32 1 32 8
M  V30 33 1 33 9
M  V30 34 1 34 9
M  V30 35 1 35 10
M  V30 36 1 36 10
M  V30 37 1 37 10
M  V30 38 1 38 11
M  V30 39 1 39 13
M  V30 40 1 40 13
M  V30 41 1 41 13
M  V30 42 1 42 14
M  V30 43 1 43 14
M  V30 44 1 44 17
M  V30 45 1 45 18
M  V30 46 1 46 19
M  V30 47 1 47 19
M  V30 48 1 48 21
M  V30 49 1 49 21
M  V30 50 1 23 50 CFG=1
M  V30 51 1 24 51 CFG=1
M  V30 52 1 52 25
M  V30 53 1 53 25
M  V30 54 1 54 6
M  V30 55 1 55 6
M  V30 END BOND
M  V30 END CTAB
M  END
>  <i_epik_Tot_Q>  (1) 
-1

>  <i_epik_Tot_abs_Q>  (1) 
1

>  <i_i_glide_confnum>  (1) 
504

>  <i_i_glide_lignum>  (1) 
55

>  <i_i_glide_posenum>  (1) 
77

>  <i_i_glide_rotatable_bonds>  (1) 
12

>  <i_lp_mmshare_version>  (1) 
72125

>  <i_m_source_file_index>  (1) 
21

>  <i_f3d_flags>  (1) 
0

>  <num_sample>  (1) 
100

>  <b_lp_Chiralities_Consistent>  (1) 
1

>  <r_epik_Charging_Adjusted_Penalty>  (1) 
0.43743025276339681

>  <r_epik_Ionization_Penalty>  (1) 
0.026773266926762091

>  <r_epik_Ionization_Penalty_Charging>  (1) 
0.0015534882308521432

>  <r_epik_Ionization_Penalty_Neutral>  (1) 
0.025219778695909949

>  <r_epik_State_Penalty>  (1) 
0.43587676453254465

>  <r_glide_ring_energy>  (1) 
0

>  <r_i_docking_score>  (1) 
-5.972464565388333

>  <r_i_glide_ecoul>  (1) 
-1.2520588198478739

>  <r_i_glide_eff_state_penalty>  (1) 
0.43587676453254465

>  <r_i_glide_einternal>  (1) 
6.4269995105110969

>  <r_i_glide_emodel>  (1) 
-46.175705941682494

>  <r_i_glide_emodel_strain>  (1) 
2.24486221831026

>  <r_i_glide_energy>  (1) 
-37.430488352471947

>  <r_i_glide_erotb>  (1) 
1.2527341714622291

>  <r_i_glide_esite>  (1) 
0

>  <r_i_glide_evdw>  (1) 
-36.178429532624072

>  <r_i_glide_gscore>  (1) 
-6.4083413299208773

>  <r_i_glide_gscore_strain>  (1) 
0

>  <r_i_glide_hbond>  (1) 
-0.016976307689487487

>  <r_i_glide_ligand_efficiency>  (1) 
-0.23889858261553332

>  <r_i_glide_ligand_efficiency_ln>  (1) 
-1.4156530823172342

>  <r_i_glide_ligand_efficiency_sa>  (1) 
-0.69854369320173126

>  <r_i_glide_lipo>  (1) 
-3.6315574106363671

>  <r_i_glide_metal>  (1) 
-0

>  <r_i_glide_rewards>  (1) 
-2.0158114834488661

>  <r_lp_Energy>  (1) 
19.180076

>  <r_lp_tautomer_probability>  (1) 
0.49999399997599986

>  <s_epik_Chemistry_Notes>  (1) 
This compound has an imine and may undergo hydrolysis. This compound contains an acetal/aminal-like group ( X-CH(R)-Y where X, Y are N, S, or O) that may be acid/base labile, releasing an aldehyde.

>  <s_epik_cmdline>  (1) 
J2VwaWtfcHl0aG9uJywgJy1waHQnLCAnMS4wJywgJy1waCcsICc3LjQnLCAnLXRuJywgJzgnLCAnLW1hJywgJzUwMCcsICctaW1hZScsICc8aW5maWxlLm1hZT4nLCAnLW9tYWUnLCAnPG91dGZpbGUubWFlPic=

>  <s_epik_input>  (1) 
W09IXVtDSDJdW0NAQEhdKFtDSDNdKUMoPVtDSDJdKVtOSF1bQ0BASF0oU1tDQEBdMShbQ0gzXSlbQ0gyXVtDSDNdKVtDSDJdW0NASF0xW05IXUMoPU8pW05IXVtDSDJdW0NIMl1bQ0gyXUMoPU8pW09IXQ==

>  <s_glide_docking_method>  (1) 
confgen

>  <s_i_glide_gridfile>  (1) 
gpcr_5ht2c_6bqh_protein_autoprepared_prepared

>  <s_lp_Force_Field>  (1) 
S-OPLS

>  <s_lp_Variant>  (1) 
DiffSBDD_20_num_sample_100-3

>  <s_m_source_file>  (1) 
generated__ligand_DiffSBDD_2026-05-06_prepared.sdf

>  <GenAI_Model>  (1) 
DiffSBDD

>  <Protein>  (1) 
GPCR_5HT2C

$$$$
DiffSBDD_1_num_sample_100
     RDKit          3D

  0  0  0  0  0  0  0  0  0  0999 V3000
M  V30 BEGIN CTAB
M  V30 COUNTS 63 66 0 0 1
M  V30 BEGIN ATOM
M  V30 1 C 39.252188 36.163336 62.052914 0
M  V30 2 C 39.319044 29.047849 58.349756 0
M  V30 3 O 41.326903 35.435526 61.615546 0
M  V30 4 C 37.687579 30.985139 58.730850 0 CFG=1
M  V30 5 C 37.809387 36.373156 61.777127 0
M  V30 6 C 37.648311 33.328202 58.150829 0
M  V30 7 C 38.002316 30.345627 55.083114 0
M  V30 8 C 41.207926 27.829102 57.756333 0
M  V30 9 N 40.556208 28.335850 56.523040 0 CHG=1
M  V30 10 C 35.061624 32.806180 60.812638 0
M  V30 11 C 37.227222 35.805636 60.474531 0
M  V30 12 C 38.202596 29.117323 55.995988 0 CFG=2
M  V30 13 C 39.477247 29.301269 56.866524 0 CFG=1
M  V30 14 C 36.557480 33.628413 59.202928 0 CFG=2
M  V30 15 C 36.015632 33.754091 61.554842 0
M  V30 16 C 40.050248 35.565607 61.224344 0
M  V30 17 N 38.491326 32.196290 58.551642 0
M  V30 18 C 38.546521 29.797094 59.167924 0
M  V30 19 O 37.067397 36.975102 62.551582 0
M  V30 20 C 38.150376 27.803227 55.185486 0
M  V30 21 C 41.275955 36.043321 62.970565 0
M  V30 22 C 36.621239 31.226938 59.814796 0
M  V30 23 C 40.142194 27.899592 58.848931 0
M  V30 24 N 35.778661 32.427899 59.576790 0 CFG=1 CHG=1
M  V30 25 O 35.524614 34.421430 58.653501 0
M  V30 26 C 39.823009 36.635980 63.315221 0
M  V30 27 C 37.028379 34.269025 60.517255 0 CFG=2
M  V30 28 O 36.667406 30.421451 54.653502 0
M  V30 29 H 37.166601 30.762772 57.804922 0
M  V30 30 H 38.264511 34.206140 57.987540 0
M  V30 31 H 37.183256 33.115646 57.187815 0
M  V30 32 H 38.664569 30.301981 54.217447 0
M  V30 33 H 38.216945 31.279012 55.604596 0
M  V30 34 H 42.043175 28.484699 58.007763 0
M  V30 35 H 41.604664 26.822058 57.619719 0
M  V30 36 H 40.111215 27.546581 56.075938 0
M  V30 37 H 34.777124 31.944142 61.416719 0
M  V30 38 H 34.143782 33.332379 60.546478 0
M  V30 39 H 37.867404 36.088903 59.640895 0
M  V30 40 H 36.269995 36.295465 60.292112 0
M  V30 41 H 37.351227 29.064564 56.670588 0
M  V30 42 H 39.874954 30.310455 56.765955 0
M  V30 43 H 36.586649 33.178571 62.274086 0
M  V30 44 H 35.478642 34.537094 62.090586 0
M  V30 45 H 39.829631 35.147125 60.253641 0
M  V30 46 H 39.178221 32.044555 57.820578 0
M  V30 47 H 38.512812 29.549767 60.219923 0
M  V30 48 H 38.937016 27.754157 54.431885 0
M  V30 49 H 38.234062 26.929312 55.832519 0
M  V30 50 H 37.202118 27.713313 54.653495 0
M  V30 51 H 41.544920 35.278342 63.699647 0
M  V30 52 H 42.031890 36.821428 63.053377 0
M  V30 53 H 35.967085 30.356996 59.890963 0
M  V30 54 H 37.121013 31.323683 60.780489 0
M  V30 55 H 40.555743 28.062572 59.845297 0
M  V30 56 H 39.532933 26.994625 58.858658 0
M  V30 57 H 35.875833 35.002586 57.986196 0
M  V30 58 H 39.813876 37.723837 63.390976 0
M  V30 59 H 39.363648 36.174517 64.189506 0
M  V30 60 H 37.984253 33.806429 60.765028 0
M  V30 61 H 36.157397 30.863765 55.327342 0
M  V30 62 H 41.231503 28.733913 55.884956 0
M  V30 63 H 35.156938 32.219947 58.800828 0
M  V30 END ATOM
M  V30 BEGIN BOND
M  V30 1 1 5 1
M  V30 2 1 9 8
M  V30 3 1 11 5
M  V30 4 1 12 7
M  V30 5 1 13 2
M  V30 6 1 13 9
M  V30 7 1 13 12
M  V30 8 1 14 6
M  V30 9 1 15 10
M  V30 10 2 16 1
M  V30 11 1 16 3
M  V30 12 1 17 4
M  V30 13 1 17 6
M  V30 14 2 18 2
M  V30 15 1 18 4
M  V30 16 2 19 5
M  V30 17 1 20 12
M  V30 18 1 21 3
M  V30 19 1 22 4
M  V30 20 1 23 2
M  V30 21 1 23 8
M  V30 22 1 24 10
M  V30 23 1 24 14
M  V30 24 1 24 22
M  V30 25 1 14 25 CFG=3
M  V30 26 1 26 1
M  V30 27 1 26 21
M  V30 28 1 27 11
M  V30 29 1 27 14
M  V30 30 1 27 15
M  V30 31 1 28 7
M  V30 32 1 4 29 CFG=3
M  V30 33 1 30 6
M  V30 34 1 31 6
M  V30 35 1 32 7
M  V30 36 1 33 7
M  V30 37 1 34 8
M  V30 38 1 35 8
M  V30 39 1 36 9
M  V30 40 1 37 10
M  V30 41 1 38 10
M  V30 42 1 39 11
M  V30 43 1 40 11
M  V30 44 1 12 41 CFG=1
M  V30 45 1 13 42 CFG=1
M  V30 46 1 43 15
M  V30 47 1 44 15
M  V30 48 1 45 16
M  V30 49 1 46 17
M  V30 50 1 47 18
M  V30 51 1 48 20
M  V30 52 1 49 20
M  V30 53 1 50 20
M  V30 54 1 51 21
M  V30 55 1 52 21
M  V30 56 1 53 22
M  V30 57 1 54 22
M  V30 58 1 55 23
M  V30 59 1 56 23
M  V30 60 1 57 25
M  V30 61 1 58 26
M  V30 62 1 59 26
M  V30 63 1 27 60 CFG=1
M  V30 64 1 61 28
M  V30 65 1 62 9
M  V30 66 1 24 63 CFG=3
M  V30 END BOND
M  V30 END CTAB
M  END
>  <i_epik_Tot_Q>  (1) 
2

>  <i_epik_Tot_abs_Q>  (1) 
2

>  <i_i_glide_confnum>  (1) 
194

>  <i_i_glide_lignum>  (1) 
14

>  <i_i_glide_posenum>  (1) 
325

>  <i_i_glide_rotatable_bonds>  (1) 
8

>  <i_lp_mmshare_version>  (1) 
72125

>  <i_m_source_file_index>  (1) 
2

>  <i_f3d_flags>  (1) 
0

>  <num_sample>  (1) 
100

>  <b_lp_Chiralities_Consistent>  (1) 
1

>  <r_epik_Charging_Adjusted_Penalty>  (1) 
2.3622130296898831

>  <r_epik_Ionization_Penalty>  (1) 
1.4312966064593899

>  <r_epik_Ionization_Penalty_Charging>  (1) 
1.1852885594971458

>  <r_epik_Ionization_Penalty_Neutral>  (1) 
0.24600804696224418

>  <r_epik_State_Penalty>  (1) 
1.176924470192737

>  <r_glide_ring_energy>  (1) 
0

>  <r_i_docking_score>  (1) 
-5.9665769177733354

>  <r_i_glide_ecoul>  (1) 
-9.3327524189759608

>  <r_i_glide_eff_state_penalty>  (1) 
1.176924470192737

>  <r_i_glide_einternal>  (1) 
5.8736589498208058

>  <r_i_glide_emodel>  (1) 
-60.886900863308576

>  <r_i_glide_emodel_strain>  (1) 
1.5225191982915902

>  <r_i_glide_energy>  (1) 
-42.839737908015763

>  <r_i_glide_erotb>  (1) 
0.75687532201182384

>  <r_i_glide_esite>  (1) 
-0.15899170433993193

>  <r_i_glide_evdw>  (1) 
-33.506985489039806

>  <r_i_glide_gscore>  (1) 
-7.1435013879660723

>  <r_i_glide_gscore_strain>  (1) 
0

>  <r_i_glide_hbond>  (1) 
-0.61027344451842436

>  <r_i_glide_ligand_efficiency>  (1) 
-0.21309203277761912

>  <r_i_glide_ligand_efficiency_ln>  (1) 
-1.3772611389327125

>  <r_i_glide_ligand_efficiency_sa>  (1) 
-0.64707291672708556

>  <r_i_glide_lipo>  (1) 
-2.4253978710442441

>  <r_i_glide_metal>  (1) 
-0

>  <r_i_glide_rewards>  (1) 
-1.630451552776911

>  <r_lp_Energy>  (1) 
20.193497000000001

>  <s_epik_cmdline>  (1) 
J2VwaWtfcHl0aG9uJywgJy1waHQnLCAnMS4wJywgJy1waCcsICc3LjQnLCAnLXRuJywgJzgnLCAnLW1hJywgJzUwMCcsICctaW1hZScsICc8aW5maWxlLm1hZT4nLCAnLW9tYWUnLCAnPG91dGZpbGUubWFlPic=

>  <s_epik_input>  (1) 
W0NIMl0xW0NIMl1PW0NIXT1DMUMoPU8pW0NIMl1bQ0BIXTJbQ0gyXVtDSDJdTihbQ0BAXTIzW09IXSlbQ0gyXVtDQEBIXShbTkhdW0NIMl0zKS9bQ0hdPUM0XFtDQEBIXShbTkhdW0NIMl1bQ0gyXTQpW0NASF0oW0NIM10pW0NIMl1bT0hd

>  <s_glide_docking_method>  (1) 
confgen

>  <s_i_glide_gridfile>  (1) 
gpcr_5ht2c_6bqh_protein_autoprepared_prepared

>  <s_lp_Force_Field>  (1) 
S-OPLS

>  <s_lp_Variant>  (1) 
DiffSBDD_1_num_sample_100-8

>  <s_m_source_file>  (1) 
generated__ligand_DiffSBDD_2026-05-06_prepared.sdf

>  <GenAI_Model>  (1) 
DiffSBDD

>  <Protein>  (1) 
GPCR_5HT2C

$$$$
DiffSBDD_59_num_sample_100
     RDKit          3D

  0  0  0  0  0  0  0  0  0  0999 V3000
M  V30 BEGIN CTAB
M  V30 COUNTS 54 55 0 0 1
M  V30 BEGIN ATOM
M  V30 1 O 40.869729 36.378139 63.053488 0
M  V30 2 N 37.875631 29.474148 56.180810 0 CFG=2 CHG=1
M  V30 3 C 37.581379 26.337555 54.913081 0
M  V30 4 C 37.420712 29.544990 57.598105 0
M  V30 5 C 39.084968 35.314568 61.823826 0
M  V30 6 C 37.928634 24.928682 57.327851 0
M  V30 7 C 38.452849 26.230122 57.202353 0
M  V30 8 C 38.275172 26.950811 55.981843 0
M  V30 9 C 37.655163 33.334948 59.914101 0
M  V30 10 C 37.631833 30.769056 59.848709 0
M  V30 11 Cl 39.300578 26.926902 58.536209 0
M  V30 12 C 38.358644 30.302778 58.572360 0
M  V30 13 O 38.681107 33.621403 59.298737 0
M  V30 14 N 37.108498 34.049511 60.876814 0
M  V30 15 N 36.000883 33.539328 61.430151 0
M  V30 16 C 39.516642 36.524365 62.673548 0
M  V30 17 C 36.867886 32.094954 59.636401 0 CFG=1
M  V30 18 C 38.825551 28.381241 55.797654 0 CFG=2
M  V30 19 C 38.185089 30.795622 55.572535 0
M  V30 20 C 37.602258 35.352167 61.371500 0 CFG=2
M  V30 21 C 37.067404 25.035137 55.053651 0
M  V30 22 C 35.863192 32.437925 60.747813 0
M  V30 23 C 37.294434 36.470103 60.357787 0
M  V30 24 C 40.300836 28.632488 56.159237 0
M  V30 25 C 37.236794 24.336134 56.258164 0
M  V30 26 H 41.113015 37.081253 63.646901 0
M  V30 27 H 37.442287 26.868699 53.982599 0
M  V30 28 H 37.193448 28.553340 57.982303 0
M  V30 29 H 36.444330 30.021390 57.577175 0
M  V30 30 H 39.739438 35.247593 60.954882 0
M  V30 31 H 39.254701 34.406264 62.403810 0
M  V30 32 H 38.058798 24.382894 58.249949 0
M  V30 33 H 38.360503 30.889965 60.652289 0
M  V30 34 H 36.949249 29.988395 60.186034 0
M  V30 35 H 38.818787 31.170792 58.102841 0
M  V30 36 H 39.184710 29.657389 58.861240 0
M  V30 37 H 38.902615 36.603016 63.571527 0
M  V30 38 H 39.410596 37.456488 62.118435 0
M  V30 39 H 36.402138 32.163718 58.657633 0
M  V30 40 H 38.854807 28.468878 54.710354 0
M  V30 41 H 39.165465 31.168260 55.867003 0
M  V30 42 H 38.166583 30.731972 54.484317 0
M  V30 43 H 37.458337 31.550486 55.867403 0
M  V30 44 H 37.010819 35.593759 62.254101 0
M  V30 45 H 36.538221 24.572773 54.232694 0
M  V30 46 H 35.039874 31.753072 60.950700 0
M  V30 47 H 37.515461 37.455259 60.766986 0
M  V30 48 H 37.867403 36.355020 59.442525 0
M  V30 49 H 36.240584 36.466086 60.081194 0
M  V30 50 H 40.924400 27.791905 55.854556 0
M  V30 51 H 40.667428 29.504151 55.620729 0
M  V30 52 H 40.479821 28.817376 57.214301 0
M  V30 53 H 36.836837 23.338133 56.362330 0
M  V30 54 H 37.025830 29.203698 55.706911 0
M  V30 END ATOM
M  V30 BEGIN BOND
M  V30 1 1 4 2
M  V30 2 2 7 6
M  V30 3 2 8 3
M  V30 4 1 8 7
M  V30 5 1 11 7
M  V30 6 1 12 4
M  V30 7 1 12 10
M  V30 8 2 13 9
M  V30 9 1 14 9
M  V30 10 1 15 14
M  V30 11 1 16 1
M  V30 12 1 16 5
M  V30 13 1 17 9
M  V30 14 1 17 10
M  V30 15 1 18 2
M  V30 16 1 18 8
M  V30 17 1 19 2
M  V30 18 1 20 5
M  V30 19 1 20 14
M  V30 20 1 21 3
M  V30 21 2 22 15
M  V30 22 1 22 17
M  V30 23 1 23 20
M  V30 24 1 24 18
M  V30 25 1 25 6
M  V30 26 2 25 21
M  V30 27 1 26 1
M  V30 28 1 27 3
M  V30 29 1 28 4
M  V30 30 1 29 4
M  V30 31 1 30 5
M  V30 32 1 31 5
M  V30 33 1 32 6
M  V30 34 1 33 10
M  V30 35 1 34 10
M  V30 36 1 35 12
M  V30 37 1 36 12
M  V30 38 1 37 16
M  V30 39 1 38 16
M  V30 40 1 17 39 CFG=3
M  V30 41 1 18 40 CFG=3
M  V30 42 1 41 19
M  V30 43 1 42 19
M  V30 44 1 43 19
M  V30 45 1 20 44 CFG=1
M  V30 46 1 45 21
M  V30 47 1 46 22
M  V30 48 1 47 23
M  V30 49 1 48 23
M  V30 50 1 49 23
M  V30 51 1 50 24
M  V30 52 1 51 24
M  V30 53 1 52 24
M  V30 54 1 53 25
M  V30 55 1 2 54 CFG=3
M  V30 END BOND
M  V30 END CTAB
M  END
>  <i_epik_Tot_Q>  (1) 
1

>  <i_epik_Tot_abs_Q>  (1) 
1

>  <i_i_glide_confnum>  (1) 
266

>  <i_i_glide_lignum>  (1) 
151

>  <i_i_glide_posenum>  (1) 
316

>  <i_i_glide_rotatable_bonds>  (1) 
10

>  <i_lp_mmshare_version>  (1) 
72125

>  <i_m_source_file_index>  (1) 
60

>  <i_f3d_flags>  (1) 
0

>  <num_sample>  (1) 
100

>  <b_lp_Chiralities_Consistent>  (1) 
1

>  <r_epik_Charging_Adjusted_Penalty>  (1) 
0.90698054963472508

>  <r_epik_Ionization_Penalty>  (1) 
0.11890783771570668

>  <r_epik_Ionization_Penalty_Charging>  (1) 
0.11890771087092902

>  <r_epik_Ionization_Penalty_Neutral>  (1) 
1.2684477765112781e-07

>  <r_epik_State_Penalty>  (1) 
0.78807283876379608

>  <r_glide_ring_energy>  (1) 
0

>  <r_i_docking_score>  (1) 
-5.9606153695933495

>  <r_i_glide_ecoul>  (1) 
-4.2151863200068327

>  <r_i_glide_eff_state_penalty>  (1) 
0.78807283876379608

>  <r_i_glide_einternal>  (1) 
4.0911355309127702

>  <r_i_glide_emodel>  (1) 
-62.48382132660258

>  <r_i_glide_emodel_strain>  (1) 
0.095003431624434143

>  <r_i_glide_energy>  (1) 
-44.179879468292725

>  <r_i_glide_erotb>  (1) 
1.1440711446639862

>  <r_i_glide_esite>  (1) 
-0.067725262377856504

>  <r_i_glide_evdw>  (1) 
-39.964693148285896

>  <r_i_glide_gscore>  (1) 
-6.7486882083571453

>  <r_i_glide_gscore_strain>  (1) 
0

>  <r_i_glide_hbond>  (1) 
-0.32000000000000001

>  <r_i_glide_ligand_efficiency>  (1) 
-0.23842461478373397

>  <r_i_glide_ligand_efficiency_ln>  (1) 
-1.4128444678220793

>  <r_i_glide_ligand_efficiency_sa>  (1) 
-0.6971578028542077

>  <r_i_glide_lipo>  (1) 
-3.1030509735430294

>  <r_i_glide_metal>  (1) 
-0

>  <r_i_glide_rewards>  (1) 
-1.771470511684925

>  <r_lp_Energy>  (1) 
20.477868999999998

>  <r_lp_tautomer_probability>  (1) 
0.26444745842670125

>  <s_epik_Chemistry_Notes>  (1) 
This compound has an imine and may undergo hydrolysis.

>  <s_epik_cmdline>  (1) 
J2VwaWtfcHl0aG9uJywgJy1waHQnLCAnMS4wJywgJy1waCcsICc3LjQnLCAnLXRuJywgJzgnLCAnLW1hJywgJzUwMCcsICctaW1hZScsICc8aW5maWxlLm1hZT4nLCAnLW9tYWUnLCAnPG91dGZpbGUubWFlPic=

>  <s_epik_input>  (1) 
W09IXVtDSDJdW0NIMl1bQ0BASF0oW0NIM10pTihDMT1PKU49W0NIXVtDQEBIXTFbQ0gyXVtDSDJdW0NIMl1OKFtDSDNdKVtDQEBIXShbQ0gzXSljMltjSF1bY0hdW2NIXVtjSF1jMkNs

>  <s_glide_docking_method>  (1) 
confgen

>  <s_i_glide_gridfile>  (1) 
gpcr_5ht2c_6bqh_protein_autoprepared_prepared

>  <s_lp_Force_Field>  (1) 
S-OPLS

>  <s_lp_Variant>  (1) 
DiffSBDD_59_num_sample_100-4

>  <s_m_source_file>  (1) 
generated__ligand_DiffSBDD_2026-05-06_prepared.sdf

>  <GenAI_Model>  (1) 
DiffSBDD

>  <Protein>  (1) 
GPCR_5HT2C

$$$$
DiffSBDD_57_num_sample_100
     RDKit          3D

  0  0  0  0  0  0  0  0  0  0999 V3000
M  V30 BEGIN CTAB
M  V30 COUNTS 38 40 0 0 1
M  V30 BEGIN ATOM
M  V30 1 C 38.682538 29.551167 56.637939 0
M  V30 2 C 38.692161 28.018532 58.516817 0
M  V30 3 N 37.867422 30.319582 53.853528 0
M  V30 4 O 39.067583 29.477711 60.855482 0
M  V30 5 C 37.516692 24.797616 57.608654 0
M  V30 6 C 37.573384 25.454643 55.093442 0
M  V30 7 C 39.067398 31.034563 53.488040 0 CFG=2
M  V30 8 C 38.667439 30.501012 60.267332 0
M  V30 9 N 38.825000 28.539733 55.746956 0
M  V30 10 C 38.632201 29.351009 58.038704 0
M  V30 11 C 38.853088 27.290080 56.211176 0
M  V30 12 C 38.792464 25.548376 58.022300 0
M  V30 13 C 38.788290 26.975038 57.574887 0
M  V30 14 C 38.574198 30.943818 56.033001 0 CFG=1
M  V30 15 C 37.467316 24.340602 56.140624 0
M  V30 16 C 38.914032 26.198059 55.162782 0
M  V30 17 Cl 39.867410 30.021128 52.265069 0
M  V30 18 S 40.013069 31.221428 55.004233 0
M  V30 19 N 38.488161 30.497415 58.922925 0
M  V30 20 C 37.406235 30.996449 55.052058 0
M  V30 21 O 38.437122 31.558995 60.888972 0 CHG=-1
M  V30 22 H 38.628668 27.784952 59.560781 0
M  V30 23 H 38.169657 29.401018 54.174034 0
M  V30 24 H 37.464457 23.906767 58.235776 0
M  V30 25 H 36.635626 25.393385 57.850868 0
M  V30 26 H 37.471473 24.999892 54.109535 0
M  V30 27 H 36.742536 26.156204 55.181641 0
M  V30 28 H 38.833762 32.008131 53.054135 0
M  V30 29 H 39.694759 25.035852 57.687159 0
M  V30 30 H 38.843148 25.590010 59.100945 0
M  V30 31 H 38.486878 31.738523 56.771643 0
M  V30 32 H 38.264204 23.621430 55.960402 0
M  V30 33 H 36.536309 23.796732 55.976275 0
M  V30 34 H 39.118790 26.653445 54.191992 0
M  V30 35 H 39.745900 25.519997 55.356185 0
M  V30 36 H 38.233163 31.372144 58.492004 0
M  V30 37 H 36.524591 30.495721 55.453500 0
M  V30 38 H 37.129318 32.024642 54.814488 0
M  V30 END ATOM
M  V30 BEGIN BOND
M  V30 1 1 7 3
M  V30 2 2 8 4
M  V30 3 1 9 1
M  V30 4 2 10 1
M  V30 5 1 10 2
M  V30 6 2 11 9
M  V30 7 1 12 5
M  V30 8 2 13 2
M  V30 9 1 13 11
M  V30 10 1 13 12
M  V30 11 1 14 1
M  V30 12 1 15 5
M  V30 13 1 15 6
M  V30 14 1 16 6
M  V30 15 1 16 11
M  V30 16 1 17 7
M  V30 17 1 18 7
M  V30 18 1 18 14
M  V30 19 1 19 8
M  V30 20 1 19 10
M  V30 21 1 20 3
M  V30 22 1 20 14
M  V30 23 1 21 8
M  V30 24 1 22 2
M  V30 25 1 23 3
M  V30 26 1 24 5
M  V30 27 1 25 5
M  V30 28 1 26 6
M  V30 29 1 27 6
M  V30 30 1 7 28 CFG=3
M  V30 31 1 29 12
M  V30 32 1 30 12
M  V30 33 1 14 31 CFG=1
M  V30 34 1 32 15
M  V30 35 1 33 15
M  V30 36 1 34 16
M  V30 37 1 35 16
M  V30 38 1 36 19
M  V30 39 1 37 20
M  V30 40 1 38 20
M  V30 END BOND
M  V30 END CTAB
M  END
>  <i_epik_Tot_Q>  (1) 
-1

>  <i_epik_Tot_abs_Q>  (1) 
1

>  <i_i_glide_confnum>  (1) 
47

>  <i_i_glide_lignum>  (1) 
146

>  <i_i_glide_posenum>  (1) 
390

>  <i_i_glide_rotatable_bonds>  (1) 
3

>  <i_lp_mmshare_version>  (1) 
72125

>  <i_m_source_file_index>  (1) 
58

>  <i_f3d_flags>  (1) 
0

>  <num_sample>  (1) 
100

>  <b_lp_Chiralities_Consistent>  (1) 
1

>  <r_epik_Charging_Adjusted_Penalty>  (1) 
0.030249611806120975

>  <r_epik_Ionization_Penalty>  (1) 
0.0034756844334769034

>  <r_epik_Ionization_Penalty_Charging>  (1) 
0.00037093854589671571

>  <r_epik_Ionization_Penalty_Neutral>  (1) 
0.0031047458875801876

>  <r_epik_State_Penalty>  (1) 
0.02987867326022426

>  <r_glide_ring_energy>  (1) 
1.9670133555116014

>  <r_i_docking_score>  (1) 
-5.9598983026115988

>  <r_i_glide_ecoul>  (1) 
-2.5110067359660402

>  <r_i_glide_eff_state_penalty>  (1) 
0.02987867326022426

>  <r_i_glide_einternal>  (1) 
0.27424768553194134

>  <r_i_glide_emodel>  (1) 
-37.931586088936399

>  <r_i_glide_emodel_strain>  (1) 
0.17015180596284551

>  <r_i_glide_energy>  (1) 
-28.822272144994258

>  <r_i_glide_erotb>  (1) 
0.35125710597842541

>  <r_i_glide_esite>  (1) 
-0.016686335819480026

>  <r_i_glide_evdw>  (1) 
-26.31126540902822

>  <r_i_glide_gscore>  (1) 
-5.9897769758718233

>  <r_i_glide_gscore_strain>  (1) 
0

>  <r_i_glide_hbond>  (1) 
0

>  <r_i_glide_ligand_efficiency>  (1) 
-0.28380468107674278

>  <r_i_glide_ligand_efficiency_ln>  (1) 
-1.4735728122122378

>  <r_i_glide_ligand_efficiency_sa>  (1) 
-0.78299559599275936

>  <r_i_glide_lipo>  (1) 
-2.9591485342879951

>  <r_i_glide_metal>  (1) 
-0

>  <r_i_glide_rewards>  (1) 
-1.6729849308964559

>  <r_lp_Energy>  (1) 
18.504829000000001

>  <s_epik_Chemistry_Notes>  (1) 
This compound contains an acetal/aminal-like group ( X-CH(R)-Y where X, Y are N, S, or O) that may be acid/base labile, releasing an aldehyde.

>  <s_epik_cmdline>  (1) 
J2VwaWtfcHl0aG9uJywgJy1waHQnLCAnMS4wJywgJy1waCcsICc3LjQnLCAnLXRuJywgJzgnLCAnLW1hJywgJzUwMCcsICctaW1hZScsICc8aW5maWxlLm1hZT4nLCAnLW9tYWUnLCAnPG91dGZpbGUubWFlPic=

>  <s_epik_input>  (1) 
Q2xbQ0BIXTFbTkhdW0NIMl1bQ0BIXShTMSljKG4yKWMoW05IXUMoPU8pW09IXSlbY0hdYyhjMjMpW0NIMl1bQ0gyXVtDSDJdW0NIMl1bQ0gyXTM=

>  <s_glide_docking_method>  (1) 
confgen

>  <s_i_glide_gridfile>  (1) 
gpcr_5ht2c_6bqh_protein_autoprepared_prepared

>  <s_lp_Force_Field>  (1) 
S-OPLS

>  <s_lp_Variant>  (1) 
DiffSBDD_57_num_sample_100-1

>  <s_m_source_file>  (1) 
generated__ligand_DiffSBDD_2026-05-06_prepared.sdf

>  <GenAI_Model>  (1) 
DiffSBDD

>  <Protein>  (1) 
GPCR_5HT2C

$$$$
DiffSBDD_1_num_sample_100
     RDKit          3D

  0  0  0  0  0  0  0  0  0  0999 V3000
M  V30 BEGIN CTAB
M  V30 COUNTS 63 66 0 0 1
M  V30 BEGIN ATOM
M  V30 1 C 38.059443 25.751036 56.258242 0
M  V30 2 C 38.752836 33.707515 60.335687 0
M  V30 3 O 37.067402 23.785024 56.655765 0
M  V30 4 C 37.540332 32.432293 58.516802 0 CFG=1
M  V30 5 C 38.764475 26.993859 56.634240 0
M  V30 6 C 37.929246 29.982123 58.143727 0
M  V30 7 C 41.554088 32.908138 62.990347 0
M  V30 8 C 38.297078 35.674116 61.529880 0
M  V30 9 N 39.303558 34.855136 62.253265 0 CHG=1
M  V30 10 C 39.467765 31.783561 55.267355 0
M  V30 11 C 39.053615 28.016031 55.525478 0
M  V30 12 C 40.465273 32.604518 61.944658 0 CFG=2
M  V30 13 C 39.899777 33.899673 61.293423 0 CFG=1
M  V30 14 C 38.291440 30.264103 56.675024 0 CFG=2
M  V30 15 C 39.871913 30.358934 54.855761 0
M  V30 16 C 37.707840 24.863124 57.129613 0
M  V30 17 N 37.067388 31.048846 58.673963 0
M  V30 18 C 38.680497 32.671849 59.477105 0
M  V30 19 O 39.122125 27.233641 57.788032 0
M  V30 20 C 39.361275 31.687225 62.510238 0
M  V30 21 C 37.011942 24.092341 55.204749 0
M  V30 22 C 37.936732 32.716351 57.050046 0
M  V30 23 C 37.692215 34.767266 60.448078 0
M  V30 24 N 38.819536 31.635254 56.568458 0 CFG=2 CHG=1
M  V30 25 O 37.141687 30.266553 55.833192 0
M  V30 26 C 37.733460 25.487168 54.855724 0
M  V30 27 C 39.416276 29.438374 56.011108 0 CFG=2
M  V30 28 O 42.267337 31.733287 63.312858 0
M  V30 29 H 36.720886 33.105116 58.768561 0
M  V30 30 H 38.833807 29.891348 58.745434 0
M  V30 31 H 37.407956 29.029118 58.227550 0
M  V30 32 H 41.132499 33.343108 63.897726 0
M  V30 33 H 42.267259 33.623525 62.588219 0
M  V30 34 H 38.811527 36.513119 61.058729 0
M  V30 35 H 37.544970 36.080637 62.207119 0
M  V30 36 H 38.814844 34.322025 62.958427 0
M  V30 37 H 40.319048 32.421426 55.453511 0
M  V30 38 H 38.805857 32.246377 54.532813 0
M  V30 39 H 38.190904 28.082022 54.863287 0
M  V30 40 H 39.871729 27.618657 54.926540 0
M  V30 41 H 40.966644 32.046651 61.152904 0
M  V30 42 H 40.673268 34.441179 60.754172 0
M  V30 43 H 40.941964 30.285097 54.662712 0
M  V30 44 H 39.357160 30.095135 53.930546 0
M  V30 45 H 37.855267 24.871971 58.200618 0
M  V30 46 H 36.185021 31.035972 58.144143 0
M  V30 47 H 39.467399 31.945913 59.461836 0
M  V30 48 H 38.626308 32.270865 63.053496 0
M  V30 49 H 38.827141 31.159298 61.720563 0
M  V30 50 H 39.754346 30.922848 63.180901 0
M  V30 51 H 37.474103 23.273966 54.653516 0
M  V30 52 H 35.965930 24.118401 54.897529 0
M  V30 53 H 37.074282 32.821498 56.399240 0
M  V30 54 H 38.465477 33.667808 56.988598 0
M  V30 55 H 37.514655 35.294549 59.508723 0
M  V30 56 H 36.756963 34.320382 60.790171 0
M  V30 57 H 36.443569 30.775550 56.253478 0
M  V30 58 H 37.067331 26.229120 54.419597 0
M  V30 59 H 38.632844 25.364428 54.253695 0
M  V30 60 H 40.247694 29.364922 56.714587 0
M  V30 61 H 41.713336 31.164849 63.828210 0
M  V30 62 H 40.004636 35.434390 62.694197 0
M  V30 63 H 39.585911 31.634500 57.223158 0
M  V30 END ATOM
M  V30 BEGIN BOND
M  V30 1 1 5 1
M  V30 2 1 9 8
M  V30 3 1 11 5
M  V30 4 1 12 7
M  V30 5 1 13 2
M  V30 6 1 13 9
M  V30 7 1 13 12
M  V30 8 1 14 6
M  V30 9 1 15 10
M  V30 10 2 16 1
M  V30 11 1 16 3
M  V30 12 1 17 4
M  V30 13 1 17 6
M  V30 14 2 18 2
M  V30 15 1 18 4
M  V30 16 2 19 5
M  V30 17 1 20 12
M  V30 18 1 21 3
M  V30 19 1 22 4
M  V30 20 1 23 2
M  V30 21 1 23 8
M  V30 22 1 24 10
M  V30 23 1 24 14
M  V30 24 1 24 22
M  V30 25 1 14 25 CFG=3
M  V30 26 1 26 1
M  V30 27 1 26 21
M  V30 28 1 27 11
M  V30 29 1 27 14
M  V30 30 1 27 15
M  V30 31 1 28 7
M  V30 32 1 4 29 CFG=1
M  V30 33 1 30 6
M  V30 34 1 31 6
M  V30 35 1 32 7
M  V30 36 1 33 7
M  V30 37 1 34 8
M  V30 38 1 35 8
M  V30 39 1 36 9
M  V30 40 1 37 10
M  V30 41 1 38 10
M  V30 42 1 39 11
M  V30 43 1 40 11
M  V30 44 1 12 41 CFG=3
M  V30 45 1 13 42 CFG=3
M  V30 46 1 43 15
M  V30 47 1 44 15
M  V30 48 1 45 16
M  V30 49 1 46 17
M  V30 50 1 47 18
M  V30 51 1 48 20
M  V30 52 1 49 20
M  V30 53 1 50 20
M  V30 54 1 51 21
M  V30 55 1 52 21
M  V30 56 1 53 22
M  V30 57 1 54 22
M  V30 58 1 55 23
M  V30 59 1 56 23
M  V30 60 1 57 25
M  V30 61 1 58 26
M  V30 62 1 59 26
M  V30 63 1 27 60 CFG=1
M  V30 64 1 61 28
M  V30 65 1 62 9
M  V30 66 1 24 63 CFG=1
M  V30 END BOND
M  V30 END CTAB
M  END
>  <i_epik_Tot_Q>  (1) 
2

>  <i_epik_Tot_abs_Q>  (1) 
2

>  <i_i_glide_confnum>  (1) 
168

>  <i_i_glide_lignum>  (1) 
11

>  <i_i_glide_posenum>  (1) 
178

>  <i_i_glide_rotatable_bonds>  (1) 
8

>  <i_lp_mmshare_version>  (1) 
72125

>  <i_m_source_file_index>  (1) 
2

>  <i_f3d_flags>  (1) 
0

>  <num_sample>  (1) 
100

>  <b_lp_Chiralities_Consistent>  (1) 
1

>  <r_epik_Charging_Adjusted_Penalty>  (1) 
2.3622130296898831

>  <r_epik_Ionization_Penalty>  (1) 
1.4312966064593899

>  <r_epik_Ionization_Penalty_Charging>  (1) 
1.1852885594971458

>  <r_epik_Ionization_Penalty_Neutral>  (1) 
0.24600804696224418

>  <r_epik_State_Penalty>  (1) 
1.176924470192737

>  <r_glide_ring_energy>  (1) 
0

>  <r_i_docking_score>  (1) 
-5.9593618307962268

>  <r_i_glide_ecoul>  (1) 
-10.137645317740027

>  <r_i_glide_eff_state_penalty>  (1) 
1.176924470192737

>  <r_i_glide_einternal>  (1) 
6.180904055027364

>  <r_i_glide_emodel>  (1) 
-53.911662339002021

>  <r_i_glide_emodel_strain>  (1) 
0.62979738396236939

>  <r_i_glide_energy>  (1) 
-36.851262161032352

>  <r_i_glide_erotb>  (1) 
0.75687532201182384

>  <r_i_glide_esite>  (1) 
-0.10665801259579416

>  <r_i_glide_evdw>  (1) 
-26.713616843292328

>  <r_i_glide_gscore>  (1) 
-7.1362863009889637

>  <r_i_glide_gscore_strain>  (1) 
0

>  <r_i_glide_hbond>  (1) 
-0.28721653582913081

>  <r_i_glide_ligand_efficiency>  (1) 
-0.21283435109986523

>  <r_i_glide_ligand_efficiency_ln>  (1) 
-1.375595685014237

>  <r_i_glide_ligand_efficiency_sa>  (1) 
-0.6462904433861637

>  <r_i_glide_lipo>  (1) 
-3.1825349869735602

>  <r_i_glide_metal>  (1) 
-0

>  <r_i_glide_rewards>  (1) 
-1.4604244477766821

>  <r_lp_Energy>  (1) 
17.137563

>  <s_epik_cmdline>  (1) 
J2VwaWtfcHl0aG9uJywgJy1waHQnLCAnMS4wJywgJy1waCcsICc3LjQnLCAnLXRuJywgJzgnLCAnLW1hJywgJzUwMCcsICctaW1hZScsICc8aW5maWxlLm1hZT4nLCAnLW9tYWUnLCAnPG91dGZpbGUubWFlPic=

>  <s_epik_input>  (1) 
W0NIMl0xW0NIMl1PW0NIXT1DMUMoPU8pW0NIMl1bQ0BIXTJbQ0gyXVtDSDJdTihbQ0BAXTIzW09IXSlbQ0gyXVtDQEBIXShbTkhdW0NIMl0zKVxbQ0hdPUM0XFtDQEBIXShbTkhdW0NIMl1bQ0gyXTQpW0NASF0oW0NIM10pW0NIMl1bT0hd

>  <s_glide_docking_method>  (1) 
confgen

>  <s_i_glide_gridfile>  (1) 
gpcr_5ht2c_6bqh_protein_autoprepared_prepared

>  <s_lp_Force_Field>  (1) 
S-OPLS

>  <s_lp_Variant>  (1) 
DiffSBDD_1_num_sample_100-5

>  <s_m_source_file>  (1) 
generated__ligand_DiffSBDD_2026-05-06_prepared.sdf

>  <GenAI_Model>  (1) 
DiffSBDD

>  <Protein>  (1) 
GPCR_5HT2C

$$$$
DiffSBDD_77_num_sample_100
     RDKit          3D

  0  0  0  0  0  0  0  0  0  0999 V3000
M  V30 BEGIN CTAB
M  V30 COUNTS 77 79 0 0 1
M  V30 BEGIN ATOM
M  V30 1 C 41.792337 31.088058 68.264458 0
M  V30 2 F 45.388921 31.184292 67.522338 0
M  V30 3 C 36.450045 34.906276 61.362320 0
M  V30 4 C 41.389439 32.349363 67.779815 0
M  V30 5 C 37.554782 28.985809 58.196982 0
M  V30 6 C 42.027322 33.775953 64.241480 0
M  V30 7 C 38.842417 33.601718 60.121818 0
M  V30 8 C 40.551171 33.970231 62.036908 0 CFG=2
M  V30 9 O 36.459813 30.760401 59.852835 0
M  V30 10 C 37.929910 27.686043 57.452231 0
M  V30 11 N 39.467452 36.630806 66.878502 0
M  V30 12 C 41.903660 34.589876 66.675632 0
M  V30 13 C 44.090937 31.561961 67.605643 0
M  V30 14 O 34.342107 32.980116 59.453589 0
M  V30 15 C 34.956612 32.918711 60.728481 0
M  V30 16 C 42.338923 33.220021 67.203986 0
M  V30 17 F 43.523871 29.483316 68.642568 0
M  V30 18 C 40.921216 36.208725 63.343480 0
M  V30 19 O 40.667461 38.469586 67.453526 0
M  V30 20 O 40.267371 32.227820 63.761802 0
M  V30 21 C 43.140916 30.695298 68.176695 0
M  V30 22 C 38.942819 29.112586 55.643572 0
M  V30 23 N 38.154217 31.430106 58.476010 0
M  V30 24 C 39.732889 36.710840 65.441139 0
M  V30 25 C 43.692879 32.821652 67.120430 0
M  V30 26 C 36.357781 33.539773 60.707833 0
M  V30 27 C 39.949279 37.521023 67.761656 0
M  V30 28 C 38.867790 30.312998 56.459977 0
M  V30 29 C 39.954647 35.290331 62.569682 0
M  V30 30 F 39.464565 29.201135 54.409046 0
M  V30 31 C 39.472175 31.617118 55.956353 0
M  V30 32 C 41.207542 34.602598 65.285181 0 CFG=1
M  V30 33 C 37.286213 31.603819 59.509349 0
M  V30 34 N 39.522430 33.160736 61.351217 0
M  V30 35 C 37.448382 32.937773 60.134130 0
M  V30 36 C 38.232006 30.262219 57.654069 0
M  V30 37 C 38.512246 27.918044 56.075359 0
M  V30 38 C 41.210511 33.077911 63.130275 0 CFG=2
M  V30 39 N 40.907722 36.010402 64.824812 0 CFG=1 CHG=1
M  V30 40 H 41.067177 30.420967 68.704655 0
M  V30 41 H 35.864460 34.945609 62.279193 0
M  V30 42 H 37.451979 35.204272 61.635141 0
M  V30 43 H 36.073018 35.642075 60.653479 0
M  V30 44 H 40.353829 32.647242 67.852016 0
M  V30 45 H 37.772565 28.832554 59.253968 0
M  V30 46 H 36.476826 29.111921 58.079937 0
M  V30 47 H 42.843402 34.372678 63.846585 0
M  V30 48 H 42.544825 32.955090 64.729631 0
M  V30 49 H 39.442437 33.355516 59.246743 0
M  V30 50 H 38.738109 34.683431 60.084644 0
M  V30 51 H 41.334847 34.234747 61.327586 0
M  V30 52 H 37.067847 27.025161 57.383114 0
M  V30 53 H 38.679902 27.142150 58.026662 0
M  V30 54 H 38.874892 35.882960 67.209946 0
M  V30 55 H 42.743678 35.273683 66.653419 0
M  V30 56 H 41.244199 34.983993 67.442200 0
M  V30 57 H 34.809346 32.421311 58.838820 0
M  V30 58 H 34.328680 33.503851 61.399370 0
M  V30 59 H 34.928513 31.920211 61.159366 0
M  V30 60 H 41.932736 36.132558 62.946725 0
M  V30 61 H 40.646775 37.242584 63.134269 0
M  V30 62 H 40.724123 31.523943 64.199029 0
M  V30 63 H 38.725390 32.211979 58.198341 0
M  V30 64 H 39.811141 37.765868 65.173947 0
M  V30 65 H 38.812353 36.405385 64.948365 0
M  V30 66 H 44.424114 33.479688 66.684435 0
M  V30 67 H 39.616693 37.287390 68.784959 0
M  V30 68 H 39.614326 35.869860 61.711684 0
M  V30 69 H 39.067498 35.085932 63.160348 0
M  V30 70 H 40.283412 31.427004 55.253909 0
M  V30 71 H 38.707504 32.190709 55.431537 0
M  V30 72 H 39.867515 32.245044 56.750652 0
M  V30 73 H 40.267445 34.086582 65.437028 0
M  V30 74 H 39.782878 32.179265 61.322775 0
M  V30 75 H 38.591883 27.055047 55.430373 0
M  V30 76 H 41.890829 32.406513 62.604002 0
M  V30 77 H 41.693008 36.579452 65.125108 0
M  V30 END ATOM
M  V30 BEGIN BOND
M  V30 1 2 4 1
M  V30 2 1 10 5
M  V30 3 1 13 2
M  V30 4 1 15 14
M  V30 5 1 16 4
M  V30 6 1 16 12
M  V30 7 1 21 1
M  V30 8 2 21 13
M  V30 9 1 21 17
M  V30 10 1 24 11
M  V30 11 1 25 13
M  V30 12 2 25 16
M  V30 13 1 26 3
M  V30 14 1 26 15
M  V30 15 1 27 11
M  V30 16 2 27 19
M  V30 17 1 28 22
M  V30 18 1 29 8
M  V30 19 1 29 18
M  V30 20 1 30 22
M  V30 21 1 31 28
M  V30 22 1 32 6
M  V30 23 1 32 12
M  V30 24 2 33 9
M  V30 25 1 33 23
M  V30 26 1 34 7
M  V30 27 1 34 8
M  V30 28 1 35 7
M  V30 29 2 35 26
M  V30 30 1 35 33
M  V30 31 1 36 5
M  V30 32 1 36 23
M  V30 33 2 36 28
M  V30 34 1 37 10
M  V30 35 2 37 22
M  V30 36 1 38 6
M  V30 37 1 38 8
M  V30 38 1 38 20
M  V30 39 1 39 18
M  V30 40 1 39 24
M  V30 41 1 39 32
M  V30 42 1 40 1
M  V30 43 1 41 3
M  V30 44 1 42 3
M  V30 45 1 43 3
M  V30 46 1 44 4
M  V30 47 1 45 5
M  V30 48 1 46 5
M  V30 49 1 47 6
M  V30 50 1 48 6
M  V30 51 1 49 7
M  V30 52 1 50 7
M  V30 53 1 8 51 CFG=3
M  V30 54 1 52 10
M  V30 55 1 53 10
M  V30 56 1 54 11
M  V30 57 1 55 12
M  V30 58 1 56 12
M  V30 59 1 57 14
M  V30 60 1 58 15
M  V30 61 1 59 15
M  V30 62 1 60 18
M  V30 63 1 61 18
M  V30 64 1 62 20
M  V30 65 1 63 23
M  V30 66 1 64 24
M  V30 67 1 65 24
M  V30 68 1 66 25
M  V30 69 1 67 27
M  V30 70 1 68 29
M  V30 71 1 69 29
M  V30 72 1 70 31
M  V30 73 1 71 31
M  V30 74 1 72 31
M  V30 75 1 32 73 CFG=1
M  V30 76 1 74 34
M  V30 77 1 75 37
M  V30 78 1 38 76 CFG=3
M  V30 79 1 39 77 CFG=1
M  V30 END BOND
M  V30 END CTAB
M  END
>  <i_epik_Tot_Q>  (1) 
1

>  <i_epik_Tot_abs_Q>  (1) 
1

>  <i_i_glide_confnum>  (1) 
989

>  <i_i_glide_lignum>  (1) 
194

>  <i_i_glide_posenum>  (1) 
10

>  <i_i_glide_rotatable_bonds>  (1) 
14

>  <i_lp_mmshare_version>  (1) 
72125

>  <i_m_source_file_index>  (1) 
78

>  <i_f3d_flags>  (1) 
0

>  <num_sample>  (1) 
100

>  <b_lp_Chiralities_Consistent>  (1) 
1

>  <r_epik_Charging_Adjusted_Penalty>  (1) 
1.2599673287133732

>  <r_epik_Ionization_Penalty>  (1) 
0.56885031527891383

>  <r_epik_Ionization_Penalty_Charging>  (1) 
0.52000942162343

>  <r_epik_Ionization_Penalty_Neutral>  (1) 
0.048840893655483872

>  <r_epik_State_Penalty>  (1) 
0.73995790708994325

>  <r_glide_ring_energy>  (1) 
0

>  <r_i_docking_score>  (1) 
-5.9556658894947239

>  <r_i_glide_ecoul>  (1) 
-8.0545365417513395

>  <r_i_glide_eff_state_penalty>  (1) 
0.73995790708994325

>  <r_i_glide_einternal>  (1) 
7.0723013044995611

>  <r_i_glide_emodel>  (1) 
-65.534621136755916

>  <r_i_glide_emodel_strain>  (1) 
7.9134139227587497

>  <r_i_glide_energy>  (1) 
-53.834494957183097

>  <r_i_glide_erotb>  (1) 
0.67934156738045093

>  <r_i_glide_esite>  (1) 
-0.22088964574939285

>  <r_i_glide_evdw>  (1) 
-45.779958415431757

>  <r_i_glide_gscore>  (1) 
-6.695623796584667

>  <r_i_glide_gscore_strain>  (1) 
0.97835348068968742

>  <r_i_glide_hbond>  (1) 
-0.45599999999999996

>  <r_i_glide_ligand_efficiency>  (1) 
-0.15270938178191601

>  <r_i_glide_ligand_efficiency_ln>  (1) 
-1.2770638283375995

>  <r_i_glide_ligand_efficiency_sa>  (1) 
-0.51786980295445273

>  <r_i_glide_lipo>  (1) 
-2.9511365227293158

>  <r_i_glide_metal>  (1) 
-0

>  <r_i_glide_rewards>  (1) 
-1.2281142741418076

>  <r_lp_Energy>  (1) 
51.282467999999994

>  <s_epik_Chemistry_Notes>  (1) 
This compound contains an acetal/aminal-like group ( X-CH(R)-Y where X, Y are N, S, or O) that may be acid/base labile, releasing an aldehyde.

>  <s_epik_cmdline>  (1) 
J2VwaWtfcHl0aG9uJywgJy1waHQnLCAnMS4wJywgJy1waCcsICc3LjQnLCAnLXRuJywgJzgnLCAnLW1hJywgJzUwMCcsICctaW1hZScsICc8aW5maWxlLm1hZT4nLCAnLW9tYWUnLCAnPG91dGZpbGUubWFlPic=

>  <s_epik_input>  (1) 
RmMxYyhGKVtjSF1bY0hdYyhbY0hdMSlbQ0gyXVtDQEhdKFtDSDJdW0NASF0yW09IXSlOKFtDSDJdW05IXVtDSF09TylbQ0gyXVtDSDJdW0NAQEhdMltOSF1bQ0gyXS9DKD1DKFxbQ0gzXSlbQ0gyXVtPSF0pQyg9TylbTkhdQyg9QzNbQ0gzXSlbQ0gyXVtDSDJdW0NIXT1DM0Y=

>  <s_glide_docking_method>  (1) 
confgen

>  <s_i_glide_gridfile>  (1) 
gpcr_5ht2c_6bqh_protein_autoprepared_prepared

>  <s_lp_Force_Field>  (1) 
S-OPLS

>  <s_lp_Variant>  (1) 
DiffSBDD_77_num_sample_100-5

>  <s_m_source_file>  (1) 
generated__ligand_DiffSBDD_2026-05-06_prepared.sdf

>  <GenAI_Model>  (1) 
DiffSBDD

>  <Protein>  (1) 
GPCR_5HT2C

$$$$
DiffSBDD_44_num_sample_100
     RDKit          3D

  0  0  0  0  0  0  0  0  0  0999 V3000
M  V30 BEGIN CTAB
M  V30 COUNTS 58 59 0 0 1
M  V30 BEGIN ATOM
M  V30 1 C 38.397648 26.811720 53.933542 0
M  V30 2 O 40.191703 28.821503 57.081592 0 CHG=-1
M  V30 3 C 39.060097 34.185552 60.558086 0
M  V30 4 C 38.915071 29.064049 54.646058 0 CFG=1
M  V30 5 N 38.379764 28.328987 55.831579 0 CFG=1 CHG=1
M  V30 6 C 36.810301 34.650760 59.662572 0
M  V30 7 N 38.667168 31.415680 59.707646 0
M  V30 8 C 38.077553 33.807499 59.778062 0
M  V30 9 O 38.979620 32.793981 57.784166 0
M  V30 10 C 38.410713 28.258949 53.437059 0 CFG=1
M  V30 11 C 39.229593 28.444530 52.145701 0
M  V30 12 C 38.176643 29.789915 57.880961 0 CFG=1
M  V30 13 C 38.667496 30.203171 59.289597 0
M  V30 14 C 38.343549 26.894761 55.463544 0
M  V30 15 C 38.313051 33.431296 56.700969 0
M  V30 16 C 39.028811 36.330190 61.770352 0
M  V30 17 C 38.911507 28.583096 57.214878 0 CFG=2
M  V30 18 C 38.156055 32.540564 58.921508 0 CFG=1
M  V30 19 F 37.426267 37.953627 61.323915 0
M  V30 20 C 37.882660 36.804118 60.826027 0 CFG=2
M  V30 21 C 39.671281 35.019480 61.355345 0
M  V30 22 C 36.665513 29.531181 57.918125 0
M  V30 23 C 39.150942 29.062970 60.167162 0
M  V30 24 C 38.481693 30.537105 54.572435 0
M  V30 25 C 36.675323 35.845399 60.654397 0
M  V30 26 H 39.308973 26.292591 53.633728 0
M  V30 27 H 37.554110 26.256325 53.521702 0
M  V30 28 H 40.000684 29.021125 54.653487 0
M  V30 29 H 36.750602 35.048907 58.653548 0
M  V30 30 H 35.944838 33.996957 59.777753 0
M  V30 31 H 37.379122 28.553269 53.236547 0
M  V30 32 H 40.244362 28.062562 52.253222 0
M  V30 33 H 38.767066 27.912302 51.313242 0
M  V30 34 H 39.311515 29.493003 51.861203 0
M  V30 35 H 38.324988 30.630753 57.221871 0
M  V30 36 H 39.205773 26.373876 55.884875 0
M  V30 37 H 37.444843 26.427513 55.866871 0
M  V30 38 H 39.005883 33.552749 55.868884 0
M  V30 39 H 37.474812 32.832826 56.346487 0
M  V30 40 H 37.949217 34.421639 56.962209 0
M  V30 41 H 38.654469 36.222513 62.787177 0
M  V30 42 H 39.806852 37.094111 61.805347 0
M  V30 43 H 38.586578 27.718930 57.796892 0
M  V30 44 H 37.140472 32.306770 58.596169 0
M  V30 45 H 38.267402 37.051693 59.838263 0
M  V30 46 H 40.661602 34.814912 61.734942 0
M  V30 47 H 36.127313 30.240649 58.547641 0
M  V30 48 H 36.263513 29.623235 56.914376 0
M  V30 49 H 36.424461 28.527858 58.263138 0
M  V30 50 H 38.455788 28.224661 60.130488 0
M  V30 51 H 40.132697 28.720538 59.838998 0
M  V30 52 H 39.232660 29.388601 61.204724 0
M  V30 53 H 38.665871 30.954624 53.583247 0
M  V30 54 H 37.421401 30.666226 54.793035 0
M  V30 55 H 39.061149 31.141790 55.267917 0
M  V30 56 H 35.867423 36.454200 60.252062 0
M  V30 57 H 36.350306 35.488437 61.632688 0
M  V30 58 H 37.410800 28.602245 55.882688 0
M  V30 END ATOM
M  V30 BEGIN BOND
M  V30 1 1 5 4
M  V30 2 2 8 3
M  V30 3 1 8 6
M  V30 4 1 10 1
M  V30 5 1 10 4
M  V30 6 1 11 10
M  V30 7 2 13 7
M  V30 8 1 13 12
M  V30 9 1 14 1
M  V30 10 1 14 5
M  V30 11 1 15 9
M  V30 12 1 17 2
M  V30 13 1 17 5
M  V30 14 1 17 12
M  V30 15 1 18 7
M  V30 16 1 18 8
M  V30 17 1 18 9
M  V30 18 1 20 16
M  V30 19 1 20 19
M  V30 20 2 21 3
M  V30 21 1 21 16
M  V30 22 1 22 12
M  V30 23 1 23 13
M  V30 24 1 24 4
M  V30 25 1 25 6
M  V30 26 1 25 20
M  V30 27 1 26 1
M  V30 28 1 27 1
M  V30 29 1 4 28 CFG=1
M  V30 30 1 29 6
M  V30 31 1 30 6
M  V30 32 1 10 31 CFG=3
M  V30 33 1 32 11
M  V30 34 1 33 11
M  V30 35 1 34 11
M  V30 36 1 12 35 CFG=3
M  V30 37 1 36 14
M  V30 38 1 37 14
M  V30 39 1 38 15
M  V30 40 1 39 15
M  V30 41 1 40 15
M  V30 42 1 41 16
M  V30 43 1 42 16
M  V30 44 1 17 43 CFG=1
M  V30 45 1 18 44 CFG=3
M  V30 46 1 20 45 CFG=3
M  V30 47 1 46 21
M  V30 48 1 47 22
M  V30 49 1 48 22
M  V30 50 1 49 22
M  V30 51 1 50 23
M  V30 52 1 51 23
M  V30 53 1 52 23
M  V30 54 1 53 24
M  V30 55 1 54 24
M  V30 56 1 55 24
M  V30 57 1 56 25
M  V30 58 1 57 25
M  V30 59 1 5 58 CFG=1
M  V30 END BOND
M  V30 END CTAB
M  END
>  <i_epik_Tot_Q>  (1) 
0

>  <i_epik_Tot_abs_Q>  (1) 
2

>  <i_i_glide_confnum>  (1) 
29

>  <i_i_glide_lignum>  (1) 
122

>  <i_i_glide_posenum>  (1) 
397

>  <i_i_glide_rotatable_bonds>  (1) 
6

>  <i_lp_mmshare_version>  (1) 
72125

>  <i_m_source_file_index>  (1) 
45

>  <i_f3d_flags>  (1) 
0

>  <num_sample>  (1) 
100

>  <b_lp_Chiralities_Consistent>  (1) 
1

>  <r_epik_Charging_Adjusted_Penalty>  (1) 
0.41733257654759531

>  <r_epik_Ionization_Penalty>  (1) 
0.0069177268181324029

>  <r_epik_Ionization_Penalty_Charging>  (1) 
0.0066527375949913311

>  <r_epik_Ionization_Penalty_Neutral>  (1) 
0.00026498922314107146

>  <r_epik_State_Penalty>  (1) 
0.41067983895260396

>  <r_glide_ring_energy>  (1) 
0

>  <r_i_docking_score>  (1) 
-5.9538997078305975

>  <r_i_glide_ecoul>  (1) 
-1.5805264256821721

>  <r_i_glide_eff_state_penalty>  (1) 
0.41067983895260396

>  <r_i_glide_einternal>  (1) 
5.4739402583434575

>  <r_i_glide_emodel>  (1) 
-46.652186092164897

>  <r_i_glide_emodel_strain>  (1) 
0.40875777088818666

>  <r_i_glide_energy>  (1) 
-33.407447671197687

>  <r_i_glide_erotb>  (1) 
0.61440649929112812

>  <r_i_glide_esite>  (1) 
-0.039472930931448082

>  <r_i_glide_evdw>  (1) 
-31.826921245515514

>  <r_i_glide_gscore>  (1) 
-6.3645795467832018

>  <r_i_glide_gscore_strain>  (1) 
0

>  <r_i_glide_hbond>  (1) 
0

>  <r_i_glide_ligand_efficiency>  (1) 
-0.2381559883132239

>  <r_i_glide_ligand_efficiency_ln>  (1) 
-1.4112526547321642

>  <r_i_glide_ligand_efficiency_sa>  (1) 
-0.69637233428948275

>  <r_i_glide_lipo>  (1) 
-2.8351056467111535

>  <r_i_glide_metal>  (1) 
-0

>  <r_i_glide_rewards>  (1) 
-2.2759824423036261

>  <r_lp_Energy>  (1) 
11.862836999999999

>  <r_lp_tautomer_probability>  (1) 
0.49999399997599986

>  <s_epik_Chemistry_Notes>  (1) 
This compound has an imine and may undergo hydrolysis. This compound contains an acetal/aminal-like group ( X-CH(R)-Y where X, Y are N, S, or O) that may be acid/base labile, releasing an aldehyde.

>  <s_epik_cmdline>  (1) 
J2VwaWtfcHl0aG9uJywgJy1waHQnLCAnMS4wJywgJy1waCcsICc3LjQnLCAnLXRuJywgJzgnLCAnLW1hJywgJzUwMCcsICctaW1hZScsICc8aW5maWxlLm1hZT4nLCAnLW9tYWUnLCAnPG91dGZpbGUubWFlPic=

>  <s_epik_input>  (1) 
W0NIM11bQ0BIXTFbQ0gyXVtDSDJdTihbQ0BASF0xW0NIM10pW0NAQEhdKFtPSF0pW0NAQEhdKFtDSDNdKS9DKFtDSDNdKT1OXFtDQEBIXShPW0NIM10pQzI9Qz1bQ0hdW0NIMl1bQ0BASF0oRilbQ0gyXVtDSDJdMg==

>  <s_glide_docking_method>  (1) 
confgen

>  <s_i_glide_gridfile>  (1) 
gpcr_5ht2c_6bqh_protein_autoprepared_prepared

>  <s_lp_Force_Field>  (1) 
S-OPLS

>  <s_lp_Variant>  (1) 
DiffSBDD_44_num_sample_100-15

>  <s_m_source_file>  (1) 
generated__ligand_DiffSBDD_2026-05-06_prepared.sdf

>  <GenAI_Model>  (1) 
DiffSBDD

>  <Protein>  (1) 
GPCR_5HT2C

$$$$
DiffSBDD_46_num_sample_100
     RDKit          3D

  0  0  0  0  0  0  0  0  0  0999 V3000
M  V30 BEGIN CTAB
M  V30 COUNTS 66 69 0 0 1
M  V30 BEGIN ATOM
M  V30 1 N 37.319798 35.044608 60.334997 0 CHG=-1
M  V30 2 N 38.373041 29.283124 55.639040 0
M  V30 3 C 38.046630 30.788940 60.991134 0
M  V30 4 C 43.542496 32.165048 66.253389 0
M  V30 5 C 38.196711 30.291169 58.423536 0
M  V30 6 O 39.381846 37.286558 62.264292 0
M  V30 7 O 36.662715 38.482668 61.453326 0
M  V30 8 C 42.148244 33.707100 64.996118 0
M  V30 9 N 43.006032 33.227181 65.985457 0
M  V30 10 F 42.023899 35.827093 66.118113 0
M  V30 11 C 37.403750 30.619903 59.677481 0 CFG=2
M  V30 12 N 39.467084 35.002505 62.034058 0
M  V30 13 C 38.100095 28.780248 58.071698 0 CFG=2
M  V30 14 C 40.775738 35.501935 64.100854 0
M  V30 15 C 37.064310 37.469311 60.550310 0
M  V30 16 C 40.735618 27.331227 57.966923 0
M  V30 17 C 39.551382 28.235022 51.706153 0
M  V30 18 C 38.762624 28.916517 54.332436 0
M  V30 19 C 41.658302 35.028939 65.086188 0
M  V30 20 C 36.436281 34.076765 60.652414 0
M  V30 21 C 40.946298 33.325363 63.042862 0
M  V30 22 C 40.403762 34.623444 63.055484 0
M  V30 23 N 41.810500 32.868404 63.979801 0
M  V30 24 C 40.267509 28.224573 56.816728 0
M  V30 25 C 39.248540 27.222061 52.632143 0
M  V30 26 C 37.483711 36.164014 61.265083 0 CFG=2
M  V30 27 C 38.640282 27.877654 59.209737 0
M  V30 28 C 38.857655 27.553726 53.943753 0
M  V30 29 C 36.505563 32.701619 60.635375 0
M  V30 30 C 39.467205 29.585461 52.088600 0
M  V30 31 C 40.164915 27.851279 59.283590 0
M  V30 32 C 38.874419 36.211954 61.939592 0
M  V30 33 C 39.065726 29.926279 53.396105 0
M  V30 34 O 44.184779 31.208095 66.490925 0
M  V30 35 C 38.727783 28.347179 56.710834 0 CFG=2
M  V30 36 N 37.605833 31.960591 60.235617 0
M  V30 37 H 38.403244 30.265762 55.872659 0
M  V30 38 H 39.130109 30.807878 61.076239 0
M  V30 39 H 37.469833 30.688035 61.906515 0
M  V30 40 H 37.784424 30.903040 57.621153 0
M  V30 41 H 39.232988 30.596722 58.550567 0
M  V30 42 H 36.292021 39.191214 60.943245 0
M  V30 43 H 36.340935 30.386555 59.636679 0
M  V30 44 H 39.152025 34.278887 61.396654 0
M  V30 45 H 37.031598 28.575875 57.991988 0
M  V30 46 H 40.382664 36.500853 64.166790 0
M  V30 47 H 36.216753 37.276896 59.891439 0
M  V30 48 H 37.866760 37.852111 59.921966 0
M  V30 49 H 41.825147 27.318544 58.010298 0
M  V30 50 H 40.415227 26.303531 57.791225 0
M  V30 51 H 39.852157 27.974013 50.701303 0
M  V30 52 H 35.462817 34.475419 61.001641 0
M  V30 53 H 40.674346 32.628564 62.264304 0
M  V30 54 H 40.667330 29.221612 56.968638 0
M  V30 55 H 40.704665 27.852559 55.891101 0
M  V30 56 H 39.319298 26.190090 52.337235 0
M  V30 57 H 36.795372 36.052168 62.106303 0
M  V30 58 H 38.265368 28.183495 60.181737 0
M  V30 59 H 38.275406 26.861053 59.058488 0
M  V30 60 H 38.628015 26.765975 54.641304 0
M  V30 61 H 35.667215 32.092629 60.945109 0
M  V30 62 H 39.702336 30.362971 51.377798 0
M  V30 63 H 40.555129 28.847311 59.494234 0
M  V30 64 H 40.469463 27.221431 60.114760 0
M  V30 65 H 38.996912 30.965460 53.681844 0
M  V30 66 H 38.304769 27.364538 56.512746 0
M  V30 END ATOM
M  V30 BEGIN BOND
M  V30 1 2 9 4
M  V30 2 1 9 8
M  V30 3 1 11 3
M  V30 4 1 11 5
M  V30 5 1 13 5
M  V30 6 1 15 7
M  V30 7 1 18 2
M  V30 8 2 19 8
M  V30 9 1 19 10
M  V30 10 1 19 14
M  V30 11 1 20 1
M  V30 12 1 22 12
M  V30 13 2 22 14
M  V30 14 1 22 21
M  V30 15 1 23 8
M  V30 16 2 23 21
M  V30 17 1 24 16
M  V30 18 2 25 17
M  V30 19 1 26 1
M  V30 20 1 26 15
M  V30 21 1 27 13
M  V30 22 2 28 18
M  V30 23 1 28 25
M  V30 24 2 29 20
M  V30 25 1 30 17
M  V30 26 1 31 16
M  V30 27 1 31 27
M  V30 28 2 32 6
M  V30 29 1 32 12
M  V30 30 1 32 26
M  V30 31 1 33 18
M  V30 32 2 33 30
M  V30 33 2 34 4
M  V30 34 1 35 2
M  V30 35 1 35 13
M  V30 36 1 35 24
M  V30 37 1 36 3
M  V30 38 1 36 11
M  V30 39 1 36 29
M  V30 40 1 37 2
M  V30 41 1 38 3
M  V30 42 1 39 3
M  V30 43 1 40 5
M  V30 44 1 41 5
M  V30 45 1 42 7
M  V30 46 1 11 43 CFG=1
M  V30 47 1 44 12
M  V30 48 1 13 45 CFG=3
M  V30 49 1 46 14
M  V30 50 1 47 15
M  V30 51 1 48 15
M  V30 52 1 49 16
M  V30 53 1 50 16
M  V30 54 1 51 17
M  V30 55 1 52 20
M  V30 56 1 53 21
M  V30 57 1 54 24
M  V30 58 1 55 24
M  V30 59 1 56 25
M  V30 60 1 26 57 CFG=1
M  V30 61 1 58 27
M  V30 62 1 59 27
M  V30 63 1 60 28
M  V30 64 1 61 29
M  V30 65 1 62 30
M  V30 66 1 63 31
M  V30 67 1 64 31
M  V30 68 1 65 33
M  V30 69 1 35 66 CFG=3
M  V30 END BOND
M  V30 END CTAB
M  END
>  <i_epik_Tot_Q>  (1) 
-1

>  <i_epik_Tot_abs_Q>  (1) 
1

>  <i_i_glide_confnum>  (1) 
4937

>  <i_i_glide_lignum>  (1) 
127

>  <i_i_glide_posenum>  (1) 
65

>  <i_i_glide_rotatable_bonds>  (1) 
13

>  <i_lp_mmshare_version>  (1) 
72125

>  <i_m_source_file_index>  (1) 
47

>  <i_f3d_flags>  (1) 
0

>  <num_sample>  (1) 
100

>  <b_lp_Chiralities_Consistent>  (1) 
1

>  <r_epik_Charging_Adjusted_Penalty>  (1) 
0.89067625700486475

>  <r_epik_Ionization_Penalty>  (1) 
0.26609996420413234

>  <r_epik_Ionization_Penalty_Charging>  (1) 
0.17619897240493029

>  <r_epik_Ionization_Penalty_Neutral>  (1) 
0.089900991799202065

>  <r_epik_State_Penalty>  (1) 
0.71447728459993443

>  <r_glide_ring_energy>  (1) 
0

>  <r_i_docking_score>  (1) 
-5.9497326766323226

>  <r_i_glide_ecoul>  (1) 
-1.9442790526122091

>  <r_i_glide_eff_state_penalty>  (1) 
0.71447728459993443

>  <r_i_glide_einternal>  (1) 
5.3647210614019016

>  <r_i_glide_emodel>  (1) 
-74.475477501759485

>  <r_i_glide_emodel_strain>  (1) 
0.79964854251331019

>  <r_i_glide_energy>  (1) 
-54.581026390016156

>  <r_i_glide_erotb>  (1) 
1.0035370279361706

>  <r_i_glide_esite>  (1) 
-0.051597253632665686

>  <r_i_glide_evdw>  (1) 
-52.636747337403946

>  <r_i_glide_gscore>  (1) 
-6.664209961232257

>  <r_i_glide_gscore_strain>  (1) 
0

>  <r_i_glide_hbond>  (1) 
-0.1921274731217904

>  <r_i_glide_ligand_efficiency>  (1) 
-0.16527035212867563

>  <r_i_glide_ligand_efficiency_ln>  (1) 
-1.298070926840416

>  <r_i_glide_ligand_efficiency_sa>  (1) 
-0.54571067912808424

>  <r_i_glide_lipo>  (1) 
-4.1108323000136728

>  <r_i_glide_metal>  (1) 
-0

>  <r_i_glide_rewards>  (1) 
-0.38971073763826947

>  <r_lp_Energy>  (1) 
55.207712000000001

>  <s_epik_Chemistry_Notes>  (1) 
This compound has an imine and may undergo hydrolysis.

>  <s_epik_cmdline>  (1) 
J2VwaWtfcHl0aG9uJywgJy1waHQnLCAnMS4wJywgJy1waCcsICc3LjQnLCAnLXRuJywgJzgnLCAnLW1hJywgJzUwMCcsICctaW1hZScsICc8aW5maWxlLm1hZT4nLCAnLW9tYWUnLCAnPG91dGZpbGUubWFlPic=

>  <s_epik_input>  (1) 
Tz1DPU5jMWMoRilbY0hdYyhbY0hdbjEpW05IXUMoPU8pW0NAQEhdKFtDSDJdW09IXSkvTj1bQ0hdL1tDSDJdTjJbQ0gyXVtDQEBIXTJbQ0gyXVtDQEBIXTNbQ0gyXVtDSDJdW0NIMl1bQ0gyXVtDQEBIXTNbTkhdYzRbY0hdW2NIXVtjSF1bY0hdW2NIXTQ=

>  <s_glide_docking_method>  (1) 
confgen

>  <s_i_glide_gridfile>  (1) 
gpcr_5ht2c_6bqh_protein_autoprepared_prepared

>  <s_lp_Force_Field>  (1) 
S-OPLS

>  <s_lp_Variant>  (1) 
DiffSBDD_46_num_sample_100-3

>  <s_m_source_file>  (1) 
generated__ligand_DiffSBDD_2026-05-06_prepared.sdf

>  <GenAI_Model>  (1) 
DiffSBDD

>  <Protein>  (1) 
GPCR_5HT2C

$$$$
DiffSBDD_25_num_sample_100
     RDKit          3D

  0  0  0  0  0  0  0  0  0  0999 V3000
M  V30 BEGIN CTAB
M  V30 COUNTS 57 59 0 0 1
M  V30 BEGIN ATOM
M  V30 1 C 38.974826 31.731213 54.976588 0
M  V30 2 C 37.854018 30.751473 58.511944 0
M  V30 3 C 38.612274 29.323925 56.580219 0
M  V30 4 C 40.810966 33.883898 61.628222 0
M  V30 5 C 39.591964 35.862491 62.606650 0
M  V30 6 C 39.784799 36.306243 63.858390 0
M  V30 7 C 37.372799 34.515287 58.847967 0 CFG=2
M  V30 8 N 39.867410 25.126942 57.145537 0
M  V30 9 O 37.131355 32.140315 60.349465 0
M  V30 10 C 37.557461 32.020812 59.053484 0
M  V30 11 C 41.325915 31.863428 63.077053 0
M  V30 12 C 39.237007 26.383340 56.829918 0 CFG=2
M  V30 13 C 38.253047 34.084053 61.291474 0 CFG=2
M  V30 14 O 41.467048 30.931160 62.253379 0
M  V30 15 O 38.281694 32.651443 61.174032 0
M  V30 16 C 38.893404 30.349810 54.336144 0
M  V30 17 O 40.847314 31.761456 64.226772 0 CHG=-1
M  V30 18 C 39.265904 27.828790 54.692139 0
M  V30 19 C 37.698731 33.171307 58.265434 0
M  V30 20 N 36.722568 26.021431 57.453397 0
M  V30 21 O 37.056431 34.592375 61.843311 0
M  V30 22 C 38.156205 33.071735 56.941898 0
M  V30 23 C 37.827280 26.195444 57.180206 0
M  V30 24 C 41.788374 33.252963 62.637955 0
M  V30 25 C 38.918019 29.151936 55.270503 0
M  V30 26 O 37.703075 29.632007 59.284039 0
M  V30 27 C 38.395670 34.829432 59.946836 0
M  V30 28 O 36.029839 34.623706 59.289214 0
M  V30 29 C 39.407052 26.634609 55.339098 0
M  V30 30 C 38.300991 30.641638 57.165888 0
M  V30 31 C 38.458117 31.815523 56.391450 0
M  V30 32 C 39.466699 34.386978 62.227444 0 CFG=1
M  V30 33 F 39.740314 25.580197 54.582732 0
M  V30 34 H 38.465078 32.465403 54.351435 0
M  V30 35 H 40.024102 32.020616 55.023856 0
M  V30 36 H 38.587442 28.511671 57.242680 0
M  V30 37 H 41.308068 34.708464 61.115572 0
M  V30 38 H 40.632571 33.139308 60.849391 0
M  V30 39 H 39.519854 36.576390 61.800862 0
M  V30 40 H 39.867568 35.621073 64.687352 0
M  V30 41 H 39.863951 37.364042 64.065168 0
M  V30 42 H 37.467784 35.257926 58.060709 0
M  V30 43 H 39.411797 24.390098 56.626791 0
M  V30 44 H 40.820626 25.170598 56.802314 0
M  V30 45 H 39.784871 27.080381 57.461657 0
M  V30 46 H 37.937535 30.288084 53.815709 0
M  V30 47 H 39.658476 30.254698 53.566716 0
M  V30 48 H 39.432805 27.809332 53.624518 0
M  V30 49 H 36.402144 34.551677 61.151796 0
M  V30 50 H 38.275344 33.964545 56.344683 0
M  V30 51 H 42.757943 33.110674 62.166487 0
M  V30 52 H 41.944620 33.903576 63.498639 0
M  V30 53 H 37.709856 28.835048 58.781548 0
M  V30 54 H 39.385227 34.600943 59.553404 0
M  V30 55 H 38.358142 35.905672 60.119342 0
M  V30 56 H 35.469620 34.424977 58.550594 0
M  V30 57 H 39.285469 33.825564 63.140005 0
M  V30 END ATOM
M  V30 BEGIN BOND
M  V30 1 2 6 5
M  V30 2 1 10 2
M  V30 3 1 10 9
M  V30 4 1 12 8
M  V30 5 2 14 11
M  V30 6 1 15 9
M  V30 7 1 15 13
M  V30 8 1 16 1
M  V30 9 1 17 11
M  V30 10 1 19 7
M  V30 11 2 19 10
M  V30 12 1 13 21 CFG=1
M  V30 13 1 22 19
M  V30 14 1 23 12
M  V30 15 3 23 20
M  V30 16 1 24 4
M  V30 17 1 24 11
M  V30 18 2 25 3
M  V30 19 1 25 16
M  V30 20 1 25 18
M  V30 21 1 26 2
M  V30 22 1 27 7
M  V30 23 1 27 13
M  V30 24 1 28 7
M  V30 25 1 29 12
M  V30 26 2 29 18
M  V30 27 2 30 2
M  V30 28 1 30 3
M  V30 29 1 31 1
M  V30 30 2 31 22
M  V30 31 1 31 30
M  V30 32 1 32 4
M  V30 33 1 32 5
M  V30 34 1 32 13
M  V30 35 1 33 29
M  V30 36 1 34 1
M  V30 37 1 35 1
M  V30 38 1 36 3
M  V30 39 1 37 4
M  V30 40 1 38 4
M  V30 41 1 39 5
M  V30 42 1 40 6
M  V30 43 1 41 6
M  V30 44 1 7 42 CFG=3
M  V30 45 1 43 8
M  V30 46 1 44 8
M  V30 47 1 12 45 CFG=1
M  V30 48 1 46 16
M  V30 49 1 47 16
M  V30 50 1 48 18
M  V30 51 1 49 21
M  V30 52 1 50 22
M  V30 53 1 51 24
M  V30 54 1 52 24
M  V30 55 1 53 26
M  V30 56 1 54 27
M  V30 57 1 55 27
M  V30 58 1 56 28
M  V30 59 1 32 57 CFG=1
M  V30 END BOND
M  V30 END CTAB
M  END
>  <i_epik_Tot_Q>  (1) 
-1

>  <i_epik_Tot_abs_Q>  (1) 
1

>  <i_i_glide_confnum>  (1) 
167

>  <i_i_glide_lignum>  (1) 
66

>  <i_i_glide_posenum>  (1) 
59

>  <i_i_glide_rotatable_bonds>  (1) 
10

>  <i_lp_mmshare_version>  (1) 
72125

>  <i_m_source_file_index>  (1) 
26

>  <i_f3d_flags>  (1) 
0

>  <num_sample>  (1) 
100

>  <b_lp_Chiralities_Consistent>  (1) 
1

>  <r_epik_Charging_Adjusted_Penalty>  (1) 
0.0056011124489286045

>  <r_epik_Ionization_Penalty>  (1) 
0.0056278004124673013

>  <r_epik_Ionization_Penalty_Charging>  (1) 
0.0010502183284910153

>  <r_epik_Ionization_Penalty_Neutral>  (1) 
0.0045775820839762862

>  <r_epik_State_Penalty>  (1) 
0.0045508941204375894

>  <r_glide_ring_energy>  (1) 
0

>  <r_i_docking_score>  (1) 
-5.9455684812422511

>  <r_i_glide_ecoul>  (1) 
-4.8083916701527638

>  <r_i_glide_eff_state_penalty>  (1) 
0.0045508941204375894

>  <r_i_glide_einternal>  (1) 
11.71161036802873

>  <r_i_glide_emodel>  (1) 
-35.832834267590087

>  <r_i_glide_emodel_strain>  (1) 
0.51271828378573758

>  <r_i_glide_energy>  (1) 
-31.812806422468732

>  <r_i_glide_erotb>  (1) 
0.57188489385704211

>  <r_i_glide_esite>  (1) 
-0.032869484610836802

>  <r_i_glide_evdw>  (1) 
-27.00441475231597

>  <r_i_glide_gscore>  (1) 
-5.9501193753626884

>  <r_i_glide_gscore_strain>  (1) 
0

>  <r_i_glide_hbond>  (1) 
-0.45962060064596666

>  <r_i_glide_ligand_efficiency>  (1) 
-0.18016874185582579

>  <r_i_glide_ligand_efficiency_ln>  (1) 
-1.3222636457222321

>  <r_i_glide_ligand_efficiency_sa>  (1) 
-0.57789742469471728

>  <r_i_glide_lipo>  (1) 
-2.1146928538387586

>  <r_i_glide_metal>  (1) 
-0

>  <r_i_glide_rewards>  (1) 
-1.8433418419854557

>  <r_lp_Energy>  (1) 
30.738761

>  <s_epik_cmdline>  (1) 
J2VwaWtfcHl0aG9uJywgJy1waHQnLCAnMS4wJywgJy1waCcsICc3LjQnLCAnLXRuJywgJzgnLCAnLW1hJywgJzUwMCcsICctaW1hZScsICc8aW5maWxlLm1hZT4nLCAnLW9tYWUnLCAnPG91dGZpbGUubWFlPic=

>  <s_epik_input>  (1) 
TiNDW0NAQEhdKFtOSDJdKS9DKEYpPVtDSF1cQyhbQ0gyXVtDSDJdMSk9W0NIXWMoYzJbT0hdKWMxW2NIXWMoYzIzKVtDQEBIXShbT0hdKVtDSDJdW0NAXShPTzMpKFtPSF0pW0NASF0oW0NIXT1bQ0gyXSlbQ0gyXVtDSDJdQyg9TylbT0hd

>  <s_glide_docking_method>  (1) 
confgen

>  <s_i_glide_gridfile>  (1) 
gpcr_5ht2c_6bqh_protein_autoprepared_prepared

>  <s_lp_Force_Field>  (1) 
S-OPLS

>  <s_lp_Variant>  (1) 
DiffSBDD_25_num_sample_100-2

>  <s_m_source_file>  (1) 
generated__ligand_DiffSBDD_2026-05-06_prepared.sdf

>  <GenAI_Model>  (1) 
DiffSBDD

>  <Protein>  (1) 
GPCR_5HT2C

$$$$
DiffSBDD_44_num_sample_100
     RDKit          3D

  0  0  0  0  0  0  0  0  0  0999 V3000
M  V30 BEGIN CTAB
M  V30 COUNTS 58 59 0 0 1
M  V30 BEGIN ATOM
M  V30 1 C 35.658140 32.809739 61.152726 0
M  V30 2 O 38.927637 32.618816 58.753171 0 CHG=-1
M  V30 3 C 39.059405 26.713764 55.913667 0
M  V30 4 C 36.145598 33.793694 58.982775 0 CFG=1
M  V30 5 N 36.734381 32.440428 59.054117 0 CFG=2 CHG=1
M  V30 6 C 38.611241 25.792923 58.148392 0
M  V30 7 N 39.866521 29.211522 56.901936 0
M  V30 8 C 39.157781 26.857797 57.211519 0
M  V30 9 O 40.955055 27.850583 58.512030 0
M  V30 10 C 35.106537 33.770997 60.085550 0 CFG=1
M  V30 11 C 33.762049 33.311929 59.497081 0
M  V30 12 C 38.089655 30.595637 57.970759 0 CFG=1
M  V30 13 C 39.124001 30.250223 56.869546 0
M  V30 14 C 36.788785 32.031536 60.473698 0
M  V30 15 C 40.929246 28.226565 59.878763 0
M  V30 16 C 37.873219 24.816923 54.895414 0
M  V30 17 C 37.868744 32.133241 58.149091 0 CFG=2
M  V30 18 C 39.724685 28.120148 57.857115 0 CFG=1
M  V30 19 F 36.667364 23.322546 56.143683 0
M  V30 20 C 37.242733 24.511809 56.280368 0 CFG=1
M  V30 21 C 38.640593 26.120895 54.831453 0
M  V30 22 C 36.794984 29.792942 57.715996 0
M  V30 23 C 39.207333 31.239008 55.718369 0
M  V30 24 C 37.143392 34.928488 59.167864 0
M  V30 25 C 38.240774 24.439849 57.474223 0
M  V30 26 H 34.890741 32.144117 61.548303 0
M  V30 27 H 36.059964 33.382695 61.989250 0
M  V30 28 H 35.682778 33.969887 58.012202 0
M  V30 29 H 39.349015 25.623021 58.929830 0
M  V30 30 H 37.736683 26.208165 58.639952 0
M  V30 31 H 35.066674 34.771275 60.503470 0
M  V30 32 H 33.866861 32.325903 59.040113 0
M  V30 33 H 32.978605 33.253926 60.246532 0
M  V30 34 H 33.412509 34.000335 58.726953 0
M  V30 35 H 38.478651 30.267868 58.934564 0
M  V30 36 H 36.686041 30.951856 60.580090 0
M  V30 37 H 37.735211 32.318869 60.929616 0
M  V30 38 H 41.867059 27.973869 60.355283 0
M  V30 39 H 40.767844 29.300979 59.985951 0
M  V30 40 H 40.152998 27.684295 60.417636 0
M  V30 41 H 37.096433 24.820877 54.129108 0
M  V30 42 H 38.574980 24.022241 54.653000 0
M  V30 43 H 37.508235 32.524187 57.196443 0
M  V30 44 H 38.972527 28.322190 58.612007 0
M  V30 45 H 36.431850 25.210496 56.494504 0
M  V30 46 H 38.817683 26.542633 53.852635 0
M  V30 47 H 36.960597 28.717484 57.752036 0
M  V30 48 H 36.015531 30.006313 58.445679 0
M  V30 49 H 36.393437 30.019417 56.729295 0
M  V30 50 H 38.219785 31.437124 55.301592 0
M  V30 51 H 39.653218 32.174714 56.052781 0
M  V30 52 H 39.829713 30.839196 54.918280 0
M  V30 53 H 36.668356 35.904477 59.072033 0
M  V30 54 H 37.662282 34.882865 60.125178 0
M  V30 55 H 37.867404 34.821295 58.368821 0
M  V30 56 H 39.160116 23.951980 57.147133 0
M  V30 57 H 37.819510 23.790787 58.243962 0
M  V30 58 H 35.996060 31.898240 58.611663 0
M  V30 END ATOM
M  V30 BEGIN BOND
M  V30 1 1 5 4
M  V30 2 2 8 3
M  V30 3 1 8 6
M  V30 4 1 10 1
M  V30 5 1 10 4
M  V30 6 1 11 10
M  V30 7 2 13 7
M  V30 8 1 13 12
M  V30 9 1 14 1
M  V30 10 1 14 5
M  V30 11 1 15 9
M  V30 12 1 17 2
M  V30 13 1 17 5
M  V30 14 1 17 12
M  V30 15 1 18 7
M  V30 16 1 18 8
M  V30 17 1 18 9
M  V30 18 1 20 16
M  V30 19 1 20 19
M  V30 20 2 21 3
M  V30 21 1 21 16
M  V30 22 1 22 12
M  V30 23 1 23 13
M  V30 24 1 24 4
M  V30 25 1 25 6
M  V30 26 1 25 20
M  V30 27 1 26 1
M  V30 28 1 27 1
M  V30 29 1 4 28 CFG=3
M  V30 30 1 29 6
M  V30 31 1 30 6
M  V30 32 1 10 31 CFG=1
M  V30 33 1 32 11
M  V30 34 1 33 11
M  V30 35 1 34 11
M  V30 36 1 12 35 CFG=1
M  V30 37 1 36 14
M  V30 38 1 37 14
M  V30 39 1 38 15
M  V30 40 1 39 15
M  V30 41 1 40 15
M  V30 42 1 41 16
M  V30 43 1 42 16
M  V30 44 1 17 43 CFG=3
M  V30 45 1 18 44 CFG=1
M  V30 46 1 20 45 CFG=1
M  V30 47 1 46 21
M  V30 48 1 47 22
M  V30 49 1 48 22
M  V30 50 1 49 22
M  V30 51 1 50 23
M  V30 52 1 51 23
M  V30 53 1 52 23
M  V30 54 1 53 24
M  V30 55 1 54 24
M  V30 56 1 55 24
M  V30 57 1 56 25
M  V30 58 1 57 25
M  V30 59 1 5 58 CFG=3
M  V30 END BOND
M  V30 END CTAB
M  END
>  <i_epik_Tot_Q>  (1) 
0

>  <i_epik_Tot_abs_Q>  (1) 
2

>  <i_i_glide_confnum>  (1) 
17

>  <i_i_glide_lignum>  (1) 
115

>  <i_i_glide_posenum>  (1) 
333

>  <i_i_glide_rotatable_bonds>  (1) 
6

>  <i_lp_mmshare_version>  (1) 
72125

>  <i_m_source_file_index>  (1) 
45

>  <i_f3d_flags>  (1) 
0

>  <num_sample>  (1) 
100

>  <b_lp_Chiralities_Consistent>  (1) 
1

>  <r_epik_Charging_Adjusted_Penalty>  (1) 
0.41733257654759531

>  <r_epik_Ionization_Penalty>  (1) 
0.0069177268181324029

>  <r_epik_Ionization_Penalty_Charging>  (1) 
0.0066527375949913311

>  <r_epik_Ionization_Penalty_Neutral>  (1) 
0.00026498922314107146

>  <r_epik_State_Penalty>  (1) 
0.41067983895260396

>  <r_glide_ring_energy>  (1) 
0

>  <r_i_docking_score>  (1) 
-5.942633620397336

>  <r_i_glide_ecoul>  (1) 
-3.6937315441680436

>  <r_i_glide_eff_state_penalty>  (1) 
0.41067983895260396

>  <r_i_glide_einternal>  (1) 
10.94361011105439

>  <r_i_glide_emodel>  (1) 
-42.171775934259145

>  <r_i_glide_emodel_strain>  (1) 
0.59451236954291176

>  <r_i_glide_energy>  (1) 
-34.070419208499032

>  <r_i_glide_erotb>  (1) 
0.61440649929112812

>  <r_i_glide_esite>  (1) 
-0.22103473415463776

>  <r_i_glide_evdw>  (1) 
-30.376687664330991

>  <r_i_glide_gscore>  (1) 
-6.3533134593499403

>  <r_i_glide_gscore_strain>  (1) 
0

>  <r_i_glide_hbond>  (1) 
-0.13560722493544017

>  <r_i_glide_ligand_efficiency>  (1) 
-0.23770534481589345

>  <r_i_glide_ligand_efficiency_ln>  (1) 
-1.4085822543930848

>  <r_i_glide_ligand_efficiency_sa>  (1) 
-0.69505464470967826

>  <r_i_glide_lipo>  (1) 
-2.5225913972734597

>  <r_i_glide_metal>  (1) 
-0

>  <r_i_glide_rewards>  (1) 
-2.0155924874357751

>  <r_lp_Energy>  (1) 
18.158839

>  <r_lp_tautomer_probability>  (1) 
0.49999399997599986

>  <s_epik_Chemistry_Notes>  (1) 
This compound has an imine and may undergo hydrolysis. This compound contains an acetal/aminal-like group ( X-CH(R)-Y where X, Y are N, S, or O) that may be acid/base labile, releasing an aldehyde.

>  <s_epik_cmdline>  (1) 
J2VwaWtfcHl0aG9uJywgJy1waHQnLCAnMS4wJywgJy1waCcsICc3LjQnLCAnLXRuJywgJzgnLCAnLW1hJywgJzUwMCcsICctaW1hZScsICc8aW5maWxlLm1hZT4nLCAnLW9tYWUnLCAnPG91dGZpbGUubWFlPic=

>  <s_epik_input>  (1) 
W0NIM11bQ0BIXTFbQ0gyXVtDSDJdTihbQ0BASF0xW0NIM10pW0NAQEhdKFtPSF0pW0NAQEhdKFtDSDNdKS9DKFtDSDNdKT1OXFtDQEBIXShPW0NIM10pQzI9Qz1bQ0hdW0NIMl1bQ0BASF0oRilbQ0gyXVtDSDJdMg==

>  <s_glide_docking_method>  (1) 
confgen

>  <s_i_glide_gridfile>  (1) 
gpcr_5ht2c_6bqh_protein_autoprepared_prepared

>  <s_lp_Force_Field>  (1) 
S-OPLS

>  <s_lp_Variant>  (1) 
DiffSBDD_44_num_sample_100-8

>  <s_m_source_file>  (1) 
generated__ligand_DiffSBDD_2026-05-06_prepared.sdf

>  <GenAI_Model>  (1) 
DiffSBDD

>  <Protein>  (1) 
GPCR_5HT2C

$$$$
DiffSBDD_1_num_sample_100
     RDKit          3D

  0  0  0  0  0  0  0  0  0  0999 V3000
M  V30 BEGIN CTAB
M  V30 COUNTS 62 65 0 0 1
M  V30 BEGIN ATOM
M  V30 1 C 39.013467 26.351993 57.122990 0
M  V30 2 C 38.350263 35.186655 61.460512 0
M  V30 3 O 39.067269 24.428293 55.988111 0
M  V30 4 C 36.984966 33.325420 60.446505 0 CFG=1
M  V30 5 C 39.541953 27.655622 57.582635 0
M  V30 6 C 37.816579 30.981256 60.619853 0
M  V30 7 C 40.886021 33.576529 62.551511 0
M  V30 8 C 37.817203 37.396857 61.948810 0
M  V30 9 N 39.193055 37.108188 62.420869 0 CHG=1
M  V30 10 C 38.330436 32.056010 57.102653 0
M  V30 11 C 38.642165 28.512380 58.485578 0
M  V30 12 C 40.536890 35.045685 62.895403 0 CFG=2
M  V30 13 C 39.657329 35.813859 61.862006 0 CFG=1
M  V30 14 C 37.806010 30.898577 59.077269 0 CFG=2
M  V30 15 C 38.917058 30.640238 56.971404 0
M  V30 16 C 39.667268 25.580825 56.321256 0
M  V30 17 N 36.871264 32.011093 61.107562 0
M  V30 18 C 38.271795 33.986086 60.869612 0
M  V30 19 O 40.659249 28.070448 57.270169 0
M  V30 20 C 41.824670 35.850891 63.054266 0
M  V30 21 C 37.800994 24.518401 56.752500 0
M  V30 22 C 36.993707 33.181626 58.917883 0
M  V30 23 C 37.150841 36.042283 61.748890 0
M  V30 24 N 38.012093 32.212918 58.508432 0
M  V30 25 O 36.537268 30.421425 58.653532 0
M  V30 26 C 37.704425 25.887218 57.580769 0
M  V30 27 C 38.889124 30.036610 58.401980 0 CFG=2
M  V30 28 O 41.772588 33.007301 63.492674 0
M  V30 29 H 36.128448 33.931950 60.734762 0
M  V30 30 H 38.825923 31.214130 60.959058 0
M  V30 31 H 37.572796 30.021449 61.054761 0
M  V30 32 H 41.333154 33.499482 61.559302 0
M  V30 33 H 39.998656 32.946752 62.577008 0
M  V30 34 H 37.880502 37.923906 60.995132 0
M  V30 35 H 37.257452 38.021409 62.644433 0
M  V30 36 H 39.157602 37.003728 63.425366 0
M  V30 37 H 37.467397 32.166169 56.458349 0
M  V30 38 H 39.048318 32.817501 56.796736 0
M  V30 39 H 38.758717 28.175724 59.515824 0
M  V30 40 H 37.608246 28.316385 58.213696 0
M  V30 41 H 40.019243 35.036683 63.853509 0
M  V30 42 H 40.213978 36.008299 60.943682 0
M  V30 43 H 38.282387 30.059347 56.301174 0
M  V30 44 H 39.914435 30.650649 56.540135 0
M  V30 45 H 40.640530 25.736246 55.874839 0
M  V30 46 H 36.978285 32.137056 62.106347 0
M  V30 47 H 39.174863 33.436463 60.662735 0
M  V30 48 H 42.267345 36.021458 62.079022 0
M  V30 49 H 41.601700 36.821508 63.453410 0
M  V30 50 H 42.553182 35.398527 63.726755 0
M  V30 51 H 36.961417 24.434764 56.061164 0
M  V30 52 H 37.736870 23.666902 57.431821 0
M  V30 53 H 35.990619 32.860290 58.653485 0
M  V30 54 H 37.166065 34.145652 58.436586 0
M  V30 55 H 36.441614 36.070423 60.921060 0
M  V30 56 H 36.642606 35.705407 62.652017 0
M  V30 57 H 36.154275 31.035628 58.016996 0
M  V30 58 H 37.714060 25.724318 58.653466 0
M  V30 59 H 36.873987 26.515495 57.260553 0
M  V30 60 H 39.840628 30.240269 58.889574 0
M  V30 61 H 41.358018 32.993357 64.342438 0
M  V30 62 H 39.834673 37.853578 62.191220 0
M  V30 END ATOM
M  V30 BEGIN BOND
M  V30 1 1 5 1
M  V30 2 1 9 8
M  V30 3 1 11 5
M  V30 4 1 12 7
M  V30 5 1 13 2
M  V30 6 1 13 9
M  V30 7 1 13 12
M  V30 8 1 14 6
M  V30 9 1 15 10
M  V30 10 2 16 1
M  V30 11 1 16 3
M  V30 12 1 17 4
M  V30 13 1 17 6
M  V30 14 2 18 2
M  V30 15 1 18 4
M  V30 16 2 19 5
M  V30 17 1 20 12
M  V30 18 1 21 3
M  V30 19 1 22 4
M  V30 20 1 23 2
M  V30 21 1 23 8
M  V30 22 1 24 10
M  V30 23 1 24 14
M  V30 24 1 24 22
M  V30 25 1 14 25 CFG=3
M  V30 26 1 26 1
M  V30 27 1 26 21
M  V30 28 1 27 11
M  V30 29 1 27 14
M  V30 30 1 27 15
M  V30 31 1 28 7
M  V30 32 1 4 29 CFG=3
M  V30 33 1 30 6
M  V30 34 1 31 6
M  V30 35 1 32 7
M  V30 36 1 33 7
M  V30 37 1 34 8
M  V30 38 1 35 8
M  V30 39 1 36 9
M  V30 40 1 37 10
M  V30 41 1 38 10
M  V30 42 1 39 11
M  V30 43 1 40 11
M  V30 44 1 12 41 CFG=1
M  V30 45 1 13 42 CFG=3
M  V30 46 1 43 15
M  V30 47 1 44 15
M  V30 48 1 45 16
M  V30 49 1 46 17
M  V30 50 1 47 18
M  V30 51 1 48 20
M  V30 52 1 49 20
M  V30 53 1 50 20
M  V30 54 1 51 21
M  V30 55 1 52 21
M  V30 56 1 53 22
M  V30 57 1 54 22
M  V30 58 1 55 23
M  V30 59 1 56 23
M  V30 60 1 57 25
M  V30 61 1 58 26
M  V30 62 1 59 26
M  V30 63 1 27 60 CFG=1
M  V30 64 1 61 28
M  V30 65 1 62 9
M  V30 END BOND
M  V30 END CTAB
M  END
>  <i_epik_Tot_Q>  (1) 
1

>  <i_epik_Tot_abs_Q>  (1) 
1

>  <i_i_glide_confnum>  (1) 
32

>  <i_i_glide_lignum>  (1) 
7

>  <i_i_glide_posenum>  (1) 
213

>  <i_i_glide_rotatable_bonds>  (1) 
8

>  <i_lp_mmshare_version>  (1) 
72125

>  <i_m_source_file_index>  (1) 
2

>  <i_f3d_flags>  (1) 
0

>  <num_sample>  (1) 
100

>  <b_lp_Chiralities_Consistent>  (1) 
1

>  <r_epik_Charging_Adjusted_Penalty>  (1) 
0.089223518210420474

>  <r_epik_Ionization_Penalty>  (1) 
0.15303808439063821

>  <r_epik_Ionization_Penalty_Charging>  (1) 
0.0017986555257548985

>  <r_epik_Ionization_Penalty_Neutral>  (1) 
0.15123942886488331

>  <r_epik_State_Penalty>  (1) 
0.08742486268466558

>  <r_glide_ring_energy>  (1) 
0

>  <r_i_docking_score>  (1) 
-5.9393396431821692

>  <r_i_glide_ecoul>  (1) 
-5.5796769237746693

>  <r_i_glide_eff_state_penalty>  (1) 
0.08742486268466558

>  <r_i_glide_einternal>  (1) 
6.4080606202206045

>  <r_i_glide_emodel>  (1) 
-45.463965970165169

>  <r_i_glide_emodel_strain>  (1) 
0.80492178261367542

>  <r_i_glide_energy>  (1) 
-34.734167767693684

>  <r_i_glide_erotb>  (1) 
0.76037187950223806

>  <r_i_glide_esite>  (1) 
-0.050368181804677649

>  <r_i_glide_evdw>  (1) 
-29.154490843919014

>  <r_i_glide_gscore>  (1) 
-6.0267645058668347

>  <r_i_glide_gscore_strain>  (1) 
0

>  <r_i_glide_hbond>  (1) 
-0.16526823702676971

>  <r_i_glide_ligand_efficiency>  (1) 
-0.21211927297079175

>  <r_i_glide_ligand_efficiency_ln>  (1) 
-1.3709739762359392

>  <r_i_glide_ligand_efficiency_sa>  (1) 
-0.64411904502538964

>  <r_i_glide_lipo>  (1) 
-2.9148464997398289

>  <r_i_glide_metal>  (1) 
-0

>  <r_i_glide_rewards>  (1) 
-1.3619773860356441

>  <r_lp_Energy>  (1) 
13.724687999999999

>  <s_epik_cmdline>  (1) 
J2VwaWtfcHl0aG9uJywgJy1waHQnLCAnMS4wJywgJy1waCcsICc3LjQnLCAnLXRuJywgJzgnLCAnLW1hJywgJzUwMCcsICctaW1hZScsICc8aW5maWxlLm1hZT4nLCAnLW9tYWUnLCAnPG91dGZpbGUubWFlPic=

>  <s_epik_input>  (1) 
W0NIMl0xW0NIMl1PW0NIXT1DMUMoPU8pW0NIMl1bQ0BIXTJbQ0gyXVtDSDJdTihbQ0BAXTIzW09IXSlbQ0gyXVtDQEBIXShbTkhdW0NIMl0zKVxbQ0hdPUM0XFtDQEBIXShbTkhdW0NIMl1bQ0gyXTQpW0NASF0oW0NIM10pW0NIMl1bT0hd

>  <s_glide_docking_method>  (1) 
confgen

>  <s_i_glide_gridfile>  (1) 
gpcr_5ht2c_6bqh_protein_autoprepared_prepared

>  <s_lp_Force_Field>  (1) 
S-OPLS

>  <s_lp_Variant>  (1) 
DiffSBDD_1_num_sample_100-1

>  <s_m_source_file>  (1) 
generated__ligand_DiffSBDD_2026-05-06_prepared.sdf

>  <GenAI_Model>  (1) 
DiffSBDD

>  <Protein>  (1) 
GPCR_5HT2C

$$$$
DiffSBDD_35_num_sample_100
     RDKit          3D

  0  0  0  0  0  0  0  0  0  0999 V3000
M  V30 BEGIN CTAB
M  V30 COUNTS 23 23 0 0 1
M  V30 BEGIN ATOM
M  V30 1 C 39.867392 30.434037 52.406978 0
M  V30 2 C 38.549686 28.572145 53.280912 0
M  V30 3 C 39.370373 26.271016 55.045884 0
M  V30 4 N 39.564092 26.272641 56.364968 0
M  V30 5 O 37.828711 28.006344 54.312481 0
M  V30 6 C 37.954649 26.603704 54.551055 0
M  V30 7 C 38.940984 30.596505 54.760713 0
M  V30 8 O 40.267403 26.021506 54.245031 0
M  V30 9 C 39.466916 28.474673 51.015197 0
M  V30 10 C 39.122385 29.850927 53.452332 0
M  V30 11 C 38.720590 27.885987 52.052750 0
M  V30 12 C 40.040545 29.745750 51.192382 0
M  V30 13 H 40.305838 31.411773 52.536324 0
M  V30 14 H 38.800759 26.491227 56.987229 0
M  V30 15 H 40.479266 26.061180 56.735895 0
M  V30 16 H 37.234455 26.339250 55.326058 0
M  V30 17 H 37.684820 25.996451 53.689038 0
M  V30 18 H 39.399209 30.037899 55.578186 0
M  V30 19 H 39.402789 31.584247 54.724902 0
M  V30 20 H 37.881002 30.730321 54.978693 0
M  V30 21 H 39.596161 27.951467 50.080684 0
M  V30 22 H 38.281321 26.912274 51.905495 0
M  V30 23 H 40.612913 30.195567 50.394001 0
M  V30 END ATOM
M  V30 BEGIN BOND
M  V30 1 1 4 3
M  V30 2 1 5 2
M  V30 3 1 6 3
M  V30 4 1 6 5
M  V30 5 2 8 3
M  V30 6 2 10 1
M  V30 7 1 10 2
M  V30 8 1 10 7
M  V30 9 2 11 2
M  V30 10 1 11 9
M  V30 11 1 12 1
M  V30 12 2 12 9
M  V30 13 1 13 1
M  V30 14 1 14 4
M  V30 15 1 15 4
M  V30 16 1 16 6
M  V30 17 1 17 6
M  V30 18 1 18 7
M  V30 19 1 19 7
M  V30 20 1 20 7
M  V30 21 1 21 9
M  V30 22 1 22 11
M  V30 23 1 23 12
M  V30 END BOND
M  V30 END CTAB
M  END
>  <i_epik_Tot_Q>  (1) 
0

>  <i_epik_Tot_abs_Q>  (1) 
0

>  <i_i_glide_confnum>  (1) 
3

>  <i_i_glide_lignum>  (1) 
90

>  <i_i_glide_posenum>  (1) 
325

>  <i_i_glide_rotatable_bonds>  (1) 
3

>  <i_lp_mmshare_version>  (1) 
72125

>  <i_m_source_file_index>  (1) 
36

>  <i_f3d_flags>  (1) 
0

>  <num_sample>  (1) 
100

>  <b_lp_Chiralities_Consistent>  (1) 
1

>  <r_epik_Charging_Adjusted_Penalty>  (1) 
0

>  <r_epik_Ionization_Penalty>  (1) 
6.1062296302935647e-07

>  <r_epik_Ionization_Penalty_Charging>  (1) 
0

>  <r_epik_Ionization_Penalty_Neutral>  (1) 
6.1062296302935647e-07

>  <r_epik_State_Penalty>  (1) 
-0

>  <r_glide_ring_energy>  (1) 
0

>  <r_i_docking_score>  (1) 
-5.9388717892478224

>  <r_i_glide_ecoul>  (1) 
-2.3362750845890088

>  <r_i_glide_eff_state_penalty>  (1) 
-0

>  <r_i_glide_einternal>  (1) 
0.51812607173083158

>  <r_i_glide_emodel>  (1) 
-38.883079913408224

>  <r_i_glide_emodel_strain>  (1) 
0.5337245470750176

>  <r_i_glide_energy>  (1) 
-27.976602000528061

>  <r_i_glide_erotb>  (1) 
1.1185107559780281

>  <r_i_glide_esite>  (1) 
0

>  <r_i_glide_evdw>  (1) 
-25.640326915939053

>  <r_i_glide_gscore>  (1) 
-5.9388717892478224

>  <r_i_glide_gscore_strain>  (1) 
0

>  <r_i_glide_hbond>  (1) 
0

>  <r_i_glide_ligand_efficiency>  (1) 
-0.49490598243731854

>  <r_i_glide_ligand_efficiency_ln>  (1) 
-1.7041695477292356

>  <r_i_glide_ligand_efficiency_sa>  (1) 
-1.1330518536416954

>  <r_i_glide_lipo>  (1) 
-2.3359869382976881

>  <r_i_glide_metal>  (1) 
-0

>  <r_i_glide_rewards>  (1) 
-3.0889379984428587

>  <r_lp_Energy>  (1) 
12.862938

>  <r_lp_tautomer_probability>  (1) 
1

>  <s_epik_cmdline>  (1) 
J2VwaWtfcHl0aG9uJywgJy1waHQnLCAnMS4wJywgJy1waCcsICc3LjQnLCAnLXRuJywgJzgnLCAnLW1hJywgJzUwMCcsICctaW1hZScsICc8aW5maWxlLm1hZT4nLCAnLW9tYWUnLCAnPG91dGZpbGUubWFlPic=

>  <s_epik_input>  (1) 
W2NIXTFbY0hdW2NIXVtjSF1jKFtDSDNdKWMxT1tDSDJdQyg9TylbTkgyXQ==

>  <s_glide_docking_method>  (1) 
confgen

>  <s_i_glide_gridfile>  (1) 
gpcr_5ht2c_6bqh_protein_autoprepared_prepared

>  <s_lp_Force_Field>  (1) 
S-OPLS

>  <s_lp_Variant>  (1) 
DiffSBDD_35_num_sample_100-1

>  <s_m_source_file>  (1) 
generated__ligand_DiffSBDD_2026-05-06_prepared.sdf

>  <GenAI_Model>  (1) 
DiffSBDD

>  <Protein>  (1) 
GPCR_5HT2C

$$$$
DiffSBDD_75_num_sample_100
     RDKit          3D

  0  0  0  0  0  0  0  0  0  0999 V3000
M  V30 BEGIN CTAB
M  V30 COUNTS 40 43 0 0 1
M  V30 BEGIN ATOM
M  V30 1 N 38.552952 29.852346 58.673280 0
M  V30 2 C 39.849025 29.740127 60.712817 0
M  V30 3 C 38.568988 25.487403 57.906388 0
M  V30 4 C 39.895167 27.863959 59.239428 0
M  V30 5 C 38.990053 30.370151 59.836364 0
M  V30 6 C 40.167246 30.519107 61.860981 0
M  V30 7 C 38.269555 28.964036 56.046280 0 CFG=1
M  V30 8 C 40.491385 26.021428 53.453500 0
M  V30 9 C 40.326695 28.466558 60.437229 0
M  V30 10 C 39.450612 31.831629 61.781659 0
M  V30 11 O 40.912546 30.215062 62.791839 0
M  V30 12 O 39.008353 27.761250 54.044223 0
M  V30 13 C 39.002310 28.589211 58.376773 0
M  V30 14 S 38.414800 32.024388 60.276345 0
M  V30 15 C 38.831668 26.593337 56.889756 0
M  V30 16 C 37.592957 25.698485 56.806334 0
M  V30 17 N 38.536582 28.015837 57.154836 0
M  V30 18 C 39.449015 29.925638 55.736391 0
M  V30 19 O 39.560554 32.691841 62.653499 0
M  V30 20 C 37.867408 28.271226 54.724456 0
M  V30 21 C 39.416812 26.458535 54.432216 0 CFG=2
M  V30 22 C 39.936931 26.401237 55.875807 0
M  V30 23 H 39.180733 24.589615 57.848750 0
M  V30 24 H 38.267299 25.764425 58.912071 0
M  V30 25 H 40.247934 26.881970 58.978356 0
M  V30 26 H 37.412720 29.565100 56.355003 0
M  V30 27 H 40.667401 24.952968 53.453502 0
M  V30 28 H 40.190895 26.290539 52.443662 0
M  V30 29 H 41.467403 26.421430 53.655505 0
M  V30 30 H 41.002964 27.959686 61.110541 0
M  V30 31 H 36.634322 26.127770 57.085549 0
M  V30 32 H 37.543847 24.911532 56.057831 0
M  V30 33 H 39.219985 30.548945 54.871758 0
M  V30 34 H 39.676138 30.612429 56.549117 0
M  V30 35 H 40.364337 29.380899 55.507441 0
M  V30 36 H 37.434262 29.026546 54.067712 0
M  V30 37 H 37.091221 27.515496 54.844013 0
M  V30 38 H 38.574487 25.782502 54.288463 0
M  V30 39 H 40.734535 27.124522 56.045866 0
M  V30 40 H 40.382383 25.419673 56.039171 0
M  V30 END ATOM
M  V30 BEGIN BOND
M  V30 1 1 5 1
M  V30 2 2 5 2
M  V30 3 1 6 2
M  V30 4 1 9 2
M  V30 5 2 9 4
M  V30 6 1 10 6
M  V30 7 2 11 6
M  V30 8 2 13 1
M  V30 9 1 13 4
M  V30 10 1 14 5
M  V30 11 1 14 10
M  V30 12 1 15 3
M  V30 13 1 16 3
M  V30 14 1 16 15
M  V30 15 1 17 7
M  V30 16 1 17 13
M  V30 17 1 17 15
M  V30 18 1 18 7
M  V30 19 2 19 10
M  V30 20 1 20 7
M  V30 21 1 20 12
M  V30 22 1 21 8
M  V30 23 1 21 12
M  V30 24 1 22 15
M  V30 25 1 22 21
M  V30 26 1 23 3
M  V30 27 1 24 3
M  V30 28 1 25 4
M  V30 29 1 7 26 CFG=1
M  V30 30 1 27 8
M  V30 31 1 28 8
M  V30 32 1 29 8
M  V30 33 1 30 9
M  V30 34 1 31 16
M  V30 35 1 32 16
M  V30 36 1 33 18
M  V30 37 1 34 18
M  V30 38 1 35 18
M  V30 39 1 36 20
M  V30 40 1 37 20
M  V30 41 1 21 38 CFG=1
M  V30 42 1 39 22
M  V30 43 1 40 22
M  V30 END BOND
M  V30 END CTAB
M  END
>  <i_epik_Tot_Q>  (1) 
0

>  <i_epik_Tot_abs_Q>  (1) 
0

>  <i_i_glide_confnum>  (1) 
4

>  <i_i_glide_lignum>  (1) 
188

>  <i_i_glide_posenum>  (1) 
234

>  <i_i_glide_rotatable_bonds>  (1) 
1

>  <i_lp_mmshare_version>  (1) 
72125

>  <i_m_source_file_index>  (1) 
76

>  <i_f3d_flags>  (1) 
0

>  <num_sample>  (1) 
100

>  <b_lp_Chiralities_Consistent>  (1) 
1

>  <r_epik_Charging_Adjusted_Penalty>  (1) 
0

>  <r_epik_Ionization_Penalty>  (1) 
6.9313959963176031e-10

>  <r_epik_Ionization_Penalty_Charging>  (1) 
0

>  <r_epik_Ionization_Penalty_Neutral>  (1) 
6.9313959963176031e-10

>  <r_epik_State_Penalty>  (1) 
-0

>  <r_glide_ring_energy>  (1) 
0.8094378056749032

>  <r_i_docking_score>  (1) 
-5.9327094626863186

>  <r_i_glide_ecoul>  (1) 
0.84048276796142585

>  <r_i_glide_eff_state_penalty>  (1) 
-0

>  <r_i_glide_einternal>  (1) 
0.91903056720337339

>  <r_i_glide_emodel>  (1) 
-42.503305450763847

>  <r_i_glide_emodel_strain>  (1) 
0.057320178260638954

>  <r_i_glide_energy>  (1) 
-29.227818311602775

>  <r_i_glide_erotb>  (1) 
0.1839108918674553

>  <r_i_glide_esite>  (1) 
0

>  <r_i_glide_evdw>  (1) 
-30.068301079564201

>  <r_i_glide_gscore>  (1) 
-5.9327094626863186

>  <r_i_glide_gscore_strain>  (1) 
0

>  <r_i_glide_hbond>  (1) 
0

>  <r_i_glide_ligand_efficiency>  (1) 
-0.26966861194028718

>  <r_i_glide_ligand_efficiency_ln>  (1) 
-1.4501705935161311

>  <r_i_glide_ligand_efficiency_sa>  (1) 
-0.75562205689992978

>  <r_i_glide_lipo>  (1) 
-2.8146404352934784

>  <r_i_glide_metal>  (1) 
-0

>  <r_i_glide_rewards>  (1) 
-1.9246372804762995

>  <r_lp_Energy>  (1) 
36.581914999999995

>  <r_lp_tautomer_probability>  (1) 
1

>  <s_epik_cmdline>  (1) 
J2VwaWtfcHl0aG9uJywgJy1waHQnLCAnMS4wJywgJy1waCcsICc3LjQnLCAnLXRuJywgJzgnLCAnLW1hJywgJzUwMCcsICctaW1hZScsICc8aW5maWxlLm1hZT4nLCAnLW9tYWUnLCAnPG91dGZpbGUubWFlPic=

>  <s_epik_input>  (1) 
Tz1DMUMoPU8pU2MoYzEyKW5jKFtjSF1bY0hdMilOKEMzNFtDSDJdW0NIMl0zKVtDQEBIXShbQ0gzXSlbQ0gyXU9bQ0BASF0oW0NIM10pW0NIMl00

>  <s_glide_docking_method>  (1) 
confgen

>  <s_i_glide_gridfile>  (1) 
gpcr_5ht2c_6bqh_protein_autoprepared_prepared

>  <s_lp_Force_Field>  (1) 
S-OPLS

>  <s_lp_Variant>  (1) 
DiffSBDD_75_num_sample_100-1

>  <s_m_source_file>  (1) 
generated__ligand_DiffSBDD_2026-05-06_prepared.sdf

>  <GenAI_Model>  (1) 
DiffSBDD

>  <Protein>  (1) 
GPCR_5HT2C

$$$$
DiffSBDD_44_num_sample_100
     RDKit          3D

  0  0  0  0  0  0  0  0  0  0999 V3000
M  V30 BEGIN CTAB
M  V30 COUNTS 58 59 0 0 1
M  V30 BEGIN ATOM
M  V30 1 C 37.771708 30.760549 54.649794 0
M  V30 2 O 37.039044 29.612730 58.924545 0 CHG=-1
M  V30 3 C 38.159134 35.621171 61.731133 0
M  V30 4 C 38.184535 29.147072 56.447906 0 CFG=1
M  V30 5 N 37.584558 30.422180 56.943328 0 CFG=2 CHG=1
M  V30 6 C 39.854244 33.906790 62.284849 0
M  V30 7 N 38.036508 31.941765 61.490498 0
M  V30 8 C 38.491899 34.356178 61.725482 0
M  V30 9 O 36.266087 33.452557 61.853500 0
M  V30 10 C 38.367254 29.370617 54.922673 0 CFG=1
M  V30 11 C 37.798665 28.243081 54.050227 0
M  V30 12 C 38.657986 31.352833 59.119349 0 CFG=1
M  V30 13 C 38.618212 31.150752 60.667817 0
M  V30 14 C 37.989664 31.463200 55.983424 0
M  V30 15 C 35.175299 32.931645 61.112771 0
M  V30 16 C 39.646820 37.381515 62.594946 0
M  V30 17 C 37.405978 30.755045 58.399022 0 CFG=2
M  V30 18 C 37.522838 33.273823 61.224588 0 CFG=2
M  V30 19 F 41.121253 36.214618 61.162704 0
M  V30 20 C 40.832881 36.377494 62.450942 0 CFG=2
M  V30 21 C 38.343076 36.884159 62.000186 0
M  V30 22 C 39.067385 32.779813 58.629767 0
M  V30 23 C 39.330510 29.902339 61.156115 0
M  V30 24 C 39.534869 28.779004 57.093754 0
M  V30 25 C 40.665428 34.974443 63.083487 0
M  V30 26 H 36.702861 30.694837 54.432390 0
M  V30 27 H 38.254518 31.282171 53.823405 0
M  V30 28 H 37.469375 28.345794 56.633594 0
M  V30 29 H 39.713530 33.069725 62.968777 0
M  V30 30 H 40.461544 33.533915 61.461582 0
M  V30 31 H 39.433620 29.448164 54.700470 0
M  V30 32 H 36.739224 28.076328 54.242641 0
M  V30 33 H 37.918159 28.468905 52.990753 0
M  V30 34 H 38.320980 27.306027 54.249697 0
M  V30 35 H 39.466815 30.715469 58.805473 0
M  V30 36 H 37.463926 32.409046 56.082099 0
M  V30 37 H 39.053893 31.668344 56.078482 0
M  V30 38 H 34.262530 33.210299 61.631631 0
M  V30 39 H 35.120462 33.352441 60.106258 0
M  V30 40 H 35.224971 31.844011 61.040080 0
M  V30 41 H 39.891419 38.317724 62.095088 0
M  V30 42 H 39.480428 37.616578 63.647194 0
M  V30 43 H 36.695873 31.576299 58.449859 0
M  V30 44 H 37.330973 33.464970 60.179405 0
M  V30 45 H 41.718985 36.822698 62.902813 0
M  V30 46 H 37.576227 37.620117 61.808822 0
M  V30 47 H 39.663410 33.307448 59.369794 0
M  V30 48 H 39.673593 32.776623 57.730583 0
M  V30 49 H 38.214786 33.401846 58.359363 0
M  V30 50 H 40.405162 30.006875 61.011029 0
M  V30 51 H 39.139516 29.736666 62.218103 0
M  V30 52 H 38.989645 29.021446 60.612284 0
M  V30 53 H 39.979879 27.906709 56.613228 0
M  V30 54 H 40.247938 29.597727 57.002179 0
M  V30 55 H 39.423621 28.535718 58.150043 0
M  V30 56 H 40.267389 35.081957 64.091482 0
M  V30 57 H 41.663982 34.563651 63.231813 0
M  V30 58 H 36.601217 30.322489 56.714837 0
M  V30 END ATOM
M  V30 BEGIN BOND
M  V30 1 1 5 4
M  V30 2 2 8 3
M  V30 3 1 8 6
M  V30 4 1 10 1
M  V30 5 1 10 4
M  V30 6 1 11 10
M  V30 7 2 13 7
M  V30 8 1 13 12
M  V30 9 1 14 1
M  V30 10 1 14 5
M  V30 11 1 15 9
M  V30 12 1 17 2
M  V30 13 1 17 5
M  V30 14 1 17 12
M  V30 15 1 18 7
M  V30 16 1 18 8
M  V30 17 1 18 9
M  V30 18 1 20 16
M  V30 19 1 20 19
M  V30 20 2 21 3
M  V30 21 1 21 16
M  V30 22 1 22 12
M  V30 23 1 23 13
M  V30 24 1 24 4
M  V30 25 1 25 6
M  V30 26 1 25 20
M  V30 27 1 26 1
M  V30 28 1 27 1
M  V30 29 1 4 28 CFG=3
M  V30 30 1 29 6
M  V30 31 1 30 6
M  V30 32 1 10 31 CFG=1
M  V30 33 1 32 11
M  V30 34 1 33 11
M  V30 35 1 34 11
M  V30 36 1 12 35 CFG=3
M  V30 37 1 36 14
M  V30 38 1 37 14
M  V30 39 1 38 15
M  V30 40 1 39 15
M  V30 41 1 40 15
M  V30 42 1 41 16
M  V30 43 1 42 16
M  V30 44 1 17 43 CFG=3
M  V30 45 1 18 44 CFG=3
M  V30 46 1 20 45 CFG=1
M  V30 47 1 46 21
M  V30 48 1 47 22
M  V30 49 1 48 22
M  V30 50 1 49 22
M  V30 51 1 50 23
M  V30 52 1 51 23
M  V30 53 1 52 23
M  V30 54 1 53 24
M  V30 55 1 54 24
M  V30 56 1 55 24
M  V30 57 1 56 25
M  V30 58 1 57 25
M  V30 59 1 5 58 CFG=3
M  V30 END BOND
M  V30 END CTAB
M  END
>  <i_epik_Tot_Q>  (1) 
0

>  <i_epik_Tot_abs_Q>  (1) 
2

>  <i_i_glide_confnum>  (1) 
53

>  <i_i_glide_lignum>  (1) 
119

>  <i_i_glide_posenum>  (1) 
307

>  <i_i_glide_rotatable_bonds>  (1) 
6

>  <i_lp_mmshare_version>  (1) 
72125

>  <i_m_source_file_index>  (1) 
45

>  <i_f3d_flags>  (1) 
0

>  <num_sample>  (1) 
100

>  <b_lp_Chiralities_Consistent>  (1) 
1

>  <r_epik_Charging_Adjusted_Penalty>  (1) 
0.41733257654759531

>  <r_epik_Ionization_Penalty>  (1) 
0.0069177268181324029

>  <r_epik_Ionization_Penalty_Charging>  (1) 
0.0066527375949913311

>  <r_epik_Ionization_Penalty_Neutral>  (1) 
0.00026498922314107146

>  <r_epik_State_Penalty>  (1) 
0.41067983895260396

>  <r_glide_ring_energy>  (1) 
0

>  <r_i_docking_score>  (1) 
-5.931661617411236

>  <r_i_glide_ecoul>  (1) 
-4.6425156009915503

>  <r_i_glide_eff_state_penalty>  (1) 
0.41067983895260396

>  <r_i_glide_einternal>  (1) 
3.5517121419768962

>  <r_i_glide_emodel>  (1) 
-48.229392193307113

>  <r_i_glide_emodel_strain>  (1) 
0.84320329096529179

>  <r_i_glide_energy>  (1) 
-32.538040679793355

>  <r_i_glide_erotb>  (1) 
0.61440649929112812

>  <r_i_glide_esite>  (1) 
-0.18962704885199622

>  <r_i_glide_evdw>  (1) 
-27.895525078801803

>  <r_i_glide_gscore>  (1) 
-6.3423414563638403

>  <r_i_glide_gscore_strain>  (1) 
0

>  <r_i_glide_hbond>  (1) 
-0.090798205991197117

>  <r_i_glide_ligand_efficiency>  (1) 
-0.23726646469644944

>  <r_i_glide_ligand_efficiency_ln>  (1) 
-1.4059815608809825

>  <r_i_glide_ligand_efficiency_sa>  (1) 
-0.69377135145547497

>  <r_i_glide_lipo>  (1) 
-2.3323190113124146

>  <r_i_glide_metal>  (1) 
-0

>  <r_i_glide_rewards>  (1) 
-2.2528500954105368

>  <r_lp_Energy>  (1) 
16.849003

>  <r_lp_tautomer_probability>  (1) 
0.49999399997599986

>  <s_epik_Chemistry_Notes>  (1) 
This compound has an imine and may undergo hydrolysis. This compound contains an acetal/aminal-like group ( X-CH(R)-Y where X, Y are N, S, or O) that may be acid/base labile, releasing an aldehyde.

>  <s_epik_cmdline>  (1) 
J2VwaWtfcHl0aG9uJywgJy1waHQnLCAnMS4wJywgJy1waCcsICc3LjQnLCAnLXRuJywgJzgnLCAnLW1hJywgJzUwMCcsICctaW1hZScsICc8aW5maWxlLm1hZT4nLCAnLW9tYWUnLCAnPG91dGZpbGUubWFlPic=

>  <s_epik_input>  (1) 
W0NIM11bQ0BIXTFbQ0gyXVtDSDJdTihbQ0BASF0xW0NIM10pW0NAQEhdKFtPSF0pW0NAQEhdKFtDSDNdKS9DKFtDSDNdKT1OXFtDQEBIXShPW0NIM10pQzI9Qz1bQ0hdW0NIMl1bQ0BASF0oRilbQ0gyXVtDSDJdMg==

>  <s_glide_docking_method>  (1) 
confgen

>  <s_i_glide_gridfile>  (1) 
gpcr_5ht2c_6bqh_protein_autoprepared_prepared

>  <s_lp_Force_Field>  (1) 
S-OPLS

>  <s_lp_Variant>  (1) 
DiffSBDD_44_num_sample_100-12

>  <s_m_source_file>  (1) 
generated__ligand_DiffSBDD_2026-05-06_prepared.sdf

>  <GenAI_Model>  (1) 
DiffSBDD

>  <Protein>  (1) 
GPCR_5HT2C

$$$$
DiffSBDD_74_num_sample_100
     RDKit          3D

  0  0  0  0  0  0  0  0  0  0999 V3000
M  V30 BEGIN CTAB
M  V30 COUNTS 24 24 0 0 1
M  V30 BEGIN ATOM
M  V30 1 C 40.292834 30.256037 50.122667 0
M  V30 2 C 37.281825 26.865336 53.971833 0
M  V30 3 C 39.067403 28.565945 53.498741 0
M  V30 4 C 39.335145 25.476551 55.867101 0
M  V30 5 C 39.867403 30.589760 52.636765 0
M  V30 6 C 39.401601 29.867309 53.783940 0
M  V30 7 S 39.303090 28.227055 51.807352 0
M  V30 8 C 39.872879 29.834646 51.489952 0
M  V30 9 C 39.688272 26.480580 54.759168 0
M  V30 10 C 38.583141 27.515309 54.450443 0 CFG=2
M  V30 11 H 40.662684 31.280031 50.123987 0
M  V30 12 H 41.085572 29.621430 49.741246 0
M  V30 13 H 39.467404 30.201028 49.420073 0
M  V30 14 H 36.521090 27.621440 53.777041 0
M  V30 15 H 37.428987 26.299749 53.053516 0
M  V30 16 H 36.889679 26.184233 54.725855 0
M  V30 17 H 40.203747 24.873144 56.131136 0
M  V30 18 H 39.001495 25.986279 56.770984 0
M  V30 19 H 38.548828 24.790747 55.553112 0
M  V30 20 H 40.176055 31.621428 52.693816 0
M  V30 21 H 39.340562 30.318573 54.763420 0
M  V30 22 H 39.968186 25.943650 53.853466 0
M  V30 23 H 40.583314 27.015137 55.078065 0
M  V30 24 H 38.348511 28.016733 55.390425 0
M  V30 END ATOM
M  V30 BEGIN BOND
M  V30 1 2 6 3
M  V30 2 1 6 5
M  V30 3 1 7 3
M  V30 4 1 8 1
M  V30 5 2 8 5
M  V30 6 1 8 7
M  V30 7 1 9 4
M  V30 8 1 10 2
M  V30 9 1 10 3
M  V30 10 1 10 9
M  V30 11 1 11 1
M  V30 12 1 12 1
M  V30 13 1 13 1
M  V30 14 1 14 2
M  V30 15 1 15 2
M  V30 16 1 16 2
M  V30 17 1 17 4
M  V30 18 1 18 4
M  V30 19 1 19 4
M  V30 20 1 20 5
M  V30 21 1 21 6
M  V30 22 1 22 9
M  V30 23 1 23 9
M  V30 24 1 10 24 CFG=1
M  V30 END BOND
M  V30 END CTAB
M  END
>  <i_epik_Tot_Q>  (1) 
0

>  <i_epik_Tot_abs_Q>  (1) 
0

>  <i_i_glide_confnum>  (1) 
1

>  <i_i_glide_lignum>  (1) 
187

>  <i_i_glide_posenum>  (1) 
330

>  <i_i_glide_rotatable_bonds>  (1) 
2

>  <i_lp_mmshare_version>  (1) 
72125

>  <i_m_source_file_index>  (1) 
75

>  <i_f3d_flags>  (1) 
0

>  <num_sample>  (1) 
100

>  <b_lp_Chiralities_Consistent>  (1) 
1

>  <r_epik_Charging_Adjusted_Penalty>  (1) 
0

>  <r_epik_Ionization_Penalty>  (1) 
0

>  <r_epik_Ionization_Penalty_Charging>  (1) 
0

>  <r_epik_Ionization_Penalty_Neutral>  (1) 
0

>  <r_epik_State_Penalty>  (1) 
-0

>  <r_glide_ring_energy>  (1) 
0

>  <r_i_docking_score>  (1) 
-5.930079594763245

>  <r_i_glide_ecoul>  (1) 
-0.95956821501326672

>  <r_i_glide_eff_state_penalty>  (1) 
-0

>  <r_i_glide_einternal>  (1) 
1.0230351490350604

>  <r_i_glide_emodel>  (1) 
-30.170319055668049

>  <r_i_glide_emodel_strain>  (1) 
0

>  <r_i_glide_energy>  (1) 
-21.922975488403253

>  <r_i_glide_erotb>  (1) 
0.62454345272379397

>  <r_i_glide_esite>  (1) 
0

>  <r_i_glide_evdw>  (1) 
-20.963407273389986

>  <r_i_glide_gscore>  (1) 
-5.930079594763245

>  <r_i_glide_gscore_strain>  (1) 
0

>  <r_i_glide_hbond>  (1) 
0

>  <r_i_glide_ligand_efficiency>  (1) 
-0.59300795947632445

>  <r_i_glide_ligand_efficiency_ln>  (1) 
-1.7955872226708243

>  <r_i_glide_ligand_efficiency_sa>  (1) 
-1.2775969193608152

>  <r_i_glide_lipo>  (1) 
-2.821771145263829

>  <r_i_glide_metal>  (1) 
-0

>  <r_i_glide_rewards>  (1) 
-2.5407463063017204

>  <r_lp_Energy>  (1) 
7.9689609999999993

>  <r_lp_tautomer_probability>  (1) 
1

>  <s_epik_cmdline>  (1) 
J2VwaWtfcHl0aG9uJywgJy1waHQnLCAnMS4wJywgJy1waCcsICc3LjQnLCAnLXRuJywgJzgnLCAnLW1hJywgJzUwMCcsICctaW1hZScsICc8aW5maWxlLm1hZT4nLCAnLW9tYWUnLCAnPG91dGZpbGUubWFlPic=

>  <s_epik_input>  (1) 
W0NIM11jKHMxKVtjSF1bY0hdYzFbQ0BIXShbQ0gzXSlbQ0gyXVtDSDNd

>  <s_glide_docking_method>  (1) 
confgen

>  <s_i_glide_gridfile>  (1) 
gpcr_5ht2c_6bqh_protein_autoprepared_prepared

>  <s_lp_Force_Field>  (1) 
S-OPLS

>  <s_lp_Variant>  (1) 
DiffSBDD_74_num_sample_100-2

>  <s_m_source_file>  (1) 
generated__ligand_DiffSBDD_2026-05-06_prepared.sdf

>  <GenAI_Model>  (1) 
DiffSBDD

>  <Protein>  (1) 
GPCR_5HT2C

$$$$
DiffSBDD_88_num_sample_100
     RDKit          3D

  0  0  0  0  0  0  0  0  0  0999 V3000
M  V30 BEGIN CTAB
M  V30 COUNTS 72 75 0 0 1
M  V30 BEGIN ATOM
M  V30 1 C 39.167725 31.184115 60.078178 0
M  V30 2 C 40.666464 29.328043 64.207610 0
M  V30 3 C 38.885832 27.698035 56.029641 0 CFG=1
M  V30 4 C 37.067398 30.849693 58.620451 0
M  V30 5 C 39.831988 31.014727 61.453878 0
M  V30 6 C 38.970425 27.776564 57.570572 0
M  V30 7 O 39.316474 24.638345 57.052650 0
M  V30 8 C 39.594344 31.252452 55.069974 0 CFG=1
M  V30 9 C 40.226808 33.441973 61.882584 0
M  V30 10 C 37.641042 30.936800 60.043432 0
M  V30 11 O 37.472827 23.700699 57.853501 0 CHG=-1
M  V30 12 N 37.873606 29.954161 57.751624 0 CFG=2 CHG=1
M  V30 13 C 37.754502 30.145403 56.272189 0 CFG=1
M  V30 14 C 37.907922 26.601226 55.502263 0 CFG=1
M  V30 15 C 42.516065 30.847235 63.494188 0
M  V30 16 C 37.793374 28.541723 58.159027 0
M  V30 17 C 39.288145 30.809719 53.637970 0
M  V30 18 C 38.516088 25.809153 54.328783 0
M  V30 19 C 37.214054 25.618629 56.492336 0
M  V30 20 N 40.650764 34.428661 61.453502 0
M  V30 21 C 38.077145 24.560484 57.189420 0
M  V30 22 C 37.929349 28.797640 53.071782 0
M  V30 23 O 38.295998 32.361049 62.589732 0
M  V30 24 C 40.276072 31.929212 63.863608 0 CFG=1
M  V30 25 C 42.014474 29.616823 63.617566 0
M  V30 26 C 38.294774 31.553807 55.850511 0
M  V30 27 C 39.867400 30.607288 64.577787 0
M  V30 28 C 38.712315 29.177577 55.484787 0 CFG=1
M  V30 29 C 41.803473 32.095287 63.942945 0
M  V30 30 C 40.017941 29.948388 55.721251 0
M  V30 31 C 39.678649 32.191027 62.439577 0 CFG=1
M  V30 32 C 38.594011 29.527108 53.986125 0
M  V30 33 H 39.402844 32.158792 59.649616 0
M  V30 34 H 39.655417 30.435880 59.453537 0
M  V30 35 H 40.143197 28.743764 63.453505 0
M  V30 36 H 40.772087 28.677694 65.076454 0
M  V30 37 H 39.875876 27.360367 55.717878 0
M  V30 38 H 36.028717 30.515839 58.653501 0
M  V30 39 H 37.067407 31.865644 58.233281 0
M  V30 40 H 40.895075 30.852072 61.284321 0
M  V30 41 H 39.448304 30.095697 61.890512 0
M  V30 42 H 39.900753 28.256168 57.871953 0
M  V30 43 H 39.046881 26.812877 58.055303 0
M  V30 44 H 40.352214 32.021430 55.138479 0
M  V30 45 H 37.396809 30.039018 60.608421 0
M  V30 46 H 37.107292 31.743484 60.543313 0
M  V30 47 H 36.714464 30.013231 55.967305 0
M  V30 48 H 37.067354 27.155584 55.120181 0
M  V30 49 H 43.467407 30.978542 63.053523 0
M  V30 50 H 37.867407 28.433685 59.238315 0
M  V30 51 H 36.826497 28.148706 57.854712 0
M  V30 52 H 40.197912 30.616833 53.066985 0
M  V30 53 H 38.667407 31.526372 53.104488 0
M  V30 54 H 39.296194 25.122262 54.653491 0
M  V30 55 H 37.733640 25.221438 53.853502 0
M  V30 56 H 38.978612 26.438044 53.571484 0
M  V30 57 H 36.666512 26.142935 57.267892 0
M  V30 58 H 36.447549 25.071308 55.942414 0
M  V30 59 H 37.888038 29.116348 52.041317 0
M  V30 60 H 37.418975 27.895755 53.325426 0
M  V30 61 H 38.086334 33.263334 62.397824 0
M  V30 62 H 39.877310 32.736149 64.480549 0
M  V30 63 H 42.585706 28.767012 63.271115 0
M  V30 64 H 38.528972 32.197541 56.697288 0
M  V30 65 H 37.571334 32.088419 55.232836 0
M  V30 66 H 39.993446 30.767183 65.649593 0
M  V30 67 H 38.804909 30.421430 64.441993 0
M  V30 68 H 42.166389 32.945911 63.368088 0
M  V30 69 H 42.103313 32.285638 64.973936 0
M  V30 70 H 40.267402 30.094007 56.770471 0
M  V30 71 H 40.881918 29.508484 55.230419 0
M  V30 72 H 38.825844 30.221576 57.943951 0
M  V30 END ATOM
M  V30 BEGIN BOND
M  V30 1 1 5 1
M  V30 2 1 6 3
M  V30 3 1 10 1
M  V30 4 1 10 4
M  V30 5 1 12 4
M  V30 6 1 13 12
M  V30 7 1 14 3
M  V30 8 1 16 6
M  V30 9 1 16 12
M  V30 10 1 17 8
M  V30 11 1 18 14
M  V30 12 1 19 14
M  V30 13 3 20 9
M  V30 14 2 21 7
M  V30 15 1 21 11
M  V30 16 1 21 19
M  V30 17 1 25 2
M  V30 18 2 25 15
M  V30 19 1 26 8
M  V30 20 1 26 13
M  V30 21 1 27 2
M  V30 22 1 27 24
M  V30 23 1 28 3
M  V30 24 1 28 13
M  V30 25 1 29 15
M  V30 26 1 29 24
M  V30 27 1 30 8
M  V30 28 1 30 28
M  V30 29 1 31 5
M  V30 30 1 31 9 CFG=3
M  V30 31 1 31 23
M  V30 32 1 31 24
M  V30 33 1 32 17
M  V30 34 2 32 22
M  V30 35 1 28 32 CFG=3
M  V30 36 1 33 1
M  V30 37 1 34 1
M  V30 38 1 35 2
M  V30 39 1 36 2
M  V30 40 1 3 37 CFG=3
M  V30 41 1 38 4
M  V30 42 1 39 4
M  V30 43 1 40 5
M  V30 44 1 41 5
M  V30 45 1 42 6
M  V30 46 1 43 6
M  V30 47 1 8 44 CFG=3
M  V30 48 1 45 10
M  V30 49 1 46 10
M  V30 50 1 13 47 CFG=3
M  V30 51 1 14 48 CFG=3
M  V30 52 1 49 15
M  V30 53 1 50 16
M  V30 54 1 51 16
M  V30 55 1 52 17
M  V30 56 1 53 17
M  V30 57 1 54 18
M  V30 58 1 55 18
M  V30 59 1 56 18
M  V30 60 1 57 19
M  V30 61 1 58 19
M  V30 62 1 59 22
M  V30 63 1 60 22
M  V30 64 1 61 23
M  V30 65 1 24 62 CFG=1
M  V30 66 1 63 25
M  V30 67 1 64 26
M  V30 68 1 65 26
M  V30 69 1 66 27
M  V30 70 1 67 27
M  V30 71 1 68 29
M  V30 72 1 69 29
M  V30 73 1 70 30
M  V30 74 1 71 30
M  V30 75 1 12 72 CFG=1
M  V30 END BOND
M  V30 END CTAB
M  END
>  <i_epik_Tot_Q>  (1) 
0

>  <i_epik_Tot_abs_Q>  (1) 
2

>  <i_i_glide_confnum>  (1) 
785

>  <i_i_glide_lignum>  (1) 
227

>  <i_i_glide_posenum>  (1) 
89

>  <i_i_glide_rotatable_bonds>  (1) 
10

>  <i_lp_mmshare_version>  (1) 
72125

>  <i_m_source_file_index>  (1) 
89

>  <i_f3d_flags>  (1) 
0

>  <num_sample>  (1) 
100

>  <b_lp_Chiralities_Consistent>  (1) 
1

>  <r_epik_Charging_Adjusted_Penalty>  (1) 
0.0020242395650179774

>  <r_epik_Ionization_Penalty>  (1) 
0.0021859291232044671

>  <r_epik_Ionization_Penalty_Charging>  (1) 
0.0020242395650179774

>  <r_epik_Ionization_Penalty_Neutral>  (1) 
0.00016168955818648959

>  <r_epik_State_Penalty>  (1) 
-0

>  <r_glide_ring_energy>  (1) 
1.8266832637363264

>  <r_i_docking_score>  (1) 
-5.9298302607632767

>  <r_i_glide_ecoul>  (1) 
-2.2183263660774903

>  <r_i_glide_eff_state_penalty>  (1) 
-0

>  <r_i_glide_einternal>  (1) 
18.331040386335719

>  <r_i_glide_emodel>  (1) 
-37.243920599604088

>  <r_i_glide_emodel_strain>  (1) 
1.6887459214341334

>  <r_i_glide_energy>  (1) 
-31.349279613967585

>  <r_i_glide_erotb>  (1) 
0.71992511853168706

>  <r_i_glide_esite>  (1) 
-0.055351873612325811

>  <r_i_glide_evdw>  (1) 
-29.130953247890094

>  <r_i_glide_gscore>  (1) 
-5.9298302607632767

>  <r_i_glide_gscore_strain>  (1) 
0

>  <r_i_glide_hbond>  (1) 
0

>  <r_i_glide_ligand_efficiency>  (1) 
-0.1853071956488524

>  <r_i_glide_ligand_efficiency_ln>  (1) 
-1.3278506364529208

>  <r_i_glide_ligand_efficiency_sa>  (1) 
-0.58831367462053064

>  <r_i_glide_lipo>  (1) 
-3.1366890902694911

>  <r_i_glide_metal>  (1) 
-0

>  <r_i_glide_rewards>  (1) 
-1.6684177981070174

>  <r_lp_Energy>  (1) 
58.990349999999999

>  <r_lp_tautomer_probability>  (1) 
1

>  <s_epik_cmdline>  (1) 
J2VwaWtfcHl0aG9uJywgJy1waHQnLCAnMS4wJywgJy1waCcsICc3LjQnLCAnLXRuJywgJzgnLCAnLW1hJywgJzUwMCcsICctaW1hZScsICc8aW5maWxlLm1hZT4nLCAnLW9tYWUnLCAnPG91dGZpbGUubWFlPic=

>  <s_epik_input>  (1) 
W0NIMl0xW0NIXT1bQ0hdW0NIMl1bQ0gyXVtDQEBIXTFbQ0BdKEMjTikoW09IXSlbQ0gyXVtDSDJdW0NIMl1bQ0gyXU4oW0NASF0oW0NAXTIzNClbQ0gyXVtDQEBIXShbQ0gyXTMpW0NIMl1DND1bQ0gyXSlbQ0gyXVtDSDJdW0NASF0yW0NAQEhdKFtDSDNdKVtDSDJdQyg9TylbT0hd

>  <s_glide_docking_method>  (1) 
confgen

>  <s_i_glide_gridfile>  (1) 
gpcr_5ht2c_6bqh_protein_autoprepared_prepared

>  <s_lp_Force_Field>  (1) 
S-OPLS

>  <s_lp_Variant>  (1) 
DiffSBDD_88_num_sample_100-2

>  <s_m_source_file>  (1) 
generated__ligand_DiffSBDD_2026-05-06_prepared.sdf

>  <GenAI_Model>  (1) 
DiffSBDD

>  <Protein>  (1) 
GPCR_5HT2C

$$$$
DiffSBDD_21_num_sample_100
     RDKit          3D

  0  0  0  0  0  0  0  0  0  0999 V3000
M  V30 BEGIN CTAB
M  V30 COUNTS 40 40 0 0 1
M  V30 BEGIN ATOM
M  V30 1 C 38.171403 24.758446 55.940466 0
M  V30 2 C 37.774261 30.100651 54.822946 0
M  V30 3 C 38.398432 28.934908 54.032074 0 CFG=2
M  V30 4 C 40.854490 29.653410 50.554244 0
M  V30 5 N 38.912208 29.291747 52.693676 0
M  V30 6 N 39.442501 28.178625 51.952487 0
M  V30 7 C 37.810006 26.514465 54.120485 0
M  V30 8 C 39.848418 28.502654 50.587343 0
M  V30 9 C 39.810210 30.465838 52.689597 0
M  V30 10 C 38.625207 24.577873 57.396817 0
M  V30 11 N 37.368945 27.894972 53.851028 0 CHG=1
M  V30 12 C 37.947293 26.242230 55.626342 0
M  V30 13 C 40.280836 30.857360 51.284813 0
M  V30 14 C 36.906702 23.929540 55.647538 0
M  V30 15 H 38.980116 24.407482 55.299033 0
M  V30 16 H 38.520605 30.839641 55.114664 0
M  V30 17 H 36.999458 30.615278 54.254073 0
M  V30 18 H 37.317481 29.747982 55.748774 0
M  V30 19 H 39.228541 28.541849 54.620566 0
M  V30 20 H 41.105567 29.920694 49.527306 0
M  V30 21 H 41.774271 29.353120 51.053515 0
M  V30 22 H 38.764846 27.419800 51.935886 0
M  V30 23 H 37.067380 25.863277 53.667173 0
M  V30 24 H 38.749544 26.294062 53.615002 0
M  V30 25 H 40.269599 27.604875 50.140596 0
M  V30 26 H 38.964227 28.759834 50.006180 0
M  V30 27 H 39.299596 31.326703 53.119822 0
M  V30 28 H 40.666515 30.257277 53.329936 0
M  V30 29 H 37.863658 24.919518 58.098815 0
M  V30 30 H 38.835869 23.533912 57.618888 0
M  V30 31 H 39.539990 25.136975 57.597433 0
M  V30 32 H 36.596717 28.101058 54.467193 0
M  V30 33 H 38.784643 26.821239 56.017611 0
M  V30 34 H 37.067519 26.589426 56.164736 0
M  V30 35 H 39.467414 31.287953 50.703756 0
M  V30 36 H 41.044652 31.621428 51.365429 0
M  V30 37 H 36.065867 24.266036 56.253416 0
M  V30 38 H 36.601729 23.981879 54.604492 0
M  V30 39 H 37.062550 22.876143 55.853501 0
M  V30 40 H 37.043759 27.956903 52.896700 0
M  V30 END ATOM
M  V30 BEGIN BOND
M  V30 1 1 3 2
M  V30 2 1 5 3
M  V30 3 1 6 5
M  V30 4 1 8 4
M  V30 5 1 8 6
M  V30 6 1 9 5
M  V30 7 1 10 1
M  V30 8 1 11 3
M  V30 9 1 11 7
M  V30 10 1 12 1
M  V30 11 1 12 7
M  V30 12 1 13 4
M  V30 13 1 13 9
M  V30 14 1 14 1
M  V30 15 1 15 1
M  V30 16 1 16 2
M  V30 17 1 17 2
M  V30 18 1 18 2
M  V30 19 1 3 19 CFG=1
M  V30 20 1 20 4
M  V30 21 1 21 4
M  V30 22 1 22 6
M  V30 23 1 23 7
M  V30 24 1 24 7
M  V30 25 1 25 8
M  V30 26 1 26 8
M  V30 27 1 27 9
M  V30 28 1 28 9
M  V30 29 1 29 10
M  V30 30 1 30 10
M  V30 31 1 31 10
M  V30 32 1 32 11
M  V30 33 1 33 12
M  V30 34 1 34 12
M  V30 35 1 35 13
M  V30 36 1 36 13
M  V30 37 1 37 14
M  V30 38 1 38 14
M  V30 39 1 39 14
M  V30 40 1 40 11
M  V30 END BOND
M  V30 END CTAB
M  END
>  <i_epik_Tot_Q>  (1) 
1

>  <i_epik_Tot_abs_Q>  (1) 
1

>  <i_i_glide_confnum>  (1) 
6

>  <i_i_glide_lignum>  (1) 
57

>  <i_i_glide_posenum>  (1) 
372

>  <i_i_glide_rotatable_bonds>  (1) 
5

>  <i_lp_mmshare_version>  (1) 
72125

>  <i_m_source_file_index>  (1) 
22

>  <i_f3d_flags>  (1) 
0

>  <num_sample>  (1) 
100

>  <b_lp_Chiralities_Consistent>  (1) 
1

>  <r_epik_Charging_Adjusted_Penalty>  (1) 
0.0010092621186252495

>  <r_epik_Ionization_Penalty>  (1) 
0.001234333594752046

>  <r_epik_Ionization_Penalty_Charging>  (1) 
0.0010092621186252495

>  <r_epik_Ionization_Penalty_Neutral>  (1) 
0.0002250714761267966

>  <r_epik_State_Penalty>  (1) 
-0

>  <r_glide_ring_energy>  (1) 
0

>  <r_i_docking_score>  (1) 
-5.9232643480501608

>  <r_i_glide_ecoul>  (1) 
-0.94450368036934895

>  <r_i_glide_eff_state_penalty>  (1) 
-0

>  <r_i_glide_einternal>  (1) 
3.4551981434881895

>  <r_i_glide_emodel>  (1) 
-33.22269764295752

>  <r_i_glide_emodel_strain>  (1) 
0

>  <r_i_glide_energy>  (1) 
-24.4447299950032

>  <r_i_glide_erotb>  (1) 
1.2214352924196943

>  <r_i_glide_esite>  (1) 
0

>  <r_i_glide_evdw>  (1) 
-23.500226314633853

>  <r_i_glide_gscore>  (1) 
-5.9232643480501608

>  <r_i_glide_gscore_strain>  (1) 
0

>  <r_i_glide_hbond>  (1) 
0

>  <r_i_glide_ligand_efficiency>  (1) 
-0.42309031057501151

>  <r_i_glide_ligand_efficiency_ln>  (1) 
-1.627691957432394

>  <r_i_glide_ligand_efficiency_sa>  (1) 
-1.0197078390798595

>  <r_i_glide_lipo>  (1) 
-2.8934568735757074

>  <r_i_glide_metal>  (1) 
-0

>  <r_i_glide_rewards>  (1) 
-2.9345558991070533

>  <r_lp_Energy>  (1) 
8.4597719999999992

>  <r_lp_tautomer_probability>  (1) 
1

>  <s_epik_Chemistry_Notes>  (1) 
This compound contains an acetal/aminal-like group ( X-CH(R)-Y where X, Y are N, S, or O) that may be acid/base labile, releasing an aldehyde.

>  <s_epik_cmdline>  (1) 
J2VwaWtfcHl0aG9uJywgJy1waHQnLCAnMS4wJywgJy1waCcsICc3LjQnLCAnLXRuJywgJzgnLCAnLW1hJywgJzUwMCcsICctaW1hZScsICc8aW5maWxlLm1hZT4nLCAnLW9tYWUnLCAnPG91dGZpbGUubWFlPic=

>  <s_epik_input>  (1) 
W0NIM11bQ0hdKFtDSDNdKVtDSDJdW0NIMl1bTkhdW0NASF0oW0NIM10pTjFbTkhdW0NIMl1bQ0gyXVtDSDJdW0NIMl0x

>  <s_glide_docking_method>  (1) 
confgen

>  <s_i_glide_gridfile>  (1) 
gpcr_5ht2c_6bqh_protein_autoprepared_prepared

>  <s_lp_Force_Field>  (1) 
S-OPLS

>  <s_lp_Variant>  (1) 
DiffSBDD_21_num_sample_100-1

>  <s_m_source_file>  (1) 
generated__ligand_DiffSBDD_2026-05-06_prepared.sdf

>  <GenAI_Model>  (1) 
DiffSBDD

>  <Protein>  (1) 
GPCR_5HT2C

$$$$
DiffSBDD_99_num_sample_100
     RDKit          3D

  0  0  0  0  0  0  0  0  0  0999 V3000
M  V30 BEGIN CTAB
M  V30 COUNTS 90 93 0 0 1
M  V30 BEGIN ATOM
M  V30 1 C 40.934379 28.670141 65.798181 0
M  V30 2 C 41.408727 31.079421 65.145776 0 CFG=1
M  V30 3 C 40.035661 26.460767 55.768399 0
M  V30 4 C 37.067311 29.279487 57.417509 0
M  V30 5 O 39.096782 26.021194 58.653255 0 CHG=-1
M  V30 6 O 42.506661 26.807295 68.416695 0
M  V30 7 O 42.471020 29.639381 63.453544 0
M  V30 8 C 39.474475 32.617604 60.086415 0
M  V30 9 O 41.474739 31.406454 68.251657 0
M  V30 10 C 41.930717 30.265003 67.541039 0 CFG=1
M  V30 11 C 37.710046 30.753474 60.067746 0
M  V30 12 C 41.954098 27.733292 67.822967 0
M  V30 13 C 38.810393 31.028251 57.338225 0
M  V30 14 C 41.378060 27.584059 66.467926 0
M  V30 15 O 39.467831 25.378448 55.054377 0
M  V30 16 C 38.387861 26.284006 57.663226 0
M  V30 17 C 42.188205 32.615972 68.041931 0
M  V30 18 C 40.769439 33.003998 62.209839 0 CFG=2
M  V30 19 C 38.112731 32.160484 59.566661 0 CFG=2
M  V30 20 C 42.542466 32.929623 66.578323 0
M  V30 21 C 39.525523 28.594051 57.180201 0 CFG=2
M  V30 22 C 41.318193 26.170446 65.912708 0
M  V30 23 C 40.707319 33.745539 63.539619 0 CFG=2
M  V30 24 C 40.858307 28.461116 57.956429 0
M  V30 25 C 38.095342 32.201435 58.036000 0
M  V30 26 C 39.535286 35.737690 62.465900 0
M  V30 27 C 38.537164 29.608199 59.423894 0
M  V30 28 O 37.235404 25.845820 57.452207 0
M  V30 29 C 40.690656 35.276699 63.367962 0
M  V30 30 C 41.824420 29.090417 68.511286 0
M  V30 31 C 41.447236 32.584743 65.551177 0 CFG=1
M  V30 32 C 39.484686 34.949862 61.145995 0
M  V30 33 O 41.769317 33.392234 64.416855 0
M  V30 34 C 42.120734 33.142861 61.488190 0
M  V30 35 C 39.524875 33.420105 61.381450 0 CFG=1
M  V30 36 C 42.705716 30.658443 64.400337 0
M  V30 37 C 38.495257 29.600591 57.863022 0 CFG=2
M  V30 38 C 41.015578 30.111088 66.305625 0 CFG=2
M  V30 39 C 38.984016 27.227041 56.606546 0 CFG=1
M  V30 40 H 40.502379 28.538697 64.816918 0
M  V30 41 H 40.594665 31.003519 64.426012 0
M  V30 42 H 40.519982 27.125991 55.056614 0
M  V30 43 H 40.818046 26.062921 56.414655 0
M  V30 44 H 37.062063 29.225873 56.331590 0
M  V30 45 H 36.695739 28.352373 57.843050 0
M  V30 46 H 36.330795 30.021605 57.709550 0
M  V30 47 H 42.328294 28.824495 63.912238 0
M  V30 48 H 39.966369 33.221674 59.329523 0
M  V30 49 H 40.082810 31.733461 60.253028 0
M  V30 50 H 42.981586 30.354251 67.265233 0
M  V30 51 H 37.802369 30.713523 61.152804 0
M  V30 52 H 36.652403 30.600454 59.859261 0
M  V30 53 H 39.867297 31.195178 57.402441 0
M  V30 54 H 38.592140 31.083728 56.269971 0
M  V30 55 H 40.127511 24.714027 54.945223 0
M  V30 56 H 41.574731 33.419996 68.449175 0
M  V30 57 H 43.099722 32.592071 68.639267 0
M  V30 58 H 40.662592 31.943691 62.434364 0
M  V30 59 H 37.368483 32.882044 59.909856 0
M  V30 60 H 42.751367 33.999580 66.526795 0
M  V30 61 H 43.481336 32.449642 66.306021 0
M  V30 62 H 39.823096 29.097945 56.259110 0
M  V30 63 H 40.753540 25.518350 66.581022 0
M  V30 64 H 40.836820 26.150126 64.934109 0
M  V30 65 H 42.324188 25.763053 65.803245 0
M  V30 66 H 39.755014 33.401134 63.899593 0
M  V30 67 H 40.752512 27.870140 58.862958 0
M  V30 68 H 41.638410 27.998397 57.355471 0
M  V30 69 H 41.241607 29.433443 58.257473 0
M  V30 70 H 37.068090 32.216701 57.744261 0
M  V30 71 H 38.487708 33.147540 57.657603 0
M  V30 72 H 38.593027 35.621166 62.996925 0
M  V30 73 H 39.632949 36.804271 62.260183 0
M  V30 74 H 39.558477 29.695585 59.784435 0
M  V30 75 H 38.185212 28.651103 59.805952 0
M  V30 76 H 40.604290 35.755023 64.344296 0
M  V30 77 H 41.641861 35.611742 62.952945 0
M  V30 78 H 40.852301 29.112940 69.004697 0
M  V30 79 H 42.578953 29.176009 69.294332 0
M  V30 80 H 40.484706 32.896307 65.958937 0
M  V30 81 H 38.583244 35.222147 60.596938 0
M  V30 82 H 40.320524 35.257764 60.516086 0
M  V30 83 H 42.267403 34.142619 61.081526 0
M  V30 84 H 42.949372 32.931900 62.157454 0
M  V30 85 H 42.206193 32.420851 60.678964 0
M  V30 86 H 38.638528 33.155390 61.961731 0
M  V30 87 H 43.497363 30.346918 65.081821 0
M  V30 88 H 43.106560 31.493917 63.835795 0
M  V30 89 H 39.995931 30.354553 66.611859 0
M  V30 90 H 38.186183 27.450725 55.900803 0
M  V30 END ATOM
M  V30 BEGIN BOND
M  V30 1 1 10 9
M  V30 2 2 12 6
M  V30 3 2 14 1
M  V30 4 1 14 12
M  V30 5 1 15 3
M  V30 6 1 16 5
M  V30 7 1 17 9
M  V30 8 1 19 8
M  V30 9 1 19 11
M  V30 10 1 20 17
M  V30 11 1 22 14
M  V30 12 1 23 18
M  V30 13 1 24 21
M  V30 14 1 25 13
M  V30 15 1 25 19
M  V30 16 1 27 11
M  V30 17 2 28 16
M  V30 18 1 29 23
M  V30 19 1 29 26
M  V30 20 1 30 10
M  V30 21 1 30 12
M  V30 22 1 31 2
M  V30 23 1 31 20
M  V30 24 1 32 26
M  V30 25 1 33 23
M  V30 26 1 33 31
M  V30 27 1 34 18
M  V30 28 1 35 8
M  V30 29 1 35 18
M  V30 30 1 35 32
M  V30 31 1 36 2
M  V30 32 1 36 7
M  V30 33 1 37 4 CFG=1
M  V30 34 1 37 13
M  V30 35 1 37 21
M  V30 36 1 37 27
M  V30 37 1 38 1
M  V30 38 1 38 2
M  V30 39 1 38 10
M  V30 40 1 39 3
M  V30 41 1 39 16
M  V30 42 1 39 21
M  V30 43 1 40 1
M  V30 44 1 2 41 CFG=3
M  V30 45 1 42 3
M  V30 46 1 43 3
M  V30 47 1 44 4
M  V30 48 1 45 4
M  V30 49 1 46 4
M  V30 50 1 47 7
M  V30 51 1 48 8
M  V30 52 1 49 8
M  V30 53 1 10 50 CFG=3
M  V30 54 1 51 11
M  V30 55 1 52 11
M  V30 56 1 53 13
M  V30 57 1 54 13
M  V30 58 1 55 15
M  V30 59 1 56 17
M  V30 60 1 57 17
M  V30 61 1 18 58 CFG=1
M  V30 62 1 19 59 CFG=1
M  V30 63 1 60 20
M  V30 64 1 61 20
M  V30 65 1 21 62 CFG=3
M  V30 66 1 63 22
M  V30 67 1 64 22
M  V30 68 1 65 22
M  V30 69 1 23 66 CFG=1
M  V30 70 1 67 24
M  V30 71 1 68 24
M  V30 72 1 69 24
M  V30 73 1 70 25
M  V30 74 1 71 25
M  V30 75 1 72 26
M  V30 76 1 73 26
M  V30 77 1 74 27
M  V30 78 1 75 27
M  V30 79 1 76 29
M  V30 80 1 77 29
M  V30 81 1 78 30
M  V30 82 1 79 30
M  V30 83 1 31 80 CFG=1
M  V30 84 1 81 32
M  V30 85 1 82 32
M  V30 86 1 83 34
M  V30 87 1 84 34
M  V30 88 1 85 34
M  V30 89 1 35 86 CFG=1
M  V30 90 1 87 36
M  V30 91 1 88 36
M  V30 92 1 38 89 CFG=1
M  V30 93 1 39 90 CFG=3
M  V30 END BOND
M  V30 END CTAB
M  END
>  <i_epik_Tot_Q>  (1) 
-1

>  <i_epik_Tot_abs_Q>  (1) 
1

>  <i_i_glide_confnum>  (1) 
427

>  <i_i_glide_lignum>  (1) 
271

>  <i_i_glide_posenum>  (1) 
284

>  <i_i_glide_rotatable_bonds>  (1) 
11

>  <i_lp_mmshare_version>  (1) 
72125

>  <i_m_source_file_index>  (1) 
100

>  <i_f3d_flags>  (1) 
0

>  <num_sample>  (1) 
100

>  <b_lp_Chiralities_Consistent>  (1) 
1

>  <r_epik_Charging_Adjusted_Penalty>  (1) 
0.00057086010642688853

>  <r_epik_Ionization_Penalty>  (1) 
0.00057120619039141747

>  <r_epik_Ionization_Penalty_Charging>  (1) 
0.00057086010642688853

>  <r_epik_Ionization_Penalty_Neutral>  (1) 
3.4608396452890624e-07

>  <r_epik_State_Penalty>  (1) 
-0

>  <r_glide_ring_energy>  (1) 
1.9990264318667856

>  <r_i_docking_score>  (1) 
-5.9206520004311436

>  <r_i_glide_ecoul>  (1) 
-3.2488320194249516

>  <r_i_glide_eff_state_penalty>  (1) 
-0

>  <r_i_glide_einternal>  (1) 
10.72437055262764

>  <r_i_glide_emodel>  (1) 
-33.039843891834117

>  <r_i_glide_emodel_strain>  (1) 
2.2265958717298915

>  <r_i_glide_energy>  (1) 
-36.95873800760198

>  <r_i_glide_erotb>  (1) 
0.55239913660624596

>  <r_i_glide_esite>  (1) 
-0.023429730599558482

>  <r_i_glide_evdw>  (1) 
-33.709905988177027

>  <r_i_glide_gscore>  (1) 
-5.9206520004311436

>  <r_i_glide_gscore_strain>  (1) 
0

>  <r_i_glide_hbond>  (1) 
-0.036408082134334226

>  <r_i_glide_ligand_efficiency>  (1) 
-0.1518115897546447

>  <r_i_glide_ligand_efficiency_ln>  (1) 
-1.2695558565940206

>  <r_i_glide_ligand_efficiency_sa>  (1) 
-0.5148252003581234

>  <r_i_glide_lipo>  (1) 
-3.5038714364438239

>  <r_i_glide_metal>  (1) 
-0

>  <r_i_glide_rewards>  (1) 
-0.73652178553707937

>  <r_lp_Energy>  (1) 
48.540740999999997

>  <r_lp_tautomer_probability>  (1) 
1

>  <s_epik_cmdline>  (1) 
J2VwaWtfcHl0aG9uJywgJy1waHQnLCAnMS4wJywgJy1waCcsICc3LjQnLCAnLXRuJywgJzgnLCAnLW1hJywgJzUwMCcsICctaW1hZScsICc8aW5maWxlLm1hZT4nLCAnLW9tYWUnLCAnPG91dGZpbGUubWFlPic=

>  <s_epik_input>  (1) 
Tz1DKFtDSDJdMSlDKFtDSDNdKT1bQ0hdW0NAQEhdKFtDQEhdMTIpW0NASF0oW0NIMl1bT0hdKVtDQEBIXShbQ0gyXVtDSDJdTzIpT1tDQEhdKFtDQEBIXTNbQ0gzXSlbQ0gyXVtDSDJdW0NIMl1bQ0BIXTNbQ0gyXVtDQEhdKFtDSDJdW0NIMl00KVtDSDJdW0NIMl1bQ0BAXTQoW0NIM10pW0NAQEhdKFtDSDNdKVtDQEBIXShbQ0gyXVtPSF0pQyg9TylbT0hd

>  <s_glide_docking_method>  (1) 
confgen

>  <s_i_glide_gridfile>  (1) 
gpcr_5ht2c_6bqh_protein_autoprepared_prepared

>  <s_lp_Force_Field>  (1) 
S-OPLS

>  <s_lp_Variant>  (1) 
DiffSBDD_99_num_sample_100-1

>  <s_m_source_file>  (1) 
generated__ligand_DiffSBDD_2026-05-06_prepared.sdf

>  <GenAI_Model>  (1) 
DiffSBDD

>  <Protein>  (1) 
GPCR_5HT2C

$$$$
DiffSBDD_1_num_sample_100
     RDKit          3D

  0  0  0  0  0  0  0  0  0  0999 V3000
M  V30 BEGIN CTAB
M  V30 COUNTS 63 66 0 0 1
M  V30 BEGIN ATOM
M  V30 1 C 39.182122 26.605145 57.243696 0
M  V30 2 C 37.938092 35.230312 61.459421 0
M  V30 3 O 39.468406 24.821417 55.926626 0
M  V30 4 C 36.452113 33.327778 60.619141 0 CFG=1
M  V30 5 C 39.583002 27.879459 57.881031 0
M  V30 6 C 37.274741 31.002447 60.772137 0
M  V30 7 C 40.553882 33.789537 62.646236 0
M  V30 8 C 37.651856 37.533038 61.344056 0
M  V30 9 N 38.887862 37.246921 62.120691 0 CHG=1
M  V30 10 C 38.235288 32.206770 57.364652 0
M  V30 11 C 38.539121 28.617159 58.732358 0
M  V30 12 C 40.436886 35.286430 62.297377 0 CFG=2
M  V30 13 C 38.984566 35.798001 62.401301 0 CFG=2
M  V30 14 C 37.485832 30.928933 59.257628 0 CFG=2
M  V30 15 C 38.801089 30.777021 57.266399 0
M  V30 16 C 39.957863 25.959692 56.438191 0
M  V30 17 N 36.191587 31.956440 61.094077 0
M  V30 18 C 37.556282 33.934076 61.480896 0
M  V30 19 O 40.706944 28.366137 57.749301 0
M  V30 20 C 41.068150 35.620971 60.941602 0
M  V30 21 C 38.136822 24.756232 56.574271 0
M  V30 22 C 36.673135 33.298829 59.088088 0
M  V30 23 C 37.331484 36.259773 60.553935 0
M  V30 24 N 37.706392 32.296058 58.737733 0 CFG=2 CHG=1
M  V30 25 O 36.293036 30.421428 58.653743 0
M  V30 26 C 37.865016 26.027511 57.514842 0
M  V30 27 C 38.680964 30.156385 58.686265 0 CFG=2
M  V30 28 O 41.867406 33.468855 63.028167 0
M  V30 29 H 35.562204 33.928886 60.811984 0
M  V30 30 H 38.201664 31.260197 61.285258 0
M  V30 31 H 36.993881 30.021427 61.106011 0
M  V30 32 H 40.271943 33.163015 61.800378 0
M  V30 33 H 39.899058 33.537313 63.480803 0
M  V30 34 H 37.773941 38.405590 60.700092 0
M  V30 35 H 36.843157 37.748535 62.043688 0
M  V30 36 H 38.929584 37.780204 62.978217 0
M  V30 37 H 39.008746 32.960753 57.218838 0
M  V30 38 H 37.467418 32.373207 56.611172 0
M  V30 39 H 38.610300 28.264194 59.761083 0
M  V30 40 H 37.545195 28.350593 58.380908 0
M  V30 41 H 41.005471 35.830685 63.054978 0
M  V30 42 H 38.652508 35.652500 63.427329 0
M  V30 43 H 39.826318 30.770556 56.894257 0
M  V30 44 H 38.197165 30.209162 56.556361 0
M  V30 45 H 40.956511 26.214102 56.112353 0
M  V30 46 H 35.351385 31.622057 60.625352 0
M  V30 47 H 38.024607 33.264654 62.183702 0
M  V30 48 H 40.476945 35.221153 60.118171 0
M  V30 49 H 41.162476 36.696358 60.807983 0
M  V30 50 H 42.075406 35.221292 60.860372 0
M  V30 51 H 37.369471 24.675899 55.803498 0
M  V30 52 H 38.083237 23.842532 57.167226 0
M  V30 53 H 35.711154 33.054666 58.653517 0
M  V30 54 H 36.956862 34.274606 58.695821 0
M  V30 55 H 37.859856 36.267327 59.600669 0
M  V30 56 H 36.267015 36.125257 60.372376 0
M  V30 57 H 35.949432 31.027015 57.977421 0
M  V30 58 H 37.762443 25.756110 58.563692 0
M  V30 59 H 37.039176 26.642059 57.157867 0
M  V30 60 H 39.566012 30.421599 59.263198 0
M  V30 61 H 41.885401 32.590560 63.378643 0
M  V30 62 H 39.680107 37.491395 61.543690 0
M  V30 63 H 38.506790 32.602106 59.269448 0
M  V30 END ATOM
M  V30 BEGIN BOND
M  V30 1 1 5 1
M  V30 2 1 9 8
M  V30 3 1 11 5
M  V30 4 1 12 7
M  V30 5 1 13 2
M  V30 6 1 13 9
M  V30 7 1 13 12
M  V30 8 1 14 6
M  V30 9 1 15 10
M  V30 10 2 16 1
M  V30 11 1 16 3
M  V30 12 1 17 4
M  V30 13 1 17 6
M  V30 14 2 18 2
M  V30 15 1 18 4
M  V30 16 2 19 5
M  V30 17 1 20 12
M  V30 18 1 21 3
M  V30 19 1 22 4
M  V30 20 1 23 2
M  V30 21 1 23 8
M  V30 22 1 24 10
M  V30 23 1 24 14
M  V30 24 1 24 22
M  V30 25 1 14 25 CFG=3
M  V30 26 1 26 1
M  V30 27 1 26 21
M  V30 28 1 27 11
M  V30 29 1 27 14
M  V30 30 1 27 15
M  V30 31 1 28 7
M  V30 32 1 4 29 CFG=3
M  V30 33 1 30 6
M  V30 34 1 31 6
M  V30 35 1 32 7
M  V30 36 1 33 7
M  V30 37 1 34 8
M  V30 38 1 35 8
M  V30 39 1 36 9
M  V30 40 1 37 10
M  V30 41 1 38 10
M  V30 42 1 39 11
M  V30 43 1 40 11
M  V30 44 1 12 41 CFG=1
M  V30 45 1 13 42 CFG=1
M  V30 46 1 43 15
M  V30 47 1 44 15
M  V30 48 1 45 16
M  V30 49 1 46 17
M  V30 50 1 47 18
M  V30 51 1 48 20
M  V30 52 1 49 20
M  V30 53 1 50 20
M  V30 54 1 51 21
M  V30 55 1 52 21
M  V30 56 1 53 22
M  V30 57 1 54 22
M  V30 58 1 55 23
M  V30 59 1 56 23
M  V30 60 1 57 25
M  V30 61 1 58 26
M  V30 62 1 59 26
M  V30 63 1 27 60 CFG=1
M  V30 64 1 61 28
M  V30 65 1 62 9
M  V30 66 1 24 63 CFG=1
M  V30 END BOND
M  V30 END CTAB
M  END
>  <i_epik_Tot_Q>  (1) 
2

>  <i_epik_Tot_abs_Q>  (1) 
2

>  <i_i_glide_confnum>  (1) 
218

>  <i_i_glide_lignum>  (1) 
15

>  <i_i_glide_posenum>  (1) 
148

>  <i_i_glide_rotatable_bonds>  (1) 
8

>  <i_lp_mmshare_version>  (1) 
72125

>  <i_m_source_file_index>  (1) 
2

>  <i_f3d_flags>  (1) 
0

>  <num_sample>  (1) 
100

>  <b_lp_Chiralities_Consistent>  (1) 
1

>  <r_epik_Charging_Adjusted_Penalty>  (1) 
2.3622130296898831

>  <r_epik_Ionization_Penalty>  (1) 
1.4312966064593899

>  <r_epik_Ionization_Penalty_Charging>  (1) 
1.1852885594971458

>  <r_epik_Ionization_Penalty_Neutral>  (1) 
0.24600804696224418

>  <r_epik_State_Penalty>  (1) 
1.176924470192737

>  <r_glide_ring_energy>  (1) 
0

>  <r_i_docking_score>  (1) 
-5.9205423853880168

>  <r_i_glide_ecoul>  (1) 
-9.588660781800213

>  <r_i_glide_eff_state_penalty>  (1) 
1.176924470192737

>  <r_i_glide_einternal>  (1) 
10.913914085445393

>  <r_i_glide_emodel>  (1) 
-49.492373012487228

>  <r_i_glide_emodel_strain>  (1) 
0.80725048866104032

>  <r_i_glide_energy>  (1) 
-37.582926315164443

>  <r_i_glide_erotb>  (1) 
0.75687532201182384

>  <r_i_glide_esite>  (1) 
-0.14145588819768304

>  <r_i_glide_evdw>  (1) 
-27.994265533364231

>  <r_i_glide_gscore>  (1) 
-7.0974668555807536

>  <r_i_glide_gscore_strain>  (1) 
0

>  <r_i_glide_hbond>  (1) 
-0.24877611550163706

>  <r_i_glide_ligand_efficiency>  (1) 
-0.21144794233528633

>  <r_i_glide_ligand_efficiency_ln>  (1) 
-1.3666350172255779

>  <r_i_glide_ligand_efficiency_sa>  (1) 
-0.64208048982113153

>  <r_i_glide_lipo>  (1) 
-2.8293289483502391

>  <r_i_glide_metal>  (1) 
-0

>  <r_i_glide_rewards>  (1) 
-1.7967688316047759

>  <r_lp_Energy>  (1) 
19.420013000000001

>  <s_epik_cmdline>  (1) 
J2VwaWtfcHl0aG9uJywgJy1waHQnLCAnMS4wJywgJy1waCcsICc3LjQnLCAnLXRuJywgJzgnLCAnLW1hJywgJzUwMCcsICctaW1hZScsICc8aW5maWxlLm1hZT4nLCAnLW9tYWUnLCAnPG91dGZpbGUubWFlPic=

>  <s_epik_input>  (1) 
W0NIMl0xW0NIMl1PW0NIXT1DMUMoPU8pW0NIMl1bQ0BIXTJbQ0gyXVtDSDJdTihbQ0BAXTIzW09IXSlbQ0gyXVtDQEBIXShbTkhdW0NIMl0zKVxbQ0hdPUM0XFtDQEBIXShbTkhdW0NIMl1bQ0gyXTQpW0NASF0oW0NIM10pW0NIMl1bT0hd

>  <s_glide_docking_method>  (1) 
confgen

>  <s_i_glide_gridfile>  (1) 
gpcr_5ht2c_6bqh_protein_autoprepared_prepared

>  <s_lp_Force_Field>  (1) 
S-OPLS

>  <s_lp_Variant>  (1) 
DiffSBDD_1_num_sample_100-9

>  <s_m_source_file>  (1) 
generated__ligand_DiffSBDD_2026-05-06_prepared.sdf

>  <GenAI_Model>  (1) 
DiffSBDD

>  <Protein>  (1) 
GPCR_5HT2C

$$$$
DiffSBDD_1_num_sample_100
     RDKit          3D

  0  0  0  0  0  0  0  0  0  0999 V3000
M  V30 BEGIN CTAB
M  V30 COUNTS 63 66 0 0 1
M  V30 BEGIN ATOM
M  V30 1 C 38.769435 26.941278 57.544879 0
M  V30 2 C 39.571993 34.811543 62.259395 0
M  V30 3 O 39.428418 24.810412 57.341690 0
M  V30 4 C 37.653047 33.456817 61.276114 0 CFG=1
M  V30 5 C 38.642176 28.245241 58.242365 0
M  V30 6 C 38.016220 31.099889 60.570114 0
M  V30 7 C 42.218737 32.832044 63.504048 0
M  V30 8 C 39.836938 37.094407 62.478577 0
M  V30 9 N 41.063127 36.421673 62.971049 0 CHG=1
M  V30 10 C 37.958495 33.184960 57.449050 0
M  V30 11 C 37.905307 29.384805 57.519091 0
M  V30 12 C 41.409919 34.088990 63.911488 0 CFG=2
M  V30 13 C 41.014758 34.970053 62.679957 0 CFG=1
M  V30 14 C 37.682880 31.490410 59.119422 0 CFG=2
M  V30 15 C 38.266885 31.831998 56.783473 0
M  V30 16 C 39.377241 25.932108 58.076092 0
M  V30 17 N 37.314180 32.032325 61.489490 0
M  V30 18 C 39.099329 33.682848 61.697946 0
M  V30 19 O 39.102041 28.443663 59.367639 0
M  V30 20 C 42.168653 34.863056 65.016449 0
M  V30 21 C 38.720929 25.237267 56.109841 0
M  V30 22 C 37.356466 33.868213 59.814921 0
M  V30 23 C 38.734391 36.036753 62.500510 0
M  V30 24 N 38.015274 32.916842 58.896739 0 CFG=2 CHG=1
M  V30 25 O 36.267488 31.430405 59.053536 0
M  V30 26 C 38.201432 26.756389 56.205584 0
M  V30 27 C 38.381054 30.799464 57.928010 0 CFG=2
M  V30 28 O 41.414826 31.823363 62.935320 0
M  V30 29 H 37.008394 34.069797 61.901056 0
M  V30 30 H 39.092561 31.090595 60.734715 0
M  V30 31 H 37.679421 30.081041 60.758551 0
M  V30 32 H 42.690021 32.384290 64.378938 0
M  V30 33 H 43.009831 33.082130 62.794591 0
M  V30 34 H 40.013382 37.425950 61.454549 0
M  V30 35 H 39.598577 37.971371 63.080348 0
M  V30 36 H 41.100458 36.550542 63.974763 0
M  V30 37 H 38.667422 33.956470 57.160297 0
M  V30 38 H 36.972477 33.549824 57.171135 0
M  V30 39 H 36.830176 29.277952 57.670062 0
M  V30 40 H 38.079571 29.279967 56.449638 0
M  V30 41 H 40.497080 33.740583 64.395756 0
M  V30 42 H 41.651985 34.770439 61.818184 0
M  V30 43 H 39.189163 31.875317 56.202413 0
M  V30 44 H 37.467275 31.570659 56.089340 0
M  V30 45 H 39.857010 25.867101 59.039302 0
M  V30 46 H 36.327405 31.933585 61.257984 0
M  V30 47 H 39.773367 32.863186 61.540584 0
M  V30 48 H 43.067199 35.351592 64.642337 0
M  V30 49 H 41.541835 35.628990 65.475109 0
M  V30 50 H 42.472167 34.199058 65.826780 0
M  V30 51 H 39.402974 25.124664 55.266005 0
M  V30 52 H 37.884808 24.561466 55.926397 0
M  V30 53 H 36.281320 33.904993 59.630399 0
M  V30 54 H 37.731209 34.873936 59.623799 0
M  V30 55 H 37.969301 36.209049 61.742454 0
M  V30 56 H 38.269659 36.021230 63.485782 0
M  V30 57 H 35.947348 31.618960 58.144800 0
M  V30 58 H 37.114064 26.821073 56.202555 0
M  V30 59 H 38.651865 27.397440 55.446857 0
M  V30 60 H 39.443860 30.746074 58.165426 0
M  V30 61 H 40.884602 31.433792 63.617029 0
M  V30 62 H 41.888859 36.849159 62.577374 0
M  V30 63 H 38.995109 32.969848 59.128556 0
M  V30 END ATOM
M  V30 BEGIN BOND
M  V30 1 1 5 1
M  V30 2 1 9 8
M  V30 3 1 11 5
M  V30 4 1 12 7
M  V30 5 1 13 2
M  V30 6 1 13 9
M  V30 7 1 13 12
M  V30 8 1 14 6
M  V30 9 1 15 10
M  V30 10 2 16 1
M  V30 11 1 16 3
M  V30 12 1 17 4
M  V30 13 1 17 6
M  V30 14 2 18 2
M  V30 15 1 18 4
M  V30 16 2 19 5
M  V30 17 1 20 12
M  V30 18 1 21 3
M  V30 19 1 22 4
M  V30 20 1 23 2
M  V30 21 1 23 8
M  V30 22 1 24 10
M  V30 23 1 24 14
M  V30 24 1 24 22
M  V30 25 1 14 25 CFG=3
M  V30 26 1 26 1
M  V30 27 1 26 21
M  V30 28 1 27 11
M  V30 29 1 27 14
M  V30 30 1 27 15
M  V30 31 1 28 7
M  V30 32 1 4 29 CFG=1
M  V30 33 1 30 6
M  V30 34 1 31 6
M  V30 35 1 32 7
M  V30 36 1 33 7
M  V30 37 1 34 8
M  V30 38 1 35 8
M  V30 39 1 36 9
M  V30 40 1 37 10
M  V30 41 1 38 10
M  V30 42 1 39 11
M  V30 43 1 40 11
M  V30 44 1 12 41 CFG=1
M  V30 45 1 13 42 CFG=3
M  V30 46 1 43 15
M  V30 47 1 44 15
M  V30 48 1 45 16
M  V30 49 1 46 17
M  V30 50 1 47 18
M  V30 51 1 48 20
M  V30 52 1 49 20
M  V30 53 1 50 20
M  V30 54 1 51 21
M  V30 55 1 52 21
M  V30 56 1 53 22
M  V30 57 1 54 22
M  V30 58 1 55 23
M  V30 59 1 56 23
M  V30 60 1 57 25
M  V30 61 1 58 26
M  V30 62 1 59 26
M  V30 63 1 27 60 CFG=1
M  V30 64 1 61 28
M  V30 65 1 62 9
M  V30 66 1 24 63 CFG=1
M  V30 END BOND
M  V30 END CTAB
M  END
>  <i_epik_Tot_Q>  (1) 
2

>  <i_epik_Tot_abs_Q>  (1) 
2

>  <i_i_glide_confnum>  (1) 
221

>  <i_i_glide_lignum>  (1) 
11

>  <i_i_glide_posenum>  (1) 
382

>  <i_i_glide_rotatable_bonds>  (1) 
8

>  <i_lp_mmshare_version>  (1) 
72125

>  <i_m_source_file_index>  (1) 
2

>  <i_f3d_flags>  (1) 
0

>  <num_sample>  (1) 
100

>  <b_lp_Chiralities_Consistent>  (1) 
1

>  <r_epik_Charging_Adjusted_Penalty>  (1) 
2.3622130296898831

>  <r_epik_Ionization_Penalty>  (1) 
1.4312966064593899

>  <r_epik_Ionization_Penalty_Charging>  (1) 
1.1852885594971458

>  <r_epik_Ionization_Penalty_Neutral>  (1) 
0.24600804696224418

>  <r_epik_State_Penalty>  (1) 
1.176924470192737

>  <r_glide_ring_energy>  (1) 
0

>  <r_i_docking_score>  (1) 
-5.9182927305003776

>  <r_i_glide_ecoul>  (1) 
-13.131738158874246

>  <r_i_glide_eff_state_penalty>  (1) 
1.176924470192737

>  <r_i_glide_einternal>  (1) 
11.725628160930411

>  <r_i_glide_emodel>  (1) 
-52.942171305473053

>  <r_i_glide_emodel_strain>  (1) 
2.0678518457455368

>  <r_i_glide_energy>  (1) 
-40.211779618541428

>  <r_i_glide_erotb>  (1) 
0.75687532201182384

>  <r_i_glide_esite>  (1) 
-0.10523092427533598

>  <r_i_glide_evdw>  (1) 
-27.080041459667182

>  <r_i_glide_gscore>  (1) 
-7.0952172006931145

>  <r_i_glide_gscore_strain>  (1) 
0

>  <r_i_glide_hbond>  (1) 
-0.16004171557252725

>  <r_i_glide_ligand_efficiency>  (1) 
-0.21136759751787063

>  <r_i_glide_ligand_efficiency_ln>  (1) 
-1.3661157308247731

>  <r_i_glide_ligand_efficiency_sa>  (1) 
-0.64183651563461974

>  <r_i_glide_lipo>  (1) 
-2.8690390439736682

>  <r_i_glide_metal>  (1) 
-0

>  <r_i_glide_rewards>  (1) 
-1.3940180420689117

>  <r_lp_Energy>  (1) 
17.137563

>  <s_epik_cmdline>  (1) 
J2VwaWtfcHl0aG9uJywgJy1waHQnLCAnMS4wJywgJy1waCcsICc3LjQnLCAnLXRuJywgJzgnLCAnLW1hJywgJzUwMCcsICctaW1hZScsICc8aW5maWxlLm1hZT4nLCAnLW9tYWUnLCAnPG91dGZpbGUubWFlPic=

>  <s_epik_input>  (1) 
W0NIMl0xW0NIMl1PW0NIXT1DMUMoPU8pW0NIMl1bQ0BIXTJbQ0gyXVtDSDJdTihbQ0BAXTIzW09IXSlbQ0gyXVtDQEBIXShbTkhdW0NIMl0zKVxbQ0hdPUM0XFtDQEBIXShbTkhdW0NIMl1bQ0gyXTQpW0NASF0oW0NIM10pW0NIMl1bT0hd

>  <s_glide_docking_method>  (1) 
confgen

>  <s_i_glide_gridfile>  (1) 
gpcr_5ht2c_6bqh_protein_autoprepared_prepared

>  <s_lp_Force_Field>  (1) 
S-OPLS

>  <s_lp_Variant>  (1) 
DiffSBDD_1_num_sample_100-5

>  <s_m_source_file>  (1) 
generated__ligand_DiffSBDD_2026-05-06_prepared.sdf

>  <GenAI_Model>  (1) 
DiffSBDD

>  <Protein>  (1) 
GPCR_5HT2C

$$$$
DiffSBDD_88_num_sample_100
     RDKit          3D

  0  0  0  0  0  0  0  0  0  0999 V3000
M  V30 BEGIN CTAB
M  V30 COUNTS 72 75 0 0 1
M  V30 BEGIN ATOM
M  V30 1 C 37.054938 30.067201 55.009378 0
M  V30 2 C 40.008077 28.312201 50.360364 0
M  V30 3 C 38.011336 31.366321 61.234644 0 CFG=1
M  V30 4 C 37.907562 31.380407 57.045126 0
M  V30 5 C 38.207905 30.444583 54.089384 0
M  V30 6 C 36.657270 30.881548 60.629595 0
M  V30 7 O 41.067413 28.063169 59.835614 0
M  V30 8 C 37.742026 34.895364 59.903242 0 CFG=1
M  V30 9 C 39.067598 28.120023 54.158651 0
M  V30 10 C 37.449302 30.013002 56.483701 0
M  V30 11 O 40.266914 29.221581 58.116663 0 CHG=-1
M  V30 12 N 37.775305 31.498434 58.515042 0 CFG=1 CHG=1
M  V30 13 C 38.397415 32.714657 59.082337 0 CFG=1
M  V30 14 C 39.199995 30.348641 61.006540 0 CFG=1
M  V30 15 C 39.884023 30.821436 50.213525 0
M  V30 16 C 36.452875 31.229795 59.144802 0
M  V30 17 C 39.144725 35.119454 60.552010 0
M  V30 18 C 39.808899 29.847078 62.327159 0
M  V30 19 C 38.959566 29.103113 60.081985 0
M  V30 20 N 39.308587 27.218228 54.842573 0
M  V30 21 C 40.204666 28.765136 59.276260 0
M  V30 22 C 40.370834 33.387941 61.878576 0
M  V30 23 O 37.777401 28.821407 52.350996 0
M  V30 24 C 40.031417 29.703640 52.516999 0 CFG=1
M  V30 25 C 39.867392 29.621418 49.618105 0
M  V30 26 C 37.759960 34.032889 58.610980 0
M  V30 27 C 40.667129 28.556621 51.702504 0
M  V30 28 C 38.258226 32.784187 60.623762 0 CFG=1
M  V30 29 C 40.065161 31.014449 51.698478 0
M  V30 30 C 37.132579 33.834599 60.829024 0
M  V30 31 C 38.753413 29.260007 53.271730 0 CFG=1
M  V30 32 C 39.348122 33.729907 61.076860 0
M  V30 33 H 36.237563 30.776481 54.873956 0
M  V30 34 H 36.667431 29.100072 54.698241 0
M  V30 35 H 39.032863 27.837588 50.444695 0
M  V30 36 H 40.638645 27.590910 49.853544 0
M  V30 37 H 37.861808 31.491637 62.307430 0
M  V30 38 H 38.972512 31.482369 56.833090 0
M  V30 39 H 37.467349 32.230587 56.531928 0
M  V30 40 H 39.024586 30.875586 54.664923 0
M  V30 41 H 37.874039 31.259173 53.453861 0
M  V30 42 H 35.817450 31.265996 61.209024 0
M  V30 43 H 36.569815 29.812037 60.653428 0
M  V30 44 H 37.150385 35.805648 59.811905 0
M  V30 45 H 36.576608 29.622448 56.990875 0
M  V30 46 H 38.224504 29.266426 56.644544 0
M  V30 47 H 39.454439 32.716721 58.808630 0
M  V30 48 H 39.992697 30.934629 60.540151 0
M  V30 49 H 39.772972 31.716053 49.618060 0
M  V30 50 H 35.781075 32.078613 59.053568 0
M  V30 51 H 35.898699 30.413207 58.696106 0
M  V30 52 H 39.110686 35.837750 61.371807 0
M  V30 53 H 39.926638 35.405672 59.853487 0
M  V30 54 H 39.304829 28.943693 62.653491 0
M  V30 55 H 40.859390 29.583360 62.197765 0
M  V30 56 H 39.738047 30.570273 63.138336 0
M  V30 57 H 38.671894 28.222262 60.656229 0
M  V30 58 H 38.169242 29.196775 59.346559 0
M  V30 59 H 41.110719 34.118205 62.174689 0
M  V30 60 H 40.482298 32.386359 62.248523 0
M  V30 61 H 37.798442 27.875968 52.313493 0
M  V30 62 H 40.667506 29.992202 53.348999 0
M  V30 63 H 39.735366 29.562955 48.553470 0
M  V30 64 H 36.729753 33.896188 58.276695 0
M  V30 65 H 38.267344 34.421419 57.736710 0
M  V30 66 H 41.700494 28.815530 51.468035 0
M  V30 67 H 40.667325 27.621353 52.253423 0
M  V30 68 H 39.441900 31.807687 52.088779 0
M  V30 69 H 41.067362 31.418624 51.792203 0
M  V30 70 H 36.129448 33.547421 60.524064 0
M  V30 71 H 37.043983 34.187280 61.853793 0
M  V30 72 H 38.356709 30.742970 58.854411 0
M  V30 END ATOM
M  V30 BEGIN BOND
M  V30 1 1 5 1
M  V30 2 1 6 3
M  V30 3 1 10 1
M  V30 4 1 10 4
M  V30 5 1 12 4
M  V30 6 1 13 12
M  V30 7 1 14 3
M  V30 8 1 16 6
M  V30 9 1 16 12
M  V30 10 1 17 8
M  V30 11 1 18 14
M  V30 12 1 19 14
M  V30 13 3 20 9
M  V30 14 2 21 7
M  V30 15 1 21 11
M  V30 16 1 21 19
M  V30 17 1 25 2
M  V30 18 2 25 15
M  V30 19 1 26 8
M  V30 20 1 26 13
M  V30 21 1 27 2
M  V30 22 1 27 24
M  V30 23 1 28 3
M  V30 24 1 28 13
M  V30 25 1 29 15
M  V30 26 1 29 24
M  V30 27 1 30 8
M  V30 28 1 30 28
M  V30 29 1 31 5
M  V30 30 1 31 9 CFG=1
M  V30 31 1 31 23
M  V30 32 1 31 24
M  V30 33 1 32 17
M  V30 34 2 32 22
M  V30 35 1 28 32 CFG=1
M  V30 36 1 33 1
M  V30 37 1 34 1
M  V30 38 1 35 2
M  V30 39 1 36 2
M  V30 40 1 3 37 CFG=1
M  V30 41 1 38 4
M  V30 42 1 39 4
M  V30 43 1 40 5
M  V30 44 1 41 5
M  V30 45 1 42 6
M  V30 46 1 43 6
M  V30 47 1 8 44 CFG=3
M  V30 48 1 45 10
M  V30 49 1 46 10
M  V30 50 1 13 47 CFG=1
M  V30 51 1 14 48 CFG=3
M  V30 52 1 49 15
M  V30 53 1 50 16
M  V30 54 1 51 16
M  V30 55 1 52 17
M  V30 56 1 53 17
M  V30 57 1 54 18
M  V30 58 1 55 18
M  V30 59 1 56 18
M  V30 60 1 57 19
M  V30 61 1 58 19
M  V30 62 1 59 22
M  V30 63 1 60 22
M  V30 64 1 61 23
M  V30 65 1 24 62 CFG=1
M  V30 66 1 63 25
M  V30 67 1 64 26
M  V30 68 1 65 26
M  V30 69 1 66 27
M  V30 70 1 67 27
M  V30 71 1 68 29
M  V30 72 1 69 29
M  V30 73 1 70 30
M  V30 74 1 71 30
M  V30 75 1 12 72 CFG=1
M  V30 END BOND
M  V30 END CTAB
M  END
>  <i_epik_Tot_Q>  (1) 
0

>  <i_epik_Tot_abs_Q>  (1) 
2

>  <i_i_glide_confnum>  (1) 
113

>  <i_i_glide_lignum>  (1) 
226

>  <i_i_glide_posenum>  (1) 
193

>  <i_i_glide_rotatable_bonds>  (1) 
10

>  <i_lp_mmshare_version>  (1) 
72125

>  <i_m_source_file_index>  (1) 
89

>  <i_f3d_flags>  (1) 
0

>  <num_sample>  (1) 
100

>  <b_lp_Chiralities_Consistent>  (1) 
1

>  <r_epik_Charging_Adjusted_Penalty>  (1) 
0.0020242395650179774

>  <r_epik_Ionization_Penalty>  (1) 
0.0021859291232044671

>  <r_epik_Ionization_Penalty_Charging>  (1) 
0.0020242395650179774

>  <r_epik_Ionization_Penalty_Neutral>  (1) 
0.00016168955818648959

>  <r_epik_State_Penalty>  (1) 
-0

>  <r_glide_ring_energy>  (1) 
1.8266832637363128

>  <r_i_docking_score>  (1) 
-5.9177527034542416

>  <r_i_glide_ecoul>  (1) 
-1.6902504118071566

>  <r_i_glide_eff_state_penalty>  (1) 
-0

>  <r_i_glide_einternal>  (1) 
12.474980048731696

>  <r_i_glide_emodel>  (1) 
-26.587357175038221

>  <r_i_glide_emodel_strain>  (1) 
2.9376366046434299

>  <r_i_glide_energy>  (1) 
-24.972351741898201

>  <r_i_glide_erotb>  (1) 
0.71992511853168706

>  <r_i_glide_esite>  (1) 
-0.082901215379435012

>  <r_i_glide_evdw>  (1) 
-23.282101330091045

>  <r_i_glide_gscore>  (1) 
-5.9177527034542416

>  <r_i_glide_gscore_strain>  (1) 
0

>  <r_i_glide_hbond>  (1) 
0

>  <r_i_glide_ligand_efficiency>  (1) 
-0.18492977198294505

>  <r_i_glide_ligand_efficiency_ln>  (1) 
-1.3251461421496498

>  <r_i_glide_ligand_efficiency_sa>  (1) 
-0.5871154291719326

>  <r_i_glide_lipo>  (1) 
-3.2582913444126662

>  <r_i_glide_metal>  (1) 
-0

>  <r_i_glide_rewards>  (1) 
-1.8788426339182021

>  <r_lp_Energy>  (1) 
68.419443999999999

>  <r_lp_tautomer_probability>  (1) 
1

>  <s_epik_cmdline>  (1) 
J2VwaWtfcHl0aG9uJywgJy1waHQnLCAnMS4wJywgJy1waCcsICc3LjQnLCAnLXRuJywgJzgnLCAnLW1hJywgJzUwMCcsICctaW1hZScsICc8aW5maWxlLm1hZT4nLCAnLW9tYWUnLCAnPG91dGZpbGUubWFlPic=

>  <s_epik_input>  (1) 
W0NIMl0xW0NIXT1bQ0hdW0NIMl1bQ0gyXVtDQEBIXTFbQ0BdKEMjTikoW09IXSlbQ0gyXVtDSDJdW0NIMl1bQ0gyXU4oW0NASF0oW0NAXTIzNClbQ0gyXVtDQEBIXShbQ0gyXTMpW0NIMl1DND1bQ0gyXSlbQ0gyXVtDSDJdW0NASF0yW0NAQEhdKFtDSDNdKVtDSDJdQyg9TylbT0hd

>  <s_glide_docking_method>  (1) 
confgen

>  <s_i_glide_gridfile>  (1) 
gpcr_5ht2c_6bqh_protein_autoprepared_prepared

>  <s_lp_Force_Field>  (1) 
S-OPLS

>  <s_lp_Variant>  (1) 
DiffSBDD_88_num_sample_100-1

>  <s_m_source_file>  (1) 
generated__ligand_DiffSBDD_2026-05-06_prepared.sdf

>  <GenAI_Model>  (1) 
DiffSBDD

>  <Protein>  (1) 
GPCR_5HT2C

$$$$
DiffSBDD_44_num_sample_100
     RDKit          3D

  0  0  0  0  0  0  0  0  0  0999 V3000
M  V30 BEGIN CTAB
M  V30 COUNTS 58 59 0 0 1
M  V30 BEGIN ATOM
M  V30 1 C 37.282570 34.063023 57.853508 0
M  V30 2 O 36.954459 31.221409 61.452729 0 CHG=-1
M  V30 3 C 37.961792 28.720713 55.156471 0
M  V30 4 C 36.307900 33.544360 60.022196 0 CFG=1
M  V30 5 N 37.164789 32.421492 59.550654 0 CFG=1 CHG=1
M  V30 6 C 39.489695 26.814958 55.191915 0
M  V30 7 N 38.764500 28.662614 58.242827 0
M  V30 8 C 38.569571 27.815333 55.869486 0
M  V30 9 O 38.567278 26.308077 57.826025 0
M  V30 10 C 36.424824 34.662493 58.968922 0 CFG=1
M  V30 11 C 37.015284 35.966856 59.529810 0
M  V30 12 C 38.645657 30.398521 59.999744 0 CFG=1
M  V30 13 C 38.027050 29.462228 58.917661 0
M  V30 14 C 38.074320 32.965522 58.518054 0
M  V30 15 C 39.876641 26.129403 58.335252 0
M  V30 16 C 37.635405 28.500728 52.725333 0
M  V30 17 C 37.867119 31.623993 60.598692 0 CFG=2
M  V30 18 C 38.251096 27.616367 57.357700 0 CFG=1
M  V30 19 F 39.867422 28.120380 52.253548 0
M  V30 20 C 38.780066 27.460492 52.616386 0 CFG=1
M  V30 21 C 37.437370 29.192490 54.065546 0
M  V30 22 C 39.369559 29.598298 61.103709 0
M  V30 23 C 36.504178 29.569065 58.702965 0
M  V30 24 C 34.842227 33.103216 60.179472 0
M  V30 25 C 39.051477 26.421425 53.757735 0
M  V30 26 H 37.867404 34.805708 57.322578 0
M  V30 27 H 36.667393 33.621411 57.085085 0
M  V30 28 H 36.683368 33.904566 60.981062 0
M  V30 29 H 40.499682 27.221660 55.189132 0
M  V30 30 H 39.551288 25.878957 55.740949 0
M  V30 31 H 35.440691 34.902084 58.562267 0
M  V30 32 H 38.015073 35.816327 59.934920 0
M  V30 33 H 37.079750 36.728555 58.751615 0
M  V30 34 H 36.388032 36.365973 60.326597 0
M  V30 35 H 39.467408 30.860755 59.458600 0
M  V30 36 H 38.968523 33.391800 58.974633 0
M  V30 37 H 38.386445 32.208798 57.798250 0
M  V30 38 H 40.160832 25.082842 58.253666 0
M  V30 39 H 40.628883 26.711383 57.798796 0
M  V30 40 H 39.867509 26.421392 59.384359 0
M  V30 41 H 36.686254 28.014455 52.505001 0
M  V30 42 H 37.773089 29.221434 51.927143 0
M  V30 43 H 38.648660 32.291664 60.967953 0
M  V30 44 H 37.168054 27.561578 57.361913 0
M  V30 45 H 38.559419 26.873520 51.723125 0
M  V30 46 H 36.695357 29.974733 54.101777 0
M  V30 47 H 40.020938 28.825547 60.694342 0
M  V30 48 H 39.990371 30.256607 61.710887 0
M  V30 49 H 38.668379 29.118820 61.781601 0
M  V30 50 H 35.975560 30.124238 59.468379 0
M  V30 51 H 36.308736 30.021423 57.735574 0
M  V30 52 H 36.002372 28.608836 58.653500 0
M  V30 53 H 34.213713 33.959844 60.406688 0
M  V30 54 H 34.459975 32.644918 59.265706 0
M  V30 55 H 34.715928 32.389309 60.991289 0
M  V30 56 H 39.867419 25.778181 53.432527 0
M  V30 57 H 38.168061 25.790500 53.852234 0
M  V30 58 H 36.531406 31.796630 59.070126 0
M  V30 END ATOM
M  V30 BEGIN BOND
M  V30 1 1 5 4
M  V30 2 2 8 3
M  V30 3 1 8 6
M  V30 4 1 10 1
M  V30 5 1 10 4
M  V30 6 1 11 10
M  V30 7 2 13 7
M  V30 8 1 13 12
M  V30 9 1 14 1
M  V30 10 1 14 5
M  V30 11 1 15 9
M  V30 12 1 17 2
M  V30 13 1 17 5
M  V30 14 1 17 12
M  V30 15 1 18 7
M  V30 16 1 18 8
M  V30 17 1 18 9
M  V30 18 1 20 16
M  V30 19 1 20 19
M  V30 20 2 21 3
M  V30 21 1 21 16
M  V30 22 1 22 12
M  V30 23 1 23 13
M  V30 24 1 24 4
M  V30 25 1 25 6
M  V30 26 1 25 20
M  V30 27 1 26 1
M  V30 28 1 27 1
M  V30 29 1 4 28 CFG=1
M  V30 30 1 29 6
M  V30 31 1 30 6
M  V30 32 1 10 31 CFG=3
M  V30 33 1 32 11
M  V30 34 1 33 11
M  V30 35 1 34 11
M  V30 36 1 12 35 CFG=3
M  V30 37 1 36 14
M  V30 38 1 37 14
M  V30 39 1 38 15
M  V30 40 1 39 15
M  V30 41 1 40 15
M  V30 42 1 41 16
M  V30 43 1 42 16
M  V30 44 1 17 43 CFG=1
M  V30 45 1 18 44 CFG=3
M  V30 46 1 20 45 CFG=3
M  V30 47 1 46 21
M  V30 48 1 47 22
M  V30 49 1 48 22
M  V30 50 1 49 22
M  V30 51 1 50 23
M  V30 52 1 51 23
M  V30 53 1 52 23
M  V30 54 1 53 24
M  V30 55 1 54 24
M  V30 56 1 55 24
M  V30 57 1 56 25
M  V30 58 1 57 25
M  V30 59 1 5 58 CFG=3
M  V30 END BOND
M  V30 END CTAB
M  END
>  <i_epik_Tot_Q>  (1) 
0

>  <i_epik_Tot_abs_Q>  (1) 
2

>  <i_i_glide_confnum>  (1) 
33

>  <i_i_glide_lignum>  (1) 
112

>  <i_i_glide_posenum>  (1) 
67

>  <i_i_glide_rotatable_bonds>  (1) 
6

>  <i_lp_mmshare_version>  (1) 
72125

>  <i_m_source_file_index>  (1) 
45

>  <i_f3d_flags>  (1) 
0

>  <num_sample>  (1) 
100

>  <b_lp_Chiralities_Consistent>  (1) 
1

>  <r_epik_Charging_Adjusted_Penalty>  (1) 
0.41733257654759531

>  <r_epik_Ionization_Penalty>  (1) 
0.0069177268181324029

>  <r_epik_Ionization_Penalty_Charging>  (1) 
0.0066527375949913311

>  <r_epik_Ionization_Penalty_Neutral>  (1) 
0.00026498922314107146

>  <r_epik_State_Penalty>  (1) 
0.41067983895260396

>  <r_glide_ring_energy>  (1) 
0

>  <r_i_docking_score>  (1) 
-5.9132282976322674

>  <r_i_glide_ecoul>  (1) 
-6.4590068988894931

>  <r_i_glide_eff_state_penalty>  (1) 
0.41067983895260396

>  <r_i_glide_einternal>  (1) 
4.8412094016958562

>  <r_i_glide_emodel>  (1) 
-41.757724460764479

>  <r_i_glide_emodel_strain>  (1) 
4.0874548891774651

>  <r_i_glide_energy>  (1) 
-34.250213767380593

>  <r_i_glide_erotb>  (1) 
0.61440649929112812

>  <r_i_glide_esite>  (1) 
-0.065073120793154651

>  <r_i_glide_evdw>  (1) 
-27.791206868491098

>  <r_i_glide_gscore>  (1) 
-6.3239081365848717

>  <r_i_glide_gscore_strain>  (1) 
0.021863722294366283

>  <r_i_glide_hbond>  (1) 
-0.16

>  <r_i_glide_ligand_efficiency>  (1) 
-0.23652913190529071

>  <r_i_glide_ligand_efficiency_ln>  (1) 
-1.4016123116913493

>  <r_i_glide_ligand_efficiency_sa>  (1) 
-0.69161537729516076

>  <r_i_glide_lipo>  (1) 
-1.9654446278949551

>  <r_i_glide_metal>  (1) 
-0

>  <r_i_glide_rewards>  (1) 
-2.4112492312242781

>  <r_lp_Energy>  (1) 
11.823086999999999

>  <r_lp_tautomer_probability>  (1) 
0.49999399997599986

>  <s_epik_Chemistry_Notes>  (1) 
This compound has an imine and may undergo hydrolysis. This compound contains an acetal/aminal-like group ( X-CH(R)-Y where X, Y are N, S, or O) that may be acid/base labile, releasing an aldehyde.

>  <s_epik_cmdline>  (1) 
J2VwaWtfcHl0aG9uJywgJy1waHQnLCAnMS4wJywgJy1waCcsICc3LjQnLCAnLXRuJywgJzgnLCAnLW1hJywgJzUwMCcsICctaW1hZScsICc8aW5maWxlLm1hZT4nLCAnLW9tYWUnLCAnPG91dGZpbGUubWFlPic=

>  <s_epik_input>  (1) 
W0NIM11bQ0BIXTFbQ0gyXVtDSDJdTihbQ0BASF0xW0NIM10pW0NAQEhdKFtPSF0pW0NAQEhdKFtDSDNdKVxDKFtDSDNdKT1OXFtDQEBIXShPW0NIM10pQzI9Qz1bQ0hdW0NIMl1bQ0BASF0oRilbQ0gyXVtDSDJdMg==

>  <s_glide_docking_method>  (1) 
confgen

>  <s_i_glide_gridfile>  (1) 
gpcr_5ht2c_6bqh_protein_autoprepared_prepared

>  <s_lp_Force_Field>  (1) 
S-OPLS

>  <s_lp_Variant>  (1) 
DiffSBDD_44_num_sample_100-5

>  <s_m_source_file>  (1) 
generated__ligand_DiffSBDD_2026-05-06_prepared.sdf

>  <GenAI_Model>  (1) 
DiffSBDD

>  <Protein>  (1) 
GPCR_5HT2C

$$$$
DiffSBDD_90_num_sample_100
     RDKit          3D

  0  0  0  0  0  0  0  0  0  0999 V3000
M  V30 BEGIN CTAB
M  V30 COUNTS 85 88 0 0 1
M  V30 BEGIN ATOM
M  V30 1 C 38.974868 31.424403 55.977289 0
M  V30 2 O 36.515935 36.931626 63.939754 0
M  V30 3 F 37.689388 25.341135 54.744260 0
M  V30 4 C 40.132861 28.310258 59.927896 0 CFG=1
M  V30 5 C 37.442302 37.822681 61.117112 0 CFG=2
M  V30 6 C 37.678276 35.462275 60.210698 0 CFG=1
M  V30 7 C 40.997225 31.665507 61.556452 0
M  V30 8 C 36.692366 33.453034 58.937488 0
M  V30 9 C 40.287558 29.332991 61.138278 0
M  V30 10 N 37.902940 37.184033 63.575633 0
M  V30 11 C 38.954271 27.290634 54.576643 0
M  V30 12 C 38.975630 29.621438 61.853289 0
M  V30 13 C 37.467270 36.961437 59.816974 0
M  V30 14 C 37.712495 35.454866 61.744754 0
M  V30 15 O 39.404118 39.221425 61.053516 0
M  V30 16 N 39.067414 30.857049 57.316722 0
M  V30 17 C 36.554084 34.528755 59.752229 0
M  V30 18 F 36.667403 27.221430 54.474988 0
M  V30 19 C 38.811452 26.331994 57.369854 0 CFG=1
M  V30 20 N 38.966307 29.386503 57.201243 0 CHG=1
M  V30 21 C 40.153054 26.780708 55.367463 0
M  V30 22 C 38.025345 31.400051 58.207285 0
M  V30 23 O 40.775843 30.581527 60.653714 0
M  V30 24 C 41.241649 28.747615 62.210474 0
M  V30 25 C 39.154374 32.938091 56.051840 0
M  V30 26 C 37.507015 26.703597 56.640103 0
M  V30 27 C 37.997377 32.962954 58.300195 0 CFG=1
M  V30 28 C 38.098106 36.874392 62.156665 0 CFG=1
M  V30 29 C 38.722095 27.696277 59.651978 0
M  V30 30 O 37.434511 40.234251 61.053495 0 CHG=-1
M  V30 31 C 40.212887 28.562192 57.271782 0 CFG=1
M  V30 32 C 38.037867 33.550614 56.885394 0
M  V30 33 O 36.080832 38.021432 61.433298 0
M  V30 34 C 40.936259 28.659890 58.638479 0
M  V30 35 C 40.039282 27.066114 56.855678 0 CFG=1
M  V30 36 C 38.750880 26.342972 58.881510 0
M  V30 37 C 37.676296 26.627181 55.098882 0
M  V30 38 C 38.156997 39.213668 61.053500 0
M  V30 39 H 39.753822 30.999785 55.344850 0
M  V30 40 H 38.009940 31.181677 55.525974 0
M  V30 41 H 36.383599 36.028750 63.688908 0
M  V30 42 H 40.661232 27.438056 60.296144 0
M  V30 43 H 38.654566 35.144109 59.854061 0
M  V30 44 H 41.547528 32.453330 61.045652 0
M  V30 45 H 40.060747 32.107958 61.896387 0
M  V30 46 H 41.595678 31.393666 62.423786 0
M  V30 47 H 35.812645 32.876254 58.696599 0
M  V30 48 H 38.422853 36.600231 64.217917 0
M  V30 49 H 39.083983 27.068174 53.517214 0
M  V30 50 H 38.883112 28.376154 54.649995 0
M  V30 51 H 38.667405 28.669692 62.253510 0
M  V30 52 H 39.074613 30.281992 62.713633 0
M  V30 53 H 38.208075 30.025648 61.195886 0
M  V30 54 H 38.267377 37.278284 59.152949 0
M  V30 55 H 36.550725 37.088611 59.239943 0
M  V30 56 H 38.399171 34.705234 62.136024 0
M  V30 57 H 36.716496 35.218701 62.118841 0
M  V30 58 H 35.568230 34.766297 60.126221 0
M  V30 59 H 38.967739 25.280709 57.116965 0
M  V30 60 H 38.348217 29.095895 57.944818 0
M  V30 61 H 40.270684 25.709296 55.197957 0
M  V30 62 H 41.067404 27.221428 55.053516 0
M  V30 63 H 38.164156 30.988919 59.206127 0
M  V30 64 H 37.067428 31.033923 57.850915 0
M  V30 65 H 40.897456 27.766404 62.538218 0
M  V30 66 H 42.254820 28.622997 61.853494 0
M  V30 67 H 41.293154 29.356474 63.111698 0
M  V30 68 H 40.130623 33.191950 56.462804 0
M  V30 69 H 39.108045 33.359149 55.053529 0
M  V30 70 H 36.707105 26.025191 56.942929 0
M  V30 71 H 37.180021 27.679968 56.982215 0
M  V30 72 H 38.872993 33.286729 58.858462 0
M  V30 73 H 39.178553 36.940797 62.011600 0
M  V30 74 H 38.267410 27.472569 60.605305 0
M  V30 75 H 38.015852 28.406820 59.235280 0
M  V30 76 H 40.883603 28.971872 56.522757 0
M  V30 77 H 37.093093 33.345442 56.389016 0
M  V30 78 H 38.118773 34.630961 56.906675 0
M  V30 79 H 36.068149 38.497670 62.251511 0
M  V30 80 H 41.809134 28.006675 58.613225 0
M  V30 81 H 41.411151 29.621453 58.694436 0
M  V30 82 H 40.897738 26.536651 57.272817 0
M  V30 83 H 39.581588 25.737308 59.238405 0
M  V30 84 H 37.867414 25.756314 59.053505 0
M  V30 85 H 38.508544 29.221048 56.316211 0
M  V30 END ATOM
M  V30 BEGIN BOND
M  V30 1 1 9 4
M  V30 2 1 10 2
M  V30 3 1 12 9
M  V30 4 1 13 5
M  V30 5 1 13 6
M  V30 6 1 14 6
M  V30 7 1 16 1
M  V30 8 1 17 6
M  V30 9 2 17 8
M  V30 10 1 20 16
M  V30 11 1 21 11
M  V30 12 1 22 16
M  V30 13 1 23 7
M  V30 14 1 23 9
M  V30 15 1 24 9
M  V30 16 1 25 1
M  V30 17 1 26 19
M  V30 18 1 27 8
M  V30 19 1 27 22
M  V30 20 1 28 5
M  V30 21 1 28 10
M  V30 22 1 28 14
M  V30 23 1 29 4
M  V30 24 1 31 20
M  V30 25 1 32 25
M  V30 26 1 32 27
M  V30 27 1 5 33 CFG=1
M  V30 28 1 34 4
M  V30 29 1 34 31
M  V30 30 1 35 19
M  V30 31 1 35 21
M  V30 32 1 35 31
M  V30 33 1 36 19
M  V30 34 1 36 29
M  V30 35 1 37 3
M  V30 36 1 37 11
M  V30 37 1 37 18
M  V30 38 1 37 26
M  V30 39 1 38 5
M  V30 40 2 38 15
M  V30 41 1 38 30
M  V30 42 1 39 1
M  V30 43 1 40 1
M  V30 44 1 41 2
M  V30 45 1 4 42 CFG=1
M  V30 46 1 6 43 CFG=3
M  V30 47 1 44 7
M  V30 48 1 45 7
M  V30 49 1 46 7
M  V30 50 1 47 8
M  V30 51 1 48 10
M  V30 52 1 49 11
M  V30 53 1 50 11
M  V30 54 1 51 12
M  V30 55 1 52 12
M  V30 56 1 53 12
M  V30 57 1 54 13
M  V30 58 1 55 13
M  V30 59 1 56 14
M  V30 60 1 57 14
M  V30 61 1 58 17
M  V30 62 1 19 59 CFG=3
M  V30 63 1 60 20
M  V30 64 1 61 21
M  V30 65 1 62 21
M  V30 66 1 63 22
M  V30 67 1 64 22
M  V30 68 1 65 24
M  V30 69 1 66 24
M  V30 70 1 67 24
M  V30 71 1 68 25
M  V30 72 1 69 25
M  V30 73 1 70 26
M  V30 74 1 71 26
M  V30 75 1 27 72 CFG=1
M  V30 76 1 28 73 CFG=3
M  V30 77 1 74 29
M  V30 78 1 75 29
M  V30 79 1 31 76 CFG=3
M  V30 80 1 77 32
M  V30 81 1 78 32
M  V30 82 1 79 33
M  V30 83 1 80 34
M  V30 84 1 81 34
M  V30 85 1 35 82 CFG=1
M  V30 86 1 83 36
M  V30 87 1 84 36
M  V30 88 1 85 20
M  V30 END BOND
M  V30 END CTAB
M  END
>  <i_epik_Tot_Q>  (1) 
0

>  <i_epik_Tot_abs_Q>  (1) 
2

>  <i_i_glide_confnum>  (1) 
680

>  <i_i_glide_lignum>  (1) 
235

>  <i_i_glide_posenum>  (1) 
248

>  <i_i_glide_rotatable_bonds>  (1) 
10

>  <i_lp_mmshare_version>  (1) 
72125

>  <i_m_source_file_index>  (1) 
91

>  <i_f3d_flags>  (1) 
0

>  <num_sample>  (1) 
100

>  <b_lp_Chiralities_Consistent>  (1) 
1

>  <r_epik_Charging_Adjusted_Penalty>  (1) 
1.3235823108087639

>  <r_epik_Ionization_Penalty>  (1) 
0.58520961668590687

>  <r_epik_Ionization_Penalty_Charging>  (1) 
0.5818654171532841

>  <r_epik_Ionization_Penalty_Neutral>  (1) 
0.0033441995326227757

>  <r_epik_State_Penalty>  (1) 
0.74171689365547977

>  <r_glide_ring_energy>  (1) 
0.16952212376529802

>  <r_i_docking_score>  (1) 
-5.9052634429824451

>  <r_i_glide_ecoul>  (1) 
-5.4350929898171989

>  <r_i_glide_eff_state_penalty>  (1) 
0.74171689365547977

>  <r_i_glide_einternal>  (1) 
33.682330021734749

>  <r_i_glide_emodel>  (1) 
-4.9002033645391521

>  <r_i_glide_emodel_strain>  (1) 
3.5333627243677483

>  <r_i_glide_energy>  (1) 
-20.762262681324433

>  <r_i_glide_erotb>  (1) 
0.42002339013477186

>  <r_i_glide_esite>  (1) 
0

>  <r_i_glide_evdw>  (1) 
-15.327169691507235

>  <r_i_glide_gscore>  (1) 
-6.6469803366379248

>  <r_i_glide_gscore_strain>  (1) 
0

>  <r_i_glide_hbond>  (1) 
-0.31823699021870366

>  <r_i_glide_ligand_efficiency>  (1) 
-0.15540166955216961

>  <r_i_glide_ligand_efficiency_ln>  (1) 
-1.2733485135575038

>  <r_i_glide_ligand_efficiency_sa>  (1) 
-0.52245659120989363

>  <r_i_glide_lipo>  (1) 
-3.7203406697881327

>  <r_i_glide_metal>  (1) 
-0

>  <r_i_glide_rewards>  (1) 
-1.44680363371792

>  <r_lp_Energy>  (1) 
57.103046999999997

>  <s_epik_Chemistry_Notes>  (1) 
This compound has a N-S or N-O group and may undergo hydrolysis at high or low pH.

>  <s_epik_cmdline>  (1) 
J2VwaWtfcHl0aG9uJywgJy1waHQnLCAnMS4wJywgJy1waCcsICc3LjQnLCAnLXRuJywgJzgnLCAnLW1hJywgJzUwMCcsICctaW1hZScsICc8aW5maWxlLm1hZT4nLCAnLW9tYWUnLCAnPG91dGZpbGUubWFlPic=

>  <s_epik_input>  (1) 
RkMoRikoW0NIMl0xKVtDSDJdW0NIMl1bQ0BIXShbQ0BASF0xMilbQ0BIXShbQ0gyXVtDQEhdKFtDSDJdW0NIMl0yKUMoW0NIM10pKFtDSDNdKU9bQ0gzXSlbTkhdTjNbQ0gyXVtDSDJdW0NIMl1bQ0BIXShbQ0gyXTMpL1tDSF09W0NIXVxbQ0BASF0oW0NIMl1bQ0BdNChbT0hdKUMoPU8pW09IXSlbQ0gyXVtDQEBIXTRbTkhdW09IXQ==

>  <s_glide_docking_method>  (1) 
confgen

>  <s_i_glide_gridfile>  (1) 
gpcr_5ht2c_6bqh_protein_autoprepared_prepared

>  <s_lp_Force_Field>  (1) 
S-OPLS

>  <s_lp_Variant>  (1) 
DiffSBDD_90_num_sample_100-7

>  <s_m_source_file>  (1) 
generated__ligand_DiffSBDD_2026-05-06_prepared.sdf

>  <GenAI_Model>  (1) 
DiffSBDD

>  <Protein>  (1) 
GPCR_5HT2C

$$$$
DiffSBDD_30_num_sample_100
     RDKit          3D

  0  0  0  0  0  0  0  0  0  0999 V3000
M  V30 BEGIN CTAB
M  V30 COUNTS 70 73 0 0 1
M  V30 BEGIN ATOM
M  V30 1 C 35.895546 31.852209 61.044427 0
M  V30 2 C 37.951763 35.711288 61.491247 0 CFG=2
M  V30 3 O 34.474488 33.062312 59.453544 0
M  V30 4 C 37.322728 24.455693 56.320234 0
M  V30 5 C 37.683473 24.445947 57.673202 0
M  V30 6 N 37.641592 33.663314 59.518267 0
M  V30 7 C 38.490133 26.734508 57.483068 0
M  V30 8 C 36.508990 34.231281 60.254736 0 CFG=1
M  V30 9 O 37.467260 38.560460 61.053500 0
M  V30 10 O 39.335979 33.863250 62.253495 0
M  V30 11 C 38.610044 28.681299 52.888283 0
M  V30 12 C 39.293704 34.998961 61.782425 0
M  V30 13 C 40.573009 35.762284 61.452152 0
M  V30 14 C 39.332451 28.482302 51.576908 0
M  V30 15 C 39.867405 28.197693 55.053501 0 CFG=2
M  V30 16 C 38.223521 32.782099 55.981022 0
M  V30 17 N 38.483269 32.911845 57.423506 0 CHG=1
M  V30 18 C 37.949299 27.914237 51.797149 0
M  V30 19 C 39.319684 30.454264 55.846026 0 CFG=1
M  V30 20 C 38.267404 25.586682 58.253495 0
M  V30 21 C 40.305382 29.629711 55.036332 0
M  V30 22 N 39.004252 27.764120 53.972977 0 CFG=1 CHG=1
M  V30 23 C 37.552100 25.601737 55.542508 0
M  V30 24 C 37.277646 33.247275 58.183445 0
M  V30 25 C 38.138845 26.753096 56.121559 0
M  V30 26 C 39.276128 31.900529 55.317652 0
M  V30 27 C 37.192276 37.486403 60.184426 0
M  V30 28 C 35.371563 33.209359 60.541793 0 CFG=2
M  V30 29 C 38.424323 27.958501 55.295599 0 CFG=1
M  V30 30 O 37.224569 25.596388 54.224092 0
M  V30 31 S 37.725028 29.589959 55.752730 0
M  V30 32 O 36.880829 34.790124 61.485984 0
M  V30 33 O 38.096238 36.438229 60.308174 0
M  V30 34 H 36.580125 31.993604 61.881856 0
M  V30 35 H 35.072303 31.222515 61.384794 0
M  V30 36 H 36.429857 31.300148 60.271903 0
M  V30 37 H 37.775217 36.397458 62.320867 0
M  V30 38 H 34.879999 32.553717 58.759517 0
M  V30 39 H 36.877570 23.577909 55.875320 0
M  V30 40 H 37.514725 23.561072 58.267067 0
M  V30 41 H 38.332940 34.404768 59.462017 0
M  V30 42 H 38.944285 27.604026 57.934510 0
M  V30 43 H 36.089634 35.049256 59.667838 0
M  V30 44 H 36.865913 39.260650 60.833134 0
M  V30 45 H 38.245976 29.673406 53.138168 0
M  V30 46 H 40.574191 36.738493 61.938116 0
M  V30 47 H 41.448651 35.207431 61.789667 0
M  V30 48 H 40.656042 35.909900 60.376844 0
M  V30 49 H 39.414988 29.337798 50.908924 0
M  V30 50 H 40.169415 27.788355 51.549854 0
M  V30 51 H 40.595270 27.419224 55.280314 0
M  V30 52 H 38.210409 33.774455 55.528231 0
M  V30 53 H 37.241935 32.353157 55.801471 0
M  V30 54 H 38.814737 32.027283 57.777075 0
M  V30 55 H 37.867423 26.832910 51.878431 0
M  V30 56 H 37.067409 28.421435 51.453501 0
M  V30 57 H 39.628608 30.433707 56.891960 0
M  V30 58 H 38.546129 25.579568 59.291123 0
M  V30 59 H 40.423005 30.021443 54.024767 0
M  V30 60 H 41.297855 29.621432 55.453500 0
M  V30 61 H 36.708246 34.021439 57.669404 0
M  V30 62 H 36.667430 32.353332 58.253502 0
M  V30 63 H 40.259018 32.348809 55.453870 0
M  V30 64 H 39.086105 31.897677 54.242673 0
M  V30 65 H 37.286856 37.862479 59.166659 0
M  V30 66 H 36.161885 37.169814 60.345240 0
M  V30 67 H 34.766320 33.644292 61.338959 0
M  V30 68 H 36.746145 24.823991 53.956026 0
M  V30 69 H 39.196535 33.613131 57.556582 0
M  V30 70 H 39.004225 26.775417 53.757735 0
M  V30 END ATOM
M  V30 BEGIN BOND
M  V30 1 1 5 4
M  V30 2 1 8 6
M  V30 3 1 12 2
M  V30 4 2 12 10
M  V30 5 1 13 12
M  V30 6 1 14 11
M  V30 7 1 17 16
M  V30 8 1 18 11
M  V30 9 1 18 14
M  V30 10 2 20 5
M  V30 11 1 20 7
M  V30 12 1 21 15
M  V30 13 1 21 19
M  V30 14 1 22 11
M  V30 15 1 22 15
M  V30 16 2 23 4
M  V30 17 1 24 6
M  V30 18 1 24 17
M  V30 19 2 25 7
M  V30 20 1 25 23
M  V30 21 1 26 16
M  V30 22 1 26 19
M  V30 23 1 27 9
M  V30 24 1 28 1
M  V30 25 1 28 3
M  V30 26 1 28 8
M  V30 27 1 29 15
M  V30 28 1 29 22
M  V30 29 1 29 25 CFG=1
M  V30 30 1 30 23
M  V30 31 1 31 19
M  V30 32 1 31 29
M  V30 33 1 32 2
M  V30 34 1 32 8
M  V30 35 1 33 2
M  V30 36 1 33 27
M  V30 37 1 34 1
M  V30 38 1 35 1
M  V30 39 1 36 1
M  V30 40 1 2 37 CFG=1
M  V30 41 1 38 3
M  V30 42 1 39 4
M  V30 43 1 40 5
M  V30 44 1 41 6
M  V30 45 1 42 7
M  V30 46 1 8 43 CFG=3
M  V30 47 1 44 9
M  V30 48 1 45 11
M  V30 49 1 46 13
M  V30 50 1 47 13
M  V30 51 1 48 13
M  V30 52 1 49 14
M  V30 53 1 50 14
M  V30 54 1 15 51 CFG=1
M  V30 55 1 52 16
M  V30 56 1 53 16
M  V30 57 1 54 17
M  V30 58 1 55 18
M  V30 59 1 56 18
M  V30 60 1 19 57 CFG=1
M  V30 61 1 58 20
M  V30 62 1 59 21
M  V30 63 1 60 21
M  V30 64 1 61 24
M  V30 65 1 62 24
M  V30 66 1 63 26
M  V30 67 1 64 26
M  V30 68 1 65 27
M  V30 69 1 66 27
M  V30 70 1 28 67 CFG=1
M  V30 71 1 68 30
M  V30 72 1 69 17
M  V30 73 1 22 70 CFG=3
M  V30 END BOND
M  V30 END CTAB
M  END
>  <i_epik_Tot_Q>  (1) 
2

>  <i_epik_Tot_abs_Q>  (1) 
2

>  <i_i_glide_confnum>  (1) 
6656

>  <i_i_glide_lignum>  (1) 
83

>  <i_i_glide_posenum>  (1) 
112

>  <i_i_glide_rotatable_bonds>  (1) 
17

>  <i_lp_mmshare_version>  (1) 
72125

>  <i_m_source_file_index>  (1) 
31

>  <i_f3d_flags>  (1) 
0

>  <num_sample>  (1) 
100

>  <b_lp_Chiralities_Consistent>  (1) 
1

>  <r_epik_Charging_Adjusted_Penalty>  (1) 
1.979093595035226

>  <r_epik_Ionization_Penalty>  (1) 
0.79989620662071081

>  <r_epik_Ionization_Penalty_Charging>  (1) 
0.66086891892205935

>  <r_epik_Ionization_Penalty_Neutral>  (1) 
0.13902728769865147

>  <r_epik_State_Penalty>  (1) 
1.3182246761131666

>  <r_glide_ring_energy>  (1) 
0

>  <r_i_docking_score>  (1) 
-5.9051239072671695

>  <r_i_glide_ecoul>  (1) 
-5.6982696756968441

>  <r_i_glide_eff_state_penalty>  (1) 
1.3182246761131666

>  <r_i_glide_einternal>  (1) 
11.702010536813283

>  <r_i_glide_emodel>  (1) 
-63.54465448045201

>  <r_i_glide_emodel_strain>  (1) 
2.6410844572931751

>  <r_i_glide_energy>  (1) 
-44.502207722627816

>  <r_i_glide_erotb>  (1) 
1.1283805066766976

>  <r_i_glide_esite>  (1) 
-0.13821880910067655

>  <r_i_glide_evdw>  (1) 
-38.803938046930973

>  <r_i_glide_gscore>  (1) 
-7.2233485833803366

>  <r_i_glide_gscore_strain>  (1) 
0

>  <r_i_glide_hbond>  (1) 
-0.24245339739040944

>  <r_i_glide_ligand_efficiency>  (1) 
-0.17894314870506575

>  <r_i_glide_ligand_efficiency_ln>  (1) 
-1.3132689818809706

>  <r_i_glide_ligand_efficiency_sa>  (1) 
-0.57396629258904663

>  <r_i_glide_lipo>  (1) 
-3.4800351298122654

>  <r_i_glide_metal>  (1) 
-0

>  <r_i_glide_rewards>  (1) 
-1.6960844000526079

>  <r_lp_Energy>  (1) 
37.245042999999995

>  <r_lp_tautomer_probability>  (1) 
0.99999996999736518

>  <s_epik_Chemistry_Notes>  (1) 
This compound contains an acetal/aminal-like group ( X-CH(R)-Y where X, Y are N, S, or O) that may be acid/base labile, releasing an aldehyde.

>  <s_epik_cmdline>  (1) 
J2VwaWtfcHl0aG9uJywgJy1waHQnLCAnMS4wJywgJy1waCcsICc3LjQnLCAnLXRuJywgJzgnLCAnLW1hJywgJzUwMCcsICctaW1hZScsICc8aW5maWxlLm1hZT4nLCAnLW9tYWUnLCAnPG91dGZpbGUubWFlPic=

>  <s_epik_input>  (1) 
W09IXVtDSDJdT1tDQEBIXShDKD1PKVtDSDNdKU9bQ0BIXShbQ0BIXShbQ0gzXSlbT0hdKVtOSF1bQ0gyXVtOSF1bQ0gyXVtDSDJdW0NAQEhdKFMxKVtDSDJdW0NASF0oTjJbQ0hdM1tDSDJdW0NIMl0zKVtDQEBdMTJjNFtjSF1bY0hdW2NIXVtjSF1jNFtPSF0=

>  <s_glide_docking_method>  (1) 
confgen

>  <s_i_glide_gridfile>  (1) 
gpcr_5ht2c_6bqh_protein_autoprepared_prepared

>  <s_lp_Force_Field>  (1) 
S-OPLS

>  <s_lp_Variant>  (1) 
DiffSBDD_30_num_sample_100-5

>  <s_m_source_file>  (1) 
generated__ligand_DiffSBDD_2026-05-06_prepared.sdf

>  <GenAI_Model>  (1) 
DiffSBDD

>  <Protein>  (1) 
GPCR_5HT2C

$$$$
DiffSBDD_42_num_sample_100
     RDKit          3D

  0  0  0  0  0  0  0  0  0  0999 V3000
M  V30 BEGIN CTAB
M  V30 COUNTS 70 74 0 0 1
M  V30 BEGIN ATOM
M  V30 1 O 40.099647 36.421670 65.465209 0
M  V30 2 C 42.281830 33.587109 66.384692 0
M  V30 3 C 39.847915 27.478222 56.731614 0
M  V30 4 C 36.583690 32.639771 60.488763 0
M  V30 5 O 41.067474 28.424798 61.025395 0
M  V30 6 C 41.312437 34.718464 66.241107 0
M  V30 7 C 39.245473 29.931305 60.325478 0
M  V30 8 C 40.410174 30.905734 63.826142 0
M  V30 9 C 41.662947 35.563291 63.774697 0
M  V30 10 C 38.060390 32.662852 60.831090 0 CFG=2
M  V30 11 C 39.823712 36.129733 66.769884 0
M  V30 12 C 41.077755 35.514589 65.152298 0
M  V30 13 O 38.598303 31.776107 61.815822 0
M  V30 14 C 39.763650 27.064823 54.361458 0
M  V30 15 C 39.689148 30.972251 61.343108 0 CFG=1
M  V30 16 C 39.191422 27.268671 53.163823 0
M  V30 17 C 40.019553 34.279852 62.497984 0
M  V30 18 Cl 37.467939 29.369248 56.854148 0
M  V30 19 C 40.370334 27.228647 57.909125 0
M  V30 20 O 38.103712 29.916034 59.871490 0
M  V30 21 N 40.623928 35.611514 62.714747 0 CFG=2 CHG=1
M  V30 22 C 38.103511 28.578950 55.451245 0
M  V30 23 C 40.421067 30.233675 62.459734 0
M  V30 24 C 41.440767 30.313280 64.802090 0
M  V30 25 C 39.268034 27.696370 55.572060 0
M  V30 26 P 38.503043 34.299383 61.453457 0 CFG=2
M  V30 27 C 37.987589 28.168652 52.951279 0
M  V30 28 C 41.780036 28.275071 63.343333 0
M  V30 29 C 37.519926 28.796708 54.256130 0
M  V30 30 O 37.689788 35.530281 61.249361 0
M  V30 31 C 40.300490 28.902764 59.900273 0 CFG=2
M  V30 32 C 41.445308 28.783168 64.754069 0
M  V30 33 C 41.047304 29.050192 62.261197 0
M  V30 34 C 39.707866 27.662949 59.198699 0
M  V30 35 C 41.125852 36.196129 61.450922 0
M  V30 36 N 40.493838 35.100460 67.290579 0
M  V30 37 O 38.977690 33.520014 60.115227 0
M  V30 38 H 42.590638 33.191605 65.417125 0
M  V30 39 H 41.844704 32.763627 66.948521 0
M  V30 40 H 43.175710 33.906034 66.919587 0
M  V30 41 H 36.311849 31.699188 60.013117 0
M  V30 42 H 36.331834 33.447748 59.801019 0
M  V30 43 H 35.984745 32.754656 61.391816 0
M  V30 44 H 39.410648 30.810753 64.242000 0
M  V30 45 H 40.628072 31.961043 63.721968 0
M  V30 46 H 42.325164 36.421443 63.701484 0
M  V30 47 H 42.301177 34.694104 63.611107 0
M  V30 48 H 39.080042 36.695191 67.314294 0
M  V30 49 H 40.618413 26.406699 54.425426 0
M  V30 50 H 40.419549 31.627495 60.868808 0
M  V30 51 H 39.590732 26.777435 52.288428 0
M  V30 52 H 39.704119 33.873574 63.453401 0
M  V30 53 H 40.751534 33.597350 62.065925 0
M  V30 54 H 41.299517 26.684561 58.002096 0
M  V30 55 H 42.436244 30.680340 64.548465 0
M  V30 56 H 41.234167 30.658592 65.815314 0
M  V30 57 H 38.249179 28.954815 52.243101 0
M  V30 58 H 37.170293 27.591685 52.520090 0
M  V30 59 H 41.517346 27.221515 63.292413 0
M  V30 60 H 42.850359 28.354393 63.153732 0
M  V30 61 H 36.667622 29.456501 54.194708 0
M  V30 62 H 40.985123 29.412553 59.221804 0
M  V30 63 H 40.464676 28.410718 65.052456 0
M  V30 64 H 42.156855 28.381284 65.475400 0
M  V30 65 H 38.630265 27.719466 59.043319 0
M  V30 66 H 39.862636 26.820391 59.853398 0
M  V30 67 H 41.957462 35.617510 61.052045 0
M  V30 68 H 41.461961 37.220441 61.590970 0
M  V30 69 H 40.354656 36.215323 60.684553 0
M  V30 70 H 39.894669 36.227817 63.050995 0
M  V30 END ATOM
M  V30 BEGIN BOND
M  V30 1 1 6 2
M  V30 2 1 10 4
M  V30 3 1 11 1
M  V30 4 1 12 1
M  V30 5 2 12 6
M  V30 6 1 12 9
M  V30 7 1 10 13 CFG=1
M  V30 8 1 15 7
M  V30 9 1 15 13
M  V30 10 2 16 14
M  V30 11 2 19 3
M  V30 12 2 20 7
M  V30 13 1 21 9
M  V30 14 1 21 17
M  V30 15 1 22 18
M  V30 16 1 23 8
M  V30 17 1 23 15
M  V30 18 1 24 8
M  V30 19 2 25 3
M  V30 20 1 25 14
M  V30 21 1 25 22
M  V30 22 1 26 10
M  V30 23 1 26 17 CFG=1
M  V30 24 1 27 16
M  V30 25 2 29 22
M  V30 26 1 29 27
M  V30 27 2 30 26
M  V30 28 1 31 5
M  V30 29 1 31 7
M  V30 30 1 32 24
M  V30 31 1 32 28
M  V30 32 1 33 5
M  V30 33 2 33 23
M  V30 34 1 33 28
M  V30 35 1 34 19
M  V30 36 1 34 31
M  V30 37 1 35 21
M  V30 38 1 36 6
M  V30 39 2 36 11
M  V30 40 1 37 10
M  V30 41 1 37 26
M  V30 42 1 38 2
M  V30 43 1 39 2
M  V30 44 1 40 2
M  V30 45 1 41 4
M  V30 46 1 42 4
M  V30 47 1 43 4
M  V30 48 1 44 8
M  V30 49 1 45 8
M  V30 50 1 46 9
M  V30 51 1 47 9
M  V30 52 1 48 11
M  V30 53 1 49 14
M  V30 54 1 15 50 CFG=3
M  V30 55 1 51 16
M  V30 56 1 52 17
M  V30 57 1 53 17
M  V30 58 1 54 19
M  V30 59 1 55 24
M  V30 60 1 56 24
M  V30 61 1 57 27
M  V30 62 1 58 27
M  V30 63 1 59 28
M  V30 64 1 60 28
M  V30 65 1 61 29
M  V30 66 1 31 62 CFG=3
M  V30 67 1 63 32
M  V30 68 1 64 32
M  V30 69 1 65 34
M  V30 70 1 66 34
M  V30 71 1 67 35
M  V30 72 1 68 35
M  V30 73 1 69 35
M  V30 74 1 21 70 CFG=1
M  V30 END BOND
M  V30 END CTAB
M  END
>  <i_epik_Tot_Q>  (1) 
1

>  <i_epik_Tot_abs_Q>  (1) 
1

>  <i_i_glide_confnum>  (1) 
736

>  <i_i_glide_lignum>  (1) 
104

>  <i_i_glide_posenum>  (1) 
141

>  <i_i_glide_rotatable_bonds>  (1) 
8

>  <i_lp_mmshare_version>  (1) 
72125

>  <i_m_source_file_index>  (1) 
43

>  <i_f3d_flags>  (1) 
0

>  <num_sample>  (1) 
100

>  <b_lp_Chiralities_Consistent>  (1) 
1

>  <r_epik_Charging_Adjusted_Penalty>  (1) 
0.2152556309207356

>  <r_epik_Ionization_Penalty>  (1) 
0.1076280395274669

>  <r_epik_Ionization_Penalty_Charging>  (1) 
0.10762781546036781

>  <r_epik_Ionization_Penalty_Neutral>  (1) 
2.2406709908736756e-07

>  <r_epik_State_Penalty>  (1) 
0.10762781546036779

>  <r_glide_ring_energy>  (1) 
0

>  <r_i_docking_score>  (1) 
-5.8969826129374949

>  <r_i_glide_ecoul>  (1) 
-0.58243289910830431

>  <r_i_glide_eff_state_penalty>  (1) 
0.10762781546036779

>  <r_i_glide_einternal>  (1) 
8.7187392286475855

>  <r_i_glide_emodel>  (1) 
-59.24716304367626

>  <r_i_glide_emodel_strain>  (1) 
0.26517019741211101

>  <r_i_glide_energy>  (1) 
-46.163816843335347

>  <r_i_glide_erotb>  (1) 
0.55194975081301367

>  <r_i_glide_esite>  (1) 
0

>  <r_i_glide_evdw>  (1) 
-45.581383944227042

>  <r_i_glide_gscore>  (1) 
-6.0046104283978625

>  <r_i_glide_gscore_strain>  (1) 
0

>  <r_i_glide_hbond>  (1) 
-0.10512579874690559

>  <r_i_glide_ligand_efficiency>  (1) 
-0.15937790845777014

>  <r_i_glide_ligand_efficiency_ln>  (1) 
-1.2789172838593761

>  <r_i_glide_ligand_efficiency_sa>  (1) 
-0.53108254923261011

>  <r_i_glide_lipo>  (1) 
-3.4844059428768026

>  <r_i_glide_metal>  (1) 
-0

>  <r_i_glide_rewards>  (1) 
-0.60059430550957082

>  <r_lp_Energy>  (1) 
6.6760409999999997

>  <r_lp_tautomer_probability>  (1) 
0.99995000000000001

>  <s_epik_cmdline>  (1) 
J2VwaWtfcHl0aG9uJywgJy1waHQnLCAnMS4wJywgJy1waCcsICc3LjQnLCAnLXRuJywgJzgnLCAnLW1hJywgJzUwMCcsICctaW1hZScsICc8aW5maWxlLm1hZT4nLCAnLW9tYWUnLCAnPG91dGZpbGUubWFlPic=

>  <s_epik_input>  (1) 
bjFbY0hdb2MoYzFbQ0gzXSlbQ0gyXU4oW0NIM10pW0NIMl1bUEBAXSg9TykoTzIpW0NAXTIoW0NIM10pT1tDQEBIXTNDKD1PKVtDQEBIXShPQyg9QzM0KVtDSDJdW0NIMl1bQ0gyXVtDSDJdNClbQ0gyXVtDSF09Qz1DNVtDSF09W0NIXVtDSDJdW0NIXT1DNUNs

>  <s_glide_docking_method>  (1) 
confgen

>  <s_i_glide_gridfile>  (1) 
gpcr_5ht2c_6bqh_protein_autoprepared_prepared

>  <s_lp_Force_Field>  (1) 
S-OPLS

>  <s_lp_Variant>  (1) 
DiffSBDD_42_num_sample_100-1

>  <s_m_source_file>  (1) 
generated__ligand_DiffSBDD_2026-05-06_prepared.sdf

>  <GenAI_Model>  (1) 
DiffSBDD

>  <Protein>  (1) 
GPCR_5HT2C

$$$$
DiffSBDD_0_num_sample_100
     RDKit          3D

  0  0  0  0  0  0  0  0  0  0999 V3000
M  V30 BEGIN CTAB
M  V30 COUNTS 59 61 0 0 1
M  V30 BEGIN ATOM
M  V30 1 C 43.492959 26.481347 67.144495 0
M  V30 2 C 41.529428 28.811246 64.452247 0 CFG=1
M  V30 3 C 38.617522 29.858213 55.571576 0
M  V30 4 C 39.551598 29.173866 59.119880 0
M  V30 5 C 44.879741 26.843819 67.043520 0
M  V30 6 C 44.414169 27.525801 64.591425 0
M  V30 7 C 38.611184 27.653887 56.627015 0
M  V30 8 C 38.648392 29.248816 54.301611 0
M  V30 9 C 38.598916 29.062455 56.737793 0
M  V30 10 C 41.865908 30.851657 65.933431 0 CFG=2
M  V30 11 N 41.066736 29.938073 62.240608 0
M  V30 12 C 40.478067 28.855393 61.453296 0
M  V30 13 C 39.488271 29.406706 60.445185 0
M  V30 14 C 38.659577 27.844486 54.193636 0
M  V30 15 F 38.651363 25.696386 55.249301 0
M  V30 16 C 38.641622 27.047194 55.355546 0
M  V30 17 C 38.550177 29.723353 58.109544 0 CFG=1
M  V30 18 C 45.337395 27.333034 65.855390 0
M  V30 19 N 36.101405 29.621626 59.053778 0
M  V30 20 C 42.100439 29.502083 63.183042 0
M  V30 21 C 42.745144 26.497691 66.059706 0
M  V30 22 C 41.811017 27.287116 64.399756 0 CFG=1
M  V30 23 N 42.036293 29.411865 65.701257 0
M  V30 24 O 38.685095 27.255517 52.963683 0
M  V30 25 C 42.602149 31.250513 67.224622 0
M  V30 26 C 40.381225 31.234272 66.000872 0
M  V30 27 C 44.131364 31.150723 67.104949 0
M  V30 28 N 43.152053 26.788021 64.805027 0
M  V30 29 S 41.067562 26.278295 65.792890 0
M  V30 30 C 37.177107 29.671634 58.635628 0
M  V30 31 Cl 45.935848 26.692086 68.400939 0
M  V30 32 H 43.058515 26.243914 68.104167 0
M  V30 33 H 40.446490 28.935377 64.440420 0
M  V30 34 H 38.603913 30.935748 55.651162 0
M  V30 35 H 40.350738 28.564305 58.724329 0
M  V30 36 H 44.262848 28.590011 64.425111 0
M  V30 37 H 44.912170 27.131962 63.705236 0
M  V30 38 H 38.592994 27.040394 57.516106 0
M  V30 39 H 38.660856 29.859429 53.409979 0
M  V30 40 H 42.318797 31.428634 65.128977 0
M  V30 41 H 40.328596 30.398427 62.766562 0
M  V30 42 H 39.951229 28.156044 62.103808 0
M  V30 43 H 41.253868 28.290447 60.934422 0
M  V30 44 H 38.690602 30.018676 60.840636 0
M  V30 45 H 38.783725 30.780259 57.977965 0
M  V30 46 H 46.369693 27.621253 65.755853 0
M  V30 47 H 42.788057 28.826058 62.675366 0
M  V30 48 H 42.715100 30.360092 63.446282 0
M  V30 49 H 41.512440 26.842278 63.453881 0
M  V30 50 H 43.001291 29.137264 65.850516 0
M  V30 51 H 38.566447 26.318470 53.016117 0
M  V30 52 H 42.349729 32.280884 67.477316 0
M  V30 53 H 42.252952 30.642167 68.060423 0
M  V30 54 H 40.267405 32.299812 66.198608 0
M  V30 55 H 39.868394 31.030697 65.062297 0
M  V30 56 H 39.867336 30.692793 66.795567 0
M  V30 57 H 44.615058 31.499712 68.017742 0
M  V30 58 H 44.456178 30.124065 66.935695 0
M  V30 59 H 44.503256 31.759441 66.279985 0
M  V30 END ATOM
M  V30 BEGIN BOND
M  V30 1 1 5 1
M  V30 2 2 8 3
M  V30 3 1 9 3
M  V30 4 2 9 7
M  V30 5 1 12 11
M  V30 6 2 13 4
M  V30 7 1 13 12
M  V30 8 1 14 8
M  V30 9 1 16 7
M  V30 10 2 16 14
M  V30 11 1 16 15
M  V30 12 1 17 4
M  V30 13 1 17 9
M  V30 14 2 18 5
M  V30 15 1 18 6
M  V30 16 1 20 2
M  V30 17 1 20 11
M  V30 18 2 21 1
M  V30 19 1 22 2
M  V30 20 1 23 2
M  V30 21 1 23 10
M  V30 22 1 24 14
M  V30 23 1 25 10
M  V30 24 1 26 10
M  V30 25 1 27 25
M  V30 26 1 28 6
M  V30 27 1 28 21
M  V30 28 1 28 22
M  V30 29 1 29 21
M  V30 30 1 29 22
M  V30 31 1 30 17
M  V30 32 3 30 19
M  V30 33 1 31 5
M  V30 34 1 32 1
M  V30 35 1 2 33 CFG=1
M  V30 36 1 34 3
M  V30 37 1 35 4
M  V30 38 1 36 6
M  V30 39 1 37 6
M  V30 40 1 38 7
M  V30 41 1 39 8
M  V30 42 1 10 40 CFG=3
M  V30 43 1 41 11
M  V30 44 1 42 12
M  V30 45 1 43 12
M  V30 46 1 44 13
M  V30 47 1 17 45 CFG=3
M  V30 48 1 46 18
M  V30 49 1 47 20
M  V30 50 1 48 20
M  V30 51 1 22 49 CFG=3
M  V30 52 1 50 23
M  V30 53 1 51 24
M  V30 54 1 52 25
M  V30 55 1 53 25
M  V30 56 1 54 26
M  V30 57 1 55 26
M  V30 58 1 56 26
M  V30 59 1 57 27
M  V30 60 1 58 27
M  V30 61 1 59 27
M  V30 END BOND
M  V30 END CTAB
M  END
>  <i_epik_Tot_Q>  (1) 
0

>  <i_epik_Tot_abs_Q>  (1) 
0

>  <i_i_glide_confnum>  (1) 
219

>  <i_i_glide_lignum>  (1) 
1

>  <i_i_glide_posenum>  (1) 
48

>  <i_i_glide_rotatable_bonds>  (1) 
11

>  <i_lp_mmshare_version>  (1) 
72125

>  <i_m_source_file_index>  (1) 
1

>  <i_f3d_flags>  (1) 
0

>  <num_sample>  (1) 
100

>  <b_lp_Chiralities_Consistent>  (1) 
1

>  <r_epik_Charging_Adjusted_Penalty>  (1) 
0.47819495767320574

>  <r_epik_Ionization_Penalty>  (1) 
0.67182721305937398

>  <r_epik_Ionization_Penalty_Charging>  (1) 
0

>  <r_epik_Ionization_Penalty_Neutral>  (1) 
0.67182721305937398

>  <r_epik_State_Penalty>  (1) 
0.47819495767320574

>  <r_glide_ring_energy>  (1) 
0

>  <r_i_docking_score>  (1) 
-5.8955449096788017

>  <r_i_glide_ecoul>  (1) 
-5.1441688445621123

>  <r_i_glide_eff_state_penalty>  (1) 
0.47819495767320574

>  <r_i_glide_einternal>  (1) 
14.315509256587525

>  <r_i_glide_emodel>  (1) 
-55.595536074079916

>  <r_i_glide_emodel_strain>  (1) 
0

>  <r_i_glide_energy>  (1) 
-44.38670867696694

>  <r_i_glide_erotb>  (1) 
0.75184865993743433

>  <r_i_glide_esite>  (1) 
-0.053017808875897833

>  <r_i_glide_evdw>  (1) 
-39.24253983240483

>  <r_i_glide_gscore>  (1) 
-6.3737398673520076

>  <r_i_glide_gscore_strain>  (1) 
0

>  <r_i_glide_hbond>  (1) 
-0.32000000000000001

>  <r_i_glide_ligand_efficiency>  (1) 
-0.1901788680541549

>  <r_i_glide_ligand_efficiency_ln>  (1) 
-1.3296260538855942

>  <r_i_glide_ligand_efficiency_sa>  (1) 
-0.5974242165990179

>  <r_i_glide_lipo>  (1) 
-2.7685198173046337

>  <r_i_glide_metal>  (1) 
-0

>  <r_i_glide_rewards>  (1) 
-1.2502985828043525

>  <r_lp_Energy>  (1) 
39.698704999999997

>  <r_lp_tautomer_probability>  (1) 
0.99999999999736477

>  <s_epik_Chemistry_Notes>  (1) 
This compound contains an acetal/aminal-like group ( X-CH(R)-Y where X, Y are N, S, or O) that may be acid/base labile, releasing an aldehyde.

>  <s_epik_cmdline>  (1) 
J2VwaWtfcHl0aG9uJywgJy1waHQnLCAnMS4wJywgJy1waCcsICc3LjQnLCAnLXRuJywgJzgnLCAnLW1hJywgJzUwMCcsICctaW1hZScsICc8aW5maWxlLm1hZT4nLCAnLW9tYWUnLCAnPG91dGZpbGUubWFlPic=

>  <s_epik_input>  (1) 
W0NIXT0xQyhDbCk9W0NIXVtDSDJdTihDMTIpW0NAQEhdKFMyKVtDQEBIXShbTkhdW0NAQEhdKFtDSDNdKVtDSDJdW0NIM10pW0NIMl1bTkhdW0NIMl1cW0NIXT1bQ0hdXFtDQEhdKEMjTiljM1tjSF1bY0hdYyhbT0hdKWMoRilbY0hdMw==

>  <s_glide_docking_method>  (1) 
confgen

>  <s_i_glide_gridfile>  (1) 
gpcr_5ht2c_6bqh_protein_autoprepared_prepared

>  <s_lp_Force_Field>  (1) 
S-OPLS

>  <s_lp_Variant>  (1) 
DiffSBDD_0_num_sample_100-1

>  <s_m_source_file>  (1) 
generated__ligand_DiffSBDD_2026-05-06_prepared.sdf

>  <GenAI_Model>  (1) 
DiffSBDD

>  <Protein>  (1) 
GPCR_5HT2C

$$$$
DiffSBDD_44_num_sample_100
     RDKit          3D

  0  0  0  0  0  0  0  0  0  0999 V3000
M  V30 BEGIN CTAB
M  V30 COUNTS 58 59 0 0 1
M  V30 BEGIN ATOM
M  V30 1 C 39.641254 30.739426 53.667663 0
M  V30 2 O 39.041614 32.301280 57.443682 0 CHG=-1
M  V30 3 C 38.036198 35.076233 61.126889 0
M  V30 4 C 38.870400 29.262808 55.469430 0 CFG=1
M  V30 5 N 38.765239 30.683448 55.942034 0 CFG=2 CHG=1
M  V30 6 C 39.661423 33.406767 61.942028 0
M  V30 7 N 38.155228 31.399454 60.728266 0
M  V30 8 C 38.379270 33.816555 61.203733 0
M  V30 9 O 36.211072 32.681995 60.938455 0
M  V30 10 C 39.101425 29.334328 53.946731 0 CFG=1
M  V30 11 C 37.837861 28.991431 53.159858 0
M  V30 12 C 37.807814 30.627720 58.373876 0 CFG=1
M  V30 13 C 38.301025 30.491731 59.840300 0
M  V30 14 C 39.597758 31.477379 54.999579 0
M  V30 15 C 35.297302 33.315654 60.051684 0
M  V30 16 C 39.451150 36.892106 62.008629 0
M  V30 17 C 38.989952 30.990689 57.397407 0 CFG=2
M  V30 18 C 37.568854 32.712542 60.503502 0 CFG=2
M  V30 19 F 41.128403 35.646942 60.862363 0
M  V30 20 C 40.643423 35.885524 62.078945 0 CFG=2
M  V30 21 C 38.214520 36.356731 61.307219 0
M  V30 22 C 36.933026 29.421897 57.989869 0
M  V30 23 C 38.989654 29.176712 60.167218 0
M  V30 24 C 39.993408 28.414236 56.109439 0
M  V30 25 C 40.384892 34.520369 62.769311 0
M  V30 26 H 39.069260 31.275069 52.913764 0
M  V30 27 H 40.664657 30.702895 53.295361 0
M  V30 28 H 37.931748 28.745970 55.661444 0
M  V30 29 H 39.431539 32.588997 62.624703 0
M  V30 30 H 40.352661 33.011208 61.196400 0
M  V30 31 H 39.853640 28.615192 53.633983 0
M  V30 32 H 37.021955 29.611287 53.513669 0
M  V30 33 H 37.971321 29.153552 52.090428 0
M  V30 34 H 37.551320 27.949236 53.306629 0
M  V30 35 H 37.064473 31.417425 58.311873 0
M  V30 36 H 39.201332 32.486492 54.883220 0
M  V30 37 H 40.610323 31.564506 55.393386 0
M  V30 38 H 34.285503 33.200275 60.438595 0
M  V30 39 H 35.501798 34.382913 59.954985 0
M  V30 40 H 35.324381 32.870676 59.053869 0
M  V30 41 H 39.775868 37.785927 61.474105 0
M  V30 42 H 39.168220 37.211941 63.011832 0
M  V30 43 H 39.865887 30.416863 57.684476 0
M  V30 44 H 37.621308 33.009916 59.458658 0
M  V30 45 H 41.453768 36.383318 62.614845 0
M  V30 46 H 37.506608 37.082485 60.934518 0
M  V30 47 H 36.142048 29.275328 58.725634 0
M  V30 48 H 36.420472 29.620649 57.047005 0
M  V30 49 H 37.493558 28.491690 57.912864 0
M  V30 50 H 39.738556 28.924003 59.420047 0
M  V30 51 H 39.498316 29.246661 61.129489 0
M  V30 52 H 38.265921 28.365308 60.226522 0
M  V30 53 H 39.998259 27.413480 55.677681 0
M  V30 54 H 40.981116 28.837178 55.926660 0
M  V30 55 H 39.856542 28.272663 57.179434 0
M  V30 56 H 39.865634 34.703130 63.706529 0
M  V30 57 H 41.351981 34.113946 63.067614 0
M  V30 58 H 37.817286 30.991743 55.770818 0
M  V30 END ATOM
M  V30 BEGIN BOND
M  V30 1 1 5 4
M  V30 2 2 8 3
M  V30 3 1 8 6
M  V30 4 1 10 1
M  V30 5 1 10 4
M  V30 6 1 11 10
M  V30 7 2 13 7
M  V30 8 1 13 12
M  V30 9 1 14 1
M  V30 10 1 14 5
M  V30 11 1 15 9
M  V30 12 1 17 2
M  V30 13 1 17 5
M  V30 14 1 17 12
M  V30 15 1 18 7
M  V30 16 1 18 8
M  V30 17 1 18 9
M  V30 18 1 20 16
M  V30 19 1 20 19
M  V30 20 2 21 3
M  V30 21 1 21 16
M  V30 22 1 22 12
M  V30 23 1 23 13
M  V30 24 1 24 4
M  V30 25 1 25 6
M  V30 26 1 25 20
M  V30 27 1 26 1
M  V30 28 1 27 1
M  V30 29 1 4 28 CFG=3
M  V30 30 1 29 6
M  V30 31 1 30 6
M  V30 32 1 10 31 CFG=3
M  V30 33 1 32 11
M  V30 34 1 33 11
M  V30 35 1 34 11
M  V30 36 1 12 35 CFG=1
M  V30 37 1 36 14
M  V30 38 1 37 14
M  V30 39 1 38 15
M  V30 40 1 39 15
M  V30 41 1 40 15
M  V30 42 1 41 16
M  V30 43 1 42 16
M  V30 44 1 17 43 CFG=1
M  V30 45 1 18 44 CFG=3
M  V30 46 1 20 45 CFG=1
M  V30 47 1 46 21
M  V30 48 1 47 22
M  V30 49 1 48 22
M  V30 50 1 49 22
M  V30 51 1 50 23
M  V30 52 1 51 23
M  V30 53 1 52 23
M  V30 54 1 53 24
M  V30 55 1 54 24
M  V30 56 1 55 24
M  V30 57 1 56 25
M  V30 58 1 57 25
M  V30 59 1 5 58 CFG=3
M  V30 END BOND
M  V30 END CTAB
M  END
>  <i_epik_Tot_Q>  (1) 
0

>  <i_epik_Tot_abs_Q>  (1) 
2

>  <i_i_glide_confnum>  (1) 
10

>  <i_i_glide_lignum>  (1) 
119

>  <i_i_glide_posenum>  (1) 
260

>  <i_i_glide_rotatable_bonds>  (1) 
6

>  <i_lp_mmshare_version>  (1) 
72125

>  <i_m_source_file_index>  (1) 
45

>  <i_f3d_flags>  (1) 
0

>  <num_sample>  (1) 
100

>  <b_lp_Chiralities_Consistent>  (1) 
1

>  <r_epik_Charging_Adjusted_Penalty>  (1) 
0.41733257654759531

>  <r_epik_Ionization_Penalty>  (1) 
0.0069177268181324029

>  <r_epik_Ionization_Penalty_Charging>  (1) 
0.0066527375949913311

>  <r_epik_Ionization_Penalty_Neutral>  (1) 
0.00026498922314107146

>  <r_epik_State_Penalty>  (1) 
0.41067983895260396

>  <r_glide_ring_energy>  (1) 
0

>  <r_i_docking_score>  (1) 
-5.8944822775153485

>  <r_i_glide_ecoul>  (1) 
-1.949349451497022

>  <r_i_glide_eff_state_penalty>  (1) 
0.41067983895260396

>  <r_i_glide_einternal>  (1) 
33.788968198550009

>  <r_i_glide_emodel>  (1) 
-31.419868336027811

>  <r_i_glide_emodel_strain>  (1) 
2.0011946309686977

>  <r_i_glide_energy>  (1) 
-32.112473361824549

>  <r_i_glide_erotb>  (1) 
0.61440649929112812

>  <r_i_glide_esite>  (1) 
-0.059801194741422814

>  <r_i_glide_evdw>  (1) 
-30.163123910327524

>  <r_i_glide_gscore>  (1) 
-6.3051621164679528

>  <r_i_glide_gscore_strain>  (1) 
0

>  <r_i_glide_hbond>  (1) 
0

>  <r_i_glide_ligand_efficiency>  (1) 
-0.23577929110061394

>  <r_i_glide_ligand_efficiency_ln>  (1) 
-1.397168943150749

>  <r_i_glide_ligand_efficiency_sa>  (1) 
-0.68942282948145017

>  <r_i_glide_lipo>  (1) 
-3.0053319128334817

>  <r_i_glide_metal>  (1) 
-0

>  <r_i_glide_rewards>  (1) 
-2.0538768949432473

>  <r_lp_Energy>  (1) 
16.849003

>  <r_lp_tautomer_probability>  (1) 
0.49999399997599986

>  <s_epik_Chemistry_Notes>  (1) 
This compound has an imine and may undergo hydrolysis. This compound contains an acetal/aminal-like group ( X-CH(R)-Y where X, Y are N, S, or O) that may be acid/base labile, releasing an aldehyde.

>  <s_epik_cmdline>  (1) 
J2VwaWtfcHl0aG9uJywgJy1waHQnLCAnMS4wJywgJy1waCcsICc3LjQnLCAnLXRuJywgJzgnLCAnLW1hJywgJzUwMCcsICctaW1hZScsICc8aW5maWxlLm1hZT4nLCAnLW9tYWUnLCAnPG91dGZpbGUubWFlPic=

>  <s_epik_input>  (1) 
W0NIM11bQ0BIXTFbQ0gyXVtDSDJdTihbQ0BASF0xW0NIM10pW0NAQEhdKFtPSF0pW0NAQEhdKFtDSDNdKS9DKFtDSDNdKT1OXFtDQEBIXShPW0NIM10pQzI9Qz1bQ0hdW0NIMl1bQ0BASF0oRilbQ0gyXVtDSDJdMg==

>  <s_glide_docking_method>  (1) 
confgen

>  <s_i_glide_gridfile>  (1) 
gpcr_5ht2c_6bqh_protein_autoprepared_prepared

>  <s_lp_Force_Field>  (1) 
S-OPLS

>  <s_lp_Variant>  (1) 
DiffSBDD_44_num_sample_100-12

>  <s_m_source_file>  (1) 
generated__ligand_DiffSBDD_2026-05-06_prepared.sdf

>  <GenAI_Model>  (1) 
DiffSBDD

>  <Protein>  (1) 
GPCR_5HT2C

$$$$
DiffSBDD_44_num_sample_100
     RDKit          3D

  0  0  0  0  0  0  0  0  0  0999 V3000
M  V30 BEGIN CTAB
M  V30 COUNTS 58 59 0 0 1
M  V30 BEGIN ATOM
M  V30 1 C 36.349295 34.682702 60.115218 0
M  V30 2 O 38.403554 31.436674 58.586735 0 CHG=-1
M  V30 3 C 39.029638 28.747650 52.624486 0
M  V30 4 C 38.725919 34.076673 60.109727 0 CFG=1
M  V30 5 N 38.038873 33.621430 58.859675 0 CFG=2 CHG=1
M  V30 6 C 40.340867 30.797446 52.497588 0
M  V30 7 N 39.495723 30.984978 55.401691 0
M  V30 8 C 39.618040 29.719424 53.266114 0
M  V30 9 O 39.178334 28.587688 55.429369 0
M  V30 10 C 37.627128 34.763120 60.953514 0 CFG=1
M  V30 11 C 37.981304 36.196978 61.376390 0
M  V30 12 C 38.102471 32.624173 56.542033 0 CFG=1
M  V30 13 C 38.332172 31.352179 55.727799 0
M  V30 14 C 36.594710 33.522487 59.161156 0
M  V30 15 C 39.679590 28.301931 56.727846 0
M  V30 16 C 39.432728 28.469094 50.204580 0
M  V30 17 C 38.672891 32.579574 57.997990 0 CFG=2
M  V30 18 C 39.781070 29.716188 54.789671 0 CFG=2
M  V30 19 F 39.467405 30.900038 49.810296 0
M  V30 20 C 40.193960 29.826865 50.069556 0 CFG=1
M  V30 21 C 38.838663 28.048993 51.542517 0
M  V30 22 C 38.487665 33.861781 55.723925 0
M  V30 23 C 37.067747 30.563876 55.355186 0
M  V30 24 C 39.426298 32.969343 60.922797 0
M  V30 25 C 41.067407 30.234960 51.233703 0
M  V30 26 H 36.204127 35.599646 59.541021 0
M  V30 27 H 35.467224 34.524824 60.731301 0
M  V30 28 H 39.495456 34.803276 59.853507 0
M  V30 29 H 39.657924 31.609159 52.246319 0
M  V30 30 H 41.067407 31.221444 53.180463 0
M  V30 31 H 37.453054 34.174228 61.853491 0
M  V30 32 H 38.164146 36.835244 60.511710 0
M  V30 33 H 37.173715 36.646127 61.954552 0
M  V30 34 H 38.879731 36.215196 61.992960 0
M  V30 35 H 37.067406 32.767267 56.637322 0
M  V30 36 H 35.965168 33.621446 58.278485 0
M  V30 37 H 36.364367 32.574309 59.649355 0
M  V30 38 H 39.149109 27.441414 57.137168 0
M  V30 39 H 40.741389 28.057988 56.697273 0
M  V30 40 H 39.534740 29.137861 57.412744 0
M  V30 41 H 40.147312 27.681362 49.969657 0
M  V30 42 H 38.667405 28.421441 49.453503 0
M  V30 43 H 39.692778 32.931718 57.881040 0
M  V30 44 H 40.850122 29.621411 54.959381 0
M  V30 45 H 40.830813 29.734301 49.188859 0
M  V30 46 H 38.346568 27.088439 51.574437 0
M  V30 47 H 37.897268 33.885202 54.806874 0
M  V30 48 H 38.267415 34.782940 56.255686 0
M  V30 49 H 39.537827 33.862185 55.453487 0
M  V30 50 H 36.289622 31.221387 54.982253 0
M  V30 51 H 37.223409 29.840032 54.560452 0
M  V30 52 H 36.692896 30.023262 56.225191 0
M  V30 53 H 39.829236 33.369618 61.854324 0
M  V30 54 H 38.733770 32.166398 61.179053 0
M  V30 55 H 40.255001 32.531864 60.369336 0
M  V30 56 H 41.768139 30.986734 50.872806 0
M  V30 57 H 41.657665 29.344346 51.453382 0
M  V30 58 H 38.072765 34.435476 58.266278 0
M  V30 END ATOM
M  V30 BEGIN BOND
M  V30 1 1 5 4
M  V30 2 2 8 3
M  V30 3 1 8 6
M  V30 4 1 10 1
M  V30 5 1 10 4
M  V30 6 1 11 10
M  V30 7 2 13 7
M  V30 8 1 13 12
M  V30 9 1 14 1
M  V30 10 1 14 5
M  V30 11 1 15 9
M  V30 12 1 17 2
M  V30 13 1 17 5
M  V30 14 1 17 12
M  V30 15 1 18 7
M  V30 16 1 18 8
M  V30 17 1 18 9
M  V30 18 1 20 16
M  V30 19 1 20 19
M  V30 20 2 21 3
M  V30 21 1 21 16
M  V30 22 1 22 12
M  V30 23 1 23 13
M  V30 24 1 24 4
M  V30 25 1 25 6
M  V30 26 1 25 20
M  V30 27 1 26 1
M  V30 28 1 27 1
M  V30 29 1 4 28 CFG=3
M  V30 30 1 29 6
M  V30 31 1 30 6
M  V30 32 1 10 31 CFG=1
M  V30 33 1 32 11
M  V30 34 1 33 11
M  V30 35 1 34 11
M  V30 36 1 12 35 CFG=1
M  V30 37 1 36 14
M  V30 38 1 37 14
M  V30 39 1 38 15
M  V30 40 1 39 15
M  V30 41 1 40 15
M  V30 42 1 41 16
M  V30 43 1 42 16
M  V30 44 1 17 43 CFG=3
M  V30 45 1 18 44 CFG=3
M  V30 46 1 20 45 CFG=3
M  V30 47 1 46 21
M  V30 48 1 47 22
M  V30 49 1 48 22
M  V30 50 1 49 22
M  V30 51 1 50 23
M  V30 52 1 51 23
M  V30 53 1 52 23
M  V30 54 1 53 24
M  V30 55 1 54 24
M  V30 56 1 55 24
M  V30 57 1 56 25
M  V30 58 1 57 25
M  V30 59 1 5 58 CFG=3
M  V30 END BOND
M  V30 END CTAB
M  END
>  <i_epik_Tot_Q>  (1) 
0

>  <i_epik_Tot_abs_Q>  (1) 
2

>  <i_i_glide_confnum>  (1) 
33

>  <i_i_glide_lignum>  (1) 
109

>  <i_i_glide_posenum>  (1) 
9

>  <i_i_glide_rotatable_bonds>  (1) 
6

>  <i_lp_mmshare_version>  (1) 
72125

>  <i_m_source_file_index>  (1) 
45

>  <i_f3d_flags>  (1) 
0

>  <num_sample>  (1) 
100

>  <b_lp_Chiralities_Consistent>  (1) 
1

>  <r_epik_Charging_Adjusted_Penalty>  (1) 
0.41733257654759531

>  <r_epik_Ionization_Penalty>  (1) 
0.0069177268181324029

>  <r_epik_Ionization_Penalty_Charging>  (1) 
0.0066527375949913311

>  <r_epik_Ionization_Penalty_Neutral>  (1) 
0.00026498922314107146

>  <r_epik_State_Penalty>  (1) 
0.41067983895260396

>  <r_glide_ring_energy>  (1) 
0

>  <r_i_docking_score>  (1) 
-5.8899232637466064

>  <r_i_glide_ecoul>  (1) 
-1.1922771031722963

>  <r_i_glide_eff_state_penalty>  (1) 
0.41067983895260396

>  <r_i_glide_einternal>  (1) 
6.3008882633523804

>  <r_i_glide_emodel>  (1) 
-32.826419204447681

>  <r_i_glide_emodel_strain>  (1) 
2.9585919760175656

>  <r_i_glide_energy>  (1) 
-24.912504582940187

>  <r_i_glide_erotb>  (1) 
0.61440649929112812

>  <r_i_glide_esite>  (1) 
-0.14362568037259762

>  <r_i_glide_evdw>  (1) 
-23.720227479767889

>  <r_i_glide_gscore>  (1) 
-6.3006031026992106

>  <r_i_glide_gscore_strain>  (1) 
0

>  <r_i_glide_hbond>  (1) 
0

>  <r_i_glide_ligand_efficiency>  (1) 
-0.23559693054986425

>  <r_i_glide_ligand_efficiency_ln>  (1) 
-1.3960883202649392

>  <r_i_glide_ligand_efficiency_sa>  (1) 
-0.68888960399630783

>  <r_i_glide_lipo>  (1) 
-2.8078350292315233

>  <r_i_glide_metal>  (1) 
-0

>  <r_i_glide_rewards>  (1) 
-2.5986959529219784

>  <r_lp_Energy>  (1) 
10.776309999999999

>  <r_lp_tautomer_probability>  (1) 
0.49999399997599986

>  <s_epik_Chemistry_Notes>  (1) 
This compound has an imine and may undergo hydrolysis. This compound contains an acetal/aminal-like group ( X-CH(R)-Y where X, Y are N, S, or O) that may be acid/base labile, releasing an aldehyde.

>  <s_epik_cmdline>  (1) 
J2VwaWtfcHl0aG9uJywgJy1waHQnLCAnMS4wJywgJy1waCcsICc3LjQnLCAnLXRuJywgJzgnLCAnLW1hJywgJzUwMCcsICctaW1hZScsICc8aW5maWxlLm1hZT4nLCAnLW9tYWUnLCAnPG91dGZpbGUubWFlPic=

>  <s_epik_input>  (1) 
W0NIM11bQ0BIXTFbQ0gyXVtDSDJdTihbQ0BASF0xW0NIM10pW0NAQEhdKFtPSF0pW0NAQEhdKFtDSDNdKVxDKFtDSDNdKT1OXFtDQEBIXShPW0NIM10pQzI9Qz1bQ0hdW0NIMl1bQ0BASF0oRilbQ0gyXVtDSDJdMg==

>  <s_glide_docking_method>  (1) 
confgen

>  <s_i_glide_gridfile>  (1) 
gpcr_5ht2c_6bqh_protein_autoprepared_prepared

>  <s_lp_Force_Field>  (1) 
S-OPLS

>  <s_lp_Variant>  (1) 
DiffSBDD_44_num_sample_100-2

>  <s_m_source_file>  (1) 
generated__ligand_DiffSBDD_2026-05-06_prepared.sdf

>  <GenAI_Model>  (1) 
DiffSBDD

>  <Protein>  (1) 
GPCR_5HT2C

$$$$
DiffSBDD_51_num_sample_100
     RDKit          3D

  0  0  0  0  0  0  0  0  0  0999 V3000
M  V30 BEGIN CTAB
M  V30 COUNTS 64 65 0 0 1
M  V30 BEGIN ATOM
M  V30 1 C 38.703886 30.350981 56.100857 0 CFG=1
M  V30 2 O 40.191220 26.419139 57.836858 0
M  V30 3 C 38.936277 28.611889 54.306171 0
M  V30 4 N 39.704953 28.412399 56.803701 0
M  V30 5 C 38.625533 32.197363 59.504001 0
M  V30 6 C 36.960610 30.378255 59.234578 0 CFG=2
M  V30 7 C 39.006603 29.756429 53.266975 0
M  V30 8 C 39.578092 29.169474 55.582004 0 CFG=2
M  V30 9 N 38.506360 34.275222 60.557473 0
M  V30 10 O 39.557120 28.714541 59.060925 0
M  V30 11 N 38.193760 33.454170 59.499748 0
M  V30 12 C 39.046144 30.561181 57.593590 0 CFG=2
M  V30 13 N 36.192643 29.621429 58.253519 0 CHG=1
M  V30 14 C 37.851928 35.421153 60.704075 0
M  V30 15 C 38.561006 38.495285 61.053608 0
M  V30 16 C 36.697318 37.060959 63.969345 0
M  V30 17 C 38.435635 31.109160 53.782719 0
M  V30 18 C 41.077181 36.142341 62.495453 0
M  V30 19 C 40.075709 27.102245 56.817086 0
M  V30 20 O 37.084051 35.871843 59.849597 0
M  V30 21 C 39.467421 29.128737 57.903868 0
M  V30 22 C 35.961588 31.139957 60.133232 0
M  V30 23 C 36.667111 36.497127 62.571001 0
M  V30 24 C 37.989245 31.265574 58.481780 0 CFG=2
M  V30 25 C 39.050010 37.329506 61.946217 0 CFG=1
M  V30 26 O 39.454996 31.773361 60.309937 0
M  V30 27 C 38.058766 36.148021 62.025569 0 CFG=2
M  V30 28 C 38.930722 31.534445 55.164755 0
M  V30 29 O 40.328560 36.854916 61.520276 0
M  V30 30 H 37.649437 30.072444 56.044280 0
M  V30 31 H 37.901104 28.309971 54.480497 0
M  V30 32 H 39.467744 27.739331 53.926295 0
M  V30 33 H 37.471064 29.669916 59.886010 0
M  V30 34 H 40.046642 29.916729 52.981380 0
M  V30 35 H 38.495594 29.452196 52.353612 0
M  V30 36 H 40.586049 29.523482 55.353600 0
M  V30 37 H 39.123603 33.837350 61.227884 0
M  V30 38 H 37.494273 33.855317 58.885855 0
M  V30 39 H 39.867392 31.228059 57.453571 0
M  V30 40 H 35.762669 30.303924 57.621449 0
M  V30 41 H 35.468501 29.084423 58.706433 0
M  V30 42 H 37.672680 38.978464 61.453557 0
M  V30 43 H 38.267362 38.167925 60.056870 0
M  V30 44 H 39.331095 39.260305 60.955188 0
M  V30 45 H 35.698700 37.199374 64.384462 0
M  V30 46 H 37.164689 38.021441 63.853504 0
M  V30 47 H 37.292346 36.457860 64.653304 0
M  V30 48 H 38.667459 31.904247 53.070650 0
M  V30 49 H 37.351153 31.033103 53.853542 0
M  V30 50 H 42.096096 36.021529 62.135403 0
M  V30 51 H 40.673627 35.145808 62.666706 0
M  V30 52 H 41.124400 36.673225 63.447096 0
M  V30 53 H 40.259794 26.732761 55.796762 0
M  V30 54 H 36.427849 31.789857 60.872491 0
M  V30 55 H 35.397009 30.429076 60.722094 0
M  V30 56 H 35.265024 31.742984 59.550221 0
M  V30 57 H 36.024665 35.615261 62.575788 0
M  V30 58 H 36.201254 37.233436 61.918960 0
M  V30 59 H 37.442311 31.920237 57.804635 0
M  V30 60 H 39.195273 37.740077 62.944383 0
M  V30 61 H 38.480448 35.420569 62.713185 0
M  V30 62 H 38.386587 32.416668 55.504598 0
M  V30 63 H 39.985595 31.810040 55.124854 0
M  V30 64 H 36.799053 29.011775 57.726603 0
M  V30 END ATOM
M  V30 BEGIN BOND
M  V30 1 1 7 3
M  V30 2 1 8 1
M  V30 3 1 8 3
M  V30 4 1 8 4
M  V30 5 1 11 5
M  V30 6 1 11 9
M  V30 7 1 12 1
M  V30 8 1 13 6
M  V30 9 1 14 9
M  V30 10 1 17 7
M  V30 11 2 19 2
M  V30 12 1 19 4
M  V30 13 2 20 14
M  V30 14 1 21 4
M  V30 15 2 21 10
M  V30 16 1 21 12
M  V30 17 1 22 6
M  V30 18 1 23 16
M  V30 19 1 24 5
M  V30 20 1 24 6
M  V30 21 1 24 12
M  V30 22 1 25 15
M  V30 23 2 26 5
M  V30 24 1 27 14
M  V30 25 1 27 23
M  V30 26 1 27 25
M  V30 27 1 28 1
M  V30 28 1 28 17
M  V30 29 1 29 18
M  V30 30 1 29 25
M  V30 31 1 1 30 CFG=1
M  V30 32 1 31 3
M  V30 33 1 32 3
M  V30 34 1 6 33 CFG=1
M  V30 35 1 34 7
M  V30 36 1 35 7
M  V30 37 1 8 36 CFG=3
M  V30 38 1 37 9
M  V30 39 1 38 11
M  V30 40 1 12 39 CFG=3
M  V30 41 1 40 13
M  V30 42 1 41 13
M  V30 43 1 42 15
M  V30 44 1 43 15
M  V30 45 1 44 15
M  V30 46 1 45 16
M  V30 47 1 46 16
M  V30 48 1 47 16
M  V30 49 1 48 17
M  V30 50 1 49 17
M  V30 51 1 50 18
M  V30 52 1 51 18
M  V30 53 1 52 18
M  V30 54 1 53 19
M  V30 55 1 54 22
M  V30 56 1 55 22
M  V30 57 1 56 22
M  V30 58 1 57 23
M  V30 59 1 58 23
M  V30 60 1 24 59 CFG=3
M  V30 61 1 25 60 CFG=1
M  V30 62 1 27 61 CFG=1
M  V30 63 1 62 28
M  V30 64 1 63 28
M  V30 65 1 64 13
M  V30 END BOND
M  V30 END CTAB
M  END
>  <i_epik_Tot_Q>  (1) 
1

>  <i_epik_Tot_abs_Q>  (1) 
1

>  <i_i_glide_confnum>  (1) 
2

>  <i_i_glide_lignum>  (1) 
137

>  <i_i_glide_posenum>  (1) 
333

>  <i_i_glide_rotatable_bonds>  (1) 
11

>  <i_lp_mmshare_version>  (1) 
72125

>  <i_m_source_file_index>  (1) 
52

>  <i_f3d_flags>  (1) 
0

>  <num_sample>  (1) 
100

>  <b_lp_Chiralities_Consistent>  (1) 
1

>  <r_epik_Charging_Adjusted_Penalty>  (1) 
0.019458142528331109

>  <r_epik_Ionization_Penalty>  (1) 
0.0099781937774174462

>  <r_epik_Ionization_Penalty_Charging>  (1) 
0.0097290712641655529

>  <r_epik_Ionization_Penalty_Neutral>  (1) 
0.00024912251325189406

>  <r_epik_State_Penalty>  (1) 
0.0097290712641655563

>  <r_glide_ring_energy>  (1) 
0

>  <r_i_docking_score>  (1) 
-5.8888558778174529

>  <r_i_glide_ecoul>  (1) 
-5.0336298999211824

>  <r_i_glide_eff_state_penalty>  (1) 
0.0097290712641655563

>  <r_i_glide_einternal>  (1) 
21.493660100267149

>  <r_i_glide_emodel>  (1) 
-44.532850479207916

>  <r_i_glide_emodel_strain>  (1) 
0.58854065610834994

>  <r_i_glide_energy>  (1) 
-36.560622988734828

>  <r_i_glide_erotb>  (1) 
0.81470354957181534

>  <r_i_glide_esite>  (1) 
-0.11352934759396763

>  <r_i_glide_evdw>  (1) 
-31.526993088813647

>  <r_i_glide_gscore>  (1) 
-5.8985849490816182

>  <r_i_glide_gscore_strain>  (1) 
0

>  <r_i_glide_hbond>  (1) 
-0.20000000000000001

>  <r_i_glide_ligand_efficiency>  (1) 
-0.20306399578680873

>  <r_i_glide_ligand_efficiency_ln>  (1) 
-1.3483986675195507

>  <r_i_glide_ligand_efficiency_sa>  (1) 
-0.62387693094681251

>  <r_i_glide_lipo>  (1) 
-1.8426937281061462

>  <r_i_glide_metal>  (1) 
-0

>  <r_i_glide_rewards>  (1) 
-2.2256712835244596

>  <r_lp_Energy>  (1) 
32.699864999999996

>  <r_lp_tautomer_probability>  (1) 
0.99995000000000001

>  <s_epik_cmdline>  (1) 
J2VwaWtfcHl0aG9uJywgJy1waHQnLCAnMS4wJywgJy1waCcsICc3LjQnLCAnLXRuJywgJzgnLCAnLW1hJywgJzUwMCcsICctaW1hZScsICc8aW5maWxlLm1hZT4nLCAnLW9tYWUnLCAnPG91dGZpbGUubWFlPic=

>  <s_epik_input>  (1) 
W0NIMl0xW0NIMl1bQ0gyXVtDSDJdW0NAQEhdKFtDQEhdMTIpTihbQ0hdPU8pQyg9TylbQ0BASF0yW0NAQEhdKFtDQEhdKFtOSDJdKVtDSDNdKUMoPU8pW05IXVtOSF1DKD1PKVtDQEhdKFtDSDJdW0NIM10pW0NASF0oW0NIM10pT1tDSDNd

>  <s_glide_docking_method>  (1) 
confgen

>  <s_i_glide_gridfile>  (1) 
gpcr_5ht2c_6bqh_protein_autoprepared_prepared

>  <s_lp_Force_Field>  (1) 
S-OPLS

>  <s_lp_Variant>  (1) 
DiffSBDD_51_num_sample_100-2

>  <s_m_source_file>  (1) 
generated__ligand_DiffSBDD_2026-05-06_prepared.sdf

>  <GenAI_Model>  (1) 
DiffSBDD

>  <Protein>  (1) 
GPCR_5HT2C

$$$$
DiffSBDD_39_num_sample_100
     RDKit          3D

  0  0  0  0  0  0  0  0  0  0999 V3000
M  V30 BEGIN CTAB
M  V30 COUNTS 61 64 0 0 1
M  V30 BEGIN ATOM
M  V30 1 C 39.406782 34.416326 60.255467 0
M  V30 2 C 37.661496 28.423162 57.967597 0
M  V30 3 C 36.434639 32.335036 61.333797 0
M  V30 4 C 37.980101 29.654603 58.801428 0
M  V30 5 C 38.157751 32.814268 58.781205 0
M  V30 6 C 39.293897 26.677098 57.117578 0
M  V30 7 N 39.227921 26.602615 53.369332 0
M  V30 8 O 37.066111 31.388586 61.853498 0 CHG=-1
M  V30 9 C 39.279677 27.119867 55.708310 0
M  V30 10 C 37.078932 34.936570 59.696537 0
M  V30 11 O 36.181323 33.430110 61.853541 0
M  V30 12 C 37.159424 36.106405 60.482876 0
M  V30 13 C 38.353037 36.419555 61.168429 0
M  V30 14 N 37.085204 32.004044 58.991416 0
M  V30 15 C 40.771694 35.904462 61.784774 0
M  V30 16 C 35.037697 33.370278 59.441249 0
M  V30 17 C 39.368889 28.238201 51.549936 0
M  V30 18 C 37.067238 30.742905 58.254130 0
M  V30 19 C 41.285531 33.628041 62.994848 0
M  V30 20 C 39.451933 28.586839 55.347237 0
M  V30 21 C 35.945065 32.199727 59.903492 0 CFG=2
M  V30 22 C 39.745365 29.767068 51.519726 0
M  V30 23 O 40.936105 32.905608 63.952575 0 CHG=-1
M  V30 24 C 38.210953 34.077139 59.594312 0
M  V30 25 S 39.630404 30.490786 53.232163 0
M  V30 26 C 39.453029 28.909939 53.894226 0
M  V30 27 O 39.614137 29.461263 56.195311 0
M  V30 28 C 39.478717 35.571335 61.052803 0
M  V30 29 Cl 39.031799 24.558502 55.053463 0
M  V30 30 C 40.989844 35.136739 63.115726 0
M  V30 31 C 39.209118 26.229126 54.701478 0
M  V30 32 C 38.616756 27.266980 58.124814 0
M  V30 33 C 35.791889 34.612616 58.949456 0
M  V30 34 O 39.067361 32.537566 58.007236 0
M  V30 35 C 39.346121 27.927930 53.019326 0
M  V30 36 O 41.867121 33.234606 61.957864 0
M  V30 37 H 40.266891 33.769944 60.171177 0
M  V30 38 H 37.468435 28.672013 56.930451 0
M  V30 39 H 36.682971 28.050604 58.253313 0
M  V30 40 H 37.788895 29.468764 59.857588 0
M  V30 41 H 39.027146 29.940030 58.704093 0
M  V30 42 H 39.887576 25.806266 57.361280 0
M  V30 43 H 36.304684 36.760539 60.563975 0
M  V30 44 H 38.406057 37.312152 61.776802 0
M  V30 45 H 41.609228 35.724541 61.110299 0
M  V30 46 H 40.791249 36.972227 61.992880 0
M  V30 47 H 34.353926 33.654538 60.241431 0
M  V30 48 H 34.368845 33.028805 58.653914 0
M  V30 49 H 40.089767 27.622551 51.007901 0
M  V30 50 H 38.374538 28.069228 51.129823 0
M  V30 51 H 37.322084 30.917467 57.204850 0
M  V30 52 H 36.054185 30.345755 58.254611 0
M  V30 53 H 35.312294 31.315945 59.942852 0
M  V30 54 H 39.122353 30.310425 50.810732 0
M  V30 55 H 40.772558 29.879911 51.173303 0
M  V30 56 H 41.842936 35.571818 63.636034 0
M  V30 57 H 40.131752 35.279409 63.773298 0
M  V30 58 H 38.725751 26.876201 59.126996 0
M  V30 59 H 35.128724 35.477596 58.915092 0
M  V30 60 H 36.074309 34.420443 57.916931 0
M  V30 61 H 39.141250 25.899581 52.649700 0
M  V30 END ATOM
M  V30 BEGIN BOND
M  V30 1 1 4 2
M  V30 2 1 8 3
M  V30 3 1 9 6
M  V30 4 2 11 3
M  V30 5 1 12 10
M  V30 6 2 13 12
M  V30 7 1 14 5
M  V30 8 1 18 4
M  V30 9 1 18 14
M  V30 10 1 20 9
M  V30 11 1 21 3
M  V30 12 1 21 14
M  V30 13 1 21 16
M  V30 14 1 22 17
M  V30 15 1 23 19
M  V30 16 1 24 1
M  V30 17 1 24 5
M  V30 18 2 24 10
M  V30 19 1 25 22
M  V30 20 1 26 20
M  V30 21 1 26 25
M  V30 22 2 27 20
M  V30 23 2 28 1
M  V30 24 1 28 13
M  V30 25 1 28 15
M  V30 26 1 30 15
M  V30 27 1 30 19
M  V30 28 1 31 7
M  V30 29 2 31 9
M  V30 30 1 31 29
M  V30 31 1 32 2
M  V30 32 2 32 6
M  V30 33 1 33 10
M  V30 34 1 33 16
M  V30 35 2 34 5
M  V30 36 1 35 7
M  V30 37 1 35 17
M  V30 38 2 35 26
M  V30 39 2 36 19
M  V30 40 1 37 1
M  V30 41 1 38 2
M  V30 42 1 39 2
M  V30 43 1 40 4
M  V30 44 1 41 4
M  V30 45 1 42 6
M  V30 46 1 43 12
M  V30 47 1 44 13
M  V30 48 1 45 15
M  V30 49 1 46 15
M  V30 50 1 47 16
M  V30 51 1 48 16
M  V30 52 1 49 17
M  V30 53 1 50 17
M  V30 54 1 51 18
M  V30 55 1 52 18
M  V30 56 1 21 53 CFG=1
M  V30 57 1 54 22
M  V30 58 1 55 22
M  V30 59 1 56 30
M  V30 60 1 57 30
M  V30 61 1 58 32
M  V30 62 1 59 33
M  V30 63 1 60 33
M  V30 64 1 61 7
M  V30 END BOND
M  V30 END CTAB
M  END
>  <i_epik_Tot_Q>  (1) 
-2

>  <i_epik_Tot_abs_Q>  (1) 
2

>  <i_i_glide_confnum>  (1) 
11

>  <i_i_glide_lignum>  (1) 
99

>  <i_i_glide_posenum>  (1) 
29

>  <i_i_glide_rotatable_bonds>  (1) 
9

>  <i_lp_mmshare_version>  (1) 
72125

>  <i_m_source_file_index>  (1) 
40

>  <i_f3d_flags>  (1) 
0

>  <num_sample>  (1) 
100

>  <b_lp_Chiralities_Consistent>  (1) 
1

>  <r_epik_Charging_Adjusted_Penalty>  (1) 
2.4833595310622814

>  <r_epik_Ionization_Penalty>  (1) 
1.1966221344959846

>  <r_epik_Ionization_Penalty_Charging>  (1) 
1.1966221333468745

>  <r_epik_Ionization_Penalty_Neutral>  (1) 
1.1491101627543943e-09

>  <r_epik_State_Penalty>  (1) 
1.2867373977154066

>  <r_glide_ring_energy>  (1) 
0

>  <r_i_docking_score>  (1) 
-5.8865627345259881

>  <r_i_glide_ecoul>  (1) 
-4.4175784710150845

>  <r_i_glide_eff_state_penalty>  (1) 
1.2867373977154066

>  <r_i_glide_einternal>  (1) 
9.1891133320848084

>  <r_i_glide_emodel>  (1) 
-49.374570643811722

>  <r_i_glide_emodel_strain>  (1) 
3.7626552202253265

>  <r_i_glide_energy>  (1) 
-37.696899695928415

>  <r_i_glide_erotb>  (1) 
0.44176053004123106

>  <r_i_glide_esite>  (1) 
-0.16519993603507155

>  <r_i_glide_evdw>  (1) 
-33.279321224913332

>  <r_i_glide_gscore>  (1) 
-7.173300132241395

>  <r_i_glide_gscore_strain>  (1) 
0

>  <r_i_glide_hbond>  (1) 
-0.16

>  <r_i_glide_ligand_efficiency>  (1) 
-0.16351563151461079

>  <r_i_glide_ligand_efficiency_ln>  (1) 
-1.2842889521274214

>  <r_i_glide_ligand_efficiency_sa>  (1) 
-0.53991671931830643

>  <r_i_glide_lipo>  (1) 
-3.9608247599903437

>  <r_i_glide_metal>  (1) 
-0

>  <r_i_glide_rewards>  (1) 
-1.0024331343592812

>  <r_lp_Energy>  (1) 
54.484504999999999

>  <s_epik_cmdline>  (1) 
J2VwaWtfcHl0aG9uJywgJy1waHQnLCAnMS4wJywgJy1waCcsICc3LjQnLCAnLXRuJywgJzgnLCAnLW1hJywgJzUwMCcsICctaW1hZScsICc8aW5maWxlLm1hZT4nLCAnLW9tYWUnLCAnPG91dGZpbGUubWFlPic=

>  <s_epik_input>  (1) 
W09IXUMoPU8pW0NIMl1bQ0gyXWMoW2NIXVtjSF0xKVtjSF1jKGMxMilDKD1PKU4oW0NAQEhdKEMoPU8pW09IXSlbQ0gyXVtDSDJdMilbQ0gyXVtDSDJdW0NIMl0vW0NIXT1bQ0hdXGMoYzNbT0hdKWMoQ2wpbmMoYzM0KVtDSDJdW0NIMl1TNA==

>  <s_glide_docking_method>  (1) 
confgen

>  <s_i_glide_gridfile>  (1) 
gpcr_5ht2c_6bqh_protein_autoprepared_prepared

>  <s_lp_Force_Field>  (1) 
S-OPLS

>  <s_lp_Variant>  (1) 
DiffSBDD_39_num_sample_100-6

>  <s_m_source_file>  (1) 
generated__ligand_DiffSBDD_2026-05-06_prepared.sdf

>  <GenAI_Model>  (1) 
DiffSBDD

>  <Protein>  (1) 
GPCR_5HT2C

$$$$
DiffSBDD_83_num_sample_100
     RDKit          3D

  0  0  0  0  0  0  0  0  0  0999 V3000
M  V30 BEGIN CTAB
M  V30 COUNTS 66 69 0 0 1
M  V30 BEGIN ATOM
M  V30 1 C 40.107840 26.609044 56.600644 0
M  V30 2 C 39.866319 30.803988 53.681540 0
M  V30 3 O 39.421507 28.808675 50.584676 0
M  V30 4 O 39.460243 29.458554 66.653164 0
M  V30 5 C 39.793590 27.975179 56.530624 0
M  V30 6 N 42.552892 29.709525 65.118522 0
M  V30 7 C 37.605825 27.513804 57.502335 0
M  V30 8 C 43.899521 29.664561 65.179795 0
M  V30 9 O 44.623481 30.020427 64.253513 0
M  V30 10 C 39.670882 30.789385 60.537419 0
M  V30 11 C 41.700049 30.671013 64.586468 0 CFG=1
M  V30 12 C 39.261130 29.268848 51.875335 0
M  V30 13 C 40.105191 29.643204 49.654475 0
M  V30 14 N 39.924994 30.986181 63.004678 0
M  V30 15 C 44.511606 29.128163 66.471492 0
M  V30 16 C 38.436271 30.642669 58.172243 0 CFG=2
M  V30 17 C 39.169402 25.698831 57.117030 0
M  V30 18 O 41.068385 29.031105 62.944857 0
M  V30 19 C 40.026574 30.358368 52.358994 0
M  V30 20 C 38.318851 28.651821 52.722095 0
M  V30 21 O 42.265950 32.897062 65.262763 0
M  V30 22 C 38.939793 30.185943 54.532166 0
M  V30 23 C 37.923529 26.150802 57.573459 0
M  V30 24 O 37.576879 30.273909 59.257818 0
M  V30 25 C 38.160050 29.905094 56.866004 0 CFG=1
M  V30 26 C 42.266871 32.054260 64.367442 0
M  V30 27 C 40.737202 28.905042 66.475935 0
M  V30 28 C 38.147675 29.111654 54.045214 0
M  V30 29 C 39.003353 30.652013 61.920445 0 CFG=1
M  V30 30 C 40.880953 30.143471 63.441039 0
M  V30 31 O 39.466758 24.383129 57.172047 0
M  V30 32 C 38.968084 29.998906 59.447824 0 CFG=2
M  V30 33 O 38.832358 30.634535 55.837227 0
M  V30 34 C 37.792688 31.591859 62.033384 0
M  V30 35 C 38.531793 28.429052 56.970881 0
M  V30 36 C 41.657936 30.039301 66.095069 0 CFG=1
M  V30 37 H 41.067368 26.256319 56.251420 0
M  V30 38 H 40.465608 31.621411 54.050600 0
M  V30 39 H 38.933009 29.230685 65.896701 0
M  V30 40 H 40.512322 28.672489 56.128221 0
M  V30 41 H 36.645472 27.861491 57.853507 0
M  V30 42 H 40.701410 30.433576 60.574037 0
M  V30 43 H 39.725033 31.840819 60.253752 0
M  V30 44 H 40.055851 29.221147 48.654291 0
M  V30 45 H 39.656064 30.635725 49.601991 0
M  V30 46 H 41.159511 29.746256 49.906123 0
M  V30 47 H 39.819207 31.884454 63.453832 0
M  V30 48 H 44.609393 29.932593 67.200655 0
M  V30 49 H 43.898847 28.335961 66.903954 0
M  V30 50 H 45.501119 28.715564 66.277829 0
M  V30 51 H 38.507218 31.724001 58.066561 0
M  V30 52 H 40.746574 30.846144 51.723226 0
M  V30 53 H 37.725956 27.825070 52.356298 0
M  V30 54 H 37.206639 25.449800 57.976248 0
M  V30 55 H 37.088794 29.984020 56.663225 0
M  V30 56 H 42.668535 32.248555 63.372919 0
M  V30 57 H 40.702588 28.134119 65.704044 0
M  V30 58 H 41.074757 28.448459 67.407468 0
M  V30 59 H 37.422886 28.632741 54.684199 0
M  V30 60 H 38.667071 29.623671 62.069165 0
M  V30 61 H 38.771455 23.849974 57.525308 0
M  V30 62 H 39.182498 28.932766 59.469328 0
M  V30 63 H 36.961377 31.274425 61.405510 0
M  V30 64 H 37.429313 31.621599 63.053497 0
M  V30 65 H 38.049142 32.615251 61.756210 0
M  V30 66 H 41.981880 30.681684 66.912535 0
M  V30 END ATOM
M  V30 BEGIN BOND
M  V30 1 2 5 1
M  V30 2 1 8 6
M  V30 3 2 9 8
M  V30 4 1 11 6
M  V30 5 1 12 3
M  V30 6 1 13 3
M  V30 7 1 15 8
M  V30 8 1 17 1
M  V30 9 2 19 2
M  V30 10 1 19 12
M  V30 11 2 20 12
M  V30 12 1 22 2
M  V30 13 1 23 7
M  V30 14 2 23 17
M  V30 15 1 24 16
M  V30 16 1 25 16
M  V30 17 1 11 26 CFG=1
M  V30 18 2 26 21
M  V30 19 1 27 4
M  V30 20 1 28 20
M  V30 21 2 28 22
M  V30 22 1 29 10
M  V30 23 1 29 14
M  V30 24 1 30 11
M  V30 25 1 30 14
M  V30 26 2 30 18
M  V30 27 1 31 17
M  V30 28 1 32 10
M  V30 29 1 32 16
M  V30 30 1 32 24
M  V30 31 1 33 22
M  V30 32 1 33 25
M  V30 33 1 34 29
M  V30 34 1 35 5
M  V30 35 2 35 7
M  V30 36 1 35 25
M  V30 37 1 36 6
M  V30 38 1 36 11
M  V30 39 1 36 27
M  V30 40 1 37 1
M  V30 41 1 38 2
M  V30 42 1 39 4
M  V30 43 1 40 5
M  V30 44 1 41 7
M  V30 45 1 42 10
M  V30 46 1 43 10
M  V30 47 1 44 13
M  V30 48 1 45 13
M  V30 49 1 46 13
M  V30 50 1 47 14
M  V30 51 1 48 15
M  V30 52 1 49 15
M  V30 53 1 50 15
M  V30 54 1 16 51 CFG=3
M  V30 55 1 52 19
M  V30 56 1 53 20
M  V30 57 1 54 23
M  V30 58 1 25 55 CFG=3
M  V30 59 1 56 26
M  V30 60 1 57 27
M  V30 61 1 58 27
M  V30 62 1 59 28
M  V30 63 1 29 60 CFG=1
M  V30 64 1 61 31
M  V30 65 1 32 62 CFG=3
M  V30 66 1 63 34
M  V30 67 1 64 34
M  V30 68 1 65 34
M  V30 69 1 36 66 CFG=1
M  V30 END BOND
M  V30 END CTAB
M  END
>  <i_epik_Tot_Q>  (1) 
0

>  <i_epik_Tot_abs_Q>  (1) 
0

>  <i_i_glide_confnum>  (1) 
2932

>  <i_i_glide_lignum>  (1) 
217

>  <i_i_glide_posenum>  (1) 
315

>  <i_i_glide_rotatable_bonds>  (1) 
15

>  <i_lp_mmshare_version>  (1) 
72125

>  <i_m_source_file_index>  (1) 
84

>  <i_f3d_flags>  (1) 
0

>  <num_sample>  (1) 
100

>  <b_lp_Chiralities_Consistent>  (1) 
1

>  <r_epik_Charging_Adjusted_Penalty>  (1) 
0.0031499927794813721

>  <r_epik_Ionization_Penalty>  (1) 
0.0031524718426135371

>  <r_epik_Ionization_Penalty_Charging>  (1) 
0

>  <r_epik_Ionization_Penalty_Neutral>  (1) 
0.0031524718426135371

>  <r_epik_State_Penalty>  (1) 
0.0031499927794813721

>  <r_glide_ring_energy>  (1) 
0

>  <r_i_docking_score>  (1) 
-5.8784715720969176

>  <r_i_glide_ecoul>  (1) 
-1.7414823738673537

>  <r_i_glide_eff_state_penalty>  (1) 
0.0031499927794813721

>  <r_i_glide_einternal>  (1) 
12.086698973104458

>  <r_i_glide_emodel>  (1) 
-60.45238294045852

>  <r_i_glide_emodel_strain>  (1) 
1.1516170643018029

>  <r_i_glide_energy>  (1) 
-49.992971825085277

>  <r_i_glide_erotb>  (1) 
0.82106346531741226

>  <r_i_glide_esite>  (1) 
-0.019716191899613038

>  <r_i_glide_evdw>  (1) 
-48.251489451217921

>  <r_i_glide_gscore>  (1) 
-5.881621564876399

>  <r_i_glide_gscore_strain>  (1) 
0

>  <r_i_glide_hbond>  (1) 
-0.32000000000000001

>  <r_i_glide_ligand_efficiency>  (1) 
-0.16329087700269215

>  <r_i_glide_ligand_efficiency_ln>  (1) 
-1.282523679083345

>  <r_i_glide_ligand_efficiency_sa>  (1) 
-0.53917459627109032

>  <r_i_glide_lipo>  (1) 
-4.0665458555328549

>  <r_i_glide_metal>  (1) 
-0

>  <r_i_glide_rewards>  (1) 
0.37737384587965672

>  <r_lp_Energy>  (1) 
25.148723999999998

>  <r_lp_tautomer_probability>  (1) 
0.99999999999736477

>  <s_epik_cmdline>  (1) 
J2VwaWtfcHl0aG9uJywgJy1waHQnLCAnMS4wJywgJy1waCcsICc3LjQnLCAnLXRuJywgJzgnLCAnLW1hJywgJzUwMCcsICctaW1hZScsICc8aW5maWxlLm1hZT4nLCAnLW9tYWUnLCAnPG91dGZpbGUubWFlPic=

>  <s_epik_input>  (1) 
W0NIM11PYzFbY0hdW2NIXWMoW2NIXVtjSF0xKU9bQ0BASF0oYyhbY0hdW2NIXTIpW2NIXVtjSF1jMltPSF0pW0NASF0zT1tDSF0zW0NIMl1bQ0BIXShbQ0gzXSlbTkhdQyg9TylDNChbQ0hdPU8pTihDKD1PKVtDSDNdKVtDQEBIXTRbQ0gyXVtPSF0=

>  <s_glide_docking_method>  (1) 
confgen

>  <s_i_glide_gridfile>  (1) 
gpcr_5ht2c_6bqh_protein_autoprepared_prepared

>  <s_lp_Force_Field>  (1) 
S-OPLS

>  <s_lp_Variant>  (1) 
DiffSBDD_83_num_sample_100-1

>  <s_m_source_file>  (1) 
generated__ligand_DiffSBDD_2026-05-06_prepared.sdf

>  <GenAI_Model>  (1) 
DiffSBDD

>  <Protein>  (1) 
GPCR_5HT2C

$$$$
DiffSBDD_40_num_sample_100
     RDKit          3D

  0  0  0  0  0  0  0  0  0  0999 V3000
M  V30 BEGIN CTAB
M  V30 COUNTS 73 75 0 0 1
M  V30 BEGIN ATOM
M  V30 1 C 38.809488 30.674779 53.919521 0
M  V30 2 C 40.613546 35.980404 62.435674 0 CFG=1
M  V30 3 N 36.866737 23.621530 55.053579 0
M  V30 4 C 38.185436 35.942098 61.569129 0
M  V30 5 C 41.219707 28.468600 58.484705 0
M  V30 6 C 37.353239 31.274791 60.353364 0
M  V30 7 N 37.067468 25.792291 55.950906 0 CHG=1
M  V30 8 C 36.115800 34.535225 60.375300 0
M  V30 9 O 34.206218 33.221330 59.853591 0
M  V30 10 C 36.038160 31.969252 60.776171 0
M  V30 11 C 41.495815 35.621480 63.627791 0
M  V30 12 C 41.171797 35.379759 61.131504 0
M  V30 13 N 37.830242 24.179383 57.136284 0
M  V30 14 C 38.554592 30.707535 57.029392 0 CFG=2
M  V30 15 C 39.136487 35.604245 62.696528 0
M  V30 16 C 38.647666 28.425367 58.202626 0 CFG=1
M  V30 17 C 40.023672 28.150575 57.565432 0 CFG=1
M  V30 18 S 37.453361 37.429402 61.445933 0
M  V30 19 C 37.558591 26.368427 57.101542 0
M  V30 20 N 39.771307 30.301191 56.248404 0 CFG=2 CHG=1
M  V30 21 S 37.925458 34.646676 60.412136 0
M  V30 22 C 39.942464 30.949210 54.918873 0
M  V30 23 C 38.053304 25.323129 57.853569 0
M  V30 24 C 35.614204 33.162803 59.880539 0 CFG=2
M  V30 25 C 40.115111 28.851467 56.203964 0
M  V30 26 O 41.865303 34.292985 63.604459 0
M  V30 27 C 38.550464 32.239436 57.225696 0
M  V30 28 N 41.220515 35.025019 64.701543 0
M  V30 29 C 37.236488 24.483347 55.995600 0
M  V30 30 C 38.464292 29.953086 58.400127 0 CFG=2
M  V30 31 C 37.492577 27.834817 57.359180 0
M  V30 32 C 37.169413 30.264896 59.205560 0
M  V30 33 H 39.067520 31.137227 52.967430 0
M  V30 34 H 38.660269 29.611004 53.736737 0
M  V30 35 H 37.859626 31.103997 54.242404 0
M  V30 36 H 40.673247 37.066799 62.350438 0
M  V30 37 H 36.413349 23.915157 54.198748 0
M  V30 38 H 37.017481 22.626230 55.139589 0
M  V30 39 H 41.339335 29.534318 58.670065 0
M  V30 40 H 41.115767 27.977074 59.452267 0
M  V30 41 H 42.153410 28.115100 58.044827 0
M  V30 42 H 38.107433 32.007158 60.082930 0
M  V30 43 H 37.770605 30.746738 61.212113 0
M  V30 44 H 35.733443 35.335180 59.740177 0
M  V30 45 H 35.741429 34.705817 61.384942 0
M  V30 46 H 33.940438 33.859134 59.207976 0
M  V30 47 H 36.121350 32.314338 61.807011 0
M  V30 48 H 35.247924 31.218172 60.790740 0
M  V30 49 H 42.225486 35.621433 61.005854 0
M  V30 50 H 41.067549 34.295090 61.124648 0
M  V30 51 H 40.654749 35.763589 60.253611 0
M  V30 52 H 38.076276 23.242777 57.433738 0
M  V30 53 H 37.665480 30.467814 56.446522 0
M  V30 54 H 38.784135 36.090066 63.608328 0
M  V30 55 H 39.067634 34.532583 62.885121 0
M  V30 56 H 38.630940 27.946097 59.183842 0
M  V30 57 H 40.112513 27.081828 57.373303 0
M  V30 58 H 40.061396 32.021341 55.048074 0
M  V30 59 H 40.886676 30.622831 54.481439 0
M  V30 60 H 38.523733 25.318296 58.817280 0
M  V30 61 H 35.920969 33.004211 58.851763 0
M  V30 62 H 41.139561 28.746418 55.853302 0
M  V30 63 H 39.493009 28.337732 55.471176 0
M  V30 64 H 37.722680 32.558485 57.846400 0
M  V30 65 H 39.466671 32.601039 57.692344 0
M  V30 66 H 38.415177 32.775571 56.286865 0
M  V30 67 H 39.292915 30.292219 59.020042 0
M  V30 68 H 36.545971 28.039570 57.853476 0
M  V30 69 H 37.467424 28.323390 56.388545 0
M  V30 70 H 36.771056 29.359746 59.662692 0
M  V30 71 H 36.385538 30.597891 58.528141 0
M  V30 72 H 40.520314 30.694217 56.798784 0
M  V30 73 H 36.631214 26.292321 55.186949 0
M  V30 END ATOM
M  V30 BEGIN BOND
M  V30 1 1 10 6
M  V30 2 1 11 2
M  V30 3 1 12 2
M  V30 4 1 15 2
M  V30 5 1 15 4
M  V30 6 1 17 5
M  V30 7 1 17 16
M  V30 8 2 18 4
M  V30 9 1 19 7
M  V30 10 1 20 14
M  V30 11 1 21 4
M  V30 12 1 21 8
M  V30 13 1 22 1
M  V30 14 1 22 20
M  V30 15 1 23 13
M  V30 16 2 23 19
M  V30 17 1 24 8
M  V30 18 1 24 9
M  V30 19 1 24 10
M  V30 20 1 25 17
M  V30 21 1 25 20
M  V30 22 1 26 11
M  V30 23 1 27 14
M  V30 24 2 28 11
M  V30 25 1 28 26
M  V30 26 1 29 3
M  V30 27 2 29 7
M  V30 28 1 29 13
M  V30 29 1 30 14
M  V30 30 1 30 16
M  V30 31 1 31 16
M  V30 32 1 31 19
M  V30 33 1 32 6
M  V30 34 1 32 30
M  V30 35 1 33 1
M  V30 36 1 34 1
M  V30 37 1 35 1
M  V30 38 1 2 36 CFG=3
M  V30 39 1 37 3
M  V30 40 1 38 3
M  V30 41 1 39 5
M  V30 42 1 40 5
M  V30 43 1 41 5
M  V30 44 1 42 6
M  V30 45 1 43 6
M  V30 46 1 44 8
M  V30 47 1 45 8
M  V30 48 1 46 9
M  V30 49 1 47 10
M  V30 50 1 48 10
M  V30 51 1 49 12
M  V30 52 1 50 12
M  V30 53 1 51 12
M  V30 54 1 52 13
M  V30 55 1 14 53 CFG=3
M  V30 56 1 54 15
M  V30 57 1 55 15
M  V30 58 1 16 56 CFG=1
M  V30 59 1 17 57 CFG=3
M  V30 60 1 58 22
M  V30 61 1 59 22
M  V30 62 1 60 23
M  V30 63 1 24 61 CFG=3
M  V30 64 1 62 25
M  V30 65 1 63 25
M  V30 66 1 64 27
M  V30 67 1 65 27
M  V30 68 1 66 27
M  V30 69 1 30 67 CFG=1
M  V30 70 1 68 31
M  V30 71 1 69 31
M  V30 72 1 70 32
M  V30 73 1 71 32
M  V30 74 1 20 72 CFG=1
M  V30 75 1 73 7
M  V30 END BOND
M  V30 END CTAB
M  END
>  <i_epik_Tot_Q>  (1) 
2

>  <i_epik_Tot_abs_Q>  (1) 
2

>  <i_i_glide_confnum>  (1) 
647

>  <i_i_glide_lignum>  (1) 
101

>  <i_i_glide_posenum>  (1) 
381

>  <i_i_glide_rotatable_bonds>  (1) 
14

>  <i_lp_mmshare_version>  (1) 
72125

>  <i_m_source_file_index>  (1) 
41

>  <i_f3d_flags>  (1) 
0

>  <num_sample>  (1) 
100

>  <b_lp_Chiralities_Consistent>  (1) 
1

>  <r_epik_Charging_Adjusted_Penalty>  (1) 
0.0037096170623772918

>  <r_epik_Ionization_Penalty>  (1) 
0.054330814931534903

>  <r_epik_Ionization_Penalty_Charging>  (1) 
0.0037096170623772918

>  <r_epik_Ionization_Penalty_Neutral>  (1) 
0.050621197869157614

>  <r_epik_State_Penalty>  (1) 
-0

>  <r_glide_ring_energy>  (1) 
0

>  <r_i_docking_score>  (1) 
-5.8771927690661583

>  <r_i_glide_ecoul>  (1) 
-1.1475460450686938

>  <r_i_glide_eff_state_penalty>  (1) 
-0

>  <r_i_glide_einternal>  (1) 
17.668460835126652

>  <r_i_glide_emodel>  (1) 
-53.005534783265318

>  <r_i_glide_emodel_strain>  (1) 
0.44714818432083803

>  <r_i_glide_energy>  (1) 
-45.81546947338456

>  <r_i_glide_erotb>  (1) 
0.95438045441749597

>  <r_i_glide_esite>  (1) 
-0.00043471488422608954

>  <r_i_glide_evdw>  (1) 
-44.667923428315866

>  <r_i_glide_gscore>  (1) 
-5.8771927690661583

>  <r_i_glide_gscore_strain>  (1) 
0

>  <r_i_glide_hbond>  (1) 
0

>  <r_i_glide_ligand_efficiency>  (1) 
-0.18366227403331745

>  <r_i_glide_ligand_efficiency_ln>  (1) 
-1.3160636672181039

>  <r_i_glide_ligand_efficiency_sa>  (1) 
-0.58309137401471978

>  <r_i_glide_lipo>  (1) 
-2.7509794821940607

>  <r_i_glide_metal>  (1) 
-0

>  <r_i_glide_rewards>  (1) 
-1.6746309482292705

>  <r_lp_Energy>  (1) 
35.776657

>  <r_lp_tautomer_probability>  (1) 
1

>  <s_epik_Chemistry_Notes>  (1) 
This compound has an imine and may undergo hydrolysis.

>  <s_epik_cmdline>  (1) 
J2VwaWtfcHl0aG9uJywgJy1waHQnLCAnMS4wJywgJy1waCcsICc3LjQnLCAnLXRuJywgJzgnLCAnLW1hJywgJzUwMCcsICctaW1hZScsICc8aW5maWxlLm1hZT4nLCAnLW9tYWUnLCAnPG91dGZpbGUubWFlPic=

>  <s_epik_input>  (1) 
W2NIXTFbbkhdYyhbTkgyXSluYzFbQ0gyXVtDQEBIXShbQ0BIXShbQ0gzXSlbQ0gyXU4oW0NAQEhdMltDSDNdKVtDSDJdW0NIM10pW0NAQEhdMltDSDJdW0NIMl1bQ0gyXVtDQEBIXShbT0hdKVtDSDJdU0MoPVMpW0NIMl1bQ0BIXShbQ0gzXSlDMz1OTzM=

>  <s_glide_docking_method>  (1) 
confgen

>  <s_i_glide_gridfile>  (1) 
gpcr_5ht2c_6bqh_protein_autoprepared_prepared

>  <s_lp_Force_Field>  (1) 
S-OPLS

>  <s_lp_Variant>  (1) 
DiffSBDD_40_num_sample_100-2

>  <s_m_source_file>  (1) 
generated__ligand_DiffSBDD_2026-05-06_prepared.sdf

>  <GenAI_Model>  (1) 
DiffSBDD

>  <Protein>  (1) 
GPCR_5HT2C

$$$$
DiffSBDD_4_num_sample_100
     RDKit          3D

  0  0  0  0  0  0  0  0  0  0999 V3000
M  V30 BEGIN CTAB
M  V30 COUNTS 37 37 0 0 1
M  V30 BEGIN ATOM
M  V30 1 C 41.140068 30.314712 50.405076 0
M  V30 2 C 38.198671 28.446076 53.062172 0
M  V30 3 C 39.480558 28.421375 50.864293 0
M  V30 4 C 38.627444 30.346605 54.620435 0
M  V30 5 C 37.597859 29.787634 57.025399 0 CFG=1
M  V30 6 O 37.867404 31.068721 57.570161 0
M  V30 7 C 37.443032 29.827914 55.480398 0
M  V30 8 C 39.867403 30.229271 52.557370 0
M  V30 9 C 38.559866 28.723137 57.618714 0
M  V30 10 N 38.915459 29.684071 53.453494 0
M  V30 11 O 38.424667 28.849253 59.017444 0
M  V30 12 C 40.034986 28.975850 57.292647 0
M  V30 13 O 39.247322 31.348379 54.982320 0
M  V30 14 C 40.146853 29.685883 51.354988 0
M  V30 15 C 38.151064 27.282157 57.270001 0
M  V30 16 C 38.943084 27.598412 52.023339 0
M  V30 17 H 40.931894 30.025796 49.375210 0
M  V30 18 H 41.068256 31.397057 50.461794 0
M  V30 19 H 42.158352 30.021430 50.653499 0
M  V30 20 H 38.089425 27.754514 53.894465 0
M  V30 21 H 37.203484 28.703506 52.696402 0
M  V30 22 H 38.667801 28.698131 50.196251 0
M  V30 23 H 40.186006 27.823674 50.285819 0
M  V30 24 H 36.602756 29.555571 57.408940 0
M  V30 25 H 37.119136 31.621431 57.353866 0
M  V30 26 H 37.067404 28.862212 55.188578 0
M  V30 27 H 36.619430 30.503707 55.251119 0
M  V30 28 H 40.336968 31.137402 52.909802 0
M  V30 29 H 38.381472 29.781925 59.186078 0
M  V30 30 H 40.266255 28.758956 56.250365 0
M  V30 31 H 40.267403 30.021431 57.478263 0
M  V30 32 H 40.695601 28.362666 57.907156 0
M  V30 33 H 38.262350 27.081162 56.205301 0
M  V30 34 H 38.770093 26.558510 57.801570 0
M  V30 35 H 37.112685 27.085119 57.538408 0
M  V30 36 H 38.283417 26.821430 51.641955 0
M  V30 37 H 39.777585 27.090519 52.509323 0
M  V30 END ATOM
M  V30 BEGIN BOND
M  V30 1 1 6 5
M  V30 2 1 7 4
M  V30 3 1 7 5
M  V30 4 1 9 5
M  V30 5 1 10 2
M  V30 6 1 10 4
M  V30 7 1 10 8
M  V30 8 1 11 9
M  V30 9 1 12 9
M  V30 10 2 13 4
M  V30 11 1 14 1
M  V30 12 1 14 3
M  V30 13 2 14 8
M  V30 14 1 15 9
M  V30 15 1 16 2
M  V30 16 1 16 3
M  V30 17 1 17 1
M  V30 18 1 18 1
M  V30 19 1 19 1
M  V30 20 1 20 2
M  V30 21 1 21 2
M  V30 22 1 22 3
M  V30 23 1 23 3
M  V30 24 1 5 24 CFG=1
M  V30 25 1 25 6
M  V30 26 1 26 7
M  V30 27 1 27 7
M  V30 28 1 28 8
M  V30 29 1 29 11
M  V30 30 1 30 12
M  V30 31 1 31 12
M  V30 32 1 32 12
M  V30 33 1 33 15
M  V30 34 1 34 15
M  V30 35 1 35 15
M  V30 36 1 36 16
M  V30 37 1 37 16
M  V30 END BOND
M  V30 END CTAB
M  END
>  <i_epik_Tot_Q>  (1) 
0

>  <i_epik_Tot_abs_Q>  (1) 
0

>  <i_i_glide_confnum>  (1) 
58

>  <i_i_glide_lignum>  (1) 
22

>  <i_i_glide_posenum>  (1) 
126

>  <i_i_glide_rotatable_bonds>  (1) 
6

>  <i_lp_mmshare_version>  (1) 
72125

>  <i_m_source_file_index>  (1) 
5

>  <i_f3d_flags>  (1) 
0

>  <num_sample>  (1) 
100

>  <b_lp_Chiralities_Consistent>  (1) 
1

>  <r_epik_Charging_Adjusted_Penalty>  (1) 
0

>  <r_epik_Ionization_Penalty>  (1) 
1.0105412208656501e-07

>  <r_epik_Ionization_Penalty_Charging>  (1) 
0

>  <r_epik_Ionization_Penalty_Neutral>  (1) 
1.0105412208656501e-07

>  <r_epik_State_Penalty>  (1) 
-0

>  <r_glide_ring_energy>  (1) 
0.0044805321257582994

>  <r_i_docking_score>  (1) 
-5.8757946521648057

>  <r_i_glide_ecoul>  (1) 
-3.5924860108511076

>  <r_i_glide_eff_state_penalty>  (1) 
-0

>  <r_i_glide_einternal>  (1) 
8.3361604797169733

>  <r_i_glide_emodel>  (1) 
-38.966977640348865

>  <r_i_glide_emodel_strain>  (1) 
0.99128323179143507

>  <r_i_glide_energy>  (1) 
-31.519530511359477

>  <r_i_glide_erotb>  (1) 
1.3172280880396094

>  <r_i_glide_esite>  (1) 
0

>  <r_i_glide_evdw>  (1) 
-27.927044500508369

>  <r_i_glide_gscore>  (1) 
-5.8757946521648057

>  <r_i_glide_gscore_strain>  (1) 
0

>  <r_i_glide_hbond>  (1) 
-0.16

>  <r_i_glide_ligand_efficiency>  (1) 
-0.36723716576030035

>  <r_i_glide_ligand_efficiency_ln>  (1) 
-1.5574967442187426

>  <r_i_glide_ligand_efficiency_sa>  (1) 
-0.9253796708902704

>  <r_i_glide_lipo>  (1) 
-2.3864943244355925

>  <r_i_glide_metal>  (1) 
-0

>  <r_i_glide_rewards>  (1) 
-2.711303289115738

>  <r_lp_Energy>  (1) 
15.980511999999999

>  <r_lp_tautomer_probability>  (1) 
1

>  <s_epik_cmdline>  (1) 
J2VwaWtfcHl0aG9uJywgJy1waHQnLCAnMS4wJywgJy1waCcsICc3LjQnLCAnLXRuJywgJzgnLCAnLW1hJywgJzUwMCcsICctaW1hZScsICc8aW5maWxlLm1hZT4nLCAnLW9tYWUnLCAnPG91dGZpbGUubWFlPic=

>  <s_epik_input>  (1) 
W0NIM11DKD1bQ0hdMSlbQ0gyXVtDSDJdW0NIMl1OMUMoPU8pW0NIMl1bQ0BIXShbT0hdKUMoW09IXSkoW0NIM10pW0NIM10=

>  <s_glide_docking_method>  (1) 
confgen

>  <s_i_glide_gridfile>  (1) 
gpcr_5ht2c_6bqh_protein_autoprepared_prepared

>  <s_lp_Force_Field>  (1) 
S-OPLS

>  <s_lp_Variant>  (1) 
DiffSBDD_4_num_sample_100-1

>  <s_m_source_file>  (1) 
generated__ligand_DiffSBDD_2026-05-06_prepared.sdf

>  <GenAI_Model>  (1) 
DiffSBDD

>  <Protein>  (1) 
GPCR_5HT2C

$$$$
DiffSBDD_1_num_sample_100
     RDKit          3D

  0  0  0  0  0  0  0  0  0  0999 V3000
M  V30 BEGIN CTAB
M  V30 COUNTS 62 65 0 0 1
M  V30 BEGIN ATOM
M  V30 1 C 38.855987 27.309374 56.355562 0
M  V30 2 C 39.845800 34.825425 62.082252 0
M  V30 3 O 38.449093 25.211773 57.038666 0
M  V30 4 C 37.888423 33.290248 61.458675 0 CFG=1
M  V30 5 C 38.782045 28.788998 56.418369 0
M  V30 6 C 38.272477 30.968124 60.568713 0
M  V30 7 C 36.881703 37.179994 63.254179 0
M  V30 8 C 41.374091 36.189395 63.158639 0
M  V30 9 N 40.079271 36.902778 63.052256 0 CHG=1
M  V30 10 C 37.720096 33.204874 57.657851 0
M  V30 11 C 37.954912 29.432129 57.550120 0
M  V30 12 C 37.740525 36.512085 62.158325 0 CFG=2
M  V30 13 C 39.016415 35.897634 62.799721 0 CFG=1
M  V30 14 C 37.746475 31.448141 59.196192 0 CFG=2
M  V30 15 C 38.205516 31.973824 56.871275 0
M  V30 16 C 38.283357 26.532639 57.221178 0
M  V30 17 N 37.775214 31.827443 61.676196 0
M  V30 18 C 39.351368 33.703350 61.508659 0
M  V30 19 O 39.354457 29.511849 55.602480 0
M  V30 20 C 38.064748 37.400048 60.951491 0
M  V30 21 C 39.315774 25.197064 55.832500 0
M  V30 22 C 37.312536 33.668179 60.070882 0
M  V30 23 C 41.307821 35.115932 62.087690 0
M  V30 24 N 37.961563 32.872927 59.040936 0
M  V30 25 O 36.353246 31.184577 59.158817 0
M  V30 26 C 39.612273 26.673157 55.278133 0
M  V30 27 C 38.405057 30.860746 57.935889 0 CFG=2
M  V30 28 O 35.988239 38.152684 62.753907 0
M  V30 29 H 37.332512 33.775486 62.252030 0
M  V30 30 H 39.362406 30.975533 60.556260 0
M  V30 31 H 37.984520 29.931340 60.733190 0
M  V30 32 H 37.523596 37.621405 64.009969 0
M  V30 33 H 36.299707 36.422481 63.780795 0
M  V30 34 H 41.436404 35.731482 64.147211 0
M  V30 35 H 42.250204 36.821557 63.053830 0
M  V30 36 H 40.129894 37.513796 62.250474 0
M  V30 37 H 36.667417 33.400658 57.495453 0
M  V30 38 H 38.248155 34.109921 57.367194 0
M  V30 39 H 38.027069 28.821801 58.448923 0
M  V30 40 H 36.905013 29.437311 57.254291 0
M  V30 41 H 37.090854 35.739098 61.769620 0
M  V30 42 H 38.786833 35.621389 63.816550 0
M  V30 43 H 37.467855 31.692175 56.119251 0
M  V30 44 H 39.142495 32.186601 56.353741 0
M  V30 45 H 37.690705 26.799021 58.081735 0
M  V30 46 H 38.240339 31.567697 62.540018 0
M  V30 47 H 40.044049 33.024215 61.035841 0
M  V30 48 H 38.607636 38.303803 61.228297 0
M  V30 49 H 38.667308 36.821723 60.253566 0
M  V30 50 H 37.161864 37.708160 60.421642 0
M  V30 51 H 40.261025 24.722059 56.094769 0
M  V30 52 H 38.851693 24.583065 55.059547 0
M  V30 53 H 36.231807 33.520861 60.051187 0
M  V30 54 H 37.481396 34.723197 59.863195 0
M  V30 55 H 41.867407 34.217105 62.338104 0
M  V30 56 H 41.618015 35.498386 61.113050 0
M  V30 57 H 35.991405 31.525012 58.335182 0
M  V30 58 H 39.174456 26.867637 54.297863 0
M  V30 59 H 40.668001 26.935995 55.305980 0
M  V30 60 H 39.467361 30.813594 58.138498 0
M  V30 61 H 35.357855 37.735526 62.187833 0
M  V30 62 H 39.909094 37.447962 63.887172 0
M  V30 END ATOM
M  V30 BEGIN BOND
M  V30 1 1 5 1
M  V30 2 1 9 8
M  V30 3 1 11 5
M  V30 4 1 12 7
M  V30 5 1 13 2
M  V30 6 1 13 9
M  V30 7 1 13 12
M  V30 8 1 14 6
M  V30 9 1 15 10
M  V30 10 2 16 1
M  V30 11 1 16 3
M  V30 12 1 17 4
M  V30 13 1 17 6
M  V30 14 2 18 2
M  V30 15 1 18 4
M  V30 16 2 19 5
M  V30 17 1 20 12
M  V30 18 1 21 3
M  V30 19 1 22 4
M  V30 20 1 23 2
M  V30 21 1 23 8
M  V30 22 1 24 10
M  V30 23 1 24 14
M  V30 24 1 24 22
M  V30 25 1 14 25 CFG=3
M  V30 26 1 26 1
M  V30 27 1 26 21
M  V30 28 1 27 11
M  V30 29 1 27 14
M  V30 30 1 27 15
M  V30 31 1 28 7
M  V30 32 1 4 29 CFG=1
M  V30 33 1 30 6
M  V30 34 1 31 6
M  V30 35 1 32 7
M  V30 36 1 33 7
M  V30 37 1 34 8
M  V30 38 1 35 8
M  V30 39 1 36 9
M  V30 40 1 37 10
M  V30 41 1 38 10
M  V30 42 1 39 11
M  V30 43 1 40 11
M  V30 44 1 12 41 CFG=3
M  V30 45 1 13 42 CFG=1
M  V30 46 1 43 15
M  V30 47 1 44 15
M  V30 48 1 45 16
M  V30 49 1 46 17
M  V30 50 1 47 18
M  V30 51 1 48 20
M  V30 52 1 49 20
M  V30 53 1 50 20
M  V30 54 1 51 21
M  V30 55 1 52 21
M  V30 56 1 53 22
M  V30 57 1 54 22
M  V30 58 1 55 23
M  V30 59 1 56 23
M  V30 60 1 57 25
M  V30 61 1 58 26
M  V30 62 1 59 26
M  V30 63 1 27 60 CFG=1
M  V30 64 1 61 28
M  V30 65 1 62 9
M  V30 END BOND
M  V30 END CTAB
M  END
>  <i_epik_Tot_Q>  (1) 
1

>  <i_epik_Tot_abs_Q>  (1) 
1

>  <i_i_glide_confnum>  (1) 
102

>  <i_i_glide_lignum>  (1) 
8

>  <i_i_glide_posenum>  (1) 
228

>  <i_i_glide_rotatable_bonds>  (1) 
8

>  <i_lp_mmshare_version>  (1) 
72125

>  <i_m_source_file_index>  (1) 
2

>  <i_f3d_flags>  (1) 
0

>  <num_sample>  (1) 
100

>  <b_lp_Chiralities_Consistent>  (1) 
1

>  <r_epik_Charging_Adjusted_Penalty>  (1) 
0.089223518210420474

>  <r_epik_Ionization_Penalty>  (1) 
0.15303808439063821

>  <r_epik_Ionization_Penalty_Charging>  (1) 
0.0017986555257548985

>  <r_epik_Ionization_Penalty_Neutral>  (1) 
0.15123942886488331

>  <r_epik_State_Penalty>  (1) 
0.08742486268466558

>  <r_glide_ring_energy>  (1) 
0

>  <r_i_docking_score>  (1) 
-5.8738458064813246

>  <r_i_glide_ecoul>  (1) 
-8.1989030721644252

>  <r_i_glide_eff_state_penalty>  (1) 
0.08742486268466558

>  <r_i_glide_einternal>  (1) 
3.9373232582688917

>  <r_i_glide_emodel>  (1) 
-46.786155139467006

>  <r_i_glide_emodel_strain>  (1) 
4.4149286654777313

>  <r_i_glide_energy>  (1) 
-37.272495563158067

>  <r_i_glide_erotb>  (1) 
0.76037187950223806

>  <r_i_glide_esite>  (1) 
-0.057494860927082295

>  <r_i_glide_evdw>  (1) 
-29.073592490993644

>  <r_i_glide_gscore>  (1) 
-5.96127066916599

>  <r_i_glide_gscore_strain>  (1) 
0.10373216636943283

>  <r_i_glide_hbond>  (1) 
-0.18199674914392211

>  <r_i_glide_ligand_efficiency>  (1) 
-0.20978020737433303

>  <r_i_glide_ligand_efficiency_ln>  (1) 
-1.35585607574278

>  <r_i_glide_ligand_efficiency_sa>  (1) 
-0.63701626423068924

>  <r_i_glide_lipo>  (1) 
-2.773502778724191

>  <r_i_glide_metal>  (1) 
-0

>  <r_i_glide_rewards>  (1) 
-1.1288652408681195

>  <r_lp_Energy>  (1) 
12.069678999999999

>  <s_epik_cmdline>  (1) 
J2VwaWtfcHl0aG9uJywgJy1waHQnLCAnMS4wJywgJy1waCcsICc3LjQnLCAnLXRuJywgJzgnLCAnLW1hJywgJzUwMCcsICctaW1hZScsICc8aW5maWxlLm1hZT4nLCAnLW9tYWUnLCAnPG91dGZpbGUubWFlPic=

>  <s_epik_input>  (1) 
W0NIMl0xW0NIMl1PW0NIXT1DMUMoPU8pW0NIMl1bQ0BIXTJbQ0gyXVtDSDJdTihbQ0BAXTIzW09IXSlbQ0gyXVtDQEBIXShbTkhdW0NIMl0zKS9bQ0hdPUM0XFtDQEBIXShbTkhdW0NIMl1bQ0gyXTQpW0NASF0oW0NIM10pW0NIMl1bT0hd

>  <s_glide_docking_method>  (1) 
confgen

>  <s_i_glide_gridfile>  (1) 
gpcr_5ht2c_6bqh_protein_autoprepared_prepared

>  <s_lp_Force_Field>  (1) 
S-OPLS

>  <s_lp_Variant>  (1) 
DiffSBDD_1_num_sample_100-2

>  <s_m_source_file>  (1) 
generated__ligand_DiffSBDD_2026-05-06_prepared.sdf

>  <GenAI_Model>  (1) 
DiffSBDD

>  <Protein>  (1) 
GPCR_5HT2C

$$$$
DiffSBDD_52_num_sample_100
     RDKit          3D

  0  0  0  0  0  0  0  0  0  0999 V3000
M  V30 BEGIN CTAB
M  V30 COUNTS 25 25 0 0 1
M  V30 BEGIN ATOM
M  V30 1 C 39.205174 29.370916 54.690610 0 CFG=1
M  V30 2 O 37.014672 30.421455 54.777864 0
M  V30 3 C 38.690294 31.324658 56.318629 0 CFG=2
M  V30 4 S 39.538618 26.669698 55.053151 0
M  V30 5 C 38.863547 27.025675 53.426214 0 CFG=2
M  V30 6 S 38.967330 28.765953 52.982187 0
M  V30 7 O 37.867403 33.425330 55.313473 0
M  V30 8 C 38.402518 30.662969 54.943126 0 CFG=1
M  V30 9 O 37.867401 30.817467 57.349947 0
M  V30 10 C 38.650567 32.865014 56.344939 0
M  V30 11 N 37.467405 26.668841 53.453503 0
M  V30 12 C 38.934461 28.243409 55.711599 0
M  V30 13 H 40.264722 29.621233 54.759363 0
M  V30 14 H 36.527292 31.097805 55.232034 0
M  V30 15 H 39.704093 31.051904 56.614163 0
M  V30 16 H 39.370689 26.421439 52.673973 0
M  V30 17 H 36.931904 33.249282 55.453502 0
M  V30 18 H 38.705899 31.355084 54.156169 0
M  V30 19 H 36.967394 31.116906 57.206286 0
M  V30 20 H 39.667705 33.221431 56.187654 0
M  V30 21 H 38.334764 33.254449 57.313906 0
M  V30 22 H 37.080963 26.715022 52.515877 0
M  V30 23 H 37.377936 25.706414 53.743581 0
M  V30 24 H 39.400706 28.450830 56.674689 0
M  V30 25 H 37.865095 28.140710 55.889576 0
M  V30 END ATOM
M  V30 BEGIN BOND
M  V30 1 1 5 4
M  V30 2 1 6 1
M  V30 3 1 6 5
M  V30 4 1 8 1
M  V30 5 1 8 2
M  V30 6 1 8 3
M  V30 7 1 9 3
M  V30 8 1 10 3
M  V30 9 1 10 7
M  V30 10 1 11 5
M  V30 11 1 12 1
M  V30 12 1 12 4
M  V30 13 1 1 13 CFG=3
M  V30 14 1 14 2
M  V30 15 1 3 15 CFG=1
M  V30 16 1 5 16 CFG=3
M  V30 17 1 17 7
M  V30 18 1 8 18 CFG=3
M  V30 19 1 19 9
M  V30 20 1 20 10
M  V30 21 1 21 10
M  V30 22 1 22 11
M  V30 23 1 23 11
M  V30 24 1 24 12
M  V30 25 1 25 12
M  V30 END BOND
M  V30 END CTAB
M  END
>  <i_epik_Tot_Q>  (1) 
0

>  <i_epik_Tot_abs_Q>  (1) 
0

>  <i_i_glide_confnum>  (1) 
54

>  <i_i_glide_lignum>  (1) 
139

>  <i_i_glide_posenum>  (1) 
241

>  <i_i_glide_rotatable_bonds>  (1) 
6

>  <i_lp_mmshare_version>  (1) 
72125

>  <i_m_source_file_index>  (1) 
53

>  <i_f3d_flags>  (1) 
0

>  <num_sample>  (1) 
100

>  <b_lp_Chiralities_Consistent>  (1) 
1

>  <r_epik_Charging_Adjusted_Penalty>  (1) 
0.012458627256782779

>  <r_epik_Ionization_Penalty>  (1) 
0.012459545935989014

>  <r_epik_Ionization_Penalty_Charging>  (1) 
0

>  <r_epik_Ionization_Penalty_Neutral>  (1) 
0.012459545935989014

>  <r_epik_State_Penalty>  (1) 
0.012458627256782779

>  <r_glide_ring_energy>  (1) 
1.2668700789393423

>  <r_i_docking_score>  (1) 
-5.873246512158409

>  <r_i_glide_ecoul>  (1) 
-11.662856253049425

>  <r_i_glide_eff_state_penalty>  (1) 
0.012458627256782779

>  <r_i_glide_einternal>  (1) 
17.270235199409747

>  <r_i_glide_emodel>  (1) 
-34.789117799891628

>  <r_i_glide_emodel_strain>  (1) 
1.0281182160210669

>  <r_i_glide_energy>  (1) 
-31.05419647419783

>  <r_i_glide_erotb>  (1) 
1.1173698675060917

>  <r_i_glide_esite>  (1) 
0

>  <r_i_glide_evdw>  (1) 
-19.391340221148408

>  <r_i_glide_gscore>  (1) 
-5.885705139415192

>  <r_i_glide_gscore_strain>  (1) 
0

>  <r_i_glide_hbond>  (1) 
-0.7593136353724349

>  <r_i_glide_ligand_efficiency>  (1) 
-0.48943720934653406

>  <r_i_glide_ligand_efficiency_ln>  (1) 
-1.6853382607868994

>  <r_i_glide_ligand_efficiency_sa>  (1) 
-1.1205314887490687

>  <r_i_glide_lipo>  (1) 
-1.2842831153776304

>  <r_i_glide_metal>  (1) 
-0

>  <r_i_glide_rewards>  (1) 
-2.2404828071563849

>  <r_lp_Energy>  (1) 
-2.6088819999999999

>  <s_epik_Chemistry_Notes>  (1) 
This compound contains an acetal/aminal-like group ( X-CH(R)-Y where X, Y are N, S, or O) that may be acid/base labile, releasing an aldehyde.

>  <s_epik_cmdline>  (1) 
J2VwaWtfcHl0aG9uJywgJy1waHQnLCAnMS4wJywgJy1waCcsICc3LjQnLCAnLXRuJywgJzgnLCAnLW1hJywgJzUwMCcsICctaW1hZScsICc8aW5maWxlLm1hZT4nLCAnLW9tYWUnLCAnPG91dGZpbGUubWFlPic=

>  <s_epik_input>  (1) 
W0NIMl0xU1tDQEhdKFtOSDJdKVNbQ0BIXTFbQ0BASF0oW09IXSlbQ0BIXShbT0hdKVtDSDJdW09IXQ==

>  <s_glide_docking_method>  (1) 
confgen

>  <s_i_glide_gridfile>  (1) 
gpcr_5ht2c_6bqh_protein_autoprepared_prepared

>  <s_lp_Force_Field>  (1) 
S-OPLS

>  <s_lp_Variant>  (1) 
DiffSBDD_52_num_sample_100-2

>  <s_m_source_file>  (1) 
generated__ligand_DiffSBDD_2026-05-06_prepared.sdf

>  <GenAI_Model>  (1) 
DiffSBDD

>  <Protein>  (1) 
GPCR_5HT2C

$$$$
DiffSBDD_93_num_sample_100
     RDKit          3D

  0  0  0  0  0  0  0  0  0  0999 V3000
M  V30 BEGIN CTAB
M  V30 COUNTS 74 77 0 0 1
M  V30 BEGIN ATOM
M  V30 1 C 39.406866 28.666223 57.362575 0
M  V30 2 S 39.467402 33.034015 62.996403 0
M  V30 3 C 38.828241 28.699202 54.871304 0 CFG=2
M  V30 4 O 36.667375 36.385320 60.256000 0
M  V30 5 C 43.633920 31.061992 65.380449 0
M  V30 6 C 37.737684 33.709579 59.894403 0 CFG=1
M  V30 7 C 40.662502 31.319840 65.804368 0
M  V30 8 C 40.438530 30.471863 63.486715 0
M  V30 9 C 38.889663 27.166650 54.897310 0
M  V30 10 N 39.432133 30.870444 61.378663 0
M  V30 11 C 43.375188 32.105214 66.457251 0
M  V30 12 C 38.947510 29.324849 56.256853 0
M  V30 13 C 39.498214 29.360592 58.691851 0
M  V30 14 C 39.092471 31.519487 60.118780 0 CFG=1
M  V30 15 C 40.033382 26.708951 55.796311 0
M  V30 16 Cl 38.682912 26.102149 58.046572 0
M  V30 17 O 42.556382 34.392339 66.653545 0
M  V30 18 C 39.842786 27.194546 57.238208 0 CFG=2
M  V30 19 C 40.082359 28.605944 59.892126 0
M  V30 20 C 39.503880 34.319849 61.700497 0
M  V30 21 C 36.367389 34.158970 59.355782 0
M  V30 22 C 39.064589 30.661138 58.827931 0
M  V30 23 C 40.934041 32.776911 66.164573 0
M  V30 24 C 38.110614 34.608195 61.095400 0 CFG=1
M  V30 25 C 40.251240 31.561726 62.382085 0 CFG=1
M  V30 26 C 42.388932 33.183533 65.962419 0 CFG=2
M  V30 27 C 37.972698 36.100261 60.727812 0
M  V30 28 C 36.351778 35.667001 59.073669 0
M  V30 29 C 42.691603 30.553342 64.557297 0
M  V30 30 S 41.867408 32.021428 61.793423 0
M  V30 31 N 41.324966 30.845525 64.589939 0
M  V30 32 C 37.577493 29.200482 54.136216 0
M  V30 33 C 37.714359 32.211299 60.268485 0
M  V30 34 H 39.690425 29.067229 54.315028 0
M  V30 35 H 44.661296 30.750784 65.257635 0
M  V30 36 H 38.460548 33.864453 59.091793 0
M  V30 37 H 39.586308 31.157086 65.755039 0
M  V30 38 H 40.999313 30.682216 66.622822 0
M  V30 39 H 40.831659 29.557406 63.039037 0
M  V30 40 H 39.464499 30.188441 63.885110 0
M  V30 41 H 37.947149 26.755743 55.261626 0
M  V30 42 H 39.026423 26.779014 53.887037 0
M  V30 43 H 39.881438 29.994056 61.156286 0
M  V30 44 H 44.337041 32.578313 66.659419 0
M  V30 45 H 43.058624 31.640365 67.391402 0
M  V30 46 H 38.645217 30.349049 56.313954 0
M  V30 47 H 39.848099 32.274848 59.921028 0
M  V30 48 H 40.140750 25.623456 55.767053 0
M  V30 49 H 40.969649 27.116818 55.422511 0
M  V30 50 H 42.005542 35.048795 66.252826 0
M  V30 51 H 40.809398 27.051566 57.718537 0
M  V30 52 H 40.449010 27.610423 59.676185 0
M  V30 53 H 40.947415 29.133097 60.294555 0
M  V30 54 H 39.324764 28.455163 60.661747 0
M  V30 55 H 39.853683 35.213570 62.218299 0
M  V30 56 H 40.250491 34.134112 60.931484 0
M  V30 57 H 35.581383 33.916632 60.072284 0
M  V30 58 H 36.129933 33.621490 58.437174 0
M  V30 59 H 38.658805 31.174624 57.982667 0
M  V30 60 H 40.667354 32.908488 67.213856 0
M  V30 61 H 40.281051 33.442524 65.607068 0
M  V30 62 H 37.354908 34.429230 61.853557 0
M  V30 63 H 42.574826 33.397035 64.908438 0
M  V30 64 H 38.156510 36.724734 61.602293 0
M  V30 65 H 38.693539 36.394969 59.971645 0
M  V30 66 H 35.367952 35.973118 58.719437 0
M  V30 67 H 37.067675 35.920463 58.293854 0
M  V30 68 H 42.958245 29.854663 63.776436 0
M  V30 69 H 42.385958 32.181539 63.016433 0
M  V30 70 H 37.573610 30.288722 54.062772 0
M  V30 71 H 37.528164 28.799936 53.122820 0
M  V30 72 H 36.667472 28.904338 54.653447 0
M  V30 73 H 37.304792 32.092242 61.273110 0
M  V30 74 H 36.988212 31.696974 59.635644 0
M  V30 END ATOM
M  V30 BEGIN BOND
M  V30 1 1 9 3
M  V30 2 1 11 5
M  V30 3 2 12 1
M  V30 4 1 12 3
M  V30 5 1 13 1
M  V30 6 1 14 10
M  V30 7 1 15 9
M  V30 8 1 18 1
M  V30 9 1 18 15
M  V30 10 1 18 16
M  V30 11 1 19 13
M  V30 12 1 20 2
M  V30 13 1 21 6
M  V30 14 2 22 13
M  V30 15 1 22 14
M  V30 16 1 23 7
M  V30 17 1 24 6
M  V30 18 1 24 20
M  V30 19 1 25 2
M  V30 20 1 25 8
M  V30 21 1 25 10
M  V30 22 1 26 11
M  V30 23 1 26 17
M  V30 24 1 26 23
M  V30 25 1 27 4
M  V30 26 1 27 24
M  V30 27 1 28 4
M  V30 28 1 28 21
M  V30 29 2 29 5
M  V30 30 1 25 30 CFG=3
M  V30 31 1 31 7
M  V30 32 1 31 8
M  V30 33 1 31 29
M  V30 34 1 32 3
M  V30 35 1 33 6
M  V30 36 1 33 14
M  V30 37 1 3 34 CFG=3
M  V30 38 1 35 5
M  V30 39 1 6 36 CFG=3
M  V30 40 1 37 7
M  V30 41 1 38 7
M  V30 42 1 39 8
M  V30 43 1 40 8
M  V30 44 1 41 9
M  V30 45 1 42 9
M  V30 46 1 43 10
M  V30 47 1 44 11
M  V30 48 1 45 11
M  V30 49 1 46 12
M  V30 50 1 14 47 CFG=3
M  V30 51 1 48 15
M  V30 52 1 49 15
M  V30 53 1 50 17
M  V30 54 1 18 51 CFG=1
M  V30 55 1 52 19
M  V30 56 1 53 19
M  V30 57 1 54 19
M  V30 58 1 55 20
M  V30 59 1 56 20
M  V30 60 1 57 21
M  V30 61 1 58 21
M  V30 62 1 59 22
M  V30 63 1 60 23
M  V30 64 1 61 23
M  V30 65 1 24 62 CFG=1
M  V30 66 1 26 63 CFG=3
M  V30 67 1 64 27
M  V30 68 1 65 27
M  V30 69 1 66 28
M  V30 70 1 67 28
M  V30 71 1 68 29
M  V30 72 1 69 30
M  V30 73 1 70 32
M  V30 74 1 71 32
M  V30 75 1 72 32
M  V30 76 1 73 33
M  V30 77 1 74 33
M  V30 END BOND
M  V30 END CTAB
M  END
>  <i_epik_Tot_Q>  (1) 
0

>  <i_epik_Tot_abs_Q>  (1) 
0

>  <i_i_glide_confnum>  (1) 
53

>  <i_i_glide_lignum>  (1) 
249

>  <i_i_glide_posenum>  (1) 
218

>  <i_i_glide_rotatable_bonds>  (1) 
6

>  <i_lp_mmshare_version>  (1) 
72125

>  <i_m_source_file_index>  (1) 
94

>  <i_f3d_flags>  (1) 
0

>  <num_sample>  (1) 
100

>  <b_lp_Chiralities_Consistent>  (1) 
1

>  <r_epik_Charging_Adjusted_Penalty>  (1) 
0.20325292957253988

>  <r_epik_Ionization_Penalty>  (1) 
0.031936562948065232

>  <r_epik_Ionization_Penalty_Charging>  (1) 
3.6030848355623751e-07

>  <r_epik_Ionization_Penalty_Neutral>  (1) 
0.031936202639581676

>  <r_epik_State_Penalty>  (1) 
0.20325256926405633

>  <r_glide_ring_energy>  (1) 
0

>  <r_i_docking_score>  (1) 
-5.8731810261257298

>  <r_i_glide_ecoul>  (1) 
-3.8642296624630998

>  <r_i_glide_eff_state_penalty>  (1) 
0.20325256926405633

>  <r_i_glide_einternal>  (1) 
12.532470449841124

>  <r_i_glide_emodel>  (1) 
-22.737753591582177

>  <r_i_glide_emodel_strain>  (1) 
0.68167262971012121

>  <r_i_glide_energy>  (1) 
-28.325452046136665

>  <r_i_glide_erotb>  (1) 
0.31140238833871409

>  <r_i_glide_esite>  (1) 
0

>  <r_i_glide_evdw>  (1) 
-24.461222383673565

>  <r_i_glide_gscore>  (1) 
-6.0764335953897861

>  <r_i_glide_gscore_strain>  (1) 
0

>  <r_i_glide_hbond>  (1) 
0

>  <r_i_glide_ligand_efficiency>  (1) 
-0.17797518260987061

>  <r_i_glide_ligand_efficiency_ln>  (1) 
-1.3061650505065014

>  <r_i_glide_ligand_efficiency_sa>  (1) 
-0.57086150810843617

>  <r_i_glide_lipo>  (1) 
-3.6632690006847484

>  <r_i_glide_metal>  (1) 
-0

>  <r_i_glide_rewards>  (1) 
-0.92187141449060817

>  <r_lp_Energy>  (1) 
26.366080999999998

>  <s_epik_Chemistry_Notes>  (1) 
This compound has an imine and may undergo hydrolysis.

>  <s_epik_cmdline>  (1) 
J2VwaWtfcHl0aG9uJywgJy1waHQnLCAnMS4wJywgJy1waCcsICc3LjQnLCAnLXRuJywgJzgnLCAnLW1hJywgJzUwMCcsICctaW1hZScsICc8aW5maWxlLm1hZT4nLCAnLW9tYWUnLCAnPG91dGZpbGUubWFlPic=

>  <s_epik_input>  (1) 
Q2xbQ0BIXTFbQ0gyXVtDSDJdW0NAQEhdKFtDSDNdKVtDSF09QzEvQyhbQ0gzXSk9W0NIXS9bQ0BASF0oW0NIMl0yKVtOSF1bQ0BAXShbU0hdKShTW0NIMl1bQ0BIXShbQ0BASF0yMylbQ0gyXU9bQ0gyXVtDSDJdMylbQ0gyXU4oW0NIMl1bQ0gyXTQpW0NIXT1bQ0hdW0NIMl1bQ0BASF00W09IXQ==

>  <s_glide_docking_method>  (1) 
confgen

>  <s_i_glide_gridfile>  (1) 
gpcr_5ht2c_6bqh_protein_autoprepared_prepared

>  <s_lp_Force_Field>  (1) 
S-OPLS

>  <s_lp_Variant>  (1) 
DiffSBDD_93_num_sample_100-1

>  <s_m_source_file>  (1) 
generated__ligand_DiffSBDD_2026-05-06_prepared.sdf

>  <GenAI_Model>  (1) 
DiffSBDD

>  <Protein>  (1) 
GPCR_5HT2C

$$$$
DiffSBDD_43_num_sample_100
     RDKit          3D

  0  0  0  0  0  0  0  0  0  0999 V3000
M  V30 BEGIN CTAB
M  V30 COUNTS 72 75 0 0 1
M  V30 BEGIN ATOM
M  V30 1 C 36.701159 36.117487 60.127103 0 CFG=2
M  V30 2 N 38.330098 27.794553 58.101453 0
M  V30 3 O 41.052796 29.021481 60.213168 0
M  V30 4 C 38.409083 36.987613 61.942235 0
M  V30 5 C 37.896212 32.280460 60.450000 0
M  V30 6 C 35.874281 34.066895 61.320305 0
M  V30 7 C 34.693076 33.422891 61.310274 0
M  V30 8 C 38.009348 33.765912 59.980152 0 CFG=1
M  V30 9 C 36.632317 34.542348 60.079245 0 CFG=2
M  V30 10 F 37.467403 36.640275 59.173621 0
M  V30 11 C 39.380914 29.984192 57.761817 0 CFG=2
M  V30 12 C 38.886785 35.753251 62.667363 0
M  V30 13 O 39.597746 25.694200 57.252094 0
M  V30 14 C 39.066856 31.255972 58.489849 0 CFG=2
M  V30 15 C 38.603400 27.260784 55.351637 0
M  V30 16 C 39.015323 31.314173 59.998510 0 CFG=2
M  V30 17 C 39.066445 28.407793 52.910868 0
M  V30 18 O 38.039563 30.526505 57.851199 0
M  V30 19 C 39.061825 26.514254 54.253542 0
M  V30 20 C 39.468322 28.132018 50.543536 0
M  V30 21 C 36.953865 36.880544 61.461019 0
M  V30 22 C 38.479674 30.713814 53.816383 0
M  V30 23 C 39.266748 34.446428 60.557681 0
M  V30 24 O 37.067396 25.831640 56.969980 0
M  V30 25 C 39.508312 28.626910 58.423464 0 CFG=1
M  V30 26 C 38.833643 29.895242 60.609016 0 CFG=1
M  V30 27 S 38.387933 26.477152 56.956621 0
M  V30 28 C 35.861132 34.179946 58.783551 0
M  V30 29 C 39.686709 28.769425 59.950731 0 CFG=2
M  V30 30 C 39.261691 34.624585 62.054541 0
M  V30 31 C 38.350889 28.619834 55.204136 0
M  V30 32 N 39.264124 27.059045 53.021335 0
M  V30 33 C 38.626018 29.217909 53.978342 0
M  V30 34 C 39.068945 29.908557 62.130787 0
M  V30 35 O 39.330362 28.970068 51.678542 0
M  V30 36 H 35.713295 36.462277 59.827582 0
M  V30 37 H 37.484718 28.358991 58.002735 0
M  V30 38 H 41.556491 28.248219 59.998601 0
M  V30 39 H 38.500183 37.799531 62.653501 0
M  V30 40 H 39.067810 37.251201 61.119976 0
M  V30 41 H 36.953835 31.859842 60.097089 0
M  V30 42 H 37.834549 32.268772 61.536847 0
M  V30 43 H 36.342478 34.273074 62.253498 0
M  V30 44 H 34.226474 33.120083 62.235242 0
M  V30 45 H 34.181131 33.192740 60.389488 0
M  V30 46 H 38.236946 33.746906 58.917752 0
M  V30 47 H 39.866843 30.096976 56.795001 0
M  V30 48 H 38.910422 35.807579 63.744878 0
M  V30 49 H 39.322434 32.177271 57.969798 0
M  V30 50 H 39.975017 31.695794 60.340364 0
M  V30 51 H 39.273953 25.461189 54.356641 0
M  V30 52 H 39.441993 28.751464 49.647140 0
M  V30 53 H 40.424385 27.622087 50.557791 0
M  V30 54 H 38.668840 27.395512 50.469478 0
M  V30 55 H 36.318751 36.519472 62.269305 0
M  V30 56 H 36.612313 37.903075 61.294573 0
M  V30 57 H 38.732968 31.216749 54.750650 0
M  V30 58 H 39.151762 31.099672 53.049125 0
M  V30 59 H 37.467381 30.988721 53.574524 0
M  V30 60 H 40.161406 33.885033 60.298782 0
M  V30 61 H 39.421093 35.404730 60.076912 0
M  V30 62 H 40.385429 28.129761 58.007360 0
M  V30 63 H 37.795325 29.621499 60.430344 0
M  V30 64 H 36.443275 34.421040 57.896843 0
M  V30 65 H 35.664767 33.114438 58.711703 0
M  V30 66 H 34.904123 34.695859 58.701435 0
M  V30 67 H 39.448193 27.815314 60.422132 0
M  V30 68 H 39.581382 33.777770 62.643197 0
M  V30 69 H 37.984874 29.201421 56.015539 0
M  V30 70 H 39.999106 30.416554 62.385783 0
M  V30 71 H 38.262551 30.395838 62.675709 0
M  V30 72 H 39.155447 28.893239 62.509631 0
M  V30 END ATOM
M  V30 BEGIN BOND
M  V30 1 2 7 6
M  V30 2 1 8 5
M  V30 3 1 9 1
M  V30 4 1 9 6
M  V30 5 1 9 8
M  V30 6 1 10 1
M  V30 7 1 12 4
M  V30 8 1 14 11
M  V30 9 1 16 5
M  V30 10 1 16 14
M  V30 11 1 18 11
M  V30 12 1 18 14
M  V30 13 1 19 15
M  V30 14 1 21 1
M  V30 15 1 21 4
M  V30 16 1 23 8
M  V30 17 1 25 2
M  V30 18 1 25 11
M  V30 19 1 26 16
M  V30 20 1 27 2
M  V30 21 2 27 13
M  V30 22 1 27 15
M  V30 23 2 27 24
M  V30 24 1 9 28 CFG=3
M  V30 25 1 29 3
M  V30 26 1 29 25
M  V30 27 1 29 26
M  V30 28 2 30 12
M  V30 29 1 30 23
M  V30 30 2 31 15
M  V30 31 1 32 17
M  V30 32 2 32 19
M  V30 33 2 33 17
M  V30 34 1 33 22
M  V30 35 1 33 31
M  V30 36 1 34 26
M  V30 37 1 35 17
M  V30 38 1 35 20
M  V30 39 1 1 36 CFG=3
M  V30 40 1 37 2
M  V30 41 1 38 3
M  V30 42 1 39 4
M  V30 43 1 40 4
M  V30 44 1 41 5
M  V30 45 1 42 5
M  V30 46 1 43 6
M  V30 47 1 44 7
M  V30 48 1 45 7
M  V30 49 1 8 46 CFG=3
M  V30 50 1 11 47 CFG=3
M  V30 51 1 48 12
M  V30 52 1 14 49 CFG=3
M  V30 53 1 16 50 CFG=1
M  V30 54 1 51 19
M  V30 55 1 52 20
M  V30 56 1 53 20
M  V30 57 1 54 20
M  V30 58 1 55 21
M  V30 59 1 56 21
M  V30 60 1 57 22
M  V30 61 1 58 22
M  V30 62 1 59 22
M  V30 63 1 60 23
M  V30 64 1 61 23
M  V30 65 1 25 62 CFG=3
M  V30 66 1 26 63 CFG=1
M  V30 67 1 64 28
M  V30 68 1 65 28
M  V30 69 1 66 28
M  V30 70 1 29 67 CFG=1
M  V30 71 1 68 30
M  V30 72 1 69 31
M  V30 73 1 70 34
M  V30 74 1 71 34
M  V30 75 1 72 34
M  V30 END BOND
M  V30 END CTAB
M  END
>  <i_epik_Tot_Q>  (1) 
0

>  <i_epik_Tot_abs_Q>  (1) 
0

>  <i_i_glide_confnum>  (1) 
214

>  <i_i_glide_lignum>  (1) 
107

>  <i_i_glide_posenum>  (1) 
98

>  <i_i_glide_rotatable_bonds>  (1) 
8

>  <i_lp_mmshare_version>  (1) 
72125

>  <i_m_source_file_index>  (1) 
44

>  <i_f3d_flags>  (1) 
0

>  <num_sample>  (1) 
100

>  <b_lp_Chiralities_Consistent>  (1) 
1

>  <r_epik_Charging_Adjusted_Penalty>  (1) 
0

>  <r_epik_Ionization_Penalty>  (1) 
0.00039719250782603149

>  <r_epik_Ionization_Penalty_Charging>  (1) 
0

>  <r_epik_Ionization_Penalty_Neutral>  (1) 
0.00039719250782603149

>  <r_epik_State_Penalty>  (1) 
-0

>  <r_glide_ring_energy>  (1) 
0

>  <r_i_docking_score>  (1) 
-5.8661337828234474

>  <r_i_glide_ecoul>  (1) 
-1.9177028246335863

>  <r_i_glide_eff_state_penalty>  (1) 
-0

>  <r_i_glide_einternal>  (1) 
1.8546007962091502

>  <r_i_glide_emodel>  (1) 
-51.173274362766939

>  <r_i_glide_emodel_strain>  (1) 
0.20243385348771881

>  <r_i_glide_energy>  (1) 
-39.729127279413966

>  <r_i_glide_erotb>  (1) 
0.47480880431145434

>  <r_i_glide_esite>  (1) 
0

>  <r_i_glide_evdw>  (1) 
-37.811424454780379

>  <r_i_glide_gscore>  (1) 
-5.8661337828234474

>  <r_i_glide_gscore_strain>  (1) 
0

>  <r_i_glide_hbond>  (1) 
-0.13182998706741728

>  <r_i_glide_ligand_efficiency>  (1) 
-0.16760382236638421

>  <r_i_glide_ligand_efficiency_ln>  (1) 
-1.2877465571545066

>  <r_i_glide_ligand_efficiency_sa>  (1) 
-0.54824321680151233

>  <r_i_glide_lipo>  (1) 
-4.0484793397415757

>  <r_i_glide_metal>  (1) 
-0

>  <r_i_glide_rewards>  (1) 
0.017593386108148978

>  <r_lp_Energy>  (1) 
35.002376999999996

>  <r_lp_tautomer_probability>  (1) 
1

>  <s_epik_cmdline>  (1) 
J2VwaWtfcHl0aG9uJywgJy1waHQnLCAnMS4wJywgJy1waCcsICc3LjQnLCAnLXRuJywgJzgnLCAnLW1hJywgJzUwMCcsICctaW1hZScsICc8aW5maWxlLm1hZT4nLCAnLW9tYWUnLCAnPG91dGZpbGUubWFlPic=

>  <s_epik_input>  (1) 
W0NIMl09W0NIXVtDQEBdMShbQ0gzXSlbQ0BIXShGKVtDSDJdW0NIMl0vW0NIXT1bQ0hdXFtDSDJdW0NASF0xW0NIMl1bQ0BIXShbQ0BIXShPMilbQ0BIXTIzKVtDQEhdKFtDSDNdKVtDQEhdKFtPSF0pW0NASF0zW05IXVMoPU8pKD1PKWM0W2NIXW5jKGMoW0NIM10pW2NIXTQpT1tDSDNd

>  <s_glide_docking_method>  (1) 
confgen

>  <s_i_glide_gridfile>  (1) 
gpcr_5ht2c_6bqh_protein_autoprepared_prepared

>  <s_lp_Force_Field>  (1) 
S-OPLS

>  <s_lp_Variant>  (1) 
DiffSBDD_43_num_sample_100-1

>  <s_m_source_file>  (1) 
generated__ligand_DiffSBDD_2026-05-06_prepared.sdf

>  <GenAI_Model>  (1) 
DiffSBDD

>  <Protein>  (1) 
GPCR_5HT2C

$$$$
DiffSBDD_39_num_sample_100
     RDKit          3D

  0  0  0  0  0  0  0  0  0  0999 V3000
M  V30 BEGIN CTAB
M  V30 COUNTS 61 64 0 0 1
M  V30 BEGIN ATOM
M  V30 1 C 39.526607 32.480814 62.280754 0
M  V30 2 C 39.161595 30.169628 57.466453 0
M  V30 3 C 35.468694 32.582434 61.053039 0
M  V30 4 C 37.715230 30.659864 57.290672 0
M  V30 5 C 38.130231 31.405315 60.465757 0
M  V30 6 C 39.150798 27.800974 56.402079 0
M  V30 7 N 38.728223 27.238545 52.680714 0
M  V30 8 O 35.461448 33.648004 61.703292 0 CHG=-1
M  V30 9 C 39.071336 28.085842 54.916060 0
M  V30 10 C 38.613116 33.970411 60.544346 0
M  V30 11 O 35.068122 31.477716 61.453999 0
M  V30 12 C 39.226929 35.066476 61.194861 0
M  V30 13 C 39.982691 34.875236 62.365643 0
M  V30 14 N 37.161584 31.591975 59.521279 0
M  V30 15 C 40.972271 33.404124 64.182443 0
M  V30 16 C 36.404084 33.894373 59.090426 0
M  V30 17 C 39.285870 28.430862 50.623580 0
M  V30 18 C 36.900575 30.480095 58.584200 0
M  V30 19 C 41.717647 30.924103 64.281800 0
M  V30 20 C 39.467260 29.432669 54.282751 0
M  V30 21 C 36.029031 32.537224 59.640741 0 CFG=2
M  V30 22 C 39.998146 29.807791 50.327960 0
M  V30 23 O 41.195116 29.790916 64.239669 0 CHG=-1
M  V30 24 C 38.754017 32.649002 61.104638 0
M  V30 25 S 40.107780 30.810326 51.877224 0
M  V30 26 C 39.532856 29.468069 52.802312 0
M  V30 27 O 39.752967 30.414785 54.924594 0
M  V30 28 C 40.140154 33.588558 62.908203 0
M  V30 29 Cl 38.314987 25.510831 54.656145 0
M  V30 30 C 40.897925 32.046340 64.927984 0
M  V30 31 C 38.739232 27.079334 54.053938 0
M  V30 32 C 39.214987 28.660845 57.464331 0
M  V30 33 C 37.868202 34.224582 59.234739 0
M  V30 34 O 38.509745 30.285703 60.814700 0
M  V30 35 C 39.178897 28.405524 52.113539 0
M  V30 36 O 42.848446 31.224170 63.846332 0
M  V30 37 H 39.645429 31.491986 62.699566 0
M  V30 38 H 39.449898 30.384838 58.484868 0
M  V30 39 H 39.956609 30.755983 57.040906 0
M  V30 40 H 37.634550 31.700496 56.967310 0
M  V30 41 H 37.240760 30.088486 56.492647 0
M  V30 42 H 39.163072 26.758784 56.674788 0
M  V30 43 H 39.128861 36.058781 60.782276 0
M  V30 44 H 40.451542 35.721665 62.846454 0
M  V30 45 H 42.008179 33.652635 63.943852 0
M  V30 46 H 40.662049 34.176323 64.885388 0
M  V30 47 H 35.784814 34.682111 59.519609 0
M  V30 48 H 36.178417 33.924258 58.024540 0
M  V30 49 H 39.842514 27.569770 50.252904 0
M  V30 50 H 38.277678 28.421952 50.228331 0
M  V30 51 H 35.846396 30.420406 58.323869 0
M  V30 52 H 37.082995 29.500256 59.024686 0
M  V30 53 H 35.165371 32.217467 59.058644 0
M  V30 54 H 39.477400 30.375369 49.558647 0
M  V30 55 H 41.015447 29.648406 49.968744 0
M  V30 56 H 41.302832 32.176445 65.931484 0
M  V30 57 H 39.867193 31.724960 65.062941 0
M  V30 58 H 39.290589 28.219579 58.449795 0
M  V30 59 H 37.866228 35.294850 59.056752 0
M  V30 60 H 38.440168 33.770376 58.424703 0
M  V30 61 H 38.471720 26.459766 52.088729 0
M  V30 END ATOM
M  V30 BEGIN BOND
M  V30 1 1 4 2
M  V30 2 1 8 3
M  V30 3 1 9 6
M  V30 4 2 11 3
M  V30 5 1 12 10
M  V30 6 2 13 12
M  V30 7 1 14 5
M  V30 8 1 18 4
M  V30 9 1 18 14
M  V30 10 1 20 9
M  V30 11 1 21 3
M  V30 12 1 21 14
M  V30 13 1 21 16
M  V30 14 1 22 17
M  V30 15 1 23 19
M  V30 16 1 24 1
M  V30 17 1 24 5
M  V30 18 2 24 10
M  V30 19 1 25 22
M  V30 20 1 26 20
M  V30 21 1 26 25
M  V30 22 2 27 20
M  V30 23 2 28 1
M  V30 24 1 28 13
M  V30 25 1 28 15
M  V30 26 1 30 15
M  V30 27 1 30 19
M  V30 28 1 31 7
M  V30 29 2 31 9
M  V30 30 1 31 29
M  V30 31 1 32 2
M  V30 32 2 32 6
M  V30 33 1 33 10
M  V30 34 1 33 16
M  V30 35 2 34 5
M  V30 36 1 35 7
M  V30 37 1 35 17
M  V30 38 2 35 26
M  V30 39 2 36 19
M  V30 40 1 37 1
M  V30 41 1 38 2
M  V30 42 1 39 2
M  V30 43 1 40 4
M  V30 44 1 41 4
M  V30 45 1 42 6
M  V30 46 1 43 12
M  V30 47 1 44 13
M  V30 48 1 45 15
M  V30 49 1 46 15
M  V30 50 1 47 16
M  V30 51 1 48 16
M  V30 52 1 49 17
M  V30 53 1 50 17
M  V30 54 1 51 18
M  V30 55 1 52 18
M  V30 56 1 21 53 CFG=3
M  V30 57 1 54 22
M  V30 58 1 55 22
M  V30 59 1 56 30
M  V30 60 1 57 30
M  V30 61 1 58 32
M  V30 62 1 59 33
M  V30 63 1 60 33
M  V30 64 1 61 7
M  V30 END BOND
M  V30 END CTAB
M  END
>  <i_epik_Tot_Q>  (1) 
-2

>  <i_epik_Tot_abs_Q>  (1) 
2

>  <i_i_glide_confnum>  (1) 
84

>  <i_i_glide_lignum>  (1) 
99

>  <i_i_glide_posenum>  (1) 
70

>  <i_i_glide_rotatable_bonds>  (1) 
9

>  <i_lp_mmshare_version>  (1) 
72125

>  <i_m_source_file_index>  (1) 
40

>  <i_f3d_flags>  (1) 
0

>  <num_sample>  (1) 
100

>  <b_lp_Chiralities_Consistent>  (1) 
1

>  <r_epik_Charging_Adjusted_Penalty>  (1) 
2.4833595310622814

>  <r_epik_Ionization_Penalty>  (1) 
1.1966221344959846

>  <r_epik_Ionization_Penalty_Charging>  (1) 
1.1966221333468745

>  <r_epik_Ionization_Penalty_Neutral>  (1) 
1.1491101627543943e-09

>  <r_epik_State_Penalty>  (1) 
1.2867373977154066

>  <r_glide_ring_energy>  (1) 
0

>  <r_i_docking_score>  (1) 
-5.8648147775826303

>  <r_i_glide_ecoul>  (1) 
-2.2179025118567202

>  <r_i_glide_eff_state_penalty>  (1) 
1.2867373977154066

>  <r_i_glide_einternal>  (1) 
5.960871549408445

>  <r_i_glide_emodel>  (1) 
-57.399708661536721

>  <r_i_glide_emodel_strain>  (1) 
1.0747016273355001

>  <r_i_glide_energy>  (1) 
-41.480704835270657

>  <r_i_glide_erotb>  (1) 
0.44176053004123106

>  <r_i_glide_esite>  (1) 
-0.073723973595247086

>  <r_i_glide_evdw>  (1) 
-39.262802323413936

>  <r_i_glide_gscore>  (1) 
-7.1515521752980371

>  <r_i_glide_gscore_strain>  (1) 
0

>  <r_i_glide_hbond>  (1) 
-0.1085012202623263

>  <r_i_glide_ligand_efficiency>  (1) 
-0.16291152159951749

>  <r_i_glide_ligand_efficiency_ln>  (1) 
-1.279544135484276

>  <r_i_glide_ligand_efficiency_sa>  (1) 
-0.53792199232833249

>  <r_i_glide_lipo>  (1) 
-4.111760306788538

>  <r_i_glide_metal>  (1) 
-0

>  <r_i_glide_rewards>  (1) 
-1.0035017117439518

>  <r_lp_Energy>  (1) 
54.484504999999999

>  <s_epik_cmdline>  (1) 
J2VwaWtfcHl0aG9uJywgJy1waHQnLCAnMS4wJywgJy1waCcsICc3LjQnLCAnLXRuJywgJzgnLCAnLW1hJywgJzUwMCcsICctaW1hZScsICc8aW5maWxlLm1hZT4nLCAnLW9tYWUnLCAnPG91dGZpbGUubWFlPic=

>  <s_epik_input>  (1) 
W09IXUMoPU8pW0NIMl1bQ0gyXWMoW2NIXVtjSF0xKVtjSF1jKGMxMilDKD1PKU4oW0NAQEhdKEMoPU8pW09IXSlbQ0gyXVtDSDJdMilbQ0gyXVtDSDJdW0NIMl0vW0NIXT1bQ0hdXGMoYzNbT0hdKWMoQ2wpbmMoYzM0KVtDSDJdW0NIMl1TNA==

>  <s_glide_docking_method>  (1) 
confgen

>  <s_i_glide_gridfile>  (1) 
gpcr_5ht2c_6bqh_protein_autoprepared_prepared

>  <s_lp_Force_Field>  (1) 
S-OPLS

>  <s_lp_Variant>  (1) 
DiffSBDD_39_num_sample_100-6

>  <s_m_source_file>  (1) 
generated__ligand_DiffSBDD_2026-05-06_prepared.sdf

>  <GenAI_Model>  (1) 
DiffSBDD

>  <Protein>  (1) 
GPCR_5HT2C

$$$$
DiffSBDD_62_num_sample_100
     RDKit          3D

  0  0  0  0  0  0  0  0  0  0999 V3000
M  V30 BEGIN CTAB
M  V30 COUNTS 81 82 0 0 1
M  V30 BEGIN ATOM
M  V30 1 O 42.549381 27.466438 66.236817 0
M  V30 2 O 37.759180 31.269643 54.533161 0
M  V30 3 C 41.477279 35.566633 60.657314 0
M  V30 4 C 38.567859 27.699628 55.638893 0
M  V30 5 C 41.550021 31.165159 64.555837 0
M  V30 6 C 42.998627 29.201733 64.640994 0
M  V30 7 C 38.746752 30.455810 56.533284 0
M  V30 8 C 42.223573 28.674235 65.692292 0
M  V30 9 C 38.756122 30.233178 60.516093 0
M  V30 10 C 41.521642 34.491076 61.712621 0
M  V30 11 F 44.069976 28.513890 64.177804 0
M  V30 12 C 42.662735 30.445755 64.073644 0
M  V30 13 C 39.047133 34.682168 62.257592 0 CFG=2
M  V30 14 C 39.727673 28.158345 56.552219 0 CFG=1
M  V30 15 C 40.461269 32.380680 62.560747 0 CFG=1
M  V30 16 C 41.183713 32.505765 63.935745 0
M  V30 17 C 39.448778 35.649295 63.401369 0
M  V30 18 O 37.083287 28.306312 52.595062 0
M  V30 19 N 37.969924 30.008801 59.453743 0
M  V30 20 C 41.111486 29.389472 66.175978 0
M  V30 21 O 40.665804 26.022734 56.377592 0
M  V30 22 C 39.185880 31.551152 62.717428 0
M  V30 23 C 39.285085 29.355275 57.432035 0 CFG=2
M  V30 24 C 38.206157 30.220682 55.312726 0
M  V30 25 C 38.239307 28.954028 58.490008 0
M  V30 26 C 40.214255 33.739435 61.814371 0 CFG=2
M  V30 27 C 38.339730 35.532623 61.158840 0
M  V30 28 C 37.664816 34.798822 59.980787 0
M  V30 29 C 37.568965 28.591977 53.625228 0
M  V30 30 C 36.312296 34.179519 60.338417 0
M  V30 31 C 38.070803 32.606962 54.905968 0
M  V30 32 C 38.090116 28.863663 54.796160 0
M  V30 33 C 40.395792 27.012780 57.332044 0 CFG=1
M  V30 34 C 41.722539 27.437374 57.990608 0
M  V30 35 O 39.791326 29.600147 60.731672 0
M  V30 36 C 40.774409 30.634014 65.610160 0
M  V30 37 C 38.293840 31.320488 61.480865 0
M  V30 38 H 43.297424 27.083867 65.803265 0
M  V30 39 H 42.476198 35.620765 60.254006 0
M  V30 40 H 40.777697 35.244743 59.877147 0
M  V30 41 H 41.199743 36.548514 61.044342 0
M  V30 42 H 37.734040 27.294552 56.212552 0
M  V30 43 H 38.880410 26.894400 54.967180 0
M  V30 44 H 38.819746 31.462025 56.917455 0
M  V30 45 H 41.867443 34.914975 62.654860 0
M  V30 46 H 42.264569 33.746883 61.436579 0
M  V30 47 H 43.258131 30.848430 63.268030 0
M  V30 48 H 38.271528 34.016012 62.589215 0
M  V30 49 H 40.497363 28.539739 55.876612 0
M  V30 50 H 41.129541 31.797476 61.923741 0
M  V30 51 H 40.570962 33.062312 64.645300 0
M  V30 52 H 42.115477 33.062996 63.846063 0
M  V30 53 H 39.983325 36.518640 63.017513 0
M  V30 54 H 38.564334 36.040221 63.902453 0
M  V30 55 H 40.092687 35.205292 64.157796 0
M  V30 56 H 37.136615 30.567696 59.323632 0
M  V30 57 H 40.517474 28.983011 66.982752 0
M  V30 58 H 41.511776 25.621459 56.587345 0
M  V30 59 H 39.367620 30.592455 63.201559 0
M  V30 60 H 38.671602 32.151624 63.441894 0
M  V30 61 H 40.171633 29.752804 57.927768 0
M  V30 62 H 38.538242 28.061145 59.038482 0
M  V30 63 H 37.300004 28.694586 58.000918 0
M  V30 64 H 39.980484 33.414678 60.804597 0
M  V30 65 H 37.577736 36.147863 61.641131 0
M  V30 66 H 39.020921 36.268095 60.749163 0
M  V30 67 H 37.473414 35.525733 59.190325 0
M  V30 68 H 38.324724 34.061303 59.531735 0
M  V30 69 H 35.828261 33.749159 59.459833 0
M  V30 70 H 36.384123 33.415906 61.109755 0
M  V30 71 H 35.654005 34.946632 60.719418 0
M  V30 72 H 37.855990 33.250069 54.057698 0
M  V30 73 H 37.467394 32.942100 55.749733 0
M  V30 74 H 39.128007 32.746240 55.137888 0
M  V30 75 H 39.730906 26.562670 58.069883 0
M  V30 76 H 41.555552 28.103771 58.836956 0
M  V30 77 H 42.282577 26.578401 58.363599 0
M  V30 78 H 42.359122 27.969750 57.282025 0
M  V30 79 H 39.919939 31.180572 65.982835 0
M  V30 80 H 37.296397 31.046047 61.819818 0
M  V30 81 H 38.165791 32.229292 60.912270 0
M  V30 END ATOM
M  V30 BEGIN BOND
M  V30 1 1 8 1
M  V30 2 2 8 6
M  V30 3 1 10 3
M  V30 4 1 11 6
M  V30 5 2 12 5
M  V30 6 1 12 6
M  V30 7 1 14 4
M  V30 8 1 16 5
M  V30 9 1 16 15
M  V30 10 1 17 13
M  V30 11 1 19 9
M  V30 12 1 20 8
M  V30 13 1 22 15
M  V30 14 1 23 7
M  V30 15 1 23 14
M  V30 16 1 24 2
M  V30 17 2 24 7
M  V30 18 1 25 19
M  V30 19 1 25 23
M  V30 20 1 26 10
M  V30 21 1 26 13
M  V30 22 1 26 15
M  V30 23 1 27 13
M  V30 24 1 28 27
M  V30 25 2 29 18
M  V30 26 1 30 28
M  V30 27 1 31 2
M  V30 28 1 32 4
M  V30 29 1 32 24
M  V30 30 2 32 29
M  V30 31 1 33 14
M  V30 32 1 33 21
M  V30 33 1 34 33
M  V30 34 2 35 9
M  V30 35 1 36 5
M  V30 36 2 36 20
M  V30 37 1 37 9
M  V30 38 1 37 22
M  V30 39 1 38 1
M  V30 40 1 39 3
M  V30 41 1 40 3
M  V30 42 1 41 3
M  V30 43 1 42 4
M  V30 44 1 43 4
M  V30 45 1 44 7
M  V30 46 1 45 10
M  V30 47 1 46 10
M  V30 48 1 47 12
M  V30 49 1 13 48 CFG=1
M  V30 50 1 14 49 CFG=3
M  V30 51 1 15 50 CFG=3
M  V30 52 1 51 16
M  V30 53 1 52 16
M  V30 54 1 53 17
M  V30 55 1 54 17
M  V30 56 1 55 17
M  V30 57 1 56 19
M  V30 58 1 57 20
M  V30 59 1 58 21
M  V30 60 1 59 22
M  V30 61 1 60 22
M  V30 62 1 23 61 CFG=1
M  V30 63 1 62 25
M  V30 64 1 63 25
M  V30 65 1 26 64 CFG=3
M  V30 66 1 65 27
M  V30 67 1 66 27
M  V30 68 1 67 28
M  V30 69 1 68 28
M  V30 70 1 69 30
M  V30 71 1 70 30
M  V30 72 1 71 30
M  V30 73 1 72 31
M  V30 74 1 73 31
M  V30 75 1 74 31
M  V30 76 1 33 75 CFG=1
M  V30 77 1 76 34
M  V30 78 1 77 34
M  V30 79 1 78 34
M  V30 80 1 79 36
M  V30 81 1 80 37
M  V30 82 1 81 37
M  V30 END BOND
M  V30 END CTAB
M  END
>  <i_epik_Tot_Q>  (1) 
0

>  <i_epik_Tot_abs_Q>  (1) 
0

>  <i_i_glide_confnum>  (1) 
4062

>  <i_i_glide_lignum>  (1) 
157

>  <i_i_glide_posenum>  (1) 
69

>  <i_i_glide_rotatable_bonds>  (1) 
17

>  <i_lp_mmshare_version>  (1) 
72125

>  <i_m_source_file_index>  (1) 
63

>  <i_f3d_flags>  (1) 
0

>  <num_sample>  (1) 
100

>  <b_lp_Chiralities_Consistent>  (1) 
1

>  <r_epik_Charging_Adjusted_Penalty>  (1) 
0.018006221857045448

>  <r_epik_Ionization_Penalty>  (1) 
0.018006279539151737

>  <r_epik_Ionization_Penalty_Charging>  (1) 
0

>  <r_epik_Ionization_Penalty_Neutral>  (1) 
0.018006279539151737

>  <r_epik_State_Penalty>  (1) 
0.018006221857045448

>  <r_glide_ring_energy>  (1) 
0

>  <r_i_docking_score>  (1) 
-5.8647297497622395

>  <r_i_glide_ecoul>  (1) 
-5.1937952458008931

>  <r_i_glide_eff_state_penalty>  (1) 
0.018006221857045448

>  <r_i_glide_einternal>  (1) 
13.218187742107332

>  <r_i_glide_emodel>  (1) 
-40.147978627050179

>  <r_i_glide_emodel_strain>  (1) 
3.2009341482759552

>  <r_i_glide_energy>  (1) 
-33.246901138788928

>  <r_i_glide_erotb>  (1) 
0.91941413916602621

>  <r_i_glide_esite>  (1) 
0

>  <r_i_glide_evdw>  (1) 
-28.053105892988036

>  <r_i_glide_gscore>  (1) 
-5.8827359716192849

>  <r_i_glide_gscore_strain>  (1) 
0

>  <r_i_glide_hbond>  (1) 
-0.31757541288037877

>  <r_i_glide_ligand_efficiency>  (1) 
-0.15850620945303351

>  <r_i_glide_ligand_efficiency_ln>  (1) 
-1.2719223939510542

>  <r_i_glide_ligand_efficiency_sa>  (1) 
-0.52817785476096868

>  <r_i_glide_lipo>  (1) 
-3.5644794904177242

>  <r_i_glide_metal>  (1) 
-0

>  <r_i_glide_rewards>  (1) 
-0.73837062596767211

>  <r_lp_Energy>  (1) 
35.726849999999999

>  <r_lp_tautomer_probability>  (1) 
0.99999999999736477

>  <s_epik_cmdline>  (1) 
J2VwaWtfcHl0aG9uJywgJy1waHQnLCAnMS4wJywgJy1waCcsICc3LjQnLCAnLXRuJywgJzgnLCAnLW1hJywgJzUwMCcsICctaW1hZScsICc8aW5maWxlLm1hZT4nLCAnLW9tYWUnLCAnPG91dGZpbGUubWFlPic=

>  <s_epik_input>  (1) 
W2NIXTFbY0hdYyhbT0hdKWMoRilbY0hdYzFbQ0gyXVtDQEhdKFtDQEhdKFtDSDJdW0NIM10pW0NAQEhdKFtDSDNdKVtDSDJdW0NIMl1bQ0gzXSlbQ0gyXVtDSDJdQyg9TylbTkhdW0NIMl1bQ0BASF0yW0NIXT1DKE9bQ0gzXSlDKD1DPU8pW0NIMl1bQ0BASF0yW0NAQEhdKFtPSF0pW0NIM10=

>  <s_glide_docking_method>  (1) 
confgen

>  <s_i_glide_gridfile>  (1) 
gpcr_5ht2c_6bqh_protein_autoprepared_prepared

>  <s_lp_Force_Field>  (1) 
S-OPLS

>  <s_lp_Variant>  (1) 
DiffSBDD_62_num_sample_100-1

>  <s_m_source_file>  (1) 
generated__ligand_DiffSBDD_2026-05-06_prepared.sdf

>  <GenAI_Model>  (1) 
DiffSBDD

>  <Protein>  (1) 
GPCR_5HT2C

$$$$
DiffSBDD_60_num_sample_100
     RDKit          3D

  0  0  0  0  0  0  0  0  0  0999 V3000
M  V30 BEGIN CTAB
M  V30 COUNTS 75 77 0 0 1
M  V30 BEGIN ATOM
M  V30 1 C 38.806771 35.695584 61.052102 0
M  V30 2 C 39.867398 29.201892 50.050814 0
M  V30 3 C 39.803783 30.412625 50.744243 0
M  V30 4 C 37.481629 30.109070 59.066438 0
M  V30 5 N 36.667409 35.721963 60.337344 0
M  V30 6 C 40.500570 33.275079 61.722421 0
M  V30 7 C 37.526273 27.403806 54.695013 0
M  V30 8 C 39.883553 29.097403 59.260065 0
M  V30 9 C 38.473532 28.983096 58.643709 0 CFG=2
M  V30 10 C 36.312532 33.398860 59.617263 0
M  V30 11 C 38.957709 27.872245 55.050278 0 CFG=1
M  V30 12 O 37.843521 31.743273 61.640229 0
M  V30 13 C 39.002471 26.409255 57.213448 0 CFG=1
M  V30 14 C 40.098910 25.981379 58.200132 0
M  V30 15 C 38.043594 31.558757 59.149965 0 CFG=1
M  V30 16 N 37.067411 32.574013 58.653500 0 CHG=1
M  V30 17 C 39.290989 29.223864 54.366592 0
M  V30 18 C 37.176289 34.499024 60.185889 0
M  V30 19 C 39.468023 33.239252 60.580622 0 CFG=1
M  V30 20 C 38.711054 31.895309 60.527250 0 CFG=1
M  V30 21 O 39.867406 31.578253 50.058474 0
M  V30 22 C 39.632695 30.421410 52.147076 0
M  V30 23 C 38.547718 34.428904 60.614849 0
M  V30 24 C 37.845310 24.452412 56.386464 0
M  V30 25 C 37.838284 23.696313 57.714132 0
M  V30 26 C 39.741684 27.991377 50.742625 0
M  V30 27 C 39.245325 27.832990 56.583770 0 CFG=2
M  V30 28 O 38.484255 28.885368 57.210672 0
M  V30 29 N 37.673235 36.421674 60.873419 0
M  V30 30 C 37.473156 26.207897 53.740589 0
M  V30 31 C 39.479254 29.210995 52.841754 0
M  V30 32 C 39.545925 27.990596 52.127799 0
M  V30 33 O 38.950082 25.353185 56.254581 0
M  V30 34 H 39.703507 36.132501 61.467501 0
M  V30 35 H 39.998355 29.202872 48.980481 0
M  V30 36 H 36.641960 30.077822 58.370569 0
M  V30 37 H 37.043791 29.851624 60.030978 0
M  V30 38 H 41.116131 34.173867 61.673954 0
M  V30 39 H 41.182549 32.426968 61.669709 0
M  V30 40 H 40.015947 33.256472 62.700306 0
M  V30 41 H 36.911195 28.220683 54.314068 0
M  V30 42 H 37.067420 27.075615 55.614853 0
M  V30 43 H 39.847709 29.025167 60.346868 0
M  V30 44 H 40.360401 30.021435 58.979121 0
M  V30 45 H 40.583175 28.339766 58.934400 0
M  V30 46 H 38.035851 28.068614 59.035382 0
M  V30 47 H 35.865481 32.780974 60.397646 0
M  V30 48 H 35.478549 33.837339 59.068573 0
M  V30 49 H 39.684262 27.150268 54.683205 0
M  V30 50 H 38.337000 31.939996 62.423739 0
M  V30 51 H 38.035916 26.425585 57.716222 0
M  V30 52 H 39.867473 26.326133 59.205234 0
M  V30 53 H 41.078944 26.357778 57.907063 0
M  V30 54 H 40.206957 24.902572 58.253387 0
M  V30 55 H 38.820926 31.609733 58.386526 0
M  V30 56 H 37.576082 33.230096 58.081743 0
M  V30 57 H 38.528223 29.959764 54.617789 0
M  V30 58 H 40.216690 29.620341 54.787665 0
M  V30 59 H 40.037278 33.294017 59.656135 0
M  V30 60 H 39.475209 31.147641 60.703103 0
M  V30 61 H 39.589135 31.360474 52.679537 0
M  V30 62 H 37.905029 23.738854 55.564784 0
M  V30 63 H 36.895953 24.971452 56.263839 0
M  V30 64 H 37.067450 22.926989 57.713479 0
M  V30 65 H 37.647479 24.349487 58.563810 0
M  V30 66 H 38.804006 23.221378 57.853526 0
M  V30 67 H 39.790714 27.055077 50.212518 0
M  V30 68 H 40.300342 28.086124 56.690367 0
M  V30 69 H 37.570074 37.399916 61.106379 0
M  V30 70 H 36.667420 25.518612 53.951258 0
M  V30 71 H 38.373432 25.615911 53.853345 0
M  V30 72 H 37.390865 26.520944 52.701611 0
M  V30 73 H 39.467239 27.055566 52.637783 0
M  V30 74 H 40.025669 31.473283 49.134107 0
M  V30 75 H 36.392919 32.118972 58.022569 0
M  V30 END ATOM
M  V30 BEGIN BOND
M  V30 1 2 3 2
M  V30 2 1 9 4
M  V30 3 1 9 8
M  V30 4 1 11 7
M  V30 5 1 14 13
M  V30 6 1 15 4
M  V30 7 1 16 10
M  V30 8 1 16 15
M  V30 9 1 17 11
M  V30 10 2 18 5
M  V30 11 1 18 10
M  V30 12 1 19 6
M  V30 13 1 20 12
M  V30 14 1 20 15
M  V30 15 1 20 19
M  V30 16 1 21 3
M  V30 17 1 22 3
M  V30 18 2 23 1
M  V30 19 1 23 18
M  V30 20 1 23 19
M  V30 21 1 25 24
M  V30 22 1 26 2
M  V30 23 1 27 11
M  V30 24 1 27 13
M  V30 25 1 28 9
M  V30 26 1 28 27
M  V30 27 1 29 1
M  V30 28 1 29 5
M  V30 29 1 30 7
M  V30 30 1 31 17
M  V30 31 2 31 22
M  V30 32 2 32 26
M  V30 33 1 32 31
M  V30 34 1 33 13
M  V30 35 1 33 24
M  V30 36 1 34 1
M  V30 37 1 35 2
M  V30 38 1 36 4
M  V30 39 1 37 4
M  V30 40 1 38 6
M  V30 41 1 39 6
M  V30 42 1 40 6
M  V30 43 1 41 7
M  V30 44 1 42 7
M  V30 45 1 43 8
M  V30 46 1 44 8
M  V30 47 1 45 8
M  V30 48 1 9 46 CFG=1
M  V30 49 1 47 10
M  V30 50 1 48 10
M  V30 51 1 11 49 CFG=3
M  V30 52 1 50 12
M  V30 53 1 13 51 CFG=1
M  V30 54 1 52 14
M  V30 55 1 53 14
M  V30 56 1 54 14
M  V30 57 1 15 55 CFG=3
M  V30 58 1 56 16
M  V30 59 1 57 17
M  V30 60 1 58 17
M  V30 61 1 19 59 CFG=3
M  V30 62 1 20 60 CFG=1
M  V30 63 1 61 22
M  V30 64 1 62 24
M  V30 65 1 63 24
M  V30 66 1 64 25
M  V30 67 1 65 25
M  V30 68 1 66 25
M  V30 69 1 67 26
M  V30 70 1 27 68 CFG=3
M  V30 71 1 69 29
M  V30 72 1 70 30
M  V30 73 1 71 30
M  V30 74 1 72 30
M  V30 75 1 73 32
M  V30 76 1 74 21
M  V30 77 1 75 16
M  V30 END BOND
M  V30 END CTAB
M  END
>  <i_epik_Tot_Q>  (1) 
1

>  <i_epik_Tot_abs_Q>  (1) 
1

>  <i_i_glide_confnum>  (1) 
2406

>  <i_i_glide_lignum>  (1) 
152

>  <i_i_glide_posenum>  (1) 
298

>  <i_i_glide_rotatable_bonds>  (1) 
13

>  <i_lp_mmshare_version>  (1) 
72125

>  <i_m_source_file_index>  (1) 
61

>  <i_f3d_flags>  (1) 
0

>  <num_sample>  (1) 
100

>  <b_lp_Chiralities_Consistent>  (1) 
1

>  <r_epik_Charging_Adjusted_Penalty>  (1) 
0.78957387433993831

>  <r_epik_Ionization_Penalty>  (1) 
0.1824149004180404

>  <r_epik_Ionization_Penalty_Charging>  (1) 
0.18078284225256142

>  <r_epik_Ionization_Penalty_Neutral>  (1) 
0.0016320581654789871

>  <r_epik_State_Penalty>  (1) 
0.60879103208737684

>  <r_glide_ring_energy>  (1) 
0

>  <r_i_docking_score>  (1) 
-5.8597701840942751

>  <r_i_glide_ecoul>  (1) 
-4.9497529803482809

>  <r_i_glide_eff_state_penalty>  (1) 
0.60879103208737684

>  <r_i_glide_einternal>  (1) 
13.080733543207842

>  <r_i_glide_emodel>  (1) 
-46.371949145832389

>  <r_i_glide_emodel_strain>  (1) 
8.3181123202420082

>  <r_i_glide_energy>  (1) 
-37.055902224976734

>  <r_i_glide_erotb>  (1) 
0.85380530184711001

>  <r_i_glide_esite>  (1) 
-0.10000000000000001

>  <r_i_glide_evdw>  (1) 
-32.106149244628455

>  <r_i_glide_gscore>  (1) 
-6.4685612161816515

>  <r_i_glide_gscore_strain>  (1) 
1.079528080060502

>  <r_i_glide_hbond>  (1) 
-0.20344643731945533

>  <r_i_glide_ligand_efficiency>  (1) 
-0.17756879345740229

>  <r_i_glide_ligand_efficiency_ln>  (1) 
-1.3031825486763295

>  <r_i_glide_ligand_efficiency_sa>  (1) 
-0.5695580009505562

>  <r_i_glide_lipo>  (1) 
-4.812715200222331

>  <r_i_glide_metal>  (1) 
-0

>  <r_i_glide_rewards>  (1) 
-0.937962551263813

>  <r_lp_Energy>  (1) 
26.970752999999998

>  <r_lp_tautomer_probability>  (1) 
0.49999999999868239

>  <s_epik_cmdline>  (1) 
J2VwaWtfcHl0aG9uJywgJy1waHQnLCAnMS4wJywgJy1waCcsICc3LjQnLCAnLXRuJywgJzgnLCAnLW1hJywgJzUwMCcsICctaW1hZScsICc8aW5maWxlLm1hZT4nLCAnLW9tYWUnLCAnPG91dGZpbGUubWFlPic=

>  <s_epik_input>  (1) 
bjFbbkhdW2NIXWMoYzEyKVtDQEBIXShbQ0gzXSlbQ0BASF0oW09IXSlbQ0BIXShbTkhdW0NIMl0yKVtDSDJdW0NASF0oW0NIM10pT1tDQEBIXShbQ0BIXShbQ0gzXSlPW0NIMl1bQ0gzXSlbQ0BASF0oW0NIMl1bQ0gzXSlbQ0gyXUMoPVtDSF0zKVtDSDJdW0NIXT1bQ0hdQzM9Tw==

>  <s_glide_docking_method>  (1) 
confgen

>  <s_i_glide_gridfile>  (1) 
gpcr_5ht2c_6bqh_protein_autoprepared_prepared

>  <s_lp_Force_Field>  (1) 
S-OPLS

>  <s_lp_Variant>  (1) 
DiffSBDD_60_num_sample_100-1

>  <s_m_source_file>  (1) 
generated__ligand_DiffSBDD_2026-05-06_prepared.sdf

>  <GenAI_Model>  (1) 
DiffSBDD

>  <Protein>  (1) 
GPCR_5HT2C

$$$$
DiffSBDD_1_num_sample_100
     RDKit          3D

  0  0  0  0  0  0  0  0  0  0999 V3000
M  V30 BEGIN CTAB
M  V30 COUNTS 63 66 0 0 1
M  V30 BEGIN ATOM
M  V30 1 C 40.706247 34.212028 62.342285 0
M  V30 2 C 38.586475 28.006177 55.024103 0
M  V30 3 O 40.902366 36.421440 62.653428 0
M  V30 4 C 38.134137 29.854889 56.703080 0 CFG=1
M  V30 5 C 40.233640 32.989673 61.658926 0
M  V30 6 C 38.606625 32.158217 57.299121 0
M  V30 7 C 39.247053 25.198074 56.662319 0
M  V30 8 C 38.314932 28.052171 52.733694 0
M  V30 9 N 39.060144 26.821432 53.104705 0 CHG=1
M  V30 10 C 36.505702 30.662438 60.056032 0
M  V30 11 C 39.306409 33.157527 60.444255 0
M  V30 12 C 38.815640 25.423095 55.192278 0 CFG=2
M  V30 13 C 39.306841 26.765138 54.570977 0 CFG=2
M  V30 14 C 37.859442 31.989312 58.641379 0 CFG=2
M  V30 15 C 37.655701 31.210096 60.922416 0
M  V30 16 C 40.407204 35.404514 61.934246 0
M  V30 17 N 39.147156 30.896488 56.801854 0
M  V30 18 C 38.822031 28.595650 56.211730 0
M  V30 19 O 40.554357 31.858202 62.024518 0
M  V30 20 C 37.314038 25.136752 54.980733 0
M  V30 21 C 41.630081 35.691610 63.722586 0
M  V30 22 C 37.513003 29.606845 58.086057 0
M  V30 23 C 37.626632 28.542493 54.006528 0
M  V30 24 N 36.922224 30.843600 58.653502 0 CFG=1 CHG=1
M  V30 25 O 36.975546 33.091585 58.747656 0
M  V30 26 C 41.546384 34.096764 63.534804 0
M  V30 27 C 38.667400 31.845337 59.940849 0 CFG=2
M  V30 28 O 38.375818 25.809356 57.593765 0
M  V30 29 H 37.342193 30.170272 56.025192 0
M  V30 30 H 39.400367 32.898763 57.399541 0
M  V30 31 H 37.919108 32.556983 56.549994 0
M  V30 32 H 40.267023 25.547543 56.829155 0
M  V30 33 H 39.250500 24.129733 56.883416 0
M  V30 34 H 37.611364 27.867702 51.920468 0
M  V30 35 H 39.031974 28.798902 52.389188 0
M  V30 36 H 39.921842 26.755962 52.582569 0
M  V30 37 H 36.268198 29.621430 60.253498 0
M  V30 38 H 35.598142 31.242987 60.230348 0
M  V30 39 H 39.867421 33.623014 59.635606 0
M  V30 40 H 38.514558 33.858182 60.710249 0
M  V30 41 H 39.352947 24.643808 54.653532 0
M  V30 42 H 40.375073 26.878969 54.753435 0
M  V30 43 H 38.127257 30.422266 61.511173 0
M  V30 44 H 37.266996 31.950184 61.623540 0
M  V30 45 H 39.806520 35.699569 61.085768 0
M  V30 46 H 39.551989 31.061727 55.884425 0
M  V30 47 H 39.550275 28.160033 56.881260 0
M  V30 48 H 36.685056 25.863203 55.495745 0
M  V30 49 H 37.040439 25.154148 53.926273 0
M  V30 50 H 37.050000 24.149990 55.363603 0
M  V30 51 H 42.667402 36.021867 63.733467 0
M  V30 52 H 41.206082 35.978410 64.685559 0
M  V30 53 H 36.732234 28.848433 58.009238 0
M  V30 54 H 38.268478 29.212362 58.768604 0
M  V30 55 H 36.667392 28.047977 54.135897 0
M  V30 56 H 37.492303 29.623612 54.004851 0
M  V30 57 H 36.379757 33.063119 58.003802 0
M  V30 58 H 41.035042 33.592880 64.355827 0
M  V30 59 H 42.507598 33.628315 63.320094 0
M  V30 60 H 39.455237 31.112705 59.757660 0
M  V30 61 H 38.369441 26.740993 57.446648 0
M  V30 62 H 38.472842 26.034119 52.866341 0
M  V30 63 H 36.131282 31.102818 58.052666 0
M  V30 END ATOM
M  V30 BEGIN BOND
M  V30 1 1 5 1
M  V30 2 1 9 8
M  V30 3 1 11 5
M  V30 4 1 12 7
M  V30 5 1 13 2
M  V30 6 1 13 9
M  V30 7 1 13 12
M  V30 8 1 14 6
M  V30 9 1 15 10
M  V30 10 2 16 1
M  V30 11 1 16 3
M  V30 12 1 17 4
M  V30 13 1 17 6
M  V30 14 2 18 2
M  V30 15 1 18 4
M  V30 16 2 19 5
M  V30 17 1 20 12
M  V30 18 1 21 3
M  V30 19 1 22 4
M  V30 20 1 23 2
M  V30 21 1 23 8
M  V30 22 1 24 10
M  V30 23 1 24 14
M  V30 24 1 24 22
M  V30 25 1 14 25 CFG=1
M  V30 26 1 26 1
M  V30 27 1 26 21
M  V30 28 1 27 11
M  V30 29 1 27 14
M  V30 30 1 27 15
M  V30 31 1 28 7
M  V30 32 1 4 29 CFG=3
M  V30 33 1 30 6
M  V30 34 1 31 6
M  V30 35 1 32 7
M  V30 36 1 33 7
M  V30 37 1 34 8
M  V30 38 1 35 8
M  V30 39 1 36 9
M  V30 40 1 37 10
M  V30 41 1 38 10
M  V30 42 1 39 11
M  V30 43 1 40 11
M  V30 44 1 12 41 CFG=3
M  V30 45 1 13 42 CFG=3
M  V30 46 1 43 15
M  V30 47 1 44 15
M  V30 48 1 45 16
M  V30 49 1 46 17
M  V30 50 1 47 18
M  V30 51 1 48 20
M  V30 52 1 49 20
M  V30 53 1 50 20
M  V30 54 1 51 21
M  V30 55 1 52 21
M  V30 56 1 53 22
M  V30 57 1 54 22
M  V30 58 1 55 23
M  V30 59 1 56 23
M  V30 60 1 57 25
M  V30 61 1 58 26
M  V30 62 1 59 26
M  V30 63 1 27 60 CFG=3
M  V30 64 1 61 28
M  V30 65 1 62 9
M  V30 66 1 24 63 CFG=3
M  V30 END BOND
M  V30 END CTAB
M  END
>  <i_epik_Tot_Q>  (1) 
2

>  <i_epik_Tot_abs_Q>  (1) 
2

>  <i_i_glide_confnum>  (1) 
41

>  <i_i_glide_lignum>  (1) 
16

>  <i_i_glide_posenum>  (1) 
167

>  <i_i_glide_rotatable_bonds>  (1) 
8

>  <i_lp_mmshare_version>  (1) 
72125

>  <i_m_source_file_index>  (1) 
2

>  <i_f3d_flags>  (1) 
0

>  <num_sample>  (1) 
100

>  <b_lp_Chiralities_Consistent>  (1) 
1

>  <r_epik_Charging_Adjusted_Penalty>  (1) 
2.3622130296898831

>  <r_epik_Ionization_Penalty>  (1) 
1.4312966064593899

>  <r_epik_Ionization_Penalty_Charging>  (1) 
1.1852885594971458

>  <r_epik_Ionization_Penalty_Neutral>  (1) 
0.24600804696224418

>  <r_epik_State_Penalty>  (1) 
1.176924470192737

>  <r_glide_ring_energy>  (1) 
0

>  <r_i_docking_score>  (1) 
-5.8592387047516397

>  <r_i_glide_ecoul>  (1) 
-7.605813929992598

>  <r_i_glide_eff_state_penalty>  (1) 
1.176924470192737

>  <r_i_glide_einternal>  (1) 
2.3722045256120072

>  <r_i_glide_emodel>  (1) 
-65.848233616060696

>  <r_i_glide_emodel_strain>  (1) 
0.53390757814294432

>  <r_i_glide_energy>  (1) 
-43.823126625336826

>  <r_i_glide_erotb>  (1) 
0.75687532201182384

>  <r_i_glide_esite>  (1) 
-0.17958068050992854

>  <r_i_glide_evdw>  (1) 
-36.217312695344226

>  <r_i_glide_gscore>  (1) 
-7.0361631749443765

>  <r_i_glide_gscore_strain>  (1) 
0

>  <r_i_glide_hbond>  (1) 
-0.33985259733726592

>  <r_i_glide_ligand_efficiency>  (1) 
-0.20925852516970142

>  <r_i_glide_ligand_efficiency_ln>  (1) 
-1.3524843277804257

>  <r_i_glide_ligand_efficiency_sa>  (1) 
-0.63543212980128116

>  <r_i_glide_lipo>  (1) 
-3.0612493389386701

>  <r_i_glide_metal>  (1) 
-0

>  <r_i_glide_rewards>  (1) 
-1.2606181559042349

>  <r_lp_Energy>  (1) 
23.737466999999999

>  <s_epik_cmdline>  (1) 
J2VwaWtfcHl0aG9uJywgJy1waHQnLCAnMS4wJywgJy1waCcsICc3LjQnLCAnLXRuJywgJzgnLCAnLW1hJywgJzUwMCcsICctaW1hZScsICc8aW5maWxlLm1hZT4nLCAnLW9tYWUnLCAnPG91dGZpbGUubWFlPic=

>  <s_epik_input>  (1) 
W0NIMl0xW0NIMl1PW0NIXT1DMUMoPU8pW0NIMl1bQ0BIXTJbQ0gyXVtDSDJdTihbQ0BAXTIzW09IXSlbQ0gyXVtDQEBIXShbTkhdW0NIMl0zKVxbQ0hdPUM0XFtDQEBIXShbTkhdW0NIMl1bQ0gyXTQpW0NASF0oW0NIM10pW0NIMl1bT0hd

>  <s_glide_docking_method>  (1) 
confgen

>  <s_i_glide_gridfile>  (1) 
gpcr_5ht2c_6bqh_protein_autoprepared_prepared

>  <s_lp_Force_Field>  (1) 
S-OPLS

>  <s_lp_Variant>  (1) 
DiffSBDD_1_num_sample_100-10

>  <s_m_source_file>  (1) 
generated__ligand_DiffSBDD_2026-05-06_prepared.sdf

>  <GenAI_Model>  (1) 
DiffSBDD

>  <Protein>  (1) 
GPCR_5HT2C

$$$$
DiffSBDD_46_num_sample_100
     RDKit          3D

  0  0  0  0  0  0  0  0  0  0999 V3000
M  V30 BEGIN CTAB
M  V30 COUNTS 67 70 0 0 1
M  V30 BEGIN ATOM
M  V30 1 N 38.875965 33.094167 61.136025 0 CHG=-1
M  V30 2 N 38.821727 29.889399 54.615353 0
M  V30 3 C 38.574218 32.904996 58.165942 0
M  V30 4 C 42.540668 25.713449 66.307879 0
M  V30 5 C 39.198400 30.543691 57.401624 0
M  V30 6 O 41.067323 31.235880 61.820742 0
M  V30 7 O 41.363009 34.545845 63.457657 0
M  V30 8 C 41.557562 27.903803 65.886125 0
M  V30 9 N 41.951123 26.749765 66.566067 0
M  V30 10 F 42.597671 27.130493 63.853519 0
M  V30 11 C 38.883525 31.510110 58.526652 0 CFG=2
M  V30 12 N 40.267501 31.433472 63.996908 0
M  V30 13 C 38.065397 29.590411 56.934244 0 CFG=2
M  V30 14 C 41.476647 29.240856 63.853680 0
M  V30 15 C 40.681258 34.295619 62.241271 0
M  V30 16 C 39.110560 26.798145 56.923454 0
M  V30 17 C 39.718110 28.709111 50.653381 0
M  V30 18 C 39.105715 29.475338 53.299128 0
M  V30 19 C 41.890147 28.075548 64.516908 0
M  V30 20 C 37.534324 32.500183 61.142308 0
M  V30 21 C 40.462706 29.949856 65.940432 0
M  V30 22 C 40.741974 30.205962 64.584359 0
M  V30 23 N 40.858482 28.829962 66.585649 0
M  V30 24 C 39.533777 27.812825 55.850312 0
M  V30 25 C 40.172353 29.941861 51.150039 0
M  V30 26 C 39.681351 33.122469 62.364120 0 CFG=2
M  V30 27 C 37.694267 28.581140 58.049648 0
M  V30 28 C 39.867442 30.325063 52.467589 0
M  V30 29 C 36.841556 32.164884 59.805793 0
M  V30 30 C 38.955164 27.854188 51.472084 0
M  V30 31 C 38.763707 27.492507 58.247646 0
M  V30 32 C 40.425049 31.805286 62.704339 0
M  V30 33 C 38.645531 28.232185 52.793401 0
M  V30 34 O 43.061576 24.728473 65.928565 0
M  V30 35 C 38.424722 28.870638 55.596295 0 CFG=2
M  V30 36 N 37.467390 32.017677 58.653482 0 CHG=1
M  V30 37 H 39.252573 30.733285 54.963483 0
M  V30 38 H 38.315090 33.153746 57.138835 0
M  V30 39 H 38.697903 33.749679 58.833567 0
M  V30 40 H 39.558828 31.164149 56.583681 0
M  V30 41 H 40.069160 29.966132 57.706488 0
M  V30 42 H 41.821657 35.369164 63.381760 0
M  V30 43 H 39.278620 31.229052 59.498151 0
M  V30 44 H 39.757631 32.059117 64.602423 0
M  V30 45 H 37.181850 30.197341 56.729718 0
M  V30 46 H 41.722100 29.375325 62.820094 0
M  V30 47 H 40.152806 35.208823 61.963293 0
M  V30 48 H 41.412313 34.102792 61.455110 0
M  V30 49 H 39.911359 26.075196 57.084647 0
M  V30 50 H 38.248536 26.231537 56.569092 0
M  V30 51 H 39.951932 28.421437 49.642033 0
M  V30 52 H 37.521275 31.580123 61.728438 0
M  V30 53 H 39.902450 30.664590 66.525974 0
M  V30 54 H 40.461071 28.299608 56.154235 0
M  V30 55 H 39.782726 27.262607 54.944832 0
M  V30 56 H 40.755992 30.596806 50.519391 0
M  V30 57 H 39.067400 33.373850 63.227017 0
M  V30 58 H 37.532863 29.103304 58.992793 0
M  V30 59 H 36.740902 28.104219 57.829349 0
M  V30 60 H 40.219907 31.273064 52.844529 0
M  V30 61 H 35.769197 32.022679 59.782397 0
M  V30 62 H 38.604767 26.907987 51.085581 0
M  V30 63 H 39.665178 27.927492 58.679722 0
M  V30 64 H 38.412857 26.755161 58.969825 0
M  V30 65 H 38.058029 27.571439 53.410201 0
M  V30 66 H 37.516754 28.375629 55.252211 0
M  V30 67 H 36.852166 33.158876 61.678717 0
M  V30 END ATOM
M  V30 BEGIN BOND
M  V30 1 2 9 4
M  V30 2 1 9 8
M  V30 3 1 11 3
M  V30 4 1 11 5
M  V30 5 1 13 5
M  V30 6 1 15 7
M  V30 7 1 18 2
M  V30 8 2 19 8
M  V30 9 1 19 10
M  V30 10 1 19 14
M  V30 11 1 20 1
M  V30 12 1 22 12
M  V30 13 2 22 14
M  V30 14 1 22 21
M  V30 15 1 23 8
M  V30 16 2 23 21
M  V30 17 1 24 16
M  V30 18 2 25 17
M  V30 19 1 26 1
M  V30 20 1 26 15
M  V30 21 1 27 13
M  V30 22 2 28 18
M  V30 23 1 28 25
M  V30 24 1 29 20
M  V30 25 1 30 17
M  V30 26 1 31 16
M  V30 27 1 31 27
M  V30 28 2 32 6
M  V30 29 1 32 12
M  V30 30 1 32 26
M  V30 31 1 33 18
M  V30 32 2 33 30
M  V30 33 2 34 4
M  V30 34 1 35 2
M  V30 35 1 35 13
M  V30 36 1 35 24
M  V30 37 1 36 3
M  V30 38 1 36 11
M  V30 39 2 36 29
M  V30 40 1 37 2
M  V30 41 1 38 3
M  V30 42 1 39 3
M  V30 43 1 40 5
M  V30 44 1 41 5
M  V30 45 1 42 7
M  V30 46 1 11 43 CFG=1
M  V30 47 1 44 12
M  V30 48 1 13 45 CFG=3
M  V30 49 1 46 14
M  V30 50 1 47 15
M  V30 51 1 48 15
M  V30 52 1 49 16
M  V30 53 1 50 16
M  V30 54 1 51 17
M  V30 55 1 52 20
M  V30 56 1 53 21
M  V30 57 1 54 24
M  V30 58 1 55 24
M  V30 59 1 56 25
M  V30 60 1 26 57 CFG=1
M  V30 61 1 58 27
M  V30 62 1 59 27
M  V30 63 1 60 28
M  V30 64 1 61 29
M  V30 65 1 62 30
M  V30 66 1 63 31
M  V30 67 1 64 31
M  V30 68 1 65 33
M  V30 69 1 35 66 CFG=3
M  V30 70 1 67 20
M  V30 END BOND
M  V30 END CTAB
M  END
>  <i_epik_Tot_Q>  (1) 
0

>  <i_epik_Tot_abs_Q>  (1) 
2

>  <i_i_glide_confnum>  (1) 
1188

>  <i_i_glide_lignum>  (1) 
128

>  <i_i_glide_posenum>  (1) 
355

>  <i_i_glide_rotatable_bonds>  (1) 
13

>  <i_lp_mmshare_version>  (1) 
72125

>  <i_m_source_file_index>  (1) 
47

>  <i_f3d_flags>  (1) 
0

>  <num_sample>  (1) 
100

>  <b_lp_Chiralities_Consistent>  (1) 
1

>  <r_epik_Charging_Adjusted_Penalty>  (1) 
1.3427112581869221

>  <r_epik_Ionization_Penalty>  (1) 
0.80930426782544973

>  <r_epik_Ionization_Penalty_Charging>  (1) 
0

>  <r_epik_Ionization_Penalty_Neutral>  (1) 
0.80930426782544973

>  <r_epik_State_Penalty>  (1) 
1.3427112581869221

>  <r_glide_ring_energy>  (1) 
0.05726729789671494

>  <r_i_docking_score>  (1) 
-5.8583194568494541

>  <r_i_glide_ecoul>  (1) 
-2.6466103045354092

>  <r_i_glide_eff_state_penalty>  (1) 
1.3427112581869221

>  <r_i_glide_einternal>  (1) 
9.1203767328668039

>  <r_i_glide_emodel>  (1) 
-78.90449353490736

>  <r_i_glide_emodel_strain>  (1) 
0.1751678908366614

>  <r_i_glide_energy>  (1) 
-56.8483883216552

>  <r_i_glide_erotb>  (1) 
0.99979395072351473

>  <r_i_glide_esite>  (1) 
-0.15997234808562666

>  <r_i_glide_evdw>  (1) 
-54.201778017119793

>  <r_i_glide_gscore>  (1) 
-7.2010307150363762

>  <r_i_glide_gscore_strain>  (1) 
0

>  <r_i_glide_hbond>  (1) 
-0.19845255872399198

>  <r_i_glide_ligand_efficiency>  (1) 
-0.16273109602359595

>  <r_i_glide_ligand_efficiency_ln>  (1) 
-1.2781270319835838

>  <r_i_glide_ligand_efficiency_sa>  (1) 
-0.53732624020279962

>  <r_i_glide_lipo>  (1) 
-3.4654023672054599

>  <r_i_glide_metal>  (1) 
-0

>  <r_i_glide_rewards>  (1) 
-1.2699169452085106

>  <r_lp_Energy>  (1) 
87.141047

>  <s_epik_Chemistry_Notes>  (1) 
This compound has an imine and may undergo hydrolysis.

>  <s_epik_cmdline>  (1) 
J2VwaWtfcHl0aG9uJywgJy1waHQnLCAnMS4wJywgJy1waCcsICc3LjQnLCAnLXRuJywgJzgnLCAnLW1hJywgJzUwMCcsICctaW1hZScsICc8aW5maWxlLm1hZT4nLCAnLW9tYWUnLCAnPG91dGZpbGUubWFlPic=

>  <s_epik_input>  (1) 
Tz1DPU5jMWMoRilbY0hdYyhbY0hdbjEpW05IXUMoPU8pW0NAQEhdKFtDSDJdW09IXSkvTj1bQ0hdL1tDSDJdTjJbQ0gyXVtDQEBIXTJbQ0gyXVtDQEBIXTNbQ0gyXVtDSDJdW0NIMl1bQ0gyXVtDQEBIXTNbTkhdYzRbY0hdW2NIXVtjSF1bY0hdW2NIXTQ=

>  <s_glide_docking_method>  (1) 
confgen

>  <s_i_glide_gridfile>  (1) 
gpcr_5ht2c_6bqh_protein_autoprepared_prepared

>  <s_lp_Force_Field>  (1) 
S-OPLS

>  <s_lp_Variant>  (1) 
DiffSBDD_46_num_sample_100-4

>  <s_m_source_file>  (1) 
generated__ligand_DiffSBDD_2026-05-06_prepared.sdf

>  <GenAI_Model>  (1) 
DiffSBDD

>  <Protein>  (1) 
GPCR_5HT2C

$$$$
DiffSBDD_90_num_sample_100
     RDKit          3D

  0  0  0  0  0  0  0  0  0  0999 V3000
M  V30 BEGIN CTAB
M  V30 COUNTS 85 88 0 0 1
M  V30 BEGIN ATOM
M  V30 1 C 35.594359 30.940056 59.750394 0
M  V30 2 O 40.538191 36.421419 63.505601 0
M  V30 3 F 39.640018 25.326682 54.777173 0
M  V30 4 C 40.010402 29.416536 60.532374 0 CFG=1
M  V30 5 C 37.005418 37.473461 62.583651 0 CFG=2
M  V30 6 C 38.043249 35.984758 60.885268 0 CFG=1
M  V30 7 C 42.175454 30.186125 63.463722 0
M  V30 8 C 38.087132 33.504548 60.713615 0
M  V30 9 C 40.227240 29.554979 62.087572 0
M  V30 10 N 39.105984 36.616655 63.712587 0
M  V30 11 C 37.946668 26.267139 56.109961 0
M  V30 12 C 39.209668 30.446942 62.819114 0
M  V30 13 C 36.734916 36.336205 61.581818 0
M  V30 14 C 38.977405 37.058345 61.267588 0
M  V30 15 O 36.990733 39.592348 61.453495 0
M  V30 16 N 36.910638 31.073654 59.109846 0 CFG=1 CHG=1
M  V30 17 C 38.571155 34.623686 61.236500 0
M  V30 18 F 39.543685 24.711707 56.841021 0
M  V30 19 C 40.076231 27.478578 57.736394 0 CFG=2
M  V30 20 N 37.153726 29.961332 58.202350 0
M  V30 21 C 37.678556 27.048000 57.418667 0
M  V30 22 C 37.240693 32.446558 58.646854 0
M  V30 23 O 41.467377 30.249116 62.226175 0
M  V30 24 C 40.269194 28.182409 62.767822 0
M  V30 25 C 35.540893 31.856017 60.958851 0
M  V30 26 C 40.452720 26.837896 56.391266 0
M  V30 27 C 36.954844 33.479520 59.720883 0 CFG=1
M  V30 28 C 38.585953 37.483511 62.645568 0 CFG=1
M  V30 29 C 40.969846 28.384071 59.923126 0
M  V30 30 O 35.054790 38.820716 62.230080 0 CHG=-1
M  V30 31 C 38.423731 29.340454 58.533856 0 CFG=1
M  V30 32 C 35.593736 33.266628 60.405326 0
M  V30 33 O 36.456436 37.167754 63.853343 0
M  V30 34 C 38.599421 29.030923 60.051149 0
M  V30 35 C 38.719762 28.176255 57.550903 0 CFG=1
M  V30 36 C 41.145431 28.363103 58.387886 0
M  V30 37 C 39.407688 25.754552 56.018074 0
M  V30 38 C 36.284308 38.742038 62.039338 0
M  V30 39 H 35.468054 29.910581 60.063914 0
M  V30 40 H 34.792440 31.182029 59.053890 0
M  V30 41 H 40.927958 37.218685 63.854403 0
M  V30 42 H 40.238716 30.401814 60.128740 0
M  V30 43 H 37.934441 36.068254 59.806455 0
M  V30 44 H 43.007742 30.893208 63.432048 0
M  V30 45 H 41.553462 30.448115 64.320873 0
M  V30 46 H 42.601993 29.193707 63.622902 0
M  V30 47 H 38.508396 32.559475 60.996637 0
M  V30 48 H 39.072700 37.095918 64.603766 0
M  V30 49 H 37.740614 26.919593 55.260480 0
M  V30 50 H 37.247422 25.434608 56.017938 0
M  V30 51 H 38.187742 30.117567 62.664670 0
M  V30 52 H 39.367218 30.428150 63.898527 0
M  V30 53 H 39.310087 31.484808 62.525936 0
M  V30 54 H 36.099552 36.641341 60.746025 0
M  V30 55 H 36.295884 35.502389 62.117987 0
M  V30 56 H 38.667338 37.905634 60.653269 0
M  V30 57 H 40.030801 36.821388 61.104990 0
M  V30 58 H 39.384164 34.578806 61.949458 0
M  V30 59 H 39.953228 26.633381 58.411652 0
M  V30 60 H 37.173686 30.452951 57.316802 0
M  V30 61 H 36.667536 27.436396 57.453850 0
M  V30 62 H 37.741579 26.360705 58.258948 0
M  V30 63 H 36.667700 32.821063 57.826427 0
M  V30 64 H 38.284969 32.494170 58.334522 0
M  V30 65 H 39.385264 27.621598 62.484473 0
M  V30 66 H 41.157680 27.622685 62.488526 0
M  V30 67 H 40.268352 28.261592 63.852418 0
M  V30 68 H 36.378315 31.663844 61.627116 0
M  V30 69 H 34.667456 31.693287 61.568913 0
M  V30 70 H 40.497746 27.598061 55.611601 0
M  V30 71 H 41.454086 26.421993 56.452682 0
M  V30 72 H 36.886149 34.429711 59.198491 0
M  V30 73 H 39.112737 38.421422 62.654622 0
M  V30 74 H 41.915382 28.525130 60.383964 0
M  V30 75 H 40.667610 27.398261 60.265505 0
M  V30 76 H 39.128190 30.132985 58.280915 0
M  V30 77 H 35.402516 33.960952 61.209340 0
M  V30 78 H 34.789318 33.431666 59.685682 0
M  V30 79 H 36.876832 36.380193 64.160332 0
M  V30 80 H 37.896376 29.589641 60.652779 0
M  V30 81 H 38.368484 27.985349 60.253248 0
M  V30 82 H 38.750700 28.680339 56.584556 0
M  V30 83 H 41.111580 29.362734 57.973138 0
M  V30 84 H 42.133220 27.964681 58.147115 0
M  V30 85 H 37.576795 30.909561 59.847214 0
M  V30 END ATOM
M  V30 BEGIN BOND
M  V30 1 1 9 4
M  V30 2 1 10 2
M  V30 3 1 12 9
M  V30 4 1 13 5
M  V30 5 1 13 6
M  V30 6 1 14 6
M  V30 7 1 16 1
M  V30 8 1 17 6
M  V30 9 2 17 8
M  V30 10 1 20 16
M  V30 11 1 21 11
M  V30 12 1 22 16
M  V30 13 1 23 7
M  V30 14 1 23 9
M  V30 15 1 24 9
M  V30 16 1 25 1
M  V30 17 1 26 19
M  V30 18 1 27 8
M  V30 19 1 27 22
M  V30 20 1 28 5
M  V30 21 1 28 10
M  V30 22 1 28 14
M  V30 23 1 29 4
M  V30 24 1 31 20
M  V30 25 1 32 25
M  V30 26 1 32 27
M  V30 27 1 5 33 CFG=1
M  V30 28 1 34 4
M  V30 29 1 34 31
M  V30 30 1 35 19
M  V30 31 1 35 21
M  V30 32 1 35 31
M  V30 33 1 36 19
M  V30 34 1 36 29
M  V30 35 1 37 3
M  V30 36 1 37 11
M  V30 37 1 37 18
M  V30 38 1 37 26
M  V30 39 1 38 5
M  V30 40 2 38 15
M  V30 41 1 38 30
M  V30 42 1 39 1
M  V30 43 1 40 1
M  V30 44 1 41 2
M  V30 45 1 4 42 CFG=3
M  V30 46 1 6 43 CFG=3
M  V30 47 1 44 7
M  V30 48 1 45 7
M  V30 49 1 46 7
M  V30 50 1 47 8
M  V30 51 1 48 10
M  V30 52 1 49 11
M  V30 53 1 50 11
M  V30 54 1 51 12
M  V30 55 1 52 12
M  V30 56 1 53 12
M  V30 57 1 54 13
M  V30 58 1 55 13
M  V30 59 1 56 14
M  V30 60 1 57 14
M  V30 61 1 58 17
M  V30 62 1 19 59 CFG=1
M  V30 63 1 60 20
M  V30 64 1 61 21
M  V30 65 1 62 21
M  V30 66 1 63 22
M  V30 67 1 64 22
M  V30 68 1 65 24
M  V30 69 1 66 24
M  V30 70 1 67 24
M  V30 71 1 68 25
M  V30 72 1 69 25
M  V30 73 1 70 26
M  V30 74 1 71 26
M  V30 75 1 27 72 CFG=3
M  V30 76 1 28 73 CFG=1
M  V30 77 1 74 29
M  V30 78 1 75 29
M  V30 79 1 31 76 CFG=3
M  V30 80 1 77 32
M  V30 81 1 78 32
M  V30 82 1 79 33
M  V30 83 1 80 34
M  V30 84 1 81 34
M  V30 85 1 35 82 CFG=3
M  V30 86 1 83 36
M  V30 87 1 84 36
M  V30 88 1 16 85 CFG=1
M  V30 END BOND
M  V30 END CTAB
M  END
>  <i_epik_Tot_Q>  (1) 
0

>  <i_epik_Tot_abs_Q>  (1) 
2

>  <i_i_glide_confnum>  (1) 
316

>  <i_i_glide_lignum>  (1) 
237

>  <i_i_glide_posenum>  (1) 
120

>  <i_i_glide_rotatable_bonds>  (1) 
10

>  <i_lp_mmshare_version>  (1) 
72125

>  <i_m_source_file_index>  (1) 
91

>  <i_f3d_flags>  (1) 
0

>  <num_sample>  (1) 
100

>  <b_lp_Chiralities_Consistent>  (1) 
1

>  <r_epik_Charging_Adjusted_Penalty>  (1) 
1.5083745474312953

>  <r_epik_Ionization_Penalty>  (1) 
0.65750586125956467

>  <r_epik_Ionization_Penalty_Charging>  (1) 
0.6544614066189578

>  <r_epik_Ionization_Penalty_Neutral>  (1) 
0.0030444546406068235

>  <r_epik_State_Penalty>  (1) 
0.8539131408123376

>  <r_glide_ring_energy>  (1) 
2.1449054143447501

>  <r_i_docking_score>  (1) 
-5.8524686628826723

>  <r_i_glide_ecoul>  (1) 
-8.1639535840996622

>  <r_i_glide_eff_state_penalty>  (1) 
0.8539131408123376

>  <r_i_glide_einternal>  (1) 
26.148449442586561

>  <r_i_glide_emodel>  (1) 
-10.443380354987259

>  <r_i_glide_emodel_strain>  (1) 
6.1439407566459323

>  <r_i_glide_energy>  (1) 
-26.341166740296742

>  <r_i_glide_erotb>  (1) 
0.42002339013477186

>  <r_i_glide_esite>  (1) 
-0.10000000000000001

>  <r_i_glide_evdw>  (1) 
-18.17721315619708

>  <r_i_glide_gscore>  (1) 
-6.7063818036950096

>  <r_i_glide_gscore_strain>  (1) 
0.53598518916148308

>  <r_i_glide_hbond>  (1) 
-0.61748353000010847

>  <r_i_glide_ligand_efficiency>  (1) 
-0.15401233323375454

>  <r_i_glide_ligand_efficiency_ln>  (1) 
-1.2619644059029114

>  <r_i_glide_ligand_efficiency_sa>  (1) 
-0.51778567667560949

>  <r_i_glide_lipo>  (1) 
-3.2473392716630483

>  <r_i_glide_metal>  (1) 
-0

>  <r_i_glide_rewards>  (1) 
-1.5641138859033046

>  <r_lp_Energy>  (1) 
46.065079999999995

>  <s_epik_Chemistry_Notes>  (1) 
This compound has a N-S or N-O group and may undergo hydrolysis at high or low pH.

>  <s_epik_cmdline>  (1) 
J2VwaWtfcHl0aG9uJywgJy1waHQnLCAnMS4wJywgJy1waCcsICc3LjQnLCAnLXRuJywgJzgnLCAnLW1hJywgJzUwMCcsICctaW1hZScsICc8aW5maWxlLm1hZT4nLCAnLW9tYWUnLCAnPG91dGZpbGUubWFlPic=

>  <s_epik_input>  (1) 
RkMoRikoW0NIMl0xKVtDSDJdW0NIMl1bQ0BIXShbQ0BASF0xMilbQ0BIXShbQ0gyXVtDQEhdKFtDSDJdW0NIMl0yKUMoW0NIM10pKFtDSDNdKU9bQ0gzXSlbTkhdTjNbQ0gyXVtDSDJdW0NIMl1bQ0BIXShbQ0gyXTMpL1tDSF09W0NIXVxbQ0BASF0oW0NIMl1bQ0BdNChbT0hdKUMoPU8pW09IXSlbQ0gyXVtDQEBIXTRbTkhdW09IXQ==

>  <s_glide_docking_method>  (1) 
confgen

>  <s_i_glide_gridfile>  (1) 
gpcr_5ht2c_6bqh_protein_autoprepared_prepared

>  <s_lp_Force_Field>  (1) 
S-OPLS

>  <s_lp_Variant>  (1) 
DiffSBDD_90_num_sample_100-9

>  <s_m_source_file>  (1) 
generated__ligand_DiffSBDD_2026-05-06_prepared.sdf

>  <GenAI_Model>  (1) 
DiffSBDD

>  <Protein>  (1) 
GPCR_5HT2C

$$$$
DiffSBDD_90_num_sample_100
     RDKit          3D

  0  0  0  0  0  0  0  0  0  0999 V3000
M  V30 BEGIN CTAB
M  V30 COUNTS 85 88 0 0 1
M  V30 BEGIN ATOM
M  V30 1 C 39.752009 29.105732 57.940623 0
M  V30 2 O 41.467325 35.609839 63.077400 0
M  V30 3 F 40.139719 29.034606 49.492782 0
M  V30 4 C 38.618176 26.523020 55.734086 0 CFG=1
M  V30 5 C 37.979268 36.456648 61.966317 0 CFG=2
M  V30 6 C 38.104926 34.490726 60.546867 0 CFG=1
M  V30 7 C 38.110910 23.615948 57.853454 0
M  V30 8 C 38.352784 32.077865 59.842829 0
M  V30 9 C 37.727762 25.610515 56.600622 0
M  V30 10 N 40.087112 35.976145 63.293487 0
M  V30 11 C 39.467399 30.204479 51.400731 0
M  V30 12 C 37.167060 26.282151 57.853547 0
M  V30 13 C 37.125575 35.294261 61.398638 0
M  V30 14 C 39.380353 34.485155 61.392876 0
M  V30 15 O 37.283261 37.621390 59.997338 0
M  V30 16 N 39.068940 30.255621 57.275057 0 CFG=1 CHG=1
M  V30 17 C 37.578149 33.138112 60.125879 0
M  V30 18 F 38.267985 28.421549 50.403972 0
M  V30 19 C 39.479092 27.685401 52.863895 0 CFG=2
M  V30 20 N 38.969450 30.235403 55.761447 0
M  V30 21 C 38.711967 30.021420 52.764182 0
M  V30 22 C 37.761117 30.592085 57.886068 0
M  V30 23 O 38.628685 24.603548 57.007478 0
M  V30 24 C 36.573421 25.011764 55.803592 0
M  V30 25 C 39.878852 29.262849 59.459829 0
M  V30 26 C 40.132430 27.819347 51.483617 0
M  V30 27 C 37.801855 30.734548 59.419791 0 CFG=1
M  V30 28 C 39.441578 35.902955 61.986229 0 CFG=1
M  V30 29 C 39.034627 25.777183 54.460885 0
M  V30 30 O 38.641608 38.678138 61.412163 0 CHG=-1
M  V30 31 C 39.150578 28.929076 55.118510 0 CFG=1
M  V30 32 C 38.515077 29.551444 60.093933 0
M  V30 33 O 37.494234 36.821377 63.252463 0
M  V30 34 C 38.028606 27.921288 55.404996 0
M  V30 35 C 39.467407 29.055407 53.619865 0 CFG=1
M  V30 36 C 40.083125 26.486550 53.633674 0
M  V30 37 C 39.487892 28.884054 50.645758 0
M  V30 38 C 37.955374 37.696285 61.051700 0
M  V30 39 H 40.744457 28.953081 57.520213 0
M  V30 40 H 39.180664 28.200687 57.781509 0
M  V30 41 H 41.590921 34.933644 63.726366 0
M  V30 42 H 39.529306 26.666516 56.312333 0
M  V30 43 H 38.268675 35.048881 59.627697 0
M  V30 44 H 38.909771 22.876289 57.861996 0
M  V30 45 H 37.867374 23.970111 58.853085 0
M  V30 46 H 37.220899 23.137655 57.453367 0
M  V30 47 H 39.427535 32.163532 59.910562 0
M  V30 48 H 40.162176 36.932791 63.621598 0
M  V30 49 H 40.489363 30.539732 51.580549 0
M  V30 50 H 39.067415 30.958993 50.722056 0
M  V30 51 H 36.667666 27.232591 57.715611 0
M  V30 52 H 36.390144 25.632884 58.252949 0
M  V30 53 H 37.937623 26.415702 58.611726 0
M  V30 54 H 36.267481 35.617433 60.811497 0
M  V30 55 H 36.715623 34.680094 62.196206 0
M  V30 56 H 40.268640 34.251536 60.806811 0
M  V30 57 H 39.300471 33.740772 62.185279 0
M  V30 58 H 36.504466 33.045345 60.050517 0
M  V30 59 H 38.440856 27.430153 52.649070 0
M  V30 60 H 39.740848 30.844187 55.524843 0
M  V30 61 H 38.648902 30.989063 53.266822 0
M  V30 62 H 37.708423 29.621200 52.649198 0
M  V30 63 H 36.999307 29.865313 57.609017 0
M  V30 64 H 37.467444 31.544939 57.447842 0
M  V30 65 H 36.056096 25.879747 55.453541 0
M  V30 66 H 36.872608 24.380057 54.968613 0
M  V30 67 H 35.867486 24.437205 56.386992 0
M  V30 68 H 40.609071 30.021372 59.721079 0
M  V30 69 H 40.275832 28.338818 59.882634 0
M  V30 70 H 41.187375 28.047198 51.594903 0
M  V30 71 H 39.998179 26.894693 50.916709 0
M  V30 72 H 36.764670 30.723927 59.760660 0
M  V30 73 H 40.064637 36.497167 61.313848 0
M  V30 74 H 39.420812 24.791352 54.715480 0
M  V30 75 H 38.164681 25.621298 53.828922 0
M  V30 76 H 40.081570 28.538684 55.521866 0
M  V30 77 H 38.627119 29.722142 61.166276 0
M  V30 78 H 37.889321 28.666783 59.978701 0
M  V30 79 H 37.665403 36.100881 63.838783 0
M  V30 80 H 37.467726 28.318213 56.229737 0
M  V30 81 H 37.303680 27.869878 54.590880 0
M  V30 82 H 40.402220 29.621447 53.628307 0
M  V30 83 H 40.902245 26.748516 54.291470 0
M  V30 84 H 40.497039 25.763884 52.933918 0
M  V30 85 H 39.653460 31.058189 57.457666 0
M  V30 END ATOM
M  V30 BEGIN BOND
M  V30 1 1 9 4
M  V30 2 1 10 2
M  V30 3 1 12 9
M  V30 4 1 13 5
M  V30 5 1 13 6
M  V30 6 1 14 6
M  V30 7 1 16 1
M  V30 8 1 17 6
M  V30 9 2 17 8
M  V30 10 1 20 16
M  V30 11 1 21 11
M  V30 12 1 22 16
M  V30 13 1 23 7
M  V30 14 1 23 9
M  V30 15 1 24 9
M  V30 16 1 25 1
M  V30 17 1 26 19
M  V30 18 1 27 8
M  V30 19 1 27 22
M  V30 20 1 28 5
M  V30 21 1 28 10
M  V30 22 1 28 14
M  V30 23 1 29 4
M  V30 24 1 31 20
M  V30 25 1 32 25
M  V30 26 1 32 27
M  V30 27 1 5 33 CFG=1
M  V30 28 1 34 4
M  V30 29 1 34 31
M  V30 30 1 35 19
M  V30 31 1 35 21
M  V30 32 1 35 31
M  V30 33 1 36 19
M  V30 34 1 36 29
M  V30 35 1 37 3
M  V30 36 1 37 11
M  V30 37 1 37 18
M  V30 38 1 37 26
M  V30 39 1 38 5
M  V30 40 2 38 15
M  V30 41 1 38 30
M  V30 42 1 39 1
M  V30 43 1 40 1
M  V30 44 1 41 2
M  V30 45 1 4 42 CFG=1
M  V30 46 1 6 43 CFG=3
M  V30 47 1 44 7
M  V30 48 1 45 7
M  V30 49 1 46 7
M  V30 50 1 47 8
M  V30 51 1 48 10
M  V30 52 1 49 11
M  V30 53 1 50 11
M  V30 54 1 51 12
M  V30 55 1 52 12
M  V30 56 1 53 12
M  V30 57 1 54 13
M  V30 58 1 55 13
M  V30 59 1 56 14
M  V30 60 1 57 14
M  V30 61 1 58 17
M  V30 62 1 19 59 CFG=3
M  V30 63 1 60 20
M  V30 64 1 61 21
M  V30 65 1 62 21
M  V30 66 1 63 22
M  V30 67 1 64 22
M  V30 68 1 65 24
M  V30 69 1 66 24
M  V30 70 1 67 24
M  V30 71 1 68 25
M  V30 72 1 69 25
M  V30 73 1 70 26
M  V30 74 1 71 26
M  V30 75 1 27 72 CFG=1
M  V30 76 1 28 73 CFG=3
M  V30 77 1 74 29
M  V30 78 1 75 29
M  V30 79 1 31 76 CFG=1
M  V30 80 1 77 32
M  V30 81 1 78 32
M  V30 82 1 79 33
M  V30 83 1 80 34
M  V30 84 1 81 34
M  V30 85 1 35 82 CFG=1
M  V30 86 1 83 36
M  V30 87 1 84 36
M  V30 88 1 16 85 CFG=3
M  V30 END BOND
M  V30 END CTAB
M  END
>  <i_epik_Tot_Q>  (1) 
0

>  <i_epik_Tot_abs_Q>  (1) 
2

>  <i_i_glide_confnum>  (1) 
272

>  <i_i_glide_lignum>  (1) 
239

>  <i_i_glide_posenum>  (1) 
215

>  <i_i_glide_rotatable_bonds>  (1) 
10

>  <i_lp_mmshare_version>  (1) 
72125

>  <i_m_source_file_index>  (1) 
91

>  <i_f3d_flags>  (1) 
0

>  <num_sample>  (1) 
100

>  <b_lp_Chiralities_Consistent>  (1) 
1

>  <r_epik_Charging_Adjusted_Penalty>  (1) 
1.5083745474312953

>  <r_epik_Ionization_Penalty>  (1) 
0.65750586125956467

>  <r_epik_Ionization_Penalty_Charging>  (1) 
0.6544614066189578

>  <r_epik_Ionization_Penalty_Neutral>  (1) 
0.0030444546406068235

>  <r_epik_State_Penalty>  (1) 
0.8539131408123376

>  <r_glide_ring_energy>  (1) 
0.52270073413302542

>  <r_i_docking_score>  (1) 
-5.8487539405329665

>  <r_i_glide_ecoul>  (1) 
-2.0587355287791023

>  <r_i_glide_eff_state_penalty>  (1) 
0.8539131408123376

>  <r_i_glide_einternal>  (1) 
22.633504112354526

>  <r_i_glide_emodel>  (1) 
-7.6830433962828426

>  <r_i_glide_emodel_strain>  (1) 
2.1503384215133963

>  <r_i_glide_energy>  (1) 
-16.231290370729308

>  <r_i_glide_erotb>  (1) 
0.42002339013477186

>  <r_i_glide_esite>  (1) 
-0.021424632364907908

>  <r_i_glide_evdw>  (1) 
-14.172554841950207

>  <r_i_glide_gscore>  (1) 
-6.7026670813453038

>  <r_i_glide_gscore_strain>  (1) 
0

>  <r_i_glide_hbond>  (1) 
0

>  <r_i_glide_ligand_efficiency>  (1) 
-0.15391457738244649

>  <r_i_glide_ligand_efficiency_ln>  (1) 
-1.2611634024882545

>  <r_i_glide_ligand_efficiency_sa>  (1) 
-0.51745702390764114

>  <r_i_glide_lipo>  (1) 
-4.4477674863968719

>  <r_i_glide_metal>  (1) 
-0

>  <r_i_glide_rewards>  (1) 
-1.6360602813039198

>  <r_lp_Energy>  (1) 
48.876987999999997

>  <s_epik_Chemistry_Notes>  (1) 
This compound has a N-S or N-O group and may undergo hydrolysis at high or low pH.

>  <s_epik_cmdline>  (1) 
J2VwaWtfcHl0aG9uJywgJy1waHQnLCAnMS4wJywgJy1waCcsICc3LjQnLCAnLXRuJywgJzgnLCAnLW1hJywgJzUwMCcsICctaW1hZScsICc8aW5maWxlLm1hZT4nLCAnLW9tYWUnLCAnPG91dGZpbGUubWFlPic=

>  <s_epik_input>  (1) 
RkMoRikoW0NIMl0xKVtDSDJdW0NIMl1bQ0BIXShbQ0BASF0xMilbQ0BIXShbQ0gyXVtDQEhdKFtDSDJdW0NIMl0yKUMoW0NIM10pKFtDSDNdKU9bQ0gzXSlbTkhdTjNbQ0gyXVtDSDJdW0NIMl1bQ0BIXShbQ0gyXTMpL1tDSF09W0NIXS9bQ0BASF0oW0NIMl1bQ0BdNChbT0hdKUMoPU8pW09IXSlbQ0gyXVtDQEBIXTRbTkhdW09IXQ==

>  <s_glide_docking_method>  (1) 
confgen

>  <s_i_glide_gridfile>  (1) 
gpcr_5ht2c_6bqh_protein_autoprepared_prepared

>  <s_lp_Force_Field>  (1) 
S-OPLS

>  <s_lp_Variant>  (1) 
DiffSBDD_90_num_sample_100-11

>  <s_m_source_file>  (1) 
generated__ligand_DiffSBDD_2026-05-06_prepared.sdf

>  <GenAI_Model>  (1) 
DiffSBDD

>  <Protein>  (1) 
GPCR_5HT2C

$$$$
DiffSBDD_18_num_sample_100
     RDKit          3D

  0  0  0  0  0  0  0  0  0  0999 V3000
M  V30 BEGIN CTAB
M  V30 COUNTS 70 72 0 0 1
M  V30 BEGIN ATOM
M  V30 1 O 41.383114 30.514236 62.253951 0
M  V30 2 C 39.223946 26.895463 54.818631 0
M  V30 3 C 37.947812 31.024673 57.929060 0
M  V30 4 C 39.358490 25.731186 55.360260 0
M  V30 5 O 37.575946 30.821581 60.712971 0
M  V30 6 C 38.269714 29.197252 55.286704 0 CFG=2
M  V30 7 C 44.112396 27.889518 66.460296 0
M  V30 8 N 38.559514 27.794409 55.605566 0
M  V30 9 N 38.256934 29.419635 53.840260 0
M  V30 10 C 41.569706 30.897086 64.681724 0
M  V30 11 C 41.938885 28.487862 67.493426 0
M  V30 12 O 45.146266 28.025341 67.112581 0
M  V30 13 O 38.668329 24.865442 57.453579 0
M  V30 14 C 40.959910 25.628887 67.234974 0
M  V30 15 C 37.888158 32.313711 55.724437 0
M  V30 16 C 38.744496 25.790567 56.647866 0
M  V30 17 C 43.067297 24.998331 66.135522 0
M  V30 18 C 41.615241 29.546954 66.721364 0
M  V30 19 C 38.546967 30.266354 60.198080 0
M  V30 20 N 43.965913 28.148445 65.131621 0
M  V30 21 C 38.720415 31.394258 56.639689 0 CFG=2
M  V30 22 C 41.950380 31.342161 63.269077 0 CFG=2
M  V30 23 C 39.304839 30.165571 55.889023 0 CFG=2
M  V30 24 C 40.133290 30.568205 54.667511 0
M  V30 25 O 43.067382 24.531536 64.977236 0 CHG=-1
M  V30 26 C 38.148136 27.228454 56.939105 0
M  V30 27 C 43.162712 29.000123 64.616605 0
M  V30 28 C 39.539162 29.480499 61.065603 0
M  V30 29 C 39.986653 30.238455 62.335041 0
M  V30 30 C 41.597232 32.816871 63.022395 0
M  V30 31 C 42.102060 29.838651 65.345665 0
M  V30 32 C 42.857693 27.370246 67.117458 0 CFG=1
M  V30 33 C 42.130900 26.180684 66.408815 0 CFG=2
M  V30 34 N 38.798149 30.303426 58.878591 0
M  V30 35 N 39.374337 30.218365 53.469519 0
M  V30 36 O 43.751499 24.579093 67.096104 0
M  V30 37 H 39.567838 27.220290 53.848188 0
M  V30 38 H 37.068565 30.420137 57.705008 0
M  V30 39 H 37.573775 31.941758 58.387348 0
M  V30 40 H 39.839458 24.856840 54.947509 0
M  V30 41 H 37.267534 29.410301 55.657185 0
M  V30 42 H 38.282782 28.531679 53.343495 0
M  V30 43 H 40.813874 31.494209 65.172324 0
M  V30 44 H 41.492642 28.412756 68.474420 0
M  V30 45 H 38.651464 27.714688 57.773920 0
M  V30 46 H 40.417371 24.850949 66.694904 0
M  V30 47 H 41.294989 25.222049 68.190135 0
M  V30 48 H 40.258963 26.421886 67.453414 0
M  V30 49 H 37.067577 31.773274 55.259392 0
M  V30 50 H 37.467393 33.151986 56.279010 0
M  V30 51 H 38.483081 32.742980 54.919919 0
M  V30 52 H 40.918278 30.253811 67.147876 0
M  V30 53 H 39.567195 31.998719 56.959832 0
M  V30 54 H 43.033028 31.289472 63.153816 0
M  V30 55 H 39.957693 29.629346 56.577858 0
M  V30 56 H 40.402896 31.621477 54.654344 0
M  V30 57 H 41.068059 30.021542 54.658589 0
M  V30 58 H 37.068159 27.205686 57.081729 0
M  V30 59 H 43.220296 29.205781 63.547276 0
M  V30 60 H 40.409296 29.197075 60.471552 0
M  V30 61 H 39.067461 28.541565 61.355092 0
M  V30 62 H 39.788681 29.620675 63.209306 0
M  V30 63 H 39.423493 31.161512 62.474030 0
M  V30 64 H 42.142520 33.464815 63.709749 0
M  V30 65 H 41.870028 33.116292 62.010704 0
M  V30 66 H 40.533662 33.017688 63.154000 0
M  V30 67 H 43.197420 26.983740 68.080184 0
M  V30 68 H 41.729568 26.523300 65.453688 0
M  V30 69 H 39.608081 29.822261 58.517267 0
M  V30 70 H 39.956454 29.719011 52.799541 0
M  V30 END ATOM
M  V30 BEGIN BOND
M  V30 1 2 4 2
M  V30 2 1 8 2
M  V30 3 1 8 6
M  V30 4 1 9 6
M  V30 5 2 12 7
M  V30 6 1 16 4
M  V30 7 2 16 13
M  V30 8 2 18 11
M  V30 9 2 19 5
M  V30 10 1 20 7
M  V30 11 1 21 3
M  V30 12 1 21 15
M  V30 13 1 22 1
M  V30 14 1 22 10
M  V30 15 1 23 6
M  V30 16 1 23 21
M  V30 17 1 24 23
M  V30 18 1 25 17
M  V30 19 1 26 8
M  V30 20 1 26 16
M  V30 21 2 27 20
M  V30 22 1 28 19
M  V30 23 1 29 1
M  V30 24 1 29 28
M  V30 25 1 30 22
M  V30 26 2 31 10
M  V30 27 1 31 18
M  V30 28 1 31 27
M  V30 29 1 32 7
M  V30 30 1 32 11
M  V30 31 1 33 14
M  V30 32 1 33 17
M  V30 33 1 33 32
M  V30 34 1 34 3
M  V30 35 1 34 19
M  V30 36 1 35 9
M  V30 37 1 35 24
M  V30 38 2 36 17
M  V30 39 1 37 2
M  V30 40 1 38 3
M  V30 41 1 39 3
M  V30 42 1 40 4
M  V30 43 1 6 41 CFG=1
M  V30 44 1 42 9
M  V30 45 1 43 10
M  V30 46 1 44 11
M  V30 47 1 45 26
M  V30 48 1 46 14
M  V30 49 1 47 14
M  V30 50 1 48 14
M  V30 51 1 49 15
M  V30 52 1 50 15
M  V30 53 1 51 15
M  V30 54 1 52 18
M  V30 55 1 21 53 CFG=1
M  V30 56 1 22 54 CFG=1
M  V30 57 1 23 55 CFG=1
M  V30 58 1 56 24
M  V30 59 1 57 24
M  V30 60 1 58 26
M  V30 61 1 59 27
M  V30 62 1 60 28
M  V30 63 1 61 28
M  V30 64 1 62 29
M  V30 65 1 63 29
M  V30 66 1 64 30
M  V30 67 1 65 30
M  V30 68 1 66 30
M  V30 69 1 32 67 CFG=1
M  V30 70 1 33 68 CFG=3
M  V30 71 1 69 34
M  V30 72 1 70 35
M  V30 END BOND
M  V30 END CTAB
M  END
>  <i_epik_Tot_Q>  (1) 
-1

>  <i_epik_Tot_abs_Q>  (1) 
1

>  <i_i_glide_confnum>  (1) 
1219

>  <i_i_glide_lignum>  (1) 
44

>  <i_i_glide_posenum>  (1) 
214

>  <i_i_glide_rotatable_bonds>  (1) 
12

>  <i_lp_mmshare_version>  (1) 
72125

>  <i_m_source_file_index>  (1) 
19

>  <i_f3d_flags>  (1) 
0

>  <num_sample>  (1) 
100

>  <b_lp_Chiralities_Consistent>  (1) 
1

>  <r_epik_Charging_Adjusted_Penalty>  (1) 
0.37971815023500188

>  <r_epik_Ionization_Penalty>  (1) 
0.19445293645399606

>  <r_epik_Ionization_Penalty_Charging>  (1) 
0.18991606969001057

>  <r_epik_Ionization_Penalty_Neutral>  (1) 
0.004536866763985496

>  <r_epik_State_Penalty>  (1) 
0.18980208054499129

>  <r_glide_ring_energy>  (1) 
1.7561163794185886

>  <r_i_docking_score>  (1) 
-5.8484878281793655

>  <r_i_glide_ecoul>  (1) 
-4.1966462474165871

>  <r_i_glide_eff_state_penalty>  (1) 
0.18980208054499129

>  <r_i_glide_einternal>  (1) 
15.502756612039224

>  <r_i_glide_emodel>  (1) 
-63.203630024910851

>  <r_i_glide_emodel_strain>  (1) 
1.1181106135794323

>  <r_i_glide_energy>  (1) 
-53.028089300449352

>  <r_i_glide_erotb>  (1) 
0.89642714384868305

>  <r_i_glide_esite>  (1) 
0

>  <r_i_glide_evdw>  (1) 
-48.831443053032764

>  <r_i_glide_gscore>  (1) 
-6.0382899087243569

>  <r_i_glide_gscore_strain>  (1) 
0

>  <r_i_glide_hbond>  (1) 
-0.32000000000000001

>  <r_i_glide_ligand_efficiency>  (1) 
-0.16245799522720461

>  <r_i_glide_ligand_efficiency_ln>  (1) 
-1.2759820362276808

>  <r_i_glide_ligand_efficiency_sa>  (1) 
-0.53642448124150022

>  <r_i_glide_lipo>  (1) 
-1.9240728799295976

>  <r_i_glide_metal>  (1) 
-0

>  <r_i_glide_rewards>  (1) 
-1.6195750828793161

>  <r_lp_Energy>  (1) 
18.74419

>  <r_lp_tautomer_probability>  (1) 
0.98846045845713826

>  <s_epik_Chemistry_Notes>  (1) 
This compound has an imine and may undergo hydrolysis. This compound contains an acetal/aminal-like group ( X-CH(R)-Y where X, Y are N, S, or O) that may be acid/base labile, releasing an aldehyde.

>  <s_epik_cmdline>  (1) 
J2VwaWtfcHl0aG9uJywgJy1waHQnLCAnMS4wJywgJy1waCcsICc3LjQnLCAnLXRuJywgJzgnLCAnLW1hJywgJzUwMCcsICctaW1hZScsICc8aW5maWxlLm1hZT4nLCAnLW9tYWUnLCAnPG91dGZpbGUubWFlPic=

>  <s_epik_input>  (1) 
W09IXUMoPU8pW0NASF0oW0NIM10pW0NAQEhdMVtDSF09W0NIXVxDKFtDSF09TkMxPU8pPVtDSF1cW0NASF0oW0NIM10pT1tDSDJdW0NIMl1DKD1PKVtOSF1bQ0gyXVtDQEhdKFtDSDNdKVtDQEBIXTJbQ0gyXVtOSF1bTkhdW0NASF0ybjNbY0hdW2NIXWMoW09IXSlbY0hdMw==

>  <s_glide_docking_method>  (1) 
confgen

>  <s_i_glide_gridfile>  (1) 
gpcr_5ht2c_6bqh_protein_autoprepared_prepared

>  <s_lp_Force_Field>  (1) 
S-OPLS

>  <s_lp_Variant>  (1) 
DiffSBDD_18_num_sample_100-4

>  <s_m_source_file>  (1) 
generated__ligand_DiffSBDD_2026-05-06_prepared.sdf

>  <GenAI_Model>  (1) 
DiffSBDD

>  <Protein>  (1) 
GPCR_5HT2C

$$$$
DiffSBDD_32_num_sample_100
     RDKit          3D

  0  0  0  0  0  0  0  0  0  0999 V3000
M  V30 BEGIN CTAB
M  V30 COUNTS 84 87 0 0 1
M  V30 BEGIN ATOM
M  V30 1 C 39.399765 32.620999 58.149309 0 CFG=2
M  V30 2 O 39.874572 31.131018 61.847955 0 CHG=-1
M  V30 3 O 40.267386 29.221449 49.410780 0
M  V30 4 C 39.870420 30.957666 51.470514 0
M  V30 5 C 40.416454 27.513787 57.778140 0
M  V30 6 C 38.570616 35.014781 61.923073 0
M  V30 7 O 38.262856 30.350454 57.666512 0
M  V30 8 C 38.062738 37.221424 62.762271 0
M  V30 9 C 38.436191 30.681106 54.915497 0 CFG=1
M  V30 10 C 36.358638 33.337656 59.316095 0
M  V30 11 C 39.307487 29.533909 51.473166 0 CFG=2
M  V30 12 C 37.231021 35.996625 60.101190 0
M  V30 13 C 38.256637 33.222137 55.939576 0
M  V30 14 C 37.110645 37.687422 61.944393 0
M  V30 15 O 36.266685 38.617020 62.406553 0
M  V30 16 C 36.961131 37.239049 60.568670 0
M  V30 17 C 37.439495 28.165622 57.789002 0
M  V30 18 C 38.736036 31.645256 61.773496 0
M  V30 19 O 37.866947 31.613920 62.653500 0
M  V30 20 C 38.362569 32.359302 60.474142 0 CFG=2
M  V30 21 O 40.077005 36.109332 63.392069 0
M  V30 22 C 37.656340 32.013036 55.147703 0
M  V30 23 C 37.721399 34.848413 60.895411 0
M  V30 24 C 39.143765 36.298333 62.347885 0 CFG=1
M  V30 25 C 37.714682 29.478750 55.615886 0
M  V30 26 C 39.467240 31.044771 57.853535 0
M  V30 27 N 37.067424 32.821666 58.141823 0 CHG=1
M  V30 28 C 39.177183 29.226013 52.954879 0
M  V30 29 C 39.467134 31.502039 52.827040 0
M  V30 30 C 40.132576 28.574180 50.651343 0
M  V30 31 C 41.099698 28.263655 58.930811 0
M  V30 32 N 38.626759 30.475213 53.463854 0 CFG=2 CHG=1
M  V30 33 C 38.343603 29.098499 56.970215 0 CFG=1
M  V30 34 C 39.538261 32.912479 59.664388 0
M  V30 35 C 39.718660 28.375773 56.692593 0
M  V30 36 C 37.240238 33.432523 60.555194 0 CFG=1
M  V30 37 C 38.245657 33.347589 57.504279 0 CFG=1
M  V30 38 H 40.192063 33.221195 57.678141 0
M  V30 39 H 40.658096 30.070317 49.551440 0
M  V30 40 H 39.470586 31.553317 50.648236 0
M  V30 41 H 40.959804 30.961725 51.385595 0
M  V30 42 H 39.742450 26.754327 58.177482 0
M  V30 43 H 41.196635 26.942549 57.269418 0
M  V30 44 H 38.895349 34.153239 62.481834 0
M  V30 45 H 38.112284 37.590615 63.777615 0
M  V30 46 H 39.456816 30.779171 55.245840 0
M  V30 47 H 35.613690 32.564469 59.516562 0
M  V30 48 H 35.748643 34.205166 59.080171 0
M  V30 49 H 38.302429 29.534168 51.053664 0
M  V30 50 H 37.000893 35.823294 59.064839 0
M  V30 51 H 37.679952 34.076315 55.590113 0
M  V30 52 H 39.262075 33.416585 55.566820 0
M  V30 53 H 35.742473 38.915118 61.679792 0
M  V30 54 H 36.534395 37.939522 59.868433 0
M  V30 55 H 37.300241 27.199784 57.300120 0
M  V30 56 H 37.870391 27.982200 58.772581 0
M  V30 57 H 36.456631 28.602324 57.959845 0
M  V30 58 H 37.968555 31.471822 59.978812 0
M  V30 59 H 40.589286 36.898289 63.506491 0
M  V30 60 H 36.667556 31.748458 55.453430 0
M  V30 61 H 37.413611 32.453900 54.188483 0
M  V30 62 H 39.679823 36.732500 61.503002 0
M  V30 63 H 36.667138 29.714168 55.791488 0
M  V30 64 H 37.655242 28.586187 55.001060 0
M  V30 65 H 39.863687 30.422733 58.670070 0
M  V30 66 H 40.173569 30.905674 57.052901 0
M  V30 67 H 37.252972 31.839959 58.300820 0
M  V30 68 H 40.147980 29.221482 53.416297 0
M  V30 69 H 38.613284 28.315432 53.159060 0
M  V30 70 H 38.901637 32.421388 52.717422 0
M  V30 71 H 40.357882 31.621274 53.440789 0
M  V30 72 H 41.104873 28.423213 51.111732 0
M  V30 73 H 39.642253 27.603376 50.536049 0
M  V30 74 H 41.793680 27.621977 59.469926 0
M  V30 75 H 41.679950 29.112566 58.564581 0
M  V30 76 H 40.368879 28.613964 59.661283 0
M  V30 77 H 40.457444 32.560112 60.124054 0
M  V30 78 H 39.686562 33.984426 59.759594 0
M  V30 79 H 39.516133 27.653516 55.898911 0
M  V30 80 H 40.458388 29.025191 56.233116 0
M  V30 81 H 36.570015 33.195282 61.382197 0
M  V30 82 H 38.266782 34.407875 57.727103 0
M  V30 83 H 37.706460 30.545426 53.056969 0
M  V30 84 H 36.335047 32.822128 57.426114 0
M  V30 END ATOM
M  V30 BEGIN BOND
M  V30 1 1 11 4
M  V30 2 2 14 8
M  V30 3 1 15 14
M  V30 4 2 16 12
M  V30 5 1 16 14
M  V30 6 1 18 2
M  V30 7 2 19 18
M  V30 8 1 20 18
M  V30 9 1 22 9
M  V30 10 1 22 13
M  V30 11 2 23 6
M  V30 12 1 23 12
M  V30 13 1 24 6
M  V30 14 1 24 8
M  V30 15 1 24 21
M  V30 16 1 25 9
M  V30 17 1 26 1
M  V30 18 1 26 7
M  V30 19 1 27 10
M  V30 20 1 28 11
M  V30 21 1 29 4
M  V30 22 1 30 3
M  V30 23 1 30 11
M  V30 24 1 31 5
M  V30 25 1 32 9
M  V30 26 1 32 28
M  V30 27 1 32 29
M  V30 28 1 33 7
M  V30 29 1 33 17 CFG=1
M  V30 30 1 33 25
M  V30 31 1 34 1
M  V30 32 1 34 20
M  V30 33 1 35 5
M  V30 34 1 35 33
M  V30 35 1 36 10
M  V30 36 1 36 20
M  V30 37 1 36 23
M  V30 38 1 37 1
M  V30 39 1 37 13
M  V30 40 1 37 27
M  V30 41 1 1 38 CFG=3
M  V30 42 1 39 3
M  V30 43 1 40 4
M  V30 44 1 41 4
M  V30 45 1 42 5
M  V30 46 1 43 5
M  V30 47 1 44 6
M  V30 48 1 45 8
M  V30 49 1 9 46 CFG=1
M  V30 50 1 47 10
M  V30 51 1 48 10
M  V30 52 1 11 49 CFG=3
M  V30 53 1 50 12
M  V30 54 1 51 13
M  V30 55 1 52 13
M  V30 56 1 53 15
M  V30 57 1 54 16
M  V30 58 1 55 17
M  V30 59 1 56 17
M  V30 60 1 57 17
M  V30 61 1 20 58 CFG=3
M  V30 62 1 59 21
M  V30 63 1 60 22
M  V30 64 1 61 22
M  V30 65 1 24 62 CFG=3
M  V30 66 1 63 25
M  V30 67 1 64 25
M  V30 68 1 65 26
M  V30 69 1 66 26
M  V30 70 1 67 27
M  V30 71 1 68 28
M  V30 72 1 69 28
M  V30 73 1 70 29
M  V30 74 1 71 29
M  V30 75 1 72 30
M  V30 76 1 73 30
M  V30 77 1 74 31
M  V30 78 1 75 31
M  V30 79 1 76 31
M  V30 80 1 77 34
M  V30 81 1 78 34
M  V30 82 1 79 35
M  V30 83 1 80 35
M  V30 84 1 36 81 CFG=1
M  V30 85 1 37 82 CFG=3
M  V30 86 1 32 83 CFG=3
M  V30 87 1 84 27
M  V30 END BOND
M  V30 END CTAB
M  END
>  <i_epik_Tot_Q>  (1) 
1

>  <i_epik_Tot_abs_Q>  (1) 
3

>  <i_i_glide_confnum>  (1) 
141

>  <i_i_glide_lignum>  (1) 
87

>  <i_i_glide_posenum>  (1) 
97

>  <i_i_glide_rotatable_bonds>  (1) 
9

>  <i_lp_mmshare_version>  (1) 
72125

>  <i_m_source_file_index>  (1) 
33

>  <i_f3d_flags>  (1) 
0

>  <num_sample>  (1) 
100

>  <b_lp_Chiralities_Consistent>  (1) 
1

>  <r_epik_Charging_Adjusted_Penalty>  (1) 
0.016900800142501185

>  <r_epik_Ionization_Penalty>  (1) 
0.019380071947909534

>  <r_epik_Ionization_Penalty_Charging>  (1) 
0.016900800142501185

>  <r_epik_Ionization_Penalty_Neutral>  (1) 
0.0024792718054083493

>  <r_epik_State_Penalty>  (1) 
-0

>  <r_glide_ring_energy>  (1) 
0

>  <r_i_docking_score>  (1) 
-5.8482189304079313

>  <r_i_glide_ecoul>  (1) 
-8.8448062935807048

>  <r_i_glide_eff_state_penalty>  (1) 
-0

>  <r_i_glide_einternal>  (1) 
11.339158186537881

>  <r_i_glide_emodel>  (1) 
-57.501216263127525

>  <r_i_glide_emodel_strain>  (1) 
5.1342490807867875

>  <r_i_glide_energy>  (1) 
-6.6398559040695462

>  <r_i_glide_erotb>  (1) 
0.30428459818937692

>  <r_i_glide_esite>  (1) 
-0.10000000000000001

>  <r_i_glide_evdw>  (1) 
2.2049503895111586

>  <r_i_glide_gscore>  (1) 
-5.8482189304079313

>  <r_i_glide_gscore_strain>  (1) 
0.28356227019669689

>  <r_i_glide_hbond>  (1) 
-0.27895424742646857

>  <r_i_glide_ligand_efficiency>  (1) 
-0.15805997109210626

>  <r_i_glide_ligand_efficiency_ln>  (1) 
-1.2683415843016281

>  <r_i_glide_ligand_efficiency_sa>  (1) 
-0.52669088954364418

>  <r_i_glide_lipo>  (1) 
-3.651406737559312

>  <r_i_glide_metal>  (1) 
-0

>  <r_i_glide_rewards>  (1) 
-1.1892313892466764

>  <r_lp_Energy>  (1) 
56.582617999999997

>  <r_lp_tautomer_probability>  (1) 
1

>  <s_epik_cmdline>  (1) 
J2VwaWtfcHl0aG9uJywgJy1waHQnLCAnMS4wJywgJy1waCcsICc3LjQnLCAnLXRuJywgJzgnLCAnLW1hJywgJzUwMCcsICctaW1hZScsICc8aW5maWxlLm1hZT4nLCAnLW9tYWUnLCAnPG91dGZpbGUubWFlPic=

>  <s_epik_input>  (1) 
W09IXUMxPVtDSF1bQ0BASF0oW09IXSlbQ0hdPUMoW0NIXT1bQ0hdMSlbQ0BIXShbQ0BASF0oW0NIMl0yKUMoPU8pW09IXSlbQ0gyXVtOSF1bQ0BASF0oW0NAQEhdMjMpW0NIMl1bQ0gyXVtDQEBIXShbQ0gyXVtDQF0oW0NIM10pKE9bQ0gyXTMpW0NIMl1bQ0gyXVtDSDNdKU4oW0NIMl00KVtDSDJdW0NIMl1bQ0BIXTRbQ0gyXVtPSF0=

>  <s_glide_docking_method>  (1) 
confgen

>  <s_i_glide_gridfile>  (1) 
gpcr_5ht2c_6bqh_protein_autoprepared_prepared

>  <s_lp_Force_Field>  (1) 
S-OPLS

>  <s_lp_Variant>  (1) 
DiffSBDD_32_num_sample_100-2

>  <s_m_source_file>  (1) 
generated__ligand_DiffSBDD_2026-05-06_prepared.sdf

>  <GenAI_Model>  (1) 
DiffSBDD

>  <Protein>  (1) 
GPCR_5HT2C

$$$$
DiffSBDD_53_num_sample_100
     RDKit          3D

  0  0  0  0  0  0  0  0  0  0999 V3000
M  V30 BEGIN CTAB
M  V30 COUNTS 69 72 0 0 1
M  V30 BEGIN ATOM
M  V30 1 C 38.268500 30.702695 61.631058 0
M  V30 2 C 40.613474 31.109943 65.680368 0
M  V30 3 C 40.212948 31.805727 62.912382 0
M  V30 4 O 41.080004 26.975633 64.561110 0
M  V30 5 N 40.667293 28.732601 66.516985 0 CFG=1 CHG=1
M  V30 6 C 39.620842 27.185960 55.053442 0
M  V30 7 C 39.342956 29.506163 53.992036 0
M  V30 8 N 38.897053 26.072196 55.692278 0
M  V30 9 C 39.081136 25.661994 56.961769 0
M  V30 10 C 39.229080 32.966523 60.993661 0
M  V30 11 C 39.738333 27.784890 58.275909 0 CFG=1
M  V30 12 C 41.464510 27.893129 67.394007 0
M  V30 13 C 40.308491 30.129624 66.843148 0
M  V30 14 C 42.051301 28.519504 66.143847 0 CFG=1
M  V30 15 O 38.961162 27.675103 59.464714 0
M  V30 16 C 39.334420 28.654049 60.429800 0 CFG=1
M  V30 17 C 40.882550 28.760211 58.612203 0 CFG=1
M  V30 18 C 40.801725 28.914609 60.121697 0
M  V30 19 C 42.071059 27.972374 64.725645 0 CFG=2
M  V30 20 C 39.264579 31.844910 61.849379 0
M  V30 21 O 38.430906 24.742582 57.453607 0
M  V30 22 C 40.121811 34.037371 61.190462 0
M  V30 23 C 37.637557 27.629119 53.428124 0
M  V30 24 O 37.067405 28.421438 52.653516 0
M  V30 25 S 41.954008 29.354095 63.539040 0
M  V30 26 C 41.060621 33.993275 62.238421 0
M  V30 27 C 38.637680 28.228206 54.446462 0 CFG=1
M  V30 28 C 39.867397 29.689635 52.766904 0
M  V30 29 O 37.467597 26.395237 53.453525 0 CHG=-1
M  V30 30 C 40.152559 26.371507 57.793574 0
M  V30 31 S 40.267402 30.421397 64.023119 0 CHG=1
M  V30 32 C 41.108638 32.880156 63.097028 0
M  V30 33 C 42.287451 28.414578 58.082790 0
M  V30 34 C 38.438725 29.908753 60.314209 0
M  V30 35 H 38.186312 30.021965 62.473418 0
M  V30 36 H 37.292455 31.187660 61.588207 0
M  V30 37 H 41.658396 31.419171 65.711582 0
M  V30 38 H 40.024086 32.016612 65.812260 0
M  V30 39 H 41.493634 26.185782 64.239525 0
M  V30 40 H 40.333931 27.709513 55.682756 0
M  V30 41 H 40.217726 26.754220 54.249298 0
M  V30 42 H 39.412527 30.299905 54.721523 0
M  V30 43 H 38.189627 25.608994 55.129330 0
M  V30 44 H 38.510379 33.007993 60.187159 0
M  V30 45 H 39.097716 28.264113 57.534802 0
M  V30 46 H 41.599495 28.363580 68.366270 0
M  V30 47 H 41.074398 26.877092 67.375713 0
M  V30 48 H 40.805252 30.465341 67.754255 0
M  V30 49 H 39.239258 30.130001 67.055075 0
M  V30 50 H 42.697886 29.376567 66.324544 0
M  V30 51 H 39.219958 28.210910 61.419735 0
M  V30 52 H 40.593276 29.706116 58.162518 0
M  V30 53 H 41.109177 29.901688 60.461146 0
M  V30 54 H 41.423835 28.163887 60.612487 0
M  V30 55 H 43.039861 27.497613 64.563746 0
M  V30 56 H 40.086947 34.894880 60.533502 0
M  V30 57 H 41.743366 34.817006 62.385050 0
M  V30 58 H 37.995236 28.563108 55.261895 0
M  V30 59 H 40.353631 30.617248 52.503707 0
M  V30 60 H 39.814506 28.914953 52.015477 0
M  V30 61 H 41.066929 26.366576 57.206189 0
M  V30 62 H 40.363996 25.742734 58.653447 0
M  V30 63 H 41.829565 32.854275 63.899986 0
M  V30 64 H 42.685641 27.515393 58.554470 0
M  V30 65 H 42.275351 28.252814 57.005870 0
M  V30 66 H 42.996930 29.221405 58.253482 0
M  V30 67 H 37.445543 29.557198 60.033249 0
M  V30 68 H 38.741344 30.554756 59.489560 0
M  V30 69 H 40.060094 28.216723 65.888114 0
M  V30 END ATOM
M  V30 BEGIN BOND
M  V30 1 1 8 6
M  V30 2 1 9 8
M  V30 3 1 12 5
M  V30 4 1 13 2
M  V30 5 1 13 5
M  V30 6 1 14 5
M  V30 7 1 14 12
M  V30 8 1 15 11
M  V30 9 1 16 15
M  V30 10 1 17 11
M  V30 11 1 18 16
M  V30 12 1 18 17
M  V30 13 1 19 4
M  V30 14 1 19 14
M  V30 15 1 20 1
M  V30 16 1 20 3
M  V30 17 2 20 10
M  V30 18 2 21 9
M  V30 19 1 22 10
M  V30 20 2 24 23
M  V30 21 1 25 19
M  V30 22 2 26 22
M  V30 23 1 27 6
M  V30 24 1 27 7
M  V30 25 1 27 23
M  V30 26 2 28 7
M  V30 27 1 29 23
M  V30 28 1 30 9
M  V30 29 1 30 11
M  V30 30 1 31 2
M  V30 31 1 31 3 CFG=3
M  V30 32 1 31 25
M  V30 33 2 32 3
M  V30 34 1 32 26
M  V30 35 1 33 17
M  V30 36 1 34 1
M  V30 37 1 34 16
M  V30 38 1 35 1
M  V30 39 1 36 1
M  V30 40 1 37 2
M  V30 41 1 38 2
M  V30 42 1 39 4
M  V30 43 1 40 6
M  V30 44 1 41 6
M  V30 45 1 42 7
M  V30 46 1 43 8
M  V30 47 1 44 10
M  V30 48 1 11 45 CFG=3
M  V30 49 1 46 12
M  V30 50 1 47 12
M  V30 51 1 48 13
M  V30 52 1 49 13
M  V30 53 1 14 50 CFG=1
M  V30 54 1 16 51 CFG=1
M  V30 55 1 17 52 CFG=3
M  V30 56 1 53 18
M  V30 57 1 54 18
M  V30 58 1 19 55 CFG=3
M  V30 59 1 56 22
M  V30 60 1 57 26
M  V30 61 1 27 58 CFG=1
M  V30 62 1 59 28
M  V30 63 1 60 28
M  V30 64 1 61 30
M  V30 65 1 62 30
M  V30 66 1 63 32
M  V30 67 1 64 33
M  V30 68 1 65 33
M  V30 69 1 66 33
M  V30 70 1 67 34
M  V30 71 1 68 34
M  V30 72 1 5 69 CFG=3
M  V30 END BOND
M  V30 END CTAB
M  END
>  <i_epik_Tot_Q>  (1) 
1

>  <i_epik_Tot_abs_Q>  (1) 
3

>  <i_i_glide_confnum>  (1) 
1515

>  <i_i_glide_lignum>  (1) 
141

>  <i_i_glide_posenum>  (1) 
396

>  <i_i_glide_rotatable_bonds>  (1) 
12

>  <i_lp_mmshare_version>  (1) 
72125

>  <i_m_source_file_index>  (1) 
54

>  <i_f3d_flags>  (1) 
0

>  <num_sample>  (1) 
100

>  <b_lp_Chiralities_Consistent>  (1) 
1

>  <r_epik_Charging_Adjusted_Penalty>  (1) 
0.046453037766825911

>  <r_epik_Ionization_Penalty>  (1) 
0.023481310305084564

>  <r_epik_Ionization_Penalty_Charging>  (1) 
0.023340632071334463

>  <r_epik_Ionization_Penalty_Neutral>  (1) 
0.0001406782337501018

>  <r_epik_State_Penalty>  (1) 
0.023112405695491445

>  <r_glide_ring_energy>  (1) 
0.17236391819081889

>  <r_i_docking_score>  (1) 
-5.8455923099693612

>  <r_i_glide_ecoul>  (1) 
-3.7476815979140041

>  <r_i_glide_eff_state_penalty>  (1) 
0.023112405695491445

>  <r_i_glide_einternal>  (1) 
11.424244174676776

>  <r_i_glide_emodel>  (1) 
-63.739759785601265

>  <r_i_glide_emodel_strain>  (1) 
1.9445464013233789

>  <r_i_glide_energy>  (1) 
-50.050727287453753

>  <r_i_glide_erotb>  (1) 
0.79410111881252765

>  <r_i_glide_esite>  (1) 
-0.020618042650778722

>  <r_i_glide_evdw>  (1) 
-46.303045689539751

>  <r_i_glide_gscore>  (1) 
-5.8687047156648529

>  <r_i_glide_gscore_strain>  (1) 
0

>  <r_i_glide_hbond>  (1) 
0

>  <r_i_glide_ligand_efficiency>  (1) 
-0.17192918558733417

>  <r_i_glide_ligand_efficiency_ln>  (1) 
-1.2914553045827191

>  <r_i_glide_ligand_efficiency_sa>  (1) 
-0.55698381861275437

>  <r_i_glide_lipo>  (1) 
-3.9802365989614872

>  <r_i_glide_metal>  (1) 
-0

>  <r_i_glide_rewards>  (1) 
0.21535333129897483

>  <r_lp_Energy>  (1) 
5.0238719999999999

>  <s_epik_Chemistry_Notes>  (1) 
This compound contains an acetal/aminal-like group ( X-CH(R)-Y where X, Y are N, S, or O) that may be acid/base labile, releasing an aldehyde.

>  <s_epik_cmdline>  (1) 
J2VwaWtfcHl0aG9uJywgJy1waHQnLCAnMS4wJywgJy1waCcsICc3LjQnLCAnLXRuJywgJzgnLCAnLW1hJywgJzUwMCcsICctaW1hZScsICc8aW5maWxlLm1hZT4nLCAnLW9tYWUnLCAnPG91dGZpbGUubWFlPic=

>  <s_epik_input>  (1) 
TjEyW0NAQEhdKFtDSDJdMSlbQ0BASF0oW09IXSlTW1MrXShbQ0gyXVtDSDJdMiljM2MoW2NIXVtjSF1bY0hdW2NIXTMpW0NIMl1bQ0gyXVtDQEhdKFtDSDJdW0NASF00W0NIM10pT1tDQEBIXTRbQ0gyXUMoPU8pW05IXVtDSDJdW0NAQEhdKFtDSF09W0NIMl0pQyg9TylbT0hd

>  <s_glide_docking_method>  (1) 
confgen

>  <s_i_glide_gridfile>  (1) 
gpcr_5ht2c_6bqh_protein_autoprepared_prepared

>  <s_lp_Force_Field>  (1) 
S-OPLS

>  <s_lp_Variant>  (1) 
DiffSBDD_53_num_sample_100-2

>  <s_m_source_file>  (1) 
generated__ligand_DiffSBDD_2026-05-06_prepared.sdf

>  <GenAI_Model>  (1) 
DiffSBDD

>  <Protein>  (1) 
GPCR_5HT2C

$$$$
DiffSBDD_35_num_sample_100
     RDKit          3D

  0  0  0  0  0  0  0  0  0  0999 V3000
M  V30 BEGIN CTAB
M  V30 COUNTS 23 23 0 0 1
M  V30 BEGIN ATOM
M  V30 1 C 39.740111 28.474701 51.057906 0
M  V30 2 C 39.035126 29.610407 53.108780 0
M  V30 3 C 38.370529 30.314389 56.242632 0
M  V30 4 N 37.467404 30.421430 57.219851 0
M  V30 5 O 39.031210 30.743832 53.906483 0
M  V30 6 C 38.001942 30.940623 54.886673 0
M  V30 7 C 40.466225 30.866146 51.424212 0
M  V30 8 O 39.448860 29.744057 56.396397 0
M  V30 9 C 38.361703 27.298889 52.686311 0
M  V30 10 C 39.733748 29.621435 51.875385 0
M  V30 11 C 38.346623 28.438615 53.507691 0
M  V30 12 C 39.058510 27.315986 51.463508 0
M  V30 13 H 40.267402 28.486118 50.116426 0
M  V30 14 H 36.576029 30.928469 57.053501 0
M  V30 15 H 37.660586 30.025854 58.125293 0
M  V30 16 H 37.885946 32.015258 55.031735 0
M  V30 17 H 37.033414 30.577484 54.538855 0
M  V30 18 H 40.667411 31.540692 52.253494 0
M  V30 19 H 41.418750 30.608413 50.960696 0
M  V30 20 H 39.867278 31.404835 50.690029 0
M  V30 21 H 37.834890 26.410295 52.994582 0
M  V30 22 H 37.809373 28.410924 54.441306 0
M  V30 23 H 39.066072 26.438289 50.833750 0
M  V30 END ATOM
M  V30 BEGIN BOND
M  V30 1 1 4 3
M  V30 2 1 5 2
M  V30 3 1 6 3
M  V30 4 1 6 5
M  V30 5 2 8 3
M  V30 6 2 10 1
M  V30 7 1 10 2
M  V30 8 1 10 7
M  V30 9 2 11 2
M  V30 10 1 11 9
M  V30 11 1 12 1
M  V30 12 2 12 9
M  V30 13 1 13 1
M  V30 14 1 14 4
M  V30 15 1 15 4
M  V30 16 1 16 6
M  V30 17 1 17 6
M  V30 18 1 18 7
M  V30 19 1 19 7
M  V30 20 1 20 7
M  V30 21 1 21 9
M  V30 22 1 22 11
M  V30 23 1 23 12
M  V30 END BOND
M  V30 END CTAB
M  END
>  <i_epik_Tot_Q>  (1) 
0

>  <i_epik_Tot_abs_Q>  (1) 
0

>  <i_i_glide_confnum>  (1) 
2

>  <i_i_glide_lignum>  (1) 
90

>  <i_i_glide_posenum>  (1) 
297

>  <i_i_glide_rotatable_bonds>  (1) 
3

>  <i_lp_mmshare_version>  (1) 
72125

>  <i_m_source_file_index>  (1) 
36

>  <i_f3d_flags>  (1) 
0

>  <num_sample>  (1) 
100

>  <b_lp_Chiralities_Consistent>  (1) 
1

>  <r_epik_Charging_Adjusted_Penalty>  (1) 
0

>  <r_epik_Ionization_Penalty>  (1) 
6.1062296302935647e-07

>  <r_epik_Ionization_Penalty_Charging>  (1) 
0

>  <r_epik_Ionization_Penalty_Neutral>  (1) 
6.1062296302935647e-07

>  <r_epik_State_Penalty>  (1) 
-0

>  <r_glide_ring_energy>  (1) 
0

>  <r_i_docking_score>  (1) 
-5.8448636538400391

>  <r_i_glide_ecoul>  (1) 
-7.1422690495898911

>  <r_i_glide_eff_state_penalty>  (1) 
-0

>  <r_i_glide_einternal>  (1) 
1.3286841916116714

>  <r_i_glide_emodel>  (1) 
-39.45743628450596

>  <r_i_glide_emodel_strain>  (1) 
0.23171291372139891

>  <r_i_glide_energy>  (1) 
-28.839416887350758

>  <r_i_glide_erotb>  (1) 
1.1185107559780281

>  <r_i_glide_esite>  (1) 
-0.14075318027715752

>  <r_i_glide_evdw>  (1) 
-21.697147837760866

>  <r_i_glide_gscore>  (1) 
-5.8448636538400391

>  <r_i_glide_gscore_strain>  (1) 
0

>  <r_i_glide_hbond>  (1) 
-0.16

>  <r_i_glide_ligand_efficiency>  (1) 
-0.48707197115333661

>  <r_i_glide_ligand_efficiency_ln>  (1) 
-1.67719375042531

>  <r_i_glide_ligand_efficiency_sa>  (1) 
-1.1151164450555

>  <r_i_glide_lipo>  (1) 
-2.0167750403510958

>  <r_i_glide_metal>  (1) 
-0

>  <r_i_glide_rewards>  (1) 
-2.489648439863287

>  <r_lp_Energy>  (1) 
12.862938

>  <r_lp_tautomer_probability>  (1) 
1

>  <s_epik_cmdline>  (1) 
J2VwaWtfcHl0aG9uJywgJy1waHQnLCAnMS4wJywgJy1waCcsICc3LjQnLCAnLXRuJywgJzgnLCAnLW1hJywgJzUwMCcsICctaW1hZScsICc8aW5maWxlLm1hZT4nLCAnLW9tYWUnLCAnPG91dGZpbGUubWFlPic=

>  <s_epik_input>  (1) 
W2NIXTFbY0hdW2NIXVtjSF1jKFtDSDNdKWMxT1tDSDJdQyg9TylbTkgyXQ==

>  <s_glide_docking_method>  (1) 
confgen

>  <s_i_glide_gridfile>  (1) 
gpcr_5ht2c_6bqh_protein_autoprepared_prepared

>  <s_lp_Force_Field>  (1) 
S-OPLS

>  <s_lp_Variant>  (1) 
DiffSBDD_35_num_sample_100-1

>  <s_m_source_file>  (1) 
generated__ligand_DiffSBDD_2026-05-06_prepared.sdf

>  <GenAI_Model>  (1) 
DiffSBDD

>  <Protein>  (1) 
GPCR_5HT2C

$$$$
DiffSBDD_30_num_sample_100
     RDKit          3D

  0  0  0  0  0  0  0  0  0  0999 V3000
M  V30 BEGIN CTAB
M  V30 COUNTS 70 73 0 0 1
M  V30 BEGIN ATOM
M  V30 1 C 39.929010 36.446489 61.694278 0
M  V30 2 C 39.724005 32.413841 62.288141 0 CFG=1
M  V30 3 O 37.600704 36.187527 62.230696 0
M  V30 4 C 38.039607 25.680042 54.839911 0
M  V30 5 C 38.989704 25.210748 55.760725 0
M  V30 6 N 37.426357 33.562312 61.030029 0
M  V30 7 C 39.868421 27.466528 56.006971 0
M  V30 8 C 38.722299 34.259075 61.169232 0 CFG=1
M  V30 9 O 40.667355 29.681368 61.463715 0
M  V30 10 O 42.053883 32.773009 62.830796 0
M  V30 11 C 39.634753 29.040785 52.368060 0
M  V30 12 C 40.991321 32.234089 63.137026 0
M  V30 13 C 40.880814 31.355041 64.377071 0
M  V30 14 C 38.657442 28.821324 51.256411 0
M  V30 15 C 40.027839 30.307089 54.516331 0 CFG=2
M  V30 16 C 37.751510 32.750374 58.189154 0
M  V30 17 N 37.101745 34.008530 58.623346 0 CHG=1
M  V30 18 C 39.843749 29.736282 51.042693 0
M  V30 19 C 38.859630 31.519055 56.258315 0 CFG=1
M  V30 20 C 39.903875 26.101743 56.342457 0
M  V30 21 C 39.826569 31.673384 55.092187 0
M  V30 22 N 39.115716 29.941676 53.430925 0 CFG=2 CHG=1
M  V30 23 C 37.998765 27.044176 54.504625 0
M  V30 24 C 36.499480 34.010892 59.977889 0
M  V30 25 C 38.914182 27.948836 55.086560 0
M  V30 26 C 38.263564 32.847549 56.745931 0
M  V30 27 C 39.668721 30.505718 60.906779 0
M  V30 28 C 38.588471 35.801463 61.300580 0 CFG=2
M  V30 29 C 38.855202 29.405679 54.756867 0 CFG=1
M  V30 30 O 37.067405 27.494693 53.620978 0
M  V30 31 S 37.623568 30.328124 55.683672 0
M  V30 32 O 39.478691 33.795494 62.252045 0
M  V30 33 O 39.951572 31.873097 61.011758 0
M  V30 34 H 40.724951 36.172475 61.001567 0
M  V30 35 H 39.847353 37.533953 61.700884 0
M  V30 36 H 40.246243 36.149640 62.694164 0
M  V30 37 H 38.860873 31.938801 62.755588 0
M  V30 38 H 37.829380 35.818085 63.071142 0
M  V30 39 H 37.335732 24.993195 54.392918 0
M  V30 40 H 39.016359 24.163857 56.022725 0
M  V30 41 H 37.602524 32.569381 60.922600 0
M  V30 42 H 40.570343 28.149194 56.463043 0
M  V30 43 H 39.333401 34.061161 60.288279 0
M  V30 44 H 40.355594 28.787001 61.464026 0
M  V30 45 H 40.178107 28.148438 52.652826 0
M  V30 46 H 41.545578 30.496269 64.284082 0
M  V30 47 H 41.167297 31.918669 65.265692 0
M  V30 48 H 39.864670 30.985641 64.510282 0
M  V30 49 H 38.672790 27.855426 50.753764 0
M  V30 50 H 37.669462 29.221305 51.453501 0
M  V30 51 H 41.035838 30.021444 54.256828 0
M  V30 52 H 37.067274 31.911175 58.280530 0
M  V30 53 H 38.595228 32.524722 58.838713 0
M  V30 54 H 37.767079 34.763896 58.553284 0
M  V30 55 H 39.651638 30.805880 50.974846 0
M  V30 56 H 40.651494 29.373167 50.410407 0
M  V30 57 H 39.405944 31.044390 57.075683 0
M  V30 58 H 40.634758 25.738474 57.050522 0
M  V30 59 H 39.444109 32.358142 54.336306 0
M  V30 60 H 40.784644 32.021446 55.453502 0
M  V30 61 H 36.129372 35.014068 60.194918 0
M  V30 62 H 35.623874 33.360520 59.965944 0
M  V30 63 H 39.028020 33.621465 56.700679 0
M  V30 64 H 37.467573 33.167106 56.072646 0
M  V30 65 H 38.712883 30.252096 61.369726 0
M  V30 66 H 39.605292 30.256728 59.847262 0
M  V30 67 H 38.288776 36.193739 60.328158 0
M  V30 68 H 36.667066 28.307523 53.884924 0
M  V30 69 H 36.355473 34.199482 57.966278 0
M  V30 70 H 38.510056 30.699483 53.151493 0
M  V30 END ATOM
M  V30 BEGIN BOND
M  V30 1 1 5 4
M  V30 2 1 8 6
M  V30 3 1 12 2
M  V30 4 2 12 10
M  V30 5 1 13 12
M  V30 6 1 14 11
M  V30 7 1 17 16
M  V30 8 1 18 11
M  V30 9 1 18 14
M  V30 10 2 20 5
M  V30 11 1 20 7
M  V30 12 1 21 15
M  V30 13 1 21 19
M  V30 14 1 22 11
M  V30 15 1 22 15
M  V30 16 2 23 4
M  V30 17 1 24 6
M  V30 18 1 24 17
M  V30 19 2 25 7
M  V30 20 1 25 23
M  V30 21 1 26 16
M  V30 22 1 26 19
M  V30 23 1 27 9
M  V30 24 1 28 1
M  V30 25 1 28 3
M  V30 26 1 28 8
M  V30 27 1 29 15
M  V30 28 1 29 22
M  V30 29 1 29 25 CFG=3
M  V30 30 1 30 23
M  V30 31 1 31 19
M  V30 32 1 31 29
M  V30 33 1 32 2
M  V30 34 1 32 8
M  V30 35 1 33 2
M  V30 36 1 33 27
M  V30 37 1 34 1
M  V30 38 1 35 1
M  V30 39 1 36 1
M  V30 40 1 2 37 CFG=1
M  V30 41 1 38 3
M  V30 42 1 39 4
M  V30 43 1 40 5
M  V30 44 1 41 6
M  V30 45 1 42 7
M  V30 46 1 8 43 CFG=3
M  V30 47 1 44 9
M  V30 48 1 45 11
M  V30 49 1 46 13
M  V30 50 1 47 13
M  V30 51 1 48 13
M  V30 52 1 49 14
M  V30 53 1 50 14
M  V30 54 1 15 51 CFG=3
M  V30 55 1 52 16
M  V30 56 1 53 16
M  V30 57 1 54 17
M  V30 58 1 55 18
M  V30 59 1 56 18
M  V30 60 1 19 57 CFG=1
M  V30 61 1 58 20
M  V30 62 1 59 21
M  V30 63 1 60 21
M  V30 64 1 61 24
M  V30 65 1 62 24
M  V30 66 1 63 26
M  V30 67 1 64 26
M  V30 68 1 65 27
M  V30 69 1 66 27
M  V30 70 1 28 67 CFG=3
M  V30 71 1 68 30
M  V30 72 1 69 17
M  V30 73 1 22 70 CFG=3
M  V30 END BOND
M  V30 END CTAB
M  END
>  <i_epik_Tot_Q>  (1) 
2

>  <i_epik_Tot_abs_Q>  (1) 
2

>  <i_i_glide_confnum>  (1) 
104

>  <i_i_glide_lignum>  (1) 
82

>  <i_i_glide_posenum>  (1) 
146

>  <i_i_glide_rotatable_bonds>  (1) 
17

>  <i_lp_mmshare_version>  (1) 
72125

>  <i_m_source_file_index>  (1) 
31

>  <i_f3d_flags>  (1) 
0

>  <num_sample>  (1) 
100

>  <b_lp_Chiralities_Consistent>  (1) 
1

>  <r_epik_Charging_Adjusted_Penalty>  (1) 
1.979093595035226

>  <r_epik_Ionization_Penalty>  (1) 
0.79989620662071081

>  <r_epik_Ionization_Penalty_Charging>  (1) 
0.66086891892205935

>  <r_epik_Ionization_Penalty_Neutral>  (1) 
0.13902728769865147

>  <r_epik_State_Penalty>  (1) 
1.3182246761131666

>  <r_glide_ring_energy>  (1) 
0

>  <r_i_docking_score>  (1) 
-5.8419050972020425

>  <r_i_glide_ecoul>  (1) 
-3.0713018828656198

>  <r_i_glide_eff_state_penalty>  (1) 
1.3182246761131666

>  <r_i_glide_einternal>  (1) 
18.228259395524965

>  <r_i_glide_emodel>  (1) 
-57.53124156893702

>  <r_i_glide_emodel_strain>  (1) 
3.0044070799589235

>  <r_i_glide_energy>  (1) 
-44.154292890948931

>  <r_i_glide_erotb>  (1) 
1.1283805066766976

>  <r_i_glide_esite>  (1) 
-0.049400057335132232

>  <r_i_glide_evdw>  (1) 
-41.082991008083312

>  <r_i_glide_gscore>  (1) 
-7.1601297733152087

>  <r_i_glide_gscore_strain>  (1) 
0

>  <r_i_glide_hbond>  (1) 
-0.2981302296942055

>  <r_i_glide_ligand_efficiency>  (1) 
-0.17702742718794068

>  <r_i_glide_ligand_efficiency_ln>  (1) 
-1.2992094458519665

>  <r_i_glide_ligand_efficiency_sa>  (1) 
-0.56782155005615631

>  <r_i_glide_lipo>  (1) 
-3.7146799828584256

>  <r_i_glide_metal>  (1) 
-0

>  <r_i_glide_rewards>  (1) 
-1.7114551772701352

>  <r_lp_Energy>  (1) 
33.25723

>  <r_lp_tautomer_probability>  (1) 
0.99999996999736518

>  <s_epik_Chemistry_Notes>  (1) 
This compound contains an acetal/aminal-like group ( X-CH(R)-Y where X, Y are N, S, or O) that may be acid/base labile, releasing an aldehyde.

>  <s_epik_cmdline>  (1) 
J2VwaWtfcHl0aG9uJywgJy1waHQnLCAnMS4wJywgJy1waCcsICc3LjQnLCAnLXRuJywgJzgnLCAnLW1hJywgJzUwMCcsICctaW1hZScsICc8aW5maWxlLm1hZT4nLCAnLW9tYWUnLCAnPG91dGZpbGUubWFlPic=

>  <s_epik_input>  (1) 
W09IXVtDSDJdT1tDQEBIXShDKD1PKVtDSDNdKU9bQ0BIXShbQ0BIXShbQ0gzXSlbT0hdKVtOSF1bQ0gyXVtOSF1bQ0gyXVtDSDJdW0NAQEhdKFMxKVtDSDJdW0NASF0oTjJbQ0hdM1tDSDJdW0NIMl0zKVtDQEBdMTJjNFtjSF1bY0hdW2NIXVtjSF1jNFtPSF0=

>  <s_glide_docking_method>  (1) 
confgen

>  <s_i_glide_gridfile>  (1) 
gpcr_5ht2c_6bqh_protein_autoprepared_prepared

>  <s_lp_Force_Field>  (1) 
S-OPLS

>  <s_lp_Variant>  (1) 
DiffSBDD_30_num_sample_100-4

>  <s_m_source_file>  (1) 
generated__ligand_DiffSBDD_2026-05-06_prepared.sdf

>  <GenAI_Model>  (1) 
DiffSBDD

>  <Protein>  (1) 
GPCR_5HT2C

$$$$
DiffSBDD_64_num_sample_100
     RDKit          3D

  0  0  0  0  0  0  0  0  0  0999 V3000
M  V30 BEGIN CTAB
M  V30 COUNTS 67 69 0 0 1
M  V30 BEGIN ATOM
M  V30 1 C 41.768581 32.685798 63.361299 0
M  V30 2 C 39.869566 34.446011 62.412024 0
M  V30 3 C 38.198641 25.194718 56.084120 0
M  V30 4 C 38.892699 33.221765 58.359469 0
M  V30 5 C 37.879863 31.946388 56.456187 0
M  V30 6 O 41.262271 27.918280 58.910306 0
M  V30 7 N 39.900167 33.138703 61.875514 0
M  V30 8 C 39.560027 27.322494 57.379111 0
M  V30 9 O 42.543784 34.350455 64.792422 0
M  V30 10 C 39.866132 25.967190 57.676601 0
M  V30 11 C 38.559668 27.612967 56.367992 0
M  V30 12 C 37.616045 30.492119 54.358201 0
M  V30 13 O 40.877005 31.062267 61.826772 0
M  V30 14 C 37.881149 26.520917 55.748987 0
M  V30 15 C 40.834822 32.198898 62.299854 0
M  V30 16 C 39.183408 33.621193 59.580349 0
M  V30 17 C 40.715303 34.840036 63.348022 0
M  V30 18 C 36.308850 32.585606 60.403189 0
M  V30 19 C 36.195599 31.065989 60.227570 0
M  V30 20 C 37.319252 29.110270 54.850071 0
M  V30 21 C 37.457051 32.993968 61.356370 0
M  V30 22 N 38.232298 28.966590 55.978221 0
M  V30 23 C 39.324853 29.933714 55.960266 0
M  V30 24 C 39.188760 24.920723 57.034164 0
M  V30 25 C 39.288666 29.095862 58.959961 0
M  V30 26 C 38.586051 33.141545 57.083453 0
M  V30 27 C 38.905493 32.788690 60.825189 0 CFG=2
M  V30 28 C 39.467513 32.001732 54.475442 0
M  V30 29 C 34.982732 33.190136 60.873024 0
M  V30 30 C 41.691266 33.944992 63.843350 0
M  V30 31 N 40.213831 28.364563 58.096284 0
M  V30 32 C 38.605308 31.132669 55.344553 0 CFG=2
M  V30 33 H 42.520654 32.012847 63.748050 0
M  V30 34 H 42.369378 35.264970 64.962884 0
M  V30 35 H 39.107663 35.083059 61.993800 0
M  V30 36 H 37.678016 24.380002 55.602300 0
M  V30 37 H 37.468204 31.292290 57.224810 0
M  V30 38 H 37.068041 32.433819 55.942487 0
M  V30 39 H 42.046791 28.322529 58.570724 0
M  V30 40 H 40.610970 25.728268 58.414975 0
M  V30 41 H 36.707258 31.086385 54.250600 0
M  V30 42 H 38.072625 30.367498 53.379916 0
M  V30 43 H 37.118376 26.698653 55.010627 0
M  V30 44 H 39.643678 34.582039 59.746874 0
M  V30 45 H 40.660135 35.848504 63.733916 0
M  V30 46 H 36.482139 33.015551 59.419060 0
M  V30 47 H 35.877767 30.584424 61.148109 0
M  V30 48 H 35.475360 30.819302 59.447457 0
M  V30 49 H 37.142797 30.621221 59.935441 0
M  V30 50 H 37.478036 28.414601 54.025431 0
M  V30 51 H 36.268324 29.224055 55.065659 0
M  V30 52 H 37.346779 32.457234 62.298555 0
M  V30 53 H 37.304770 34.044723 61.599235 0
M  V30 54 H 40.129189 29.560975 55.325140 0
M  V30 55 H 39.749298 30.298339 56.887664 0
M  V30 56 H 39.427274 23.896506 57.282253 0
M  V30 57 H 38.354952 29.359432 58.467741 0
M  V30 58 H 39.033096 28.504938 59.840699 0
M  V30 59 H 39.758113 30.016688 59.303176 0
M  V30 60 H 38.824361 33.950670 56.413038 0
M  V30 61 H 38.991899 31.741941 60.540231 0
M  V30 62 H 40.276398 31.438529 54.010119 0
M  V30 63 H 38.864441 32.421384 53.673018 0
M  V30 64 H 39.867271 32.812911 55.053726 0
M  V30 65 H 34.699673 32.814914 61.854115 0
M  V30 66 H 35.067972 34.273532 60.938720 0
M  V30 67 H 34.174203 32.966246 60.176244 0
M  V30 END ATOM
M  V30 BEGIN BOND
M  V30 1 1 7 2
M  V30 2 2 10 8
M  V30 3 1 11 8
M  V30 4 1 14 3
M  V30 5 2 14 11
M  V30 6 1 15 1
M  V30 7 1 15 7
M  V30 8 2 15 13
M  V30 9 2 16 4
M  V30 10 2 17 2
M  V30 11 1 19 18
M  V30 12 1 20 12
M  V30 13 1 21 18
M  V30 14 1 22 11
M  V30 15 1 22 20
M  V30 16 1 23 22
M  V30 17 2 24 3
M  V30 18 1 24 10
M  V30 19 2 26 4
M  V30 20 1 26 5
M  V30 21 1 27 7
M  V30 22 1 27 16
M  V30 23 1 27 21
M  V30 24 1 29 18
M  V30 25 2 30 1
M  V30 26 1 30 9
M  V30 27 1 30 17
M  V30 28 1 31 6
M  V30 29 1 31 8
M  V30 30 1 31 25
M  V30 31 1 32 5 CFG=1
M  V30 32 1 32 12
M  V30 33 1 32 23
M  V30 34 1 32 28
M  V30 35 1 33 1
M  V30 36 1 34 9
M  V30 37 1 35 2
M  V30 38 1 36 3
M  V30 39 1 37 5
M  V30 40 1 38 5
M  V30 41 1 39 6
M  V30 42 1 40 10
M  V30 43 1 41 12
M  V30 44 1 42 12
M  V30 45 1 43 14
M  V30 46 1 44 16
M  V30 47 1 45 17
M  V30 48 1 46 18
M  V30 49 1 47 19
M  V30 50 1 48 19
M  V30 51 1 49 19
M  V30 52 1 50 20
M  V30 53 1 51 20
M  V30 54 1 52 21
M  V30 55 1 53 21
M  V30 56 1 54 23
M  V30 57 1 55 23
M  V30 58 1 56 24
M  V30 59 1 57 25
M  V30 60 1 58 25
M  V30 61 1 59 25
M  V30 62 1 60 26
M  V30 63 1 27 61 CFG=3
M  V30 64 1 62 28
M  V30 65 1 63 28
M  V30 66 1 64 28
M  V30 67 1 65 29
M  V30 68 1 66 29
M  V30 69 1 67 29
M  V30 END BOND
M  V30 END CTAB
M  END
>  <i_epik_Tot_Q>  (1) 
0

>  <i_epik_Tot_abs_Q>  (1) 
0

>  <i_i_glide_confnum>  (1) 
634

>  <i_i_glide_lignum>  (1) 
162

>  <i_i_glide_posenum>  (1) 
80

>  <i_i_glide_rotatable_bonds>  (1) 
10

>  <i_lp_mmshare_version>  (1) 
72125

>  <i_m_source_file_index>  (1) 
65

>  <i_f3d_flags>  (1) 
0

>  <num_sample>  (1) 
100

>  <b_lp_Chiralities_Consistent>  (1) 
1

>  <r_epik_Charging_Adjusted_Penalty>  (1) 
0.62675424586451389

>  <r_epik_Ionization_Penalty>  (1) 
0.6271712436186877

>  <r_epik_Ionization_Penalty_Charging>  (1) 
1.6245979767145579e-07

>  <r_epik_Ionization_Penalty_Neutral>  (1) 
0.62717108115888998

>  <r_epik_State_Penalty>  (1) 
0.62675408340471617

>  <r_glide_ring_energy>  (1) 
0

>  <r_i_docking_score>  (1) 
-5.8304078898310507

>  <r_i_glide_ecoul>  (1) 
-1.4640233937717309

>  <r_i_glide_eff_state_penalty>  (1) 
0.62675408340471617

>  <r_i_glide_einternal>  (1) 
10.470453517317459

>  <r_i_glide_emodel>  (1) 
-46.701327282984622

>  <r_i_glide_emodel_strain>  (1) 
2.1115059253143897

>  <r_i_glide_energy>  (1) 
-38.439696387345947

>  <r_i_glide_erotb>  (1) 
0.72903887146802748

>  <r_i_glide_esite>  (1) 
-0.0011378685679004812

>  <r_i_glide_evdw>  (1) 
-36.975672993574214

>  <r_i_glide_gscore>  (1) 
-6.4571619732357668

>  <r_i_glide_gscore_strain>  (1) 
0

>  <r_i_glide_hbond>  (1) 
-0.17961734110476404

>  <r_i_glide_ligand_efficiency>  (1) 
-0.18220024655722034

>  <r_i_glide_ligand_efficiency_ln>  (1) 
-1.3055872574497214

>  <r_i_glide_ligand_efficiency_sa>  (1) 
-0.57844972610759382

>  <r_i_glide_lipo>  (1) 
-3.5373018661004103

>  <r_i_glide_metal>  (1) 
-0

>  <r_i_glide_rewards>  (1) 
-1.3997566101862482

>  <r_lp_Energy>  (1) 
25.450896

>  <r_lp_tautomer_probability>  (1) 
0.99998436711719629

>  <s_epik_Chemistry_Notes>  (1) 
This compound has a N-S or N-O group and may undergo hydrolysis at high or low pH.

>  <s_epik_cmdline>  (1) 
J2VwaWtfcHl0aG9uJywgJy1waHQnLCAnMS4wJywgJy1waCcsICc3LjQnLCAnLXRuJywgJzgnLCAnLW1hJywgJzUwMCcsICctaW1hZScsICc8aW5maWxlLm1hZT4nLCAnLW9tYWUnLCAnPG91dGZpbGUubWFlPic=

>  <s_epik_input>  (1) 
Tz1DMVtDSDJdQyg9TylbQ0hdPVtDSF1OMVtDQEBIXShbQ0gyXVtDSF0oW0NIM10pW0NIM10pW0NIXT1DPVtDSF1bQ0gyXVtDQF0yKFtDSDNdKVtDSDJdW0NIMl1OKFtDSDJdMiljM1tjSF1bY0hdW2NIXVtjSF1jM04oW09IXSlbQ0gzXQ==

>  <s_glide_docking_method>  (1) 
confgen

>  <s_i_glide_gridfile>  (1) 
gpcr_5ht2c_6bqh_protein_autoprepared_prepared

>  <s_lp_Force_Field>  (1) 
S-OPLS

>  <s_lp_Variant>  (1) 
DiffSBDD_64_num_sample_100-2

>  <s_m_source_file>  (1) 
generated__ligand_DiffSBDD_2026-05-06_prepared.sdf

>  <GenAI_Model>  (1) 
DiffSBDD

>  <Protein>  (1) 
GPCR_5HT2C

$$$$
DiffSBDD_82_num_sample_100
     RDKit          3D

  0  0  0  0  0  0  0  0  0  0999 V3000
M  V30 BEGIN CTAB
M  V30 COUNTS 57 59 0 0 1
M  V30 BEGIN ATOM
M  V30 1 C 37.979447 29.769879 58.786401 0 CFG=1
M  V30 2 N 39.294383 27.075790 53.365121 0
M  V30 3 F 36.798380 29.621431 59.384979 0
M  V30 4 C 38.579260 31.864802 60.205901 0
M  V30 5 N 37.918708 29.071161 57.477760 0
M  V30 6 C 39.944807 27.206400 55.743104 0
M  V30 7 C 37.838063 34.274151 59.853253 0
M  V30 8 C 40.079025 35.286337 61.687645 0
M  V30 9 N 38.087323 30.726056 55.675223 0
M  V30 10 O 41.466981 32.384178 61.453524 0
M  V30 11 C 40.251169 28.470016 51.500834 0 CFG=1
M  V30 12 C 39.480573 28.124526 50.253492 0
M  V30 13 C 36.801922 24.083333 55.446529 0
M  V30 14 S 39.113167 36.421423 62.613756 0 CHG=-1
M  V30 15 C 39.022098 33.370386 60.277246 0 CFG=1
M  V30 16 C 38.637876 33.114125 55.624664 0
M  V30 17 C 37.867400 29.421448 56.207987 0
M  V30 18 C 39.467406 28.392784 52.788774 0 CFG=1
M  V30 19 C 38.773724 28.633131 51.475706 0 CFG=1
M  V30 20 C 38.373689 31.219681 58.824875 0
M  V30 21 O 41.099557 35.527427 61.053517 0
M  V30 22 C 38.809472 27.003489 54.718500 0 CFG=2
M  V30 23 C 38.523809 31.862573 57.718381 0
M  V30 24 O 40.594419 32.633869 63.489300 0 CHG=-1
M  V30 25 O 38.350368 25.681061 54.804407 0
M  V30 26 C 37.632469 25.276380 55.927343 0 CFG=2
M  V30 27 S 37.467427 28.274188 54.831187 0
M  V30 28 C 39.559573 33.825711 61.688258 0 CFG=1
M  V30 29 O 38.464439 24.865806 56.987146 0
M  V30 30 C 40.636014 32.866045 62.260053 0
M  V30 31 C 38.417982 31.856201 56.428845 0
M  V30 32 H 38.689081 29.233395 59.416799 0
M  V30 33 H 38.696476 26.527869 52.762760 0
M  V30 34 H 39.308320 31.223812 60.696231 0
M  V30 35 H 37.658725 31.742163 60.777646 0
M  V30 36 H 40.702989 26.436051 55.604845 0
M  V30 37 H 39.580251 27.143793 56.766247 0
M  V30 38 H 40.412315 28.181021 55.602027 0
M  V30 39 H 36.996071 34.158979 60.535729 0
M  V30 40 H 37.473262 34.057390 58.851237 0
M  V30 41 H 38.111707 35.327674 59.853498 0
M  V30 42 H 38.015423 30.883566 54.683081 0
M  V30 43 H 40.877139 29.355770 51.410336 0
M  V30 44 H 39.556615 28.813830 49.415808 0
M  V30 45 H 39.322929 27.073576 50.023422 0
M  V30 46 H 37.453515 23.298760 55.059633 0
M  V30 47 H 36.137941 24.405297 54.644201 0
M  V30 48 H 36.199611 23.678836 56.253506 0
M  V30 49 H 39.837521 33.524761 59.568332 0
M  V30 50 H 39.609909 33.547838 55.853451 0
M  V30 51 H 37.867440 33.851499 55.853560 0
M  V30 52 H 38.590929 32.889453 54.560979 0
M  V30 53 H 39.621835 29.251144 53.441141 0
M  V30 54 H 38.364249 29.621428 51.354807 0
M  V30 55 H 36.976051 26.058283 56.309368 0
M  V30 56 H 38.715561 33.726374 62.373225 0
M  V30 57 H 39.074206 24.230059 56.647014 0
M  V30 END ATOM
M  V30 BEGIN BOND
M  V30 1 1 3 1
M  V30 2 1 5 1
M  V30 3 1 12 11
M  V30 4 1 14 8
M  V30 5 1 15 4
M  V30 6 1 15 7
M  V30 7 2 17 5
M  V30 8 1 17 9
M  V30 9 1 18 2
M  V30 10 1 18 11
M  V30 11 1 19 11
M  V30 12 1 19 12
M  V30 13 1 19 18
M  V30 14 1 20 1
M  V30 15 1 20 4
M  V30 16 2 21 8
M  V30 17 1 22 2
M  V30 18 1 22 6
M  V30 19 2 23 20
M  V30 20 1 22 25 CFG=1
M  V30 21 1 26 13
M  V30 22 1 26 25
M  V30 23 1 27 17
M  V30 24 1 27 22
M  V30 25 1 28 8
M  V30 26 1 28 15
M  V30 27 1 29 26
M  V30 28 2 30 10
M  V30 29 1 30 24
M  V30 30 1 30 28
M  V30 31 1 31 9
M  V30 32 1 31 16
M  V30 33 2 31 23
M  V30 34 1 1 32 CFG=1
M  V30 35 1 33 2
M  V30 36 1 34 4
M  V30 37 1 35 4
M  V30 38 1 36 6
M  V30 39 1 37 6
M  V30 40 1 38 6
M  V30 41 1 39 7
M  V30 42 1 40 7
M  V30 43 1 41 7
M  V30 44 1 42 9
M  V30 45 1 11 43 CFG=1
M  V30 46 1 44 12
M  V30 47 1 45 12
M  V30 48 1 46 13
M  V30 49 1 47 13
M  V30 50 1 48 13
M  V30 51 1 15 49 CFG=3
M  V30 52 1 50 16
M  V30 53 1 51 16
M  V30 54 1 52 16
M  V30 55 1 18 53 CFG=1
M  V30 56 1 19 54 CFG=1
M  V30 57 1 26 55 CFG=1
M  V30 58 1 28 56 CFG=1
M  V30 59 1 57 29
M  V30 END BOND
M  V30 END CTAB
M  END
>  <i_epik_Tot_Q>  (1) 
-2

>  <i_epik_Tot_abs_Q>  (1) 
2

>  <i_i_glide_confnum>  (1) 
1425

>  <i_i_glide_lignum>  (1) 
216

>  <i_i_glide_posenum>  (1) 
251

>  <i_i_glide_rotatable_bonds>  (1) 
12

>  <i_lp_mmshare_version>  (1) 
72125

>  <i_m_source_file_index>  (1) 
83

>  <i_f3d_flags>  (1) 
0

>  <num_sample>  (1) 
100

>  <b_lp_Chiralities_Consistent>  (1) 
1

>  <r_epik_Charging_Adjusted_Penalty>  (1) 
0.00013622687110547772

>  <r_epik_Ionization_Penalty>  (1) 
0.0015792256383976989

>  <r_epik_Ionization_Penalty_Charging>  (1) 
0.00013622687110547772

>  <r_epik_Ionization_Penalty_Neutral>  (1) 
0.0014429987672922213

>  <r_epik_State_Penalty>  (1) 
-0

>  <r_glide_ring_energy>  (1) 
0

>  <r_i_docking_score>  (1) 
-5.8279011679788493

>  <r_i_glide_ecoul>  (1) 
-0.69652099263300249

>  <r_i_glide_eff_state_penalty>  (1) 
-0

>  <r_i_glide_einternal>  (1) 
34.493351186202119

>  <r_i_glide_emodel>  (1) 
-43.532551362802387

>  <r_i_glide_emodel_strain>  (1) 
1.0010855470995921

>  <r_i_glide_energy>  (1) 
-43.292139851660913

>  <r_i_glide_erotb>  (1) 
0.72716710484865599

>  <r_i_glide_esite>  (1) 
-0.14031995748054443

>  <r_i_glide_evdw>  (1) 
-42.595618859027908

>  <r_i_glide_gscore>  (1) 
-5.8279011679788493

>  <r_i_glide_gscore_strain>  (1) 
0

>  <r_i_glide_hbond>  (1) 
0

>  <r_i_glide_ligand_efficiency>  (1) 
-0.18799681187028547

>  <r_i_glide_ligand_efficiency_ln>  (1) 
-1.3143703171005334

>  <r_i_glide_ligand_efficiency_sa>  (1) 
-0.59056954752057944

>  <r_i_glide_lipo>  (1) 
-2.1413755774302614

>  <r_i_glide_metal>  (1) 
-0

>  <r_i_glide_rewards>  (1) 
-2.0391136460703541

>  <r_lp_Energy>  (1) 
27.993948

>  <r_lp_tautomer_probability>  (1) 
1

>  <s_epik_Chemistry_Notes>  (1) 
This compound has an imine and may undergo hydrolysis. This compound contains an acetal/aminal-like group ( X-CH(R)-Y where X, Y are N, S, or O) that may be acid/base labile, releasing an aldehyde.

>  <s_epik_cmdline>  (1) 
J2VwaWtfcHl0aG9uJywgJy1waHQnLCAnMS4wJywgJy1waCcsICc3LjQnLCAnLXRuJywgJzgnLCAnLW1hJywgJzUwMCcsICctaW1hZScsICc8aW5maWxlLm1hZT4nLCAnLW9tYWUnLCAnPG91dGZpbGUubWFlPic=

>  <s_epik_input>  (1) 
W0NAQEhdMTJbQ0BASF0oW0NIMl0xKVtDQEhdMltOSF1bQ0BdKFtDSDNdKShPW0NAQEhdKFtDSDNdKVtPSF0pU0MoPU5bQ0BASF0zRilbTkhdQyhbQ0gzXSk9Qz1DM1tDSDJdW0NAQEhdKFtDSDNdKVtDQEhdKEMoPU8pW1NIXSlDKD1PKVtPSF0=

>  <s_glide_docking_method>  (1) 
confgen

>  <s_i_glide_gridfile>  (1) 
gpcr_5ht2c_6bqh_protein_autoprepared_prepared

>  <s_lp_Force_Field>  (1) 
S-OPLS

>  <s_lp_Variant>  (1) 
DiffSBDD_82_num_sample_100-2

>  <s_m_source_file>  (1) 
generated__ligand_DiffSBDD_2026-05-06_prepared.sdf

>  <GenAI_Model>  (1) 
DiffSBDD

>  <Protein>  (1) 
GPCR_5HT2C

$$$$
DiffSBDD_18_num_sample_100
     RDKit          3D

  0  0  0  0  0  0  0  0  0  0999 V3000
M  V30 BEGIN CTAB
M  V30 COUNTS 70 72 0 0 1
M  V30 BEGIN ATOM
M  V30 1 O 40.417128 32.944571 61.605314 0
M  V30 2 C 38.839549 27.388875 52.928281 0
M  V30 3 C 38.469732 29.955891 57.839110 0
M  V30 4 C 39.041166 27.887645 51.754345 0
M  V30 5 O 38.649722 32.570560 58.854478 0
M  V30 6 C 39.359903 27.896211 55.348873 0 CFG=2
M  V30 7 C 41.374363 31.140940 66.940450 0
M  V30 8 N 39.067520 28.267332 53.953806 0
M  V30 9 N 39.848889 26.513347 55.424566 0
M  V30 10 C 41.011244 33.988958 63.740803 0
M  V30 11 C 42.714347 30.883867 64.915102 0
M  V30 12 O 40.635279 30.207343 67.247537 0
M  V30 13 O 39.798066 30.013600 51.045198 0
M  V30 14 C 43.835727 31.720046 68.637091 0
M  V30 15 C 39.422156 27.663833 58.468010 0
M  V30 16 C 39.464107 29.235675 51.936168 0
M  V30 17 C 45.336515 31.356752 66.634145 0
M  V30 18 C 42.134570 31.830180 64.145531 0
M  V30 19 C 38.441491 31.640715 59.633847 0
M  V30 20 N 41.076059 32.467462 67.045863 0
M  V30 21 C 38.312843 28.424394 57.706733 0 CFG=2
M  V30 22 C 41.238426 33.929352 62.235574 0 CFG=2
M  V30 23 C 38.119902 27.961923 56.233248 0 CFG=2
M  V30 24 C 37.618106 26.514918 56.133657 0
M  V30 25 O 46.267238 31.621562 67.425759 0 CHG=-1
M  V30 26 C 39.470928 29.637970 53.467068 0
M  V30 27 C 41.067568 33.309082 66.081482 0
M  V30 28 C 38.276859 31.905228 61.134777 0
M  V30 29 C 39.009114 33.162385 61.636675 0
M  V30 30 C 41.067850 35.318252 61.597893 0
M  V30 31 C 41.410592 33.043302 64.622246 0
M  V30 32 C 42.760975 30.875558 66.415096 0 CFG=1
M  V30 33 C 43.902303 31.734601 67.083378 0 CFG=1
M  V30 34 N 38.346596 30.362033 59.238081 0
M  V30 35 N 38.785246 25.674151 55.863699 0
M  V30 36 O 45.467263 30.821227 65.512313 0
M  V30 37 H 38.536677 26.384841 53.177385 0
M  V30 38 H 37.698242 30.467848 57.259401 0
M  V30 39 H 39.433794 30.276918 57.441548 0
M  V30 40 H 38.942414 27.396647 50.796812 0
M  V30 41 H 40.140841 28.562687 55.717206 0
M  V30 42 H 40.185872 26.204192 54.515434 0
M  V30 43 H 40.484837 34.861123 64.104062 0
M  V30 44 H 43.212896 30.057579 64.428679 0
M  V30 45 H 38.705030 30.381915 53.686368 0
M  V30 46 H 44.597063 32.359842 69.085796 0
M  V30 47 H 42.884572 32.085954 69.019230 0
M  V30 48 H 43.979141 30.711111 69.025315 0
M  V30 49 H 40.407057 27.861137 58.043756 0
M  V30 50 H 39.458020 27.947198 59.519250 0
M  V30 51 H 39.262033 26.586385 58.444889 0
M  V30 52 H 42.213527 31.691590 63.079674 0
M  V30 53 H 37.374810 28.185248 58.209783 0
M  V30 54 H 42.267395 33.620537 62.057600 0
M  V30 55 H 37.433111 28.659472 55.764200 0
M  V30 56 H 37.093330 26.170382 57.025513 0
M  V30 57 H 36.933822 26.420775 55.289634 0
M  V30 58 H 40.444445 29.987543 53.812149 0
M  V30 59 H 40.738448 34.335356 66.265189 0
M  V30 60 H 38.611095 31.036229 61.703625 0
M  V30 61 H 37.210071 32.012050 61.329437 0
M  V30 62 H 38.679116 33.367257 62.653611 0
M  V30 63 H 38.735230 34.032444 61.038994 0
M  V30 64 H 41.840168 36.004440 61.946275 0
M  V30 65 H 41.133652 35.263129 60.514614 0
M  V30 66 H 40.103548 35.762325 61.843520 0
M  V30 67 H 42.970970 29.836901 66.678390 0
M  V30 68 H 43.789438 32.769730 66.761079 0
M  V30 69 H 38.176829 29.643860 59.925598 0
M  V30 70 H 38.578153 24.974682 55.153138 0
M  V30 END ATOM
M  V30 BEGIN BOND
M  V30 1 2 4 2
M  V30 2 1 8 2
M  V30 3 1 8 6
M  V30 4 1 9 6
M  V30 5 2 12 7
M  V30 6 1 16 4
M  V30 7 2 16 13
M  V30 8 2 18 11
M  V30 9 2 19 5
M  V30 10 1 20 7
M  V30 11 1 21 3
M  V30 12 1 21 15
M  V30 13 1 22 1
M  V30 14 1 22 10
M  V30 15 1 23 6
M  V30 16 1 23 21
M  V30 17 1 24 23
M  V30 18 1 25 17
M  V30 19 1 26 8
M  V30 20 1 26 16
M  V30 21 2 27 20
M  V30 22 1 28 19
M  V30 23 1 29 1
M  V30 24 1 29 28
M  V30 25 1 30 22
M  V30 26 2 31 10
M  V30 27 1 31 18
M  V30 28 1 31 27
M  V30 29 1 32 7
M  V30 30 1 32 11
M  V30 31 1 33 14
M  V30 32 1 33 17
M  V30 33 1 33 32
M  V30 34 1 34 3
M  V30 35 1 34 19
M  V30 36 1 35 9
M  V30 37 1 35 24
M  V30 38 2 36 17
M  V30 39 1 37 2
M  V30 40 1 38 3
M  V30 41 1 39 3
M  V30 42 1 40 4
M  V30 43 1 6 41 CFG=1
M  V30 44 1 42 9
M  V30 45 1 43 10
M  V30 46 1 44 11
M  V30 47 1 45 26
M  V30 48 1 46 14
M  V30 49 1 47 14
M  V30 50 1 48 14
M  V30 51 1 49 15
M  V30 52 1 50 15
M  V30 53 1 51 15
M  V30 54 1 52 18
M  V30 55 1 21 53 CFG=1
M  V30 56 1 22 54 CFG=1
M  V30 57 1 23 55 CFG=3
M  V30 58 1 56 24
M  V30 59 1 57 24
M  V30 60 1 58 26
M  V30 61 1 59 27
M  V30 62 1 60 28
M  V30 63 1 61 28
M  V30 64 1 62 29
M  V30 65 1 63 29
M  V30 66 1 64 30
M  V30 67 1 65 30
M  V30 68 1 66 30
M  V30 69 1 32 67 CFG=1
M  V30 70 1 33 68 CFG=3
M  V30 71 1 69 34
M  V30 72 1 70 35
M  V30 END BOND
M  V30 END CTAB
M  END
>  <i_epik_Tot_Q>  (1) 
-1

>  <i_epik_Tot_abs_Q>  (1) 
1

>  <i_i_glide_confnum>  (1) 
3726

>  <i_i_glide_lignum>  (1) 
41

>  <i_i_glide_posenum>  (1) 
327

>  <i_i_glide_rotatable_bonds>  (1) 
12

>  <i_lp_mmshare_version>  (1) 
72125

>  <i_m_source_file_index>  (1) 
19

>  <i_f3d_flags>  (1) 
0

>  <num_sample>  (1) 
100

>  <b_lp_Chiralities_Consistent>  (1) 
1

>  <r_epik_Charging_Adjusted_Penalty>  (1) 
0.37971815023500188

>  <r_epik_Ionization_Penalty>  (1) 
0.19445293645399606

>  <r_epik_Ionization_Penalty_Charging>  (1) 
0.18991606969001057

>  <r_epik_Ionization_Penalty_Neutral>  (1) 
0.004536866763985496

>  <r_epik_State_Penalty>  (1) 
0.18980208054499129

>  <r_glide_ring_energy>  (1) 
1.845819541117304

>  <r_i_docking_score>  (1) 
-5.8202509348208693

>  <r_i_glide_ecoul>  (1) 
2.6718676470436433

>  <r_i_glide_eff_state_penalty>  (1) 
0.18980208054499129

>  <r_i_glide_einternal>  (1) 
5.5198471539847507

>  <r_i_glide_emodel>  (1) 
-62.27688704049288

>  <r_i_glide_emodel_strain>  (1) 
3.5919141318192374

>  <r_i_glide_energy>  (1) 
-48.10981201145362

>  <r_i_glide_erotb>  (1) 
0.89642714384868305

>  <r_i_glide_esite>  (1) 
-0.024594828690573063

>  <r_i_glide_evdw>  (1) 
-50.781679658497261

>  <r_i_glide_gscore>  (1) 
-6.0100530153658607

>  <r_i_glide_gscore_strain>  (1) 
0

>  <r_i_glide_hbond>  (1) 
0

>  <r_i_glide_ligand_efficiency>  (1) 
-0.16167363707835747

>  <r_i_glide_ligand_efficiency_ln>  (1) 
-1.2698215089695548

>  <r_i_glide_ligand_efficiency_sa>  (1) 
-0.53383458769692937

>  <r_i_glide_lipo>  (1) 
-3.1779941346725433

>  <r_i_glide_metal>  (1) 
-0

>  <r_i_glide_rewards>  (1) 
-1.5655873599831103

>  <r_lp_Energy>  (1) 
22.943131999999999

>  <r_lp_tautomer_probability>  (1) 
0.98846045845713826

>  <s_epik_Chemistry_Notes>  (1) 
This compound has an imine and may undergo hydrolysis. This compound contains an acetal/aminal-like group ( X-CH(R)-Y where X, Y are N, S, or O) that may be acid/base labile, releasing an aldehyde.

>  <s_epik_cmdline>  (1) 
J2VwaWtfcHl0aG9uJywgJy1waHQnLCAnMS4wJywgJy1waCcsICc3LjQnLCAnLXRuJywgJzgnLCAnLW1hJywgJzUwMCcsICctaW1hZScsICc8aW5maWxlLm1hZT4nLCAnLW9tYWUnLCAnPG91dGZpbGUubWFlPic=

>  <s_epik_input>  (1) 
W09IXUMoPU8pW0NASF0oW0NIM10pW0NAQEhdMVtDSF09W0NIXS9DKFtDSF09TkMxPU8pPVtDSF1cW0NASF0oW0NIM10pT1tDSDJdW0NIMl1DKD1PKVtOSF1bQ0gyXVtDQEhdKFtDSDNdKVtDQEBIXTJbQ0gyXVtOSF1bTkhdW0NASF0ybjNbY0hdW2NIXWMoW09IXSlbY0hdMw==

>  <s_glide_docking_method>  (1) 
confgen

>  <s_i_glide_gridfile>  (1) 
gpcr_5ht2c_6bqh_protein_autoprepared_prepared

>  <s_lp_Force_Field>  (1) 
S-OPLS

>  <s_lp_Variant>  (1) 
DiffSBDD_18_num_sample_100-1

>  <s_m_source_file>  (1) 
generated__ligand_DiffSBDD_2026-05-06_prepared.sdf

>  <GenAI_Model>  (1) 
DiffSBDD

>  <Protein>  (1) 
GPCR_5HT2C

$$$$
DiffSBDD_21_num_sample_100
     RDKit          3D

  0  0  0  0  0  0  0  0  0  0999 V3000
M  V30 BEGIN CTAB
M  V30 COUNTS 40 40 0 0 1
M  V30 BEGIN ATOM
M  V30 1 C 38.429917 25.431366 57.093750 0
M  V30 2 C 37.375382 29.621546 54.349894 0
M  V30 3 C 38.630606 28.755829 54.292120 0 CFG=2
M  V30 4 C 39.861543 29.368964 50.190537 0
M  V30 5 N 39.261565 28.745378 52.960181 0
M  V30 6 N 38.498837 28.167645 51.887297 0
M  V30 7 C 39.452432 26.488252 54.948686 0
M  V30 8 C 39.280559 28.029461 50.653169 0
M  V30 9 C 39.926658 30.018112 52.612478 0
M  V30 10 C 37.927598 24.109297 57.686889 0
M  V30 11 N 38.297519 27.377794 54.710045 0 CHG=1
M  V30 12 C 39.014785 25.208558 55.681056 0
M  V30 13 C 40.732745 29.916396 51.309841 0
M  V30 14 C 39.425667 26.093935 58.061974 0
M  V30 15 H 37.562040 26.086621 57.011051 0
M  V30 16 H 37.577029 30.661580 54.094402 0
M  V30 17 H 36.667403 29.221744 53.632211 0
M  V30 18 H 36.918427 29.621575 55.339904 0
M  V30 19 H 39.351350 29.152544 55.009305 0
M  V30 20 H 39.067410 30.084772 49.984991 0
M  V30 21 H 40.433975 29.246264 49.270928 0
M  V30 22 H 38.131601 27.260096 52.163961 0
M  V30 23 H 39.904261 26.227501 53.990429 0
M  V30 24 H 40.222547 27.010356 55.516561 0
M  V30 25 H 40.082596 27.313984 50.824728 0
M  V30 26 H 38.667403 27.595070 49.873598 0
M  V30 27 H 39.182987 30.806575 52.533507 0
M  V30 28 H 40.587802 30.314547 53.427474 0
M  V30 29 H 38.741154 23.402176 57.852981 0
M  V30 30 H 37.467341 24.289259 58.653610 0
M  V30 31 H 37.184178 23.631898 57.047548 0
M  V30 32 H 37.792669 27.450497 55.581252 0
M  V30 33 H 38.286701 24.679218 55.063781 0
M  V30 34 H 39.867781 24.538706 55.760839 0
M  V30 35 H 41.155410 30.883760 51.037324 0
M  V30 36 H 41.559444 29.221470 51.453470 0
M  V30 37 H 40.331949 25.497315 58.171260 0
M  V30 38 H 39.717266 27.090690 57.732784 0
M  V30 39 H 38.986247 26.208341 59.053501 0
M  V30 40 H 37.686267 26.961151 54.023664 0
M  V30 END ATOM
M  V30 BEGIN BOND
M  V30 1 1 3 2
M  V30 2 1 5 3
M  V30 3 1 6 5
M  V30 4 1 8 4
M  V30 5 1 8 6
M  V30 6 1 9 5
M  V30 7 1 10 1
M  V30 8 1 11 3
M  V30 9 1 11 7
M  V30 10 1 12 1
M  V30 11 1 12 7
M  V30 12 1 13 4
M  V30 13 1 13 9
M  V30 14 1 14 1
M  V30 15 1 15 1
M  V30 16 1 16 2
M  V30 17 1 17 2
M  V30 18 1 18 2
M  V30 19 1 3 19 CFG=1
M  V30 20 1 20 4
M  V30 21 1 21 4
M  V30 22 1 22 6
M  V30 23 1 23 7
M  V30 24 1 24 7
M  V30 25 1 25 8
M  V30 26 1 26 8
M  V30 27 1 27 9
M  V30 28 1 28 9
M  V30 29 1 29 10
M  V30 30 1 30 10
M  V30 31 1 31 10
M  V30 32 1 32 11
M  V30 33 1 33 12
M  V30 34 1 34 12
M  V30 35 1 35 13
M  V30 36 1 36 13
M  V30 37 1 37 14
M  V30 38 1 38 14
M  V30 39 1 39 14
M  V30 40 1 40 11
M  V30 END BOND
M  V30 END CTAB
M  END
>  <i_epik_Tot_Q>  (1) 
1

>  <i_epik_Tot_abs_Q>  (1) 
1

>  <i_i_glide_confnum>  (1) 
41

>  <i_i_glide_lignum>  (1) 
57

>  <i_i_glide_posenum>  (1) 
272

>  <i_i_glide_rotatable_bonds>  (1) 
5

>  <i_lp_mmshare_version>  (1) 
72125

>  <i_m_source_file_index>  (1) 
22

>  <i_f3d_flags>  (1) 
0

>  <num_sample>  (1) 
100

>  <b_lp_Chiralities_Consistent>  (1) 
1

>  <r_epik_Charging_Adjusted_Penalty>  (1) 
0.0010092621186252495

>  <r_epik_Ionization_Penalty>  (1) 
0.001234333594752046

>  <r_epik_Ionization_Penalty_Charging>  (1) 
0.0010092621186252495

>  <r_epik_Ionization_Penalty_Neutral>  (1) 
0.0002250714761267966

>  <r_epik_State_Penalty>  (1) 
-0

>  <r_glide_ring_energy>  (1) 
0.0031473075910615315

>  <r_i_docking_score>  (1) 
-5.8191986553313226

>  <r_i_glide_ecoul>  (1) 
-1.0628760856041504

>  <r_i_glide_eff_state_penalty>  (1) 
-0

>  <r_i_glide_einternal>  (1) 
4.3577062875343477

>  <r_i_glide_emodel>  (1) 
-31.825567107497992

>  <r_i_glide_emodel_strain>  (1) 
0

>  <r_i_glide_energy>  (1) 
-23.683425587421265

>  <r_i_glide_erotb>  (1) 
1.2214352924196943

>  <r_i_glide_esite>  (1) 
0

>  <r_i_glide_evdw>  (1) 
-22.620549501817116

>  <r_i_glide_gscore>  (1) 
-5.8191986553313226

>  <r_i_glide_gscore_strain>  (1) 
0

>  <r_i_glide_hbond>  (1) 
0

>  <r_i_glide_ligand_efficiency>  (1) 
-0.4156570468093802

>  <r_i_glide_ligand_efficiency_ln>  (1) 
-1.5990950755223636

>  <r_i_glide_ligand_efficiency_sa>  (1) 
-1.0017926159175492

>  <r_i_glide_lipo>  (1) 
-2.9514985755001235

>  <r_i_glide_metal>  (1) 
-0

>  <r_i_glide_rewards>  (1) 
-2.7986764843194152

>  <r_lp_Energy>  (1) 
8.4597719999999992

>  <r_lp_tautomer_probability>  (1) 
1

>  <s_epik_Chemistry_Notes>  (1) 
This compound contains an acetal/aminal-like group ( X-CH(R)-Y where X, Y are N, S, or O) that may be acid/base labile, releasing an aldehyde.

>  <s_epik_cmdline>  (1) 
J2VwaWtfcHl0aG9uJywgJy1waHQnLCAnMS4wJywgJy1waCcsICc3LjQnLCAnLXRuJywgJzgnLCAnLW1hJywgJzUwMCcsICctaW1hZScsICc8aW5maWxlLm1hZT4nLCAnLW9tYWUnLCAnPG91dGZpbGUubWFlPic=

>  <s_epik_input>  (1) 
W0NIM11bQ0hdKFtDSDNdKVtDSDJdW0NIMl1bTkhdW0NASF0oW0NIM10pTjFbTkhdW0NIMl1bQ0gyXVtDSDJdW0NIMl0x

>  <s_glide_docking_method>  (1) 
confgen

>  <s_i_glide_gridfile>  (1) 
gpcr_5ht2c_6bqh_protein_autoprepared_prepared

>  <s_lp_Force_Field>  (1) 
S-OPLS

>  <s_lp_Variant>  (1) 
DiffSBDD_21_num_sample_100-1

>  <s_m_source_file>  (1) 
generated__ligand_DiffSBDD_2026-05-06_prepared.sdf

>  <GenAI_Model>  (1) 
DiffSBDD

>  <Protein>  (1) 
GPCR_5HT2C

$$$$
DiffSBDD_74_num_sample_100
     RDKit          3D

  0  0  0  0  0  0  0  0  0  0999 V3000
M  V30 BEGIN CTAB
M  V30 COUNTS 24 24 0 0 1
M  V30 BEGIN ATOM
M  V30 1 C 41.070681 30.569758 50.215392 0
M  V30 2 C 37.415815 30.288051 54.937033 0
M  V30 3 C 38.768999 29.112019 53.106309 0
M  V30 4 C 40.017422 29.193069 56.145934 0
M  V30 5 C 39.467402 28.682447 50.910671 0
M  V30 6 C 38.667453 28.267024 52.027293 0
M  V30 7 S 39.867404 30.421430 52.758823 0
M  V30 8 C 40.165565 29.840593 51.149026 0
M  V30 9 C 38.934554 28.306245 55.518654 0
M  V30 10 C 38.072697 28.988060 54.435799 0 CFG=1
M  V30 11 H 41.203829 30.021458 49.283898 0
M  V30 12 H 40.651018 31.542873 49.962543 0
M  V30 13 H 42.055573 30.725257 50.653427 0
M  V30 14 H 36.651342 30.650104 54.253501 0
M  V30 15 H 36.923842 30.128095 55.896855 0
M  V30 16 H 38.140710 31.090731 55.072322 0
M  V30 17 H 40.638294 28.616156 56.831600 0
M  V30 18 H 40.669591 29.621424 55.388769 0
M  V30 19 H 39.581410 30.015666 56.713002 0
M  V30 20 H 39.491829 28.129143 49.984060 0
M  V30 21 H 38.052995 27.378399 51.996204 0
M  V30 22 H 38.280763 27.962334 56.321199 0
M  V30 23 H 39.391820 27.406838 55.104144 0
M  V30 24 H 37.240703 28.301908 54.268901 0
M  V30 END ATOM
M  V30 BEGIN BOND
M  V30 1 2 6 3
M  V30 2 1 6 5
M  V30 3 1 7 3
M  V30 4 1 8 1
M  V30 5 2 8 5
M  V30 6 1 8 7
M  V30 7 1 9 4
M  V30 8 1 10 2
M  V30 9 1 10 3
M  V30 10 1 10 9
M  V30 11 1 11 1
M  V30 12 1 12 1
M  V30 13 1 13 1
M  V30 14 1 14 2
M  V30 15 1 15 2
M  V30 16 1 16 2
M  V30 17 1 17 4
M  V30 18 1 18 4
M  V30 19 1 19 4
M  V30 20 1 20 5
M  V30 21 1 21 6
M  V30 22 1 22 9
M  V30 23 1 23 9
M  V30 24 1 10 24 CFG=3
M  V30 END BOND
M  V30 END CTAB
M  END
>  <i_epik_Tot_Q>  (1) 
0

>  <i_epik_Tot_abs_Q>  (1) 
0

>  <i_i_glide_confnum>  (1) 
1

>  <i_i_glide_lignum>  (1) 
186

>  <i_i_glide_posenum>  (1) 
231

>  <i_i_glide_rotatable_bonds>  (1) 
2

>  <i_lp_mmshare_version>  (1) 
72125

>  <i_m_source_file_index>  (1) 
75

>  <i_f3d_flags>  (1) 
0

>  <num_sample>  (1) 
100

>  <b_lp_Chiralities_Consistent>  (1) 
1

>  <r_epik_Charging_Adjusted_Penalty>  (1) 
0

>  <r_epik_Ionization_Penalty>  (1) 
0

>  <r_epik_Ionization_Penalty_Charging>  (1) 
0

>  <r_epik_Ionization_Penalty_Neutral>  (1) 
0

>  <r_epik_State_Penalty>  (1) 
-0

>  <r_glide_ring_energy>  (1) 
0

>  <r_i_docking_score>  (1) 
-5.8145074812963209

>  <r_i_glide_ecoul>  (1) 
-0.83592078644783419

>  <r_i_glide_eff_state_penalty>  (1) 
-0

>  <r_i_glide_einternal>  (1) 
1.2688517253471945

>  <r_i_glide_emodel>  (1) 
-30.555006791643549

>  <r_i_glide_emodel_strain>  (1) 
0.00014680133878552937

>  <r_i_glide_energy>  (1) 
-23.022436602878148

>  <r_i_glide_erotb>  (1) 
0.62454345272379397

>  <r_i_glide_esite>  (1) 
0

>  <r_i_glide_evdw>  (1) 
-22.186515816430315

>  <r_i_glide_gscore>  (1) 
-5.8145074812963209

>  <r_i_glide_gscore_strain>  (1) 
0

>  <r_i_glide_hbond>  (1) 
0

>  <r_i_glide_ligand_efficiency>  (1) 
-0.58145074812963204

>  <r_i_glide_ligand_efficiency_ln>  (1) 
-1.7605927834019941

>  <r_i_glide_ligand_efficiency_sa>  (1) 
-1.2526976623154709

>  <r_i_glide_lipo>  (1) 
-2.4877511160207595

>  <r_i_glide_metal>  (1) 
-0

>  <r_i_glide_rewards>  (1) 
-2.7165859092106648

>  <r_lp_Energy>  (1) 
7.9688679999999996

>  <r_lp_tautomer_probability>  (1) 
1

>  <s_epik_cmdline>  (1) 
J2VwaWtfcHl0aG9uJywgJy1waHQnLCAnMS4wJywgJy1waCcsICc3LjQnLCAnLXRuJywgJzgnLCAnLW1hJywgJzUwMCcsICctaW1hZScsICc8aW5maWxlLm1hZT4nLCAnLW9tYWUnLCAnPG91dGZpbGUubWFlPic=

>  <s_epik_input>  (1) 
W0NIM11jKHMxKVtjSF1bY0hdYzFbQ0BIXShbQ0gzXSlbQ0gyXVtDSDNd

>  <s_glide_docking_method>  (1) 
confgen

>  <s_i_glide_gridfile>  (1) 
gpcr_5ht2c_6bqh_protein_autoprepared_prepared

>  <s_lp_Force_Field>  (1) 
S-OPLS

>  <s_lp_Variant>  (1) 
DiffSBDD_74_num_sample_100-1

>  <s_m_source_file>  (1) 
generated__ligand_DiffSBDD_2026-05-06_prepared.sdf

>  <GenAI_Model>  (1) 
DiffSBDD

>  <Protein>  (1) 
GPCR_5HT2C

$$$$
DiffSBDD_47_num_sample_100
     RDKit          3D

  0  0  0  0  0  0  0  0  0  0999 V3000
M  V30 BEGIN CTAB
M  V30 COUNTS 32 32 0 0 1
M  V30 BEGIN ATOM
M  V30 1 S 38.267404 32.122281 55.431086 0
M  V30 2 C 37.662174 29.621541 59.349113 0
M  V30 3 N 38.744099 29.453421 54.999247 0
M  V30 4 C 39.777177 30.336695 52.941913 0
M  V30 5 C 39.103572 30.283236 57.300081 0
M  V30 6 O 39.431588 31.069053 60.824823 0 CHG=-1
M  V30 7 C 39.191930 30.594398 55.787475 0 CFG=2
M  V30 8 C 40.170856 29.627344 51.612405 0 CFG=2
M  V30 9 C 37.702539 29.961641 57.847743 0
M  V30 10 C 40.372583 30.578495 50.420526 0
M  V30 11 O 41.279415 30.421350 49.609746 0
M  V30 12 O 36.922494 31.221086 61.453494 0
M  V30 13 S 37.980350 31.155527 60.346885 0
M  V30 14 C 39.005874 29.319197 53.756631 0
M  V30 15 C 39.154747 28.501663 51.294008 0
M  V30 16 O 39.467401 31.553507 50.376257 0
M  V30 17 O 39.067403 32.021407 49.053498 0
M  V30 18 S 38.472677 27.890343 52.853453 0
M  V30 19 H 37.119204 31.765877 56.028663 0
M  V30 20 H 36.678105 29.238085 59.618213 0
M  V30 21 H 38.396689 28.856428 59.598758 0
M  V30 22 H 40.667351 30.668633 53.464629 0
M  V30 23 H 39.146778 31.211854 52.796022 0
M  V30 24 H 39.780893 29.462390 57.539541 0
M  V30 25 H 39.467404 31.153019 57.840248 0
M  V30 26 H 40.241239 30.806710 55.580552 0
M  V30 27 H 41.126335 29.135358 51.786636 0
M  V30 28 H 37.067326 30.821475 57.676310 0
M  V30 29 H 37.270394 29.133903 57.285758 0
M  V30 30 H 38.329150 28.860055 50.683831 0
M  V30 31 H 39.625683 27.683336 50.748794 0
M  V30 32 H 38.421408 31.361925 48.820814 0
M  V30 END ATOM
M  V30 BEGIN BOND
M  V30 1 1 7 1
M  V30 2 1 7 3
M  V30 3 1 7 5
M  V30 4 1 8 4
M  V30 5 1 9 2
M  V30 6 1 9 5
M  V30 7 1 10 8
M  V30 8 2 11 10
M  V30 9 1 13 2
M  V30 10 1 13 6
M  V30 11 2 13 12
M  V30 12 2 14 3
M  V30 13 1 14 4
M  V30 14 1 15 8
M  V30 15 1 16 10
M  V30 16 1 17 16
M  V30 17 1 18 14
M  V30 18 1 18 15
M  V30 19 1 19 1
M  V30 20 1 20 2
M  V30 21 1 21 2
M  V30 22 1 22 4
M  V30 23 1 23 4
M  V30 24 1 24 5
M  V30 25 1 25 5
M  V30 26 1 7 26 CFG=3
M  V30 27 1 8 27 CFG=1
M  V30 28 1 28 9
M  V30 29 1 29 9
M  V30 30 1 30 15
M  V30 31 1 31 15
M  V30 32 1 32 17
M  V30 END BOND
M  V30 END CTAB
M  END
>  <i_epik_Tot_Q>  (1) 
-1

>  <i_epik_Tot_abs_Q>  (1) 
1

>  <i_i_glide_confnum>  (1) 
181

>  <i_i_glide_lignum>  (1) 
130

>  <i_i_glide_posenum>  (1) 
1

>  <i_i_glide_rotatable_bonds>  (1) 
9

>  <i_lp_mmshare_version>  (1) 
72125

>  <i_m_source_file_index>  (1) 
48

>  <i_f3d_flags>  (1) 
0

>  <num_sample>  (1) 
100

>  <b_lp_Chiralities_Consistent>  (1) 
1

>  <r_epik_Charging_Adjusted_Penalty>  (1) 
0.41068401557064588

>  <r_epik_Ionization_Penalty>  (1) 
0.088233061061265911

>  <r_epik_Ionization_Penalty_Charging>  (1) 
4.1766180419441644e-06

>  <r_epik_Ionization_Penalty_Neutral>  (1) 
0.088228884443223965

>  <r_epik_State_Penalty>  (1) 
0.41067983895260396

>  <r_glide_ring_energy>  (1) 
0

>  <r_i_docking_score>  (1) 
-5.8127965103180577

>  <r_i_glide_ecoul>  (1) 
-8.9341937801018219

>  <r_i_glide_eff_state_penalty>  (1) 
0.41067983895260396

>  <r_i_glide_einternal>  (1) 
3.9547349535094902

>  <r_i_glide_emodel>  (1) 
-53.429654408788892

>  <r_i_glide_emodel_strain>  (1) 
1.1646774049906163

>  <r_i_glide_energy>  (1) 
-39.991036973385576

>  <r_i_glide_erotb>  (1) 
1.1409563005043168

>  <r_i_glide_esite>  (1) 
-0.086734005048378277

>  <r_i_glide_evdw>  (1) 
-31.056843193283758

>  <r_i_glide_gscore>  (1) 
-6.223476349270662

>  <r_i_glide_gscore_strain>  (1) 
0

>  <r_i_glide_hbond>  (1) 
-0.71999999999999997

>  <r_i_glide_ligand_efficiency>  (1) 
-0.32293313946211433

>  <r_i_glide_ligand_efficiency_ln>  (1) 
-1.4941493697922335

>  <r_i_glide_ligand_efficiency_sa>  (1) 
-0.84632424615019752

>  <r_i_glide_lipo>  (1) 
-1.3226812449187135

>  <r_i_glide_metal>  (1) 
-0

>  <r_i_glide_rewards>  (1) 
-2.3420461731284257

>  <r_lp_Energy>  (1) 
-2.1524229999999998

>  <r_lp_tautomer_probability>  (1) 
0.49990026989615577

>  <s_epik_Chemistry_Notes>  (1) 
This compound has an imine and may undergo hydrolysis. This compound contains an acetal/aminal-like group ( X-CH(R)-Y where X, Y are N, S, or O) that may be acid/base labile, releasing an aldehyde.

>  <s_epik_cmdline>  (1) 
J2VwaWtfcHl0aG9uJywgJy1waHQnLCAnMS4wJywgJy1waCcsICc3LjQnLCAnLXRuJywgJzgnLCAnLW1hJywgJzUwMCcsICctaW1hZScsICc8aW5maWxlLm1hZT4nLCAnLW9tYWUnLCAnPG91dGZpbGUubWFlPic=

>  <s_epik_input>  (1) 
W09IXVtTQEBdKD1PKVtDSDJdW0NIMl1bQ0gyXVtDQEhdKFtTSF0pL049QyhTW0NIMl0xKVxbQ0gyXVtDQEBIXTFDKD1PKU9bT0hd

>  <s_glide_docking_method>  (1) 
confgen

>  <s_i_glide_gridfile>  (1) 
gpcr_5ht2c_6bqh_protein_autoprepared_prepared

>  <s_lp_Force_Field>  (1) 
S-OPLS

>  <s_lp_Variant>  (1) 
DiffSBDD_47_num_sample_100-2

>  <s_m_source_file>  (1) 
generated__ligand_DiffSBDD_2026-05-06_prepared.sdf

>  <GenAI_Model>  (1) 
DiffSBDD

>  <Protein>  (1) 
GPCR_5HT2C

$$$$
DiffSBDD_74_num_sample_100
     RDKit          3D

  0  0  0  0  0  0  0  0  0  0999 V3000
M  V30 BEGIN CTAB
M  V30 COUNTS 24 24 0 0 1
M  V30 BEGIN ATOM
M  V30 1 C 40.700688 30.254979 49.947201 0
M  V30 2 C 37.481474 30.406713 54.952084 0
M  V30 3 C 38.895788 29.151101 53.303698 0
M  V30 4 C 39.180612 28.975109 57.185068 0
M  V30 5 C 39.278477 28.443872 51.102012 0
M  V30 6 C 38.667461 28.166095 52.371656 0
M  V30 7 S 39.867404 30.421430 52.627889 0
M  V30 8 C 39.959938 29.637454 51.084563 0
M  V30 9 C 39.594681 29.180243 55.720838 0
M  V30 10 C 38.416392 29.205795 54.723372 0 CFG=1
M  V30 11 H 40.665472 29.621412 49.060746 0
M  V30 12 H 40.265100 31.220379 49.688095 0
M  V30 13 H 41.746398 30.421404 50.207845 0
M  V30 14 H 36.638719 30.384985 54.262181 0
M  V30 15 H 37.067404 30.412066 55.959505 0
M  V30 16 H 37.999671 31.355260 54.808725 0
M  V30 17 H 40.059397 28.878055 57.822947 0
M  V30 18 H 38.598565 29.816209 57.561494 0
M  V30 19 H 38.583153 28.070939 57.304430 0
M  V30 20 H 39.191337 27.771184 50.260920 0
M  V30 21 H 38.090896 27.269695 52.549782 0
M  V30 22 H 40.265574 28.363017 55.453502 0
M  V30 23 H 40.181695 30.094813 55.629579 0
M  V30 24 H 37.825353 28.306316 54.901876 0
M  V30 END ATOM
M  V30 BEGIN BOND
M  V30 1 2 6 3
M  V30 2 1 6 5
M  V30 3 1 7 3
M  V30 4 1 8 1
M  V30 5 2 8 5
M  V30 6 1 8 7
M  V30 7 1 9 4
M  V30 8 1 10 2
M  V30 9 1 10 3
M  V30 10 1 10 9
M  V30 11 1 11 1
M  V30 12 1 12 1
M  V30 13 1 13 1
M  V30 14 1 14 2
M  V30 15 1 15 2
M  V30 16 1 16 2
M  V30 17 1 17 4
M  V30 18 1 18 4
M  V30 19 1 19 4
M  V30 20 1 20 5
M  V30 21 1 21 6
M  V30 22 1 22 9
M  V30 23 1 23 9
M  V30 24 1 10 24 CFG=1
M  V30 END BOND
M  V30 END CTAB
M  END
>  <i_epik_Tot_Q>  (1) 
0

>  <i_epik_Tot_abs_Q>  (1) 
0

>  <i_i_glide_confnum>  (1) 
1

>  <i_i_glide_lignum>  (1) 
186

>  <i_i_glide_posenum>  (1) 
57

>  <i_i_glide_rotatable_bonds>  (1) 
2

>  <i_lp_mmshare_version>  (1) 
72125

>  <i_m_source_file_index>  (1) 
75

>  <i_f3d_flags>  (1) 
0

>  <num_sample>  (1) 
100

>  <b_lp_Chiralities_Consistent>  (1) 
1

>  <r_epik_Charging_Adjusted_Penalty>  (1) 
0

>  <r_epik_Ionization_Penalty>  (1) 
0

>  <r_epik_Ionization_Penalty_Charging>  (1) 
0

>  <r_epik_Ionization_Penalty_Neutral>  (1) 
0

>  <r_epik_State_Penalty>  (1) 
-0

>  <r_glide_ring_energy>  (1) 
0

>  <r_i_docking_score>  (1) 
-5.8106677544343164

>  <r_i_glide_ecoul>  (1) 
-0.73145924724558209

>  <r_i_glide_eff_state_penalty>  (1) 
-0

>  <r_i_glide_einternal>  (1) 
0.84481656396545102

>  <r_i_glide_emodel>  (1) 
-30.83935817626973

>  <r_i_glide_emodel_strain>  (1) 
0

>  <r_i_glide_energy>  (1) 
-23.10001694238214

>  <r_i_glide_erotb>  (1) 
0.62454345272379397

>  <r_i_glide_esite>  (1) 
0

>  <r_i_glide_evdw>  (1) 
-22.368557695136559

>  <r_i_glide_gscore>  (1) 
-5.8106677544343164

>  <r_i_glide_gscore_strain>  (1) 
0

>  <r_i_glide_hbond>  (1) 
0

>  <r_i_glide_ligand_efficiency>  (1) 
-0.58106677544343166

>  <r_i_glide_ligand_efficiency_ln>  (1) 
-1.75943014057709

>  <r_i_glide_ligand_efficiency_sa>  (1) 
-1.251870418240296

>  <r_i_glide_lipo>  (1) 
-2.374768379839554

>  <r_i_glide_metal>  (1) 
-0

>  <r_i_glide_rewards>  (1) 
-2.8322960554748908

>  <r_lp_Energy>  (1) 
7.9688679999999996

>  <r_lp_tautomer_probability>  (1) 
1

>  <s_epik_cmdline>  (1) 
J2VwaWtfcHl0aG9uJywgJy1waHQnLCAnMS4wJywgJy1waCcsICc3LjQnLCAnLXRuJywgJzgnLCAnLW1hJywgJzUwMCcsICctaW1hZScsICc8aW5maWxlLm1hZT4nLCAnLW9tYWUnLCAnPG91dGZpbGUubWFlPic=

>  <s_epik_input>  (1) 
W0NIM11jKHMxKVtjSF1bY0hdYzFbQ0BIXShbQ0gzXSlbQ0gyXVtDSDNd

>  <s_glide_docking_method>  (1) 
confgen

>  <s_i_glide_gridfile>  (1) 
gpcr_5ht2c_6bqh_protein_autoprepared_prepared

>  <s_lp_Force_Field>  (1) 
S-OPLS

>  <s_lp_Variant>  (1) 
DiffSBDD_74_num_sample_100-1

>  <s_m_source_file>  (1) 
generated__ligand_DiffSBDD_2026-05-06_prepared.sdf

>  <GenAI_Model>  (1) 
DiffSBDD

>  <Protein>  (1) 
GPCR_5HT2C

$$$$
DiffSBDD_1_num_sample_100
     RDKit          3D

  0  0  0  0  0  0  0  0  0  0999 V3000
M  V30 BEGIN CTAB
M  V30 COUNTS 63 66 0 0 1
M  V30 BEGIN ATOM
M  V30 1 C 38.706545 25.990689 56.788462 0
M  V30 2 C 38.184150 34.070791 59.626258 0
M  V30 3 O 37.236807 24.393272 56.227616 0
M  V30 4 C 38.206754 32.175152 57.938660 0 CFG=1
M  V30 5 C 39.531410 27.202369 56.581691 0
M  V30 6 C 37.673251 29.873775 57.424674 0
M  V30 7 C 35.737479 32.995316 61.317823 0
M  V30 8 C 37.929149 36.168992 60.589318 0
M  V30 9 N 36.598687 35.665084 60.174706 0 CHG=1
M  V30 10 C 38.827311 31.561968 54.246202 0
M  V30 11 C 39.419375 27.946583 55.246714 0
M  V30 12 C 35.710970 33.336237 59.818445 0 CFG=2
M  V30 13 C 36.735046 34.419973 59.382439 0 CFG=2
M  V30 14 C 38.102289 30.098568 55.949641 0 CFG=2
M  V30 15 C 39.616647 30.249099 54.096164 0
M  V30 16 C 37.929718 25.488191 55.878355 0
M  V30 17 N 38.354714 30.778467 58.351171 0
M  V30 18 C 38.831927 33.081231 58.984419 0
M  V30 19 O 40.295001 27.634458 57.444967 0
M  V30 20 C 34.297186 33.626988 59.300132 0
M  V30 21 C 37.636527 24.246065 57.649641 0
M  V30 22 C 38.819253 32.376159 56.554293 0
M  V30 23 C 38.853459 34.952621 60.636204 0
M  V30 24 N 38.135507 31.522063 55.550177 0 CFG=1 CHG=1
M  V30 25 O 37.066010 29.640231 55.113434 0
M  V30 26 C 38.752201 25.315212 58.077450 0
M  V30 27 C 39.416857 29.488398 55.418236 0 CFG=2
M  V30 28 O 35.467311 31.621216 61.453490 0
M  V30 29 H 37.164238 32.421553 57.801378 0
M  V30 30 H 37.823071 28.842154 57.730308 0
M  V30 31 H 36.597138 30.024032 57.512593 0
M  V30 32 H 35.004012 33.581663 61.873719 0
M  V30 33 H 36.714516 33.177453 61.764942 0
M  V30 34 H 37.884419 36.699652 61.541958 0
M  V30 35 H 38.267241 36.870640 59.828929 0
M  V30 36 H 36.076797 36.364315 59.664780 0
M  V30 37 H 39.468900 32.421377 54.206587 0
M  V30 38 H 38.093833 31.676780 53.453621 0
M  V30 39 H 38.537315 27.660931 54.680644 0
M  V30 40 H 40.267418 27.621111 54.653645 0
M  V30 41 H 35.972216 32.408675 59.323789 0
M  V30 42 H 36.622112 34.657273 58.323781 0
M  V30 43 H 40.668011 30.430820 53.884325 0
M  V30 44 H 39.215009 29.682066 53.255378 0
M  V30 45 H 37.753107 25.829608 54.870380 0
M  V30 46 H 37.944494 30.656636 59.273764 0
M  V30 47 H 39.867309 32.904546 59.212712 0
M  V30 48 H 33.816675 34.421429 59.853419 0
M  V30 49 H 34.306849 33.928921 58.254135 0
M  V30 50 H 33.665615 32.744315 59.380307 0
M  V30 51 H 36.746212 24.421427 58.253321 0
M  V30 52 H 37.967373 23.226951 57.853159 0
M  V30 53 H 38.733113 33.422545 56.255517 0
M  V30 54 H 39.877761 32.135741 56.580380 0
M  V30 55 H 38.826979 34.476380 61.617087 0
M  V30 56 H 39.888116 35.187283 60.379323 0
M  V30 57 H 36.243395 29.753685 55.573673 0
M  V30 58 H 39.745190 24.894448 58.239548 0
M  V30 59 H 38.447076 25.957891 58.903643 0
M  V30 60 H 40.225604 29.786149 56.087064 0
M  V30 61 H 34.636272 31.437314 61.038065 0
M  V30 62 H 36.093378 35.431917 61.016232 0
M  V30 63 H 37.182819 31.864486 55.471059 0
M  V30 END ATOM
M  V30 BEGIN BOND
M  V30 1 1 5 1
M  V30 2 1 9 8
M  V30 3 1 11 5
M  V30 4 1 12 7
M  V30 5 1 13 2
M  V30 6 1 13 9
M  V30 7 1 13 12
M  V30 8 1 14 6
M  V30 9 1 15 10
M  V30 10 2 16 1
M  V30 11 1 16 3
M  V30 12 1 17 4
M  V30 13 1 17 6
M  V30 14 2 18 2
M  V30 15 1 18 4
M  V30 16 2 19 5
M  V30 17 1 20 12
M  V30 18 1 21 3
M  V30 19 1 22 4
M  V30 20 1 23 2
M  V30 21 1 23 8
M  V30 22 1 24 10
M  V30 23 1 24 14
M  V30 24 1 24 22
M  V30 25 1 14 25 CFG=3
M  V30 26 1 26 1
M  V30 27 1 26 21
M  V30 28 1 27 11
M  V30 29 1 27 14
M  V30 30 1 27 15
M  V30 31 1 28 7
M  V30 32 1 4 29 CFG=3
M  V30 33 1 30 6
M  V30 34 1 31 6
M  V30 35 1 32 7
M  V30 36 1 33 7
M  V30 37 1 34 8
M  V30 38 1 35 8
M  V30 39 1 36 9
M  V30 40 1 37 10
M  V30 41 1 38 10
M  V30 42 1 39 11
M  V30 43 1 40 11
M  V30 44 1 12 41 CFG=3
M  V30 45 1 13 42 CFG=3
M  V30 46 1 43 15
M  V30 47 1 44 15
M  V30 48 1 45 16
M  V30 49 1 46 17
M  V30 50 1 47 18
M  V30 51 1 48 20
M  V30 52 1 49 20
M  V30 53 1 50 20
M  V30 54 1 51 21
M  V30 55 1 52 21
M  V30 56 1 53 22
M  V30 57 1 54 22
M  V30 58 1 55 23
M  V30 59 1 56 23
M  V30 60 1 57 25
M  V30 61 1 58 26
M  V30 62 1 59 26
M  V30 63 1 27 60 CFG=1
M  V30 64 1 61 28
M  V30 65 1 62 9
M  V30 66 1 24 63 CFG=3
M  V30 END BOND
M  V30 END CTAB
M  END
>  <i_epik_Tot_Q>  (1) 
2

>  <i_epik_Tot_abs_Q>  (1) 
2

>  <i_i_glide_confnum>  (1) 
171

>  <i_i_glide_lignum>  (1) 
18

>  <i_i_glide_posenum>  (1) 
11

>  <i_i_glide_rotatable_bonds>  (1) 
8

>  <i_lp_mmshare_version>  (1) 
72125

>  <i_m_source_file_index>  (1) 
2

>  <i_f3d_flags>  (1) 
0

>  <num_sample>  (1) 
100

>  <b_lp_Chiralities_Consistent>  (1) 
1

>  <r_epik_Charging_Adjusted_Penalty>  (1) 
2.3622130296898831

>  <r_epik_Ionization_Penalty>  (1) 
1.4312966064593899

>  <r_epik_Ionization_Penalty_Charging>  (1) 
1.1852885594971458

>  <r_epik_Ionization_Penalty_Neutral>  (1) 
0.24600804696224418

>  <r_epik_State_Penalty>  (1) 
1.176924470192737

>  <r_glide_ring_energy>  (1) 
0

>  <r_i_docking_score>  (1) 
-5.8091166289441123

>  <r_i_glide_ecoul>  (1) 
-6.8346486857349049

>  <r_i_glide_eff_state_penalty>  (1) 
1.176924470192737

>  <r_i_glide_einternal>  (1) 
21.527998499150186

>  <r_i_glide_emodel>  (1) 
-52.966198456610869

>  <r_i_glide_emodel_strain>  (1) 
0.68783166941467755

>  <r_i_glide_energy>  (1) 
-38.52792241456536

>  <r_i_glide_erotb>  (1) 
0.75687532201182384

>  <r_i_glide_esite>  (1) 
-0.12082103891716128

>  <r_i_glide_evdw>  (1) 
-31.693273728830455

>  <r_i_glide_gscore>  (1) 
-6.9860410991368491

>  <r_i_glide_gscore_strain>  (1) 
0

>  <r_i_glide_hbond>  (1) 
-0.33312804760398318

>  <r_i_glide_ligand_efficiency>  (1) 
-0.2074684510337183

>  <r_i_glide_ligand_efficiency_ln>  (1) 
-1.3409146810359556

>  <r_i_glide_ligand_efficiency_sa>  (1) 
-0.62999641042111498

>  <r_i_glide_lipo>  (1) 
-2.4858479309266706

>  <r_i_glide_metal>  (1) 
-0

>  <r_i_glide_rewards>  (1) 
-2.1932584143990992

>  <r_lp_Energy>  (1) 
23.60812

>  <s_epik_cmdline>  (1) 
J2VwaWtfcHl0aG9uJywgJy1waHQnLCAnMS4wJywgJy1waCcsICc3LjQnLCAnLXRuJywgJzgnLCAnLW1hJywgJzUwMCcsICctaW1hZScsICc8aW5maWxlLm1hZT4nLCAnLW9tYWUnLCAnPG91dGZpbGUubWFlPic=

>  <s_epik_input>  (1) 
W0NIMl0xW0NIMl1PW0NIXT1DMUMoPU8pW0NIMl1bQ0BIXTJbQ0gyXVtDSDJdTihbQ0BAXTIzW09IXSlbQ0gyXVtDQEBIXShbTkhdW0NIMl0zKS9bQ0hdPUM0XFtDQEBIXShbTkhdW0NIMl1bQ0gyXTQpW0NASF0oW0NIM10pW0NIMl1bT0hd

>  <s_glide_docking_method>  (1) 
confgen

>  <s_i_glide_gridfile>  (1) 
gpcr_5ht2c_6bqh_protein_autoprepared_prepared

>  <s_lp_Force_Field>  (1) 
S-OPLS

>  <s_lp_Variant>  (1) 
DiffSBDD_1_num_sample_100-12

>  <s_m_source_file>  (1) 
generated__ligand_DiffSBDD_2026-05-06_prepared.sdf

>  <GenAI_Model>  (1) 
DiffSBDD

>  <Protein>  (1) 
GPCR_5HT2C

$$$$
DiffSBDD_60_num_sample_100
     RDKit          3D

  0  0  0  0  0  0  0  0  0  0999 V3000
M  V30 BEGIN CTAB
M  V30 COUNTS 75 77 0 0 1
M  V30 BEGIN ATOM
M  V30 1 C 41.737073 29.844789 66.539343 0
M  V30 2 C 39.484946 28.620604 50.934215 0
M  V30 3 C 39.883512 29.793975 51.600004 0
M  V30 4 C 40.272246 30.036831 60.724659 0
M  V30 5 N 42.475280 27.981676 65.497536 0
M  V30 6 C 40.856465 32.427437 65.216446 0
M  V30 7 C 39.739915 27.772104 56.196113 0
M  V30 8 C 39.181063 27.843017 59.920978 0
M  V30 9 C 39.288057 29.355341 59.757318 0 CFG=2
M  V30 10 C 41.636638 28.299313 63.223758 0
M  V30 11 C 39.272554 29.246251 56.086484 0 CFG=1
M  V30 12 O 41.922707 31.349032 62.654194 0
M  V30 13 C 38.297221 31.305609 57.436026 0 CFG=1
M  V30 14 C 39.040402 32.315785 56.542368 0
M  V30 15 C 39.961543 29.934721 62.237720 0 CFG=1
M  V30 16 N 40.267404 28.580088 62.751815 0 CHG=1
M  V30 17 C 38.170476 29.361464 55.001795 0
M  V30 18 C 41.801693 28.750365 64.637293 0
M  V30 19 C 40.504809 31.057709 64.605214 0 CFG=1
M  V30 20 C 40.591893 31.105069 63.053761 0 CFG=1
M  V30 21 O 40.667406 30.705547 50.961941 0
M  V30 22 C 39.467406 30.029919 52.924600 0
M  V30 23 C 41.310243 29.952022 65.247448 0
M  V30 24 C 37.182526 32.646654 59.150425 0
M  V30 25 C 37.467445 34.136798 58.950991 0
M  V30 26 C 38.667401 27.684180 51.589529 0
M  V30 27 C 38.776806 29.817558 57.450367 0 CFG=2
M  V30 28 O 39.777214 29.621506 58.444861 0
M  V30 29 N 42.417664 28.672669 66.642498 0
M  V30 30 C 41.139574 27.581693 56.794366 0
M  V30 31 C 38.641257 29.095737 53.580842 0
M  V30 32 C 38.242203 27.920043 52.911026 0
M  V30 33 O 38.275229 31.823286 58.769414 0
M  V30 34 H 41.608472 30.504445 67.385160 0
M  V30 35 H 39.802519 28.439585 49.917814 0
M  V30 36 H 41.275227 29.673363 60.514809 0
M  V30 37 H 40.273907 31.094675 60.462303 0
M  V30 38 H 40.657061 32.454246 66.287480 0
M  V30 39 H 40.267438 33.221499 64.760282 0
M  V30 40 H 41.909383 32.673891 65.075407 0
M  V30 41 H 39.776868 27.327720 55.202049 0
M  V30 42 H 39.009561 27.181356 56.748892 0
M  V30 43 H 38.667413 27.621430 60.852085 0
M  V30 44 H 40.160625 27.366224 59.926651 0
M  V30 45 H 38.595371 27.392884 59.120614 0
M  V30 46 H 38.294294 29.772888 59.920604 0
M  V30 47 H 42.388745 28.737885 62.573602 0
M  V30 48 H 41.774380 27.221863 63.196603 0
M  V30 49 H 40.131237 29.834090 55.763348 0
M  V30 50 H 42.244508 32.098960 63.133228 0
M  V30 51 H 37.300825 31.221430 57.034245 0
M  V30 52 H 39.407355 31.900237 55.607979 0
M  V30 53 H 39.867431 32.771525 57.069364 0
M  V30 54 H 38.371762 33.129351 56.263546 0
M  V30 55 H 38.880590 30.034519 62.348608 0
M  V30 56 H 39.639606 28.417014 63.536879 0
M  V30 57 H 37.356326 28.681572 55.240072 0
M  V30 58 H 37.723586 30.354718 54.990266 0
M  V30 59 H 39.467393 30.864439 64.851010 0
M  V30 60 H 40.044735 31.996061 62.739679 0
M  V30 61 H 39.772911 30.932984 53.432677 0
M  V30 62 H 37.013784 32.473725 60.213237 0
M  V30 63 H 36.267403 32.354285 58.653501 0
M  V30 64 H 36.661433 34.742039 59.366166 0
M  V30 65 H 37.548870 34.395991 57.897449 0
M  V30 66 H 38.391474 34.421430 59.453507 0
M  V30 67 H 38.357887 26.789318 51.074947 0
M  V30 68 H 37.912194 29.211362 57.729060 0
M  V30 69 H 42.847765 28.326554 67.489707 0
M  V30 70 H 41.467402 26.554530 56.652498 0
M  V30 71 H 41.180519 27.773897 57.862381 0
M  V30 72 H 41.866267 28.237003 56.315377 0
M  V30 73 H 37.606890 27.201026 53.408839 0
M  V30 74 H 40.814129 30.513659 50.049169 0
M  V30 75 H 40.037685 27.916268 62.028129 0
M  V30 END ATOM
M  V30 BEGIN BOND
M  V30 1 2 3 2
M  V30 2 1 9 4
M  V30 3 1 9 8
M  V30 4 1 11 7
M  V30 5 1 14 13
M  V30 6 1 15 4
M  V30 7 1 16 10
M  V30 8 1 16 15
M  V30 9 1 17 11
M  V30 10 2 18 5
M  V30 11 1 18 10
M  V30 12 1 19 6
M  V30 13 1 20 12
M  V30 14 1 20 15
M  V30 15 1 20 19
M  V30 16 1 21 3
M  V30 17 1 22 3
M  V30 18 2 23 1
M  V30 19 1 23 18
M  V30 20 1 23 19
M  V30 21 1 25 24
M  V30 22 1 26 2
M  V30 23 1 27 11
M  V30 24 1 27 13
M  V30 25 1 28 9
M  V30 26 1 28 27
M  V30 27 1 29 1
M  V30 28 1 29 5
M  V30 29 1 30 7
M  V30 30 1 31 17
M  V30 31 2 31 22
M  V30 32 2 32 26
M  V30 33 1 32 31
M  V30 34 1 33 13
M  V30 35 1 33 24
M  V30 36 1 34 1
M  V30 37 1 35 2
M  V30 38 1 36 4
M  V30 39 1 37 4
M  V30 40 1 38 6
M  V30 41 1 39 6
M  V30 42 1 40 6
M  V30 43 1 41 7
M  V30 44 1 42 7
M  V30 45 1 43 8
M  V30 46 1 44 8
M  V30 47 1 45 8
M  V30 48 1 9 46 CFG=3
M  V30 49 1 47 10
M  V30 50 1 48 10
M  V30 51 1 11 49 CFG=3
M  V30 52 1 50 12
M  V30 53 1 13 51 CFG=3
M  V30 54 1 52 14
M  V30 55 1 53 14
M  V30 56 1 54 14
M  V30 57 1 15 55 CFG=3
M  V30 58 1 56 16
M  V30 59 1 57 17
M  V30 60 1 58 17
M  V30 61 1 19 59 CFG=3
M  V30 62 1 20 60 CFG=3
M  V30 63 1 61 22
M  V30 64 1 62 24
M  V30 65 1 63 24
M  V30 66 1 64 25
M  V30 67 1 65 25
M  V30 68 1 66 25
M  V30 69 1 67 26
M  V30 70 1 27 68 CFG=1
M  V30 71 1 69 29
M  V30 72 1 70 30
M  V30 73 1 71 30
M  V30 74 1 72 30
M  V30 75 1 73 32
M  V30 76 1 74 21
M  V30 77 1 75 16
M  V30 END BOND
M  V30 END CTAB
M  END
>  <i_epik_Tot_Q>  (1) 
1

>  <i_epik_Tot_abs_Q>  (1) 
1

>  <i_i_glide_confnum>  (1) 
134

>  <i_i_glide_lignum>  (1) 
152

>  <i_i_glide_posenum>  (1) 
234

>  <i_i_glide_rotatable_bonds>  (1) 
13

>  <i_lp_mmshare_version>  (1) 
72125

>  <i_m_source_file_index>  (1) 
61

>  <i_f3d_flags>  (1) 
0

>  <num_sample>  (1) 
100

>  <b_lp_Chiralities_Consistent>  (1) 
1

>  <r_epik_Charging_Adjusted_Penalty>  (1) 
0.78957387433993831

>  <r_epik_Ionization_Penalty>  (1) 
0.1824149004180404

>  <r_epik_Ionization_Penalty_Charging>  (1) 
0.18078284225256142

>  <r_epik_Ionization_Penalty_Neutral>  (1) 
0.0016320581654789871

>  <r_epik_State_Penalty>  (1) 
0.60879103208737684

>  <r_glide_ring_energy>  (1) 
0

>  <r_i_docking_score>  (1) 
-5.8088219841070465

>  <r_i_glide_ecoul>  (1) 
-7.878582491314118

>  <r_i_glide_eff_state_penalty>  (1) 
0.60879103208737684

>  <r_i_glide_einternal>  (1) 
5.5994891433751164

>  <r_i_glide_emodel>  (1) 
-65.46690485222102

>  <r_i_glide_emodel_strain>  (1) 
2.3465224496549126

>  <r_i_glide_energy>  (1) 
-46.629051199039807

>  <r_i_glide_erotb>  (1) 
0.85380530184711001

>  <r_i_glide_esite>  (1) 
-0.033439029667851825

>  <r_i_glide_evdw>  (1) 
-38.750468707725688

>  <r_i_glide_gscore>  (1) 
-6.4176130161944229

>  <r_i_glide_gscore_strain>  (1) 
0

>  <r_i_glide_hbond>  (1) 
-0.12253822194065786

>  <r_i_glide_ligand_efficiency>  (1) 
-0.17602490860930445

>  <r_i_glide_ligand_efficiency_ln>  (1) 
-1.2918519327948315

>  <r_i_glide_ligand_efficiency_sa>  (1) 
-0.56460593729872199

>  <r_i_glide_lipo>  (1) 
-3.3883118806783541

>  <r_i_glide_metal>  (1) 
-0

>  <r_i_glide_rewards>  (1) 
-0.60781837667126792

>  <r_lp_Energy>  (1) 
26.970752999999998

>  <r_lp_tautomer_probability>  (1) 
0.49999999999868239

>  <s_epik_cmdline>  (1) 
J2VwaWtfcHl0aG9uJywgJy1waHQnLCAnMS4wJywgJy1waCcsICc3LjQnLCAnLXRuJywgJzgnLCAnLW1hJywgJzUwMCcsICctaW1hZScsICc8aW5maWxlLm1hZT4nLCAnLW9tYWUnLCAnPG91dGZpbGUubWFlPic=

>  <s_epik_input>  (1) 
bjFbbkhdW2NIXWMoYzEyKVtDQEBIXShbQ0gzXSlbQ0BASF0oW09IXSlbQ0BIXShbTkhdW0NIMl0yKVtDSDJdW0NASF0oW0NIM10pT1tDQEBIXShbQ0BIXShbQ0gzXSlPW0NIMl1bQ0gzXSlbQ0BASF0oW0NIMl1bQ0gzXSlbQ0gyXUMoPVtDSF0zKVtDSDJdW0NIXT1bQ0hdQzM9Tw==

>  <s_glide_docking_method>  (1) 
confgen

>  <s_i_glide_gridfile>  (1) 
gpcr_5ht2c_6bqh_protein_autoprepared_prepared

>  <s_lp_Force_Field>  (1) 
S-OPLS

>  <s_lp_Variant>  (1) 
DiffSBDD_60_num_sample_100-1

>  <s_m_source_file>  (1) 
generated__ligand_DiffSBDD_2026-05-06_prepared.sdf

>  <GenAI_Model>  (1) 
DiffSBDD

>  <Protein>  (1) 
GPCR_5HT2C

$$$$
DiffSBDD_90_num_sample_100
     RDKit          3D

  0  0  0  0  0  0  0  0  0  0999 V3000
M  V30 BEGIN CTAB
M  V30 COUNTS 85 88 0 0 1
M  V30 BEGIN ATOM
M  V30 1 C 41.067624 29.118215 61.645722 0
M  V30 2 O 37.867453 28.623130 52.374503 0
M  V30 3 F 42.384377 36.022731 66.253484 0
M  V30 4 C 38.511107 34.145953 60.896511 0 CFG=1
M  V30 5 C 38.146179 26.320797 55.237282 0 CFG=2
M  V30 6 C 38.030658 28.117788 56.862046 0 CFG=1
M  V30 7 C 34.944572 33.341029 61.453787 0
M  V30 8 C 37.738847 29.265957 59.090114 0
M  V30 9 C 37.027595 34.043233 60.393300 0
M  V30 10 N 37.266212 27.715221 53.329294 0
M  V30 11 C 42.128065 33.854516 65.439233 0
M  V30 12 C 36.558194 35.280194 59.594874 0
M  V30 13 C 37.661002 26.644354 56.661048 0
M  V30 14 C 37.867285 28.797321 55.497782 0
M  V30 15 O 40.267644 25.891740 54.253288 0
M  V30 16 N 40.667473 30.435017 61.187914 0
M  V30 17 C 37.220566 28.739786 57.977088 0
M  V30 18 F 40.379564 35.235789 66.146682 0
M  V30 19 C 40.593900 35.034840 63.183301 0 CFG=2
M  V30 20 N 40.569369 31.297947 62.357080 0 CHG=1
M  V30 21 C 41.262282 32.984052 64.517726 0
M  V30 22 C 39.363209 30.358221 60.534929 0
M  V30 23 O 36.215875 33.968472 61.566943 0
M  V30 24 C 36.858091 32.810104 59.473893 0
M  V30 25 C 41.203018 28.259627 60.394108 0
M  V30 26 C 41.405945 35.902878 64.137290 0
M  V30 27 C 39.220927 29.340832 59.405228 0 CFG=1
M  V30 28 C 38.167086 27.689239 54.475851 0 CFG=1
M  V30 29 C 38.926284 35.571195 61.333778 0
M  V30 30 O 39.867450 25.048603 56.275945 0 CHG=-1
M  V30 31 C 40.366455 32.730192 62.072361 0 CFG=1
M  V30 32 C 39.800947 28.000015 59.849231 0
M  V30 33 O 37.268010 25.368004 54.659835 0
M  V30 34 C 38.854911 33.058274 61.967673 0
M  V30 35 C 41.152446 33.596610 63.094319 0 CFG=1
M  V30 36 C 40.380904 35.715939 61.817955 0
M  V30 37 C 41.561111 35.270712 65.528473 0
M  V30 38 C 39.548809 25.702417 55.259152 0
M  V30 39 H 42.009826 29.159638 62.195849 0
M  V30 40 H 40.330251 28.694105 62.331406 0
M  V30 41 H 38.678336 28.182106 52.159625 0
M  V30 42 H 39.123641 33.935457 60.018195 0
M  V30 43 H 39.094776 28.146926 57.088401 0
M  V30 44 H 34.361326 33.538169 62.350342 0
M  V30 45 H 34.369527 33.704274 60.603399 0
M  V30 46 H 35.051452 32.259644 61.369305 0
M  V30 47 H 37.068346 29.674396 59.830735 0
M  V30 48 H 37.277692 26.832406 52.827350 0
M  V30 49 H 43.146955 33.900044 65.053239 0
M  V30 50 H 42.194708 33.411637 66.434649 0
M  V30 51 H 37.202463 35.465654 58.736393 0
M  V30 52 H 35.548322 35.148602 59.206602 0
M  V30 53 H 36.535883 36.181463 60.206092 0
M  V30 54 H 38.097178 26.039626 57.456106 0
M  V30 55 H 36.598505 26.427417 56.740842 0
M  V30 56 H 38.562233 29.631087 55.391127 0
M  V30 57 H 36.874414 29.221641 55.353228 0
M  V30 58 H 36.154279 28.745917 57.853536 0
M  V30 59 H 39.619297 34.997255 63.656563 0
M  V30 60 H 39.820410 30.937390 62.932553 0
M  V30 61 H 41.721811 31.996434 64.499308 0
M  V30 62 H 40.269077 32.860746 64.951301 0
M  V30 63 H 39.147467 31.323859 60.084296 0
M  V30 64 H 38.614153 30.134454 61.297298 0
M  V30 65 H 37.560112 32.827213 58.639883 0
M  V30 66 H 36.989745 31.876542 60.008130 0
M  V30 67 H 35.860757 32.769636 59.038598 0
M  V30 68 H 41.820628 28.740110 59.632301 0
M  V30 69 H 41.738654 27.366883 60.653500 0
M  V30 70 H 42.382017 36.139423 63.710555 0
M  V30 71 H 40.836654 36.821402 64.237220 0
M  V30 72 H 39.765801 29.706067 58.533360 0
M  V30 73 H 39.173735 27.901134 54.113140 0
M  V30 74 H 38.811480 36.251106 60.490359 0
M  V30 75 H 38.243700 35.936185 62.102144 0
M  V30 76 H 40.821110 32.913400 61.096292 0
M  V30 77 H 39.163668 27.621426 60.643685 0
M  V30 78 H 39.817731 27.262701 59.046541 0
M  V30 79 H 36.412904 25.763310 54.617797 0
M  V30 80 H 38.264609 32.184635 61.740361 0
M  V30 81 H 38.473577 33.222262 62.962994 0
M  V30 82 H 42.174619 33.658105 62.717138 0
M  V30 83 H 41.089552 35.354790 61.070385 0
M  V30 84 H 40.587664 36.783726 61.908337 0
M  V30 85 H 41.444088 31.188740 62.849050 0
M  V30 END ATOM
M  V30 BEGIN BOND
M  V30 1 1 9 4
M  V30 2 1 10 2
M  V30 3 1 12 9
M  V30 4 1 13 5
M  V30 5 1 13 6
M  V30 6 1 14 6
M  V30 7 1 16 1
M  V30 8 1 17 6
M  V30 9 2 17 8
M  V30 10 1 20 16
M  V30 11 1 21 11
M  V30 12 1 22 16
M  V30 13 1 23 7
M  V30 14 1 23 9
M  V30 15 1 24 9
M  V30 16 1 25 1
M  V30 17 1 26 19
M  V30 18 1 27 8
M  V30 19 1 27 22
M  V30 20 1 28 5
M  V30 21 1 28 10
M  V30 22 1 28 14
M  V30 23 1 29 4
M  V30 24 1 31 20
M  V30 25 1 32 25
M  V30 26 1 32 27
M  V30 27 1 5 33 CFG=3
M  V30 28 1 34 4
M  V30 29 1 34 31
M  V30 30 1 35 19
M  V30 31 1 35 21
M  V30 32 1 35 31
M  V30 33 1 36 19
M  V30 34 1 36 29
M  V30 35 1 37 3
M  V30 36 1 37 11
M  V30 37 1 37 18
M  V30 38 1 37 26
M  V30 39 1 38 5
M  V30 40 2 38 15
M  V30 41 1 38 30
M  V30 42 1 39 1
M  V30 43 1 40 1
M  V30 44 1 41 2
M  V30 45 1 4 42 CFG=3
M  V30 46 1 6 43 CFG=1
M  V30 47 1 44 7
M  V30 48 1 45 7
M  V30 49 1 46 7
M  V30 50 1 47 8
M  V30 51 1 48 10
M  V30 52 1 49 11
M  V30 53 1 50 11
M  V30 54 1 51 12
M  V30 55 1 52 12
M  V30 56 1 53 12
M  V30 57 1 54 13
M  V30 58 1 55 13
M  V30 59 1 56 14
M  V30 60 1 57 14
M  V30 61 1 58 17
M  V30 62 1 19 59 CFG=1
M  V30 63 1 60 20
M  V30 64 1 61 21
M  V30 65 1 62 21
M  V30 66 1 63 22
M  V30 67 1 64 22
M  V30 68 1 65 24
M  V30 69 1 66 24
M  V30 70 1 67 24
M  V30 71 1 68 25
M  V30 72 1 69 25
M  V30 73 1 70 26
M  V30 74 1 71 26
M  V30 75 1 27 72 CFG=3
M  V30 76 1 28 73 CFG=3
M  V30 77 1 74 29
M  V30 78 1 75 29
M  V30 79 1 31 76 CFG=3
M  V30 80 1 77 32
M  V30 81 1 78 32
M  V30 82 1 79 33
M  V30 83 1 80 34
M  V30 84 1 81 34
M  V30 85 1 35 82 CFG=3
M  V30 86 1 83 36
M  V30 87 1 84 36
M  V30 88 1 85 20
M  V30 END BOND
M  V30 END CTAB
M  END
>  <i_epik_Tot_Q>  (1) 
0

>  <i_epik_Tot_abs_Q>  (1) 
2

>  <i_i_glide_confnum>  (1) 
832

>  <i_i_glide_lignum>  (1) 
233

>  <i_i_glide_posenum>  (1) 
306

>  <i_i_glide_rotatable_bonds>  (1) 
10

>  <i_lp_mmshare_version>  (1) 
72125

>  <i_m_source_file_index>  (1) 
91

>  <i_f3d_flags>  (1) 
0

>  <num_sample>  (1) 
100

>  <b_lp_Chiralities_Consistent>  (1) 
1

>  <r_epik_Charging_Adjusted_Penalty>  (1) 
1.3235823108087639

>  <r_epik_Ionization_Penalty>  (1) 
0.58520961668590687

>  <r_epik_Ionization_Penalty_Charging>  (1) 
0.5818654171532841

>  <r_epik_Ionization_Penalty_Neutral>  (1) 
0.0033441995326227757

>  <r_epik_State_Penalty>  (1) 
0.74171689365547977

>  <r_glide_ring_energy>  (1) 
0.52270073413304585

>  <r_i_docking_score>  (1) 
-5.8082252873950013

>  <r_i_glide_ecoul>  (1) 
-3.1063712033797959

>  <r_i_glide_eff_state_penalty>  (1) 
0.74171689365547977

>  <r_i_glide_einternal>  (1) 
17.435509150971495

>  <r_i_glide_emodel>  (1) 
-28.386598662809

>  <r_i_glide_emodel_strain>  (1) 
4.8858707386672648

>  <r_i_glide_energy>  (1) 
-36.902697777012236

>  <r_i_glide_erotb>  (1) 
0.42002339013477186

>  <r_i_glide_esite>  (1) 
-0.033773646422870333

>  <r_i_glide_evdw>  (1) 
-33.796326573632442

>  <r_i_glide_gscore>  (1) 
-6.549942181050481

>  <r_i_glide_gscore_strain>  (1) 
0.22146768466681621

>  <r_i_glide_hbond>  (1) 
-0.34618455818956639

>  <r_i_glide_ligand_efficiency>  (1) 
-0.15284803387881582

>  <r_i_glide_ligand_efficiency_ln>  (1) 
-1.2524242326395252

>  <r_i_glide_ligand_efficiency_sa>  (1) 
-0.51387133087815362

>  <r_i_glide_lipo>  (1) 
-3.8169900912868928

>  <r_i_glide_metal>  (1) 
-0

>  <r_i_glide_rewards>  (1) 
-0.83871295076414887

>  <r_lp_Energy>  (1) 
57.623837999999999

>  <s_epik_Chemistry_Notes>  (1) 
This compound has a N-S or N-O group and may undergo hydrolysis at high or low pH.

>  <s_epik_cmdline>  (1) 
J2VwaWtfcHl0aG9uJywgJy1waHQnLCAnMS4wJywgJy1waCcsICc3LjQnLCAnLXRuJywgJzgnLCAnLW1hJywgJzUwMCcsICctaW1hZScsICc8aW5maWxlLm1hZT4nLCAnLW9tYWUnLCAnPG91dGZpbGUubWFlPic=

>  <s_epik_input>  (1) 
RkMoRikoW0NIMl0xKVtDSDJdW0NIMl1bQ0BIXShbQ0BASF0xMilbQ0BIXShbQ0gyXVtDQEhdKFtDSDJdW0NIMl0yKUMoW0NIM10pKFtDSDNdKU9bQ0gzXSlbTkhdTjNbQ0gyXVtDSDJdW0NIMl1bQ0BIXShbQ0gyXTMpL1tDSF09W0NIXVxbQ0BASF0oW0NIMl1bQ0BdNChbT0hdKUMoPU8pW09IXSlbQ0gyXVtDQEBIXTRbTkhdW09IXQ==

>  <s_glide_docking_method>  (1) 
confgen

>  <s_i_glide_gridfile>  (1) 
gpcr_5ht2c_6bqh_protein_autoprepared_prepared

>  <s_lp_Force_Field>  (1) 
S-OPLS

>  <s_lp_Variant>  (1) 
DiffSBDD_90_num_sample_100-5

>  <s_m_source_file>  (1) 
generated__ligand_DiffSBDD_2026-05-06_prepared.sdf

>  <GenAI_Model>  (1) 
DiffSBDD

>  <Protein>  (1) 
GPCR_5HT2C

$$$$
DiffSBDD_51_num_sample_100
     RDKit          3D

  0  0  0  0  0  0  0  0  0  0999 V3000
M  V30 BEGIN CTAB
M  V30 COUNTS 64 65 0 0 1
M  V30 BEGIN ATOM
M  V30 1 C 38.267826 34.652288 61.189497 0 CFG=1
M  V30 2 O 41.951837 33.621101 63.054018 0
M  V30 3 C 40.397989 35.869320 61.690554 0
M  V30 4 N 39.922420 33.316126 62.072239 0
M  V30 5 C 37.826547 32.576624 58.652854 0
M  V30 6 C 35.556253 33.131530 59.711718 0 CFG=2
M  V30 7 C 39.585253 37.175850 61.876506 0
M  V30 8 C 39.499840 34.703954 62.144281 0 CFG=2
M  V30 9 N 38.938879 31.292156 56.997292 0
M  V30 10 O 39.149406 31.269534 61.447821 0
M  V30 11 N 38.291562 31.390206 58.239434 0
M  V30 12 C 37.708808 33.185032 61.211157 0 CFG=2
M  V30 13 N 35.524102 34.421301 59.002297 0 CHG=1
M  V30 14 C 39.368634 30.100152 56.521466 0
M  V30 15 C 36.739802 28.878918 58.210531 0
M  V30 16 C 41.405717 28.473702 58.779300 0
M  V30 17 C 38.174305 37.147820 61.224629 0
M  V30 18 C 38.100915 25.870649 56.837548 0
M  V30 19 C 41.121587 32.885566 62.531351 0
M  V30 20 O 39.867906 29.992497 55.404395 0
M  V30 21 C 39.004913 32.487745 61.586081 0
M  V30 22 C 34.679873 33.220921 60.961585 0
M  V30 23 C 39.915701 28.842660 58.817843 0
M  V30 24 C 36.994554 32.584935 59.958826 0 CFG=2
M  V30 25 C 37.820356 28.183718 57.377831 0 CFG=1
M  V30 26 O 38.018255 33.621283 58.030039 0
M  V30 27 C 39.222048 28.838868 57.422576 0 CFG=1
M  V30 28 C 37.377495 35.859264 61.523160 0
M  V30 29 O 37.901188 26.842696 57.853447 0
M  V30 30 H 38.634755 34.816881 60.175855 0
M  V30 31 H 40.706009 35.746793 60.652267 0
M  V30 32 H 41.310231 35.933291 62.283357 0
M  V30 33 H 35.060752 32.418547 59.053593 0
M  V30 34 H 39.469369 37.361329 62.945183 0
M  V30 35 H 40.153677 38.022786 61.493694 0
M  V30 36 H 39.184684 34.883955 63.171253 0
M  V30 37 H 38.980439 32.178938 56.513435 0
M  V30 38 H 38.170178 30.495911 58.693740 0
M  V30 39 H 37.074781 33.060913 62.087872 0
M  V30 40 H 35.934559 35.146508 59.569037 0
M  V30 41 H 34.574768 34.665233 58.761290 0
M  V30 42 H 36.399588 29.802753 57.746425 0
M  V30 43 H 37.065988 29.085681 59.229549 0
M  V30 44 H 35.867392 28.241341 58.253504 0
M  V30 45 H 41.806282 28.390740 59.789636 0
M  V30 46 H 41.995506 29.221137 58.253642 0
M  V30 47 H 41.566920 27.512015 58.290260 0
M  V30 48 H 37.602741 38.019479 61.546204 0
M  V30 49 H 38.267271 37.242469 60.143255 0
M  V30 50 H 38.184872 24.882218 57.288996 0
M  V30 51 H 39.012503 26.056186 56.269168 0
M  V30 52 H 37.256132 25.849184 56.147685 0
M  V30 53 H 41.254393 31.801788 62.381248 0
M  V30 54 H 34.667509 32.276086 61.505107 0
M  V30 55 H 33.660450 33.456669 60.657239 0
M  V30 56 H 35.013025 33.998403 61.649475 0
M  V30 57 H 39.420785 28.116901 59.463822 0
M  V30 58 H 39.821576 29.791713 59.336606 0
M  V30 59 H 36.832561 31.534319 60.208174 0
M  V30 60 H 37.467513 28.180252 56.344859 0
M  V30 61 H 39.819287 28.120617 56.860067 0
M  V30 62 H 36.463472 35.861957 60.939359 0
M  V30 63 H 37.072614 35.845251 62.569202 0
M  V30 64 H 36.070210 34.327615 58.151686 0
M  V30 END ATOM
M  V30 BEGIN BOND
M  V30 1 1 7 3
M  V30 2 1 8 1
M  V30 3 1 8 3
M  V30 4 1 8 4
M  V30 5 1 11 5
M  V30 6 1 11 9
M  V30 7 1 12 1
M  V30 8 1 13 6
M  V30 9 1 14 9
M  V30 10 1 17 7
M  V30 11 2 19 2
M  V30 12 1 19 4
M  V30 13 2 20 14
M  V30 14 1 21 4
M  V30 15 2 21 10
M  V30 16 1 21 12
M  V30 17 1 22 6
M  V30 18 1 23 16
M  V30 19 1 24 5
M  V30 20 1 24 6
M  V30 21 1 24 12
M  V30 22 1 25 15
M  V30 23 2 26 5
M  V30 24 1 27 14
M  V30 25 1 27 23
M  V30 26 1 27 25
M  V30 27 1 28 1
M  V30 28 1 28 17
M  V30 29 1 29 18
M  V30 30 1 29 25
M  V30 31 1 1 30 CFG=3
M  V30 32 1 31 3
M  V30 33 1 32 3
M  V30 34 1 6 33 CFG=3
M  V30 35 1 34 7
M  V30 36 1 35 7
M  V30 37 1 8 36 CFG=1
M  V30 38 1 37 9
M  V30 39 1 38 11
M  V30 40 1 12 39 CFG=1
M  V30 41 1 40 13
M  V30 42 1 41 13
M  V30 43 1 42 15
M  V30 44 1 43 15
M  V30 45 1 44 15
M  V30 46 1 45 16
M  V30 47 1 46 16
M  V30 48 1 47 16
M  V30 49 1 48 17
M  V30 50 1 49 17
M  V30 51 1 50 18
M  V30 52 1 51 18
M  V30 53 1 52 18
M  V30 54 1 53 19
M  V30 55 1 54 22
M  V30 56 1 55 22
M  V30 57 1 56 22
M  V30 58 1 57 23
M  V30 59 1 58 23
M  V30 60 1 24 59 CFG=1
M  V30 61 1 25 60 CFG=3
M  V30 62 1 27 61 CFG=3
M  V30 63 1 62 28
M  V30 64 1 63 28
M  V30 65 1 64 13
M  V30 END BOND
M  V30 END CTAB
M  END
>  <i_epik_Tot_Q>  (1) 
1

>  <i_epik_Tot_abs_Q>  (1) 
1

>  <i_i_glide_confnum>  (1) 
57

>  <i_i_glide_lignum>  (1) 
136

>  <i_i_glide_posenum>  (1) 
48

>  <i_i_glide_rotatable_bonds>  (1) 
11

>  <i_lp_mmshare_version>  (1) 
72125

>  <i_m_source_file_index>  (1) 
52

>  <i_f3d_flags>  (1) 
0

>  <num_sample>  (1) 
100

>  <b_lp_Chiralities_Consistent>  (1) 
1

>  <r_epik_Charging_Adjusted_Penalty>  (1) 
0.019458142528331109

>  <r_epik_Ionization_Penalty>  (1) 
0.0099781937774174462

>  <r_epik_Ionization_Penalty_Charging>  (1) 
0.0097290712641655529

>  <r_epik_Ionization_Penalty_Neutral>  (1) 
0.00024912251325189406

>  <r_epik_State_Penalty>  (1) 
0.0097290712641655563

>  <r_glide_ring_energy>  (1) 
0

>  <r_i_docking_score>  (1) 
-5.8081233588265082

>  <r_i_glide_ecoul>  (1) 
-1.9701520593804753

>  <r_i_glide_eff_state_penalty>  (1) 
0.0097290712641655563

>  <r_i_glide_einternal>  (1) 
30.140842874290648

>  <r_i_glide_emodel>  (1) 
-40.72058539338434

>  <r_i_glide_emodel_strain>  (1) 
2.0590519161226979

>  <r_i_glide_energy>  (1) 
-38.178404235642049

>  <r_i_glide_erotb>  (1) 
0.81470354957181534

>  <r_i_glide_esite>  (1) 
-0.21923259988253907

>  <r_i_glide_evdw>  (1) 
-36.208252176261574

>  <r_i_glide_gscore>  (1) 
-5.8178524300906735

>  <r_i_glide_gscore_strain>  (1) 
0

>  <r_i_glide_hbond>  (1) 
0

>  <r_i_glide_ligand_efficiency>  (1) 
-0.20028011582160374

>  <r_i_glide_ligand_efficiency_ln>  (1) 
-1.3299129678706687

>  <r_i_glide_ligand_efficiency_sa>  (1) 
-0.61532396968902348

>  <r_i_glide_lipo>  (1) 
-2.5492724298140041

>  <r_i_glide_metal>  (1) 
-0

>  <r_i_glide_rewards>  (1) 
-1.758115532245796

>  <r_lp_Energy>  (1) 
35.249798999999996

>  <r_lp_tautomer_probability>  (1) 
0.99995000000000001

>  <s_epik_cmdline>  (1) 
J2VwaWtfcHl0aG9uJywgJy1waHQnLCAnMS4wJywgJy1waCcsICc3LjQnLCAnLXRuJywgJzgnLCAnLW1hJywgJzUwMCcsICctaW1hZScsICc8aW5maWxlLm1hZT4nLCAnLW9tYWUnLCAnPG91dGZpbGUubWFlPic=

>  <s_epik_input>  (1) 
W0NIMl0xW0NIMl1bQ0gyXVtDSDJdW0NAQEhdKFtDQEhdMTIpTihbQ0hdPU8pQyg9TylbQ0BASF0yW0NAQEhdKFtDQEhdKFtOSDJdKVtDSDNdKUMoPU8pW05IXVtOSF1DKD1PKVtDQEBIXShbQ0gyXVtDSDNdKVtDQEhdKFtDSDNdKU9bQ0gzXQ==

>  <s_glide_docking_method>  (1) 
confgen

>  <s_i_glide_gridfile>  (1) 
gpcr_5ht2c_6bqh_protein_autoprepared_prepared

>  <s_lp_Force_Field>  (1) 
S-OPLS

>  <s_lp_Variant>  (1) 
DiffSBDD_51_num_sample_100-1

>  <s_m_source_file>  (1) 
generated__ligand_DiffSBDD_2026-05-06_prepared.sdf

>  <GenAI_Model>  (1) 
DiffSBDD

>  <Protein>  (1) 
GPCR_5HT2C

$$$$
DiffSBDD_44_num_sample_100
     RDKit          3D

  0  0  0  0  0  0  0  0  0  0999 V3000
M  V30 BEGIN CTAB
M  V30 COUNTS 58 59 0 0 1
M  V30 BEGIN ATOM
M  V30 1 C 36.346328 30.981947 60.328339 0
M  V30 2 O 39.355991 30.285494 57.630778 0 CHG=-1
M  V30 3 C 38.878406 27.446667 56.562730 0
M  V30 4 C 37.240738 32.822685 58.976387 0 CFG=1
M  V30 5 N 37.593011 31.501167 58.368899 0 CFG=2 CHG=1
M  V30 6 C 38.182774 25.787621 54.930087 0
M  V30 7 N 38.574461 29.537518 54.797799 0
M  V30 8 C 38.375937 27.197569 55.379536 0
M  V30 9 O 38.021205 27.998415 53.043086 0
M  V30 10 C 36.263191 32.498341 60.123607 0 CFG=1
M  V30 11 C 34.844467 33.020256 59.881345 0
M  V30 12 C 38.468817 31.704068 55.949455 0 CFG=1
M  V30 13 C 37.885135 30.551144 55.109071 0
M  V30 14 C 37.517625 30.522213 59.480171 0
M  V30 15 C 39.330912 27.929874 52.498601 0
M  V30 16 C 39.607837 25.688425 58.107902 0
M  V30 17 C 38.787683 31.451278 57.464025 0 CFG=2
M  V30 18 C 37.927766 28.292621 54.437739 0 CFG=2
M  V30 19 F 37.715127 24.435544 57.404807 0
M  V30 20 C 39.011438 24.614003 57.143152 0 CFG=1
M  V30 21 C 39.410274 27.127770 57.706314 0
M  V30 22 C 39.776922 32.118396 55.290567 0
M  V30 23 C 36.456567 30.715491 54.663069 0
M  V30 24 C 38.425156 33.618546 59.586111 0
M  V30 25 C 39.205947 24.875802 55.616135 0
M  V30 26 H 35.467385 30.483433 59.942962 0
M  V30 27 H 36.459328 30.712597 61.376516 0
M  V30 28 H 36.762908 33.436295 58.211501 0
M  V30 29 H 37.159996 25.473033 55.143858 0
M  V30 30 H 38.303080 25.710639 53.853821 0
M  V30 31 H 36.607928 32.967780 61.047282 0
M  V30 32 H 34.339232 32.489131 59.073223 0
M  V30 33 H 34.266681 32.902496 60.792225 0
M  V30 34 H 34.848434 34.082112 59.635430 0
M  V30 35 H 37.787622 32.554457 55.891491 0
M  V30 36 H 37.374857 29.502972 59.115161 0
M  V30 37 H 38.437880 30.549177 60.065097 0
M  V30 38 H 39.269462 27.680704 51.439261 0
M  V30 39 H 39.852100 28.884345 52.582107 0
M  V30 40 H 39.921764 27.157395 52.988355 0
M  V30 41 H 40.675365 25.527075 58.241280 0
M  V30 42 H 39.135223 25.620381 59.077169 0
M  V30 43 H 39.391470 32.305391 57.726464 0
M  V30 44 H 36.863146 28.266347 54.653153 0
M  V30 45 H 39.467303 23.661418 57.418828 0
M  V30 46 H 39.723957 27.881963 58.412113 0
M  V30 47 H 39.539911 32.421441 54.273717 0
M  V30 48 H 40.264605 32.921211 55.853516 0
M  V30 49 H 40.493685 31.298738 55.234762 0
M  V30 50 H 36.267454 31.713721 54.283697 0
M  V30 51 H 36.267354 30.026282 53.853603 0
M  V30 52 H 35.775621 30.421458 55.453478 0
M  V30 53 H 38.063114 34.484683 60.140101 0
M  V30 54 H 39.007652 33.008007 60.276245 0
M  V30 55 H 39.107541 34.021395 58.842752 0
M  V30 56 H 39.066600 24.021384 55.015052 0
M  V30 57 H 40.225853 25.213277 55.418583 0
M  V30 58 H 36.797933 31.291601 57.768413 0
M  V30 END ATOM
M  V30 BEGIN BOND
M  V30 1 1 5 4
M  V30 2 2 8 3
M  V30 3 1 8 6
M  V30 4 1 10 1
M  V30 5 1 10 4
M  V30 6 1 11 10
M  V30 7 2 13 7
M  V30 8 1 13 12
M  V30 9 1 14 1
M  V30 10 1 14 5
M  V30 11 1 15 9
M  V30 12 1 17 2
M  V30 13 1 17 5
M  V30 14 1 17 12
M  V30 15 1 18 7
M  V30 16 1 18 8
M  V30 17 1 18 9
M  V30 18 1 20 16
M  V30 19 1 20 19
M  V30 20 2 21 3
M  V30 21 1 21 16
M  V30 22 1 22 12
M  V30 23 1 23 13
M  V30 24 1 24 4
M  V30 25 1 25 6
M  V30 26 1 25 20
M  V30 27 1 26 1
M  V30 28 1 27 1
M  V30 29 1 4 28 CFG=3
M  V30 30 1 29 6
M  V30 31 1 30 6
M  V30 32 1 10 31 CFG=1
M  V30 33 1 32 11
M  V30 34 1 33 11
M  V30 35 1 34 11
M  V30 36 1 12 35 CFG=1
M  V30 37 1 36 14
M  V30 38 1 37 14
M  V30 39 1 38 15
M  V30 40 1 39 15
M  V30 41 1 40 15
M  V30 42 1 41 16
M  V30 43 1 42 16
M  V30 44 1 17 43 CFG=1
M  V30 45 1 18 44 CFG=1
M  V30 46 1 20 45 CFG=1
M  V30 47 1 46 21
M  V30 48 1 47 22
M  V30 49 1 48 22
M  V30 50 1 49 22
M  V30 51 1 50 23
M  V30 52 1 51 23
M  V30 53 1 52 23
M  V30 54 1 53 24
M  V30 55 1 54 24
M  V30 56 1 55 24
M  V30 57 1 56 25
M  V30 58 1 57 25
M  V30 59 1 5 58 CFG=3
M  V30 END BOND
M  V30 END CTAB
M  END
>  <i_epik_Tot_Q>  (1) 
0

>  <i_epik_Tot_abs_Q>  (1) 
2

>  <i_i_glide_confnum>  (1) 
19

>  <i_i_glide_lignum>  (1) 
109

>  <i_i_glide_posenum>  (1) 
399

>  <i_i_glide_rotatable_bonds>  (1) 
6

>  <i_lp_mmshare_version>  (1) 
72125

>  <i_m_source_file_index>  (1) 
45

>  <i_f3d_flags>  (1) 
0

>  <num_sample>  (1) 
100

>  <b_lp_Chiralities_Consistent>  (1) 
1

>  <r_epik_Charging_Adjusted_Penalty>  (1) 
0.41733257654759531

>  <r_epik_Ionization_Penalty>  (1) 
0.0069177268181324029

>  <r_epik_Ionization_Penalty_Charging>  (1) 
0.0066527375949913311

>  <r_epik_Ionization_Penalty_Neutral>  (1) 
0.00026498922314107146

>  <r_epik_State_Penalty>  (1) 
0.41067983895260396

>  <r_glide_ring_energy>  (1) 
0

>  <r_i_docking_score>  (1) 
-5.8056772833614785

>  <r_i_glide_ecoul>  (1) 
-3.0647134497958728

>  <r_i_glide_eff_state_penalty>  (1) 
0.41067983895260396

>  <r_i_glide_einternal>  (1) 
55.270873586196103

>  <r_i_glide_emodel>  (1) 
-15.016692442052914

>  <r_i_glide_emodel_strain>  (1) 
2.1488140998461773

>  <r_i_glide_energy>  (1) 
-30.965494851663088

>  <r_i_glide_erotb>  (1) 
0.61440649929112812

>  <r_i_glide_esite>  (1) 
-0.17130887791790356

>  <r_i_glide_evdw>  (1) 
-27.900781401867217

>  <r_i_glide_gscore>  (1) 
-6.2163571223140828

>  <r_i_glide_gscore_strain>  (1) 
0

>  <r_i_glide_hbond>  (1) 
-0.19904639916332134

>  <r_i_glide_ligand_efficiency>  (1) 
-0.23222709133445915

>  <r_i_glide_ligand_efficiency_ln>  (1) 
-1.3761194982653584

>  <r_i_glide_ligand_efficiency_sa>  (1) 
-0.67903613435553789

>  <r_i_glide_lipo>  (1) 
-2.1678571996791041

>  <r_i_glide_metal>  (1) 
-0

>  <r_i_glide_rewards>  (1) 
-2.4378050572821404

>  <r_lp_Energy>  (1) 
10.776309999999999

>  <r_lp_tautomer_probability>  (1) 
0.49999399997599986

>  <s_epik_Chemistry_Notes>  (1) 
This compound has an imine and may undergo hydrolysis. This compound contains an acetal/aminal-like group ( X-CH(R)-Y where X, Y are N, S, or O) that may be acid/base labile, releasing an aldehyde.

>  <s_epik_cmdline>  (1) 
J2VwaWtfcHl0aG9uJywgJy1waHQnLCAnMS4wJywgJy1waCcsICc3LjQnLCAnLXRuJywgJzgnLCAnLW1hJywgJzUwMCcsICctaW1hZScsICc8aW5maWxlLm1hZT4nLCAnLW9tYWUnLCAnPG91dGZpbGUubWFlPic=

>  <s_epik_input>  (1) 
W0NIM11bQ0BIXTFbQ0gyXVtDSDJdTihbQ0BASF0xW0NIM10pW0NAQEhdKFtPSF0pW0NAQEhdKFtDSDNdKVxDKFtDSDNdKT1OXFtDQEBIXShPW0NIM10pQzI9Qz1bQ0hdW0NIMl1bQ0BASF0oRilbQ0gyXVtDSDJdMg==

>  <s_glide_docking_method>  (1) 
confgen

>  <s_i_glide_gridfile>  (1) 
gpcr_5ht2c_6bqh_protein_autoprepared_prepared

>  <s_lp_Force_Field>  (1) 
S-OPLS

>  <s_lp_Variant>  (1) 
DiffSBDD_44_num_sample_100-2

>  <s_m_source_file>  (1) 
generated__ligand_DiffSBDD_2026-05-06_prepared.sdf

>  <GenAI_Model>  (1) 
DiffSBDD

>  <Protein>  (1) 
GPCR_5HT2C

$$$$
DiffSBDD_82_num_sample_100
     RDKit          3D

  0  0  0  0  0  0  0  0  0  0999 V3000
M  V30 BEGIN CTAB
M  V30 COUNTS 57 59 0 0 1
M  V30 BEGIN ATOM
M  V30 1 C 38.618289 30.882014 59.045506 0 CFG=1
M  V30 2 N 38.221225 27.925586 56.231135 0
M  V30 3 F 38.588183 31.791262 58.071598 0
M  V30 4 C 39.585242 32.902160 60.418747 0
M  V30 5 N 39.151468 29.632412 58.450397 0
M  V30 6 C 40.044476 26.438134 55.203205 0
M  V30 7 C 39.732240 34.850666 62.011074 0
M  V30 8 C 37.067401 35.663614 61.278976 0
M  V30 9 N 40.110638 28.305963 60.272984 0
M  V30 10 O 36.667851 32.018590 61.851209 0
M  V30 11 C 39.762417 29.777728 55.133227 0 CFG=2
M  V30 12 C 39.813280 30.408656 53.753035 0
M  V30 13 C 36.267402 25.221360 56.589959 0
M  V30 14 S 37.067408 36.665499 59.853559 0 CHG=-1
M  V30 15 C 38.825274 33.701241 61.511066 0 CFG=1
M  V30 16 C 40.961907 28.866420 62.511771 0
M  V30 17 C 39.742645 28.550278 58.911699 0
M  V30 18 C 38.413278 29.183897 55.494243 0 CFG=1
M  V30 19 C 38.894479 29.237585 54.057338 0 CFG=2
M  V30 20 C 39.352788 31.389587 60.266946 0
M  V30 21 O 36.840864 36.021401 62.430525 0
M  V30 22 C 39.186783 26.842297 56.398483 0 CFG=2
M  V30 23 C 39.868354 30.534803 61.085434 0
M  V30 24 O 35.103615 33.520480 61.353355 0 CHG=-1
M  V30 25 O 38.521829 25.620328 56.489706 0
M  V30 26 C 37.507121 25.504108 57.410883 0 CFG=2
M  V30 27 S 40.273074 27.107804 57.877259 0
M  V30 28 C 37.395985 34.158745 61.024113 0 CFG=1
M  V30 29 O 37.761186 24.421501 58.253519 0
M  V30 30 C 36.292310 33.147084 61.448949 0
M  V30 31 C 40.225799 29.299661 61.259140 0
M  V30 32 H 37.572035 30.741601 59.322566 0
M  V30 33 H 37.855144 28.184636 57.137757 0
M  V30 34 H 39.509867 33.421141 59.463663 0
M  V30 35 H 40.648387 32.974343 60.653107 0
M  V30 36 H 39.414915 26.164298 54.354927 0
M  V30 37 H 40.667097 25.581404 55.459082 0
M  V30 38 H 40.691296 27.221491 54.913638 0
M  V30 39 H 39.914887 35.589343 61.231384 0
M  V30 40 H 40.701147 34.478474 62.340504 0
M  V30 41 H 39.301579 35.363006 62.869890 0
M  V30 42 H 40.503955 27.412349 60.530233 0
M  V30 43 H 40.651798 29.246010 55.452919 0
M  V30 44 H 39.354132 31.388609 53.636679 0
M  V30 45 H 40.667337 30.213748 53.114075 0
M  V30 46 H 36.358802 24.264673 56.073561 0
M  V30 47 H 36.169081 26.013242 55.853343 0
M  V30 48 H 35.394288 25.221418 57.228717 0
M  V30 49 H 38.740582 33.057409 62.387033 0
M  V30 50 H 41.333042 29.720515 63.081247 0
M  V30 51 H 41.816000 28.232683 62.270055 0
M  V30 52 H 40.288681 28.301228 63.156876 0
M  V30 53 H 37.663748 29.945153 55.709274 0
M  V30 54 H 39.155900 28.301688 53.574346 0
M  V30 55 H 37.384156 26.382141 58.048081 0
M  V30 56 H 37.386161 34.002634 59.944181 0
M  V30 57 H 37.815118 23.644442 57.718455 0
M  V30 END ATOM
M  V30 BEGIN BOND
M  V30 1 1 3 1
M  V30 2 1 5 1
M  V30 3 1 12 11
M  V30 4 1 14 8
M  V30 5 1 15 4
M  V30 6 1 15 7
M  V30 7 2 17 5
M  V30 8 1 17 9
M  V30 9 1 18 2
M  V30 10 1 18 11
M  V30 11 1 19 11
M  V30 12 1 19 12
M  V30 13 1 19 18
M  V30 14 1 20 1
M  V30 15 1 20 4
M  V30 16 2 21 8
M  V30 17 1 22 2
M  V30 18 1 22 6
M  V30 19 2 23 20
M  V30 20 1 22 25 CFG=1
M  V30 21 1 26 13
M  V30 22 1 26 25
M  V30 23 1 27 17
M  V30 24 1 27 22
M  V30 25 1 28 8
M  V30 26 1 28 15
M  V30 27 1 29 26
M  V30 28 2 30 10
M  V30 29 1 30 24
M  V30 30 1 30 28
M  V30 31 1 31 9
M  V30 32 1 31 16
M  V30 33 2 31 23
M  V30 34 1 1 32 CFG=1
M  V30 35 1 33 2
M  V30 36 1 34 4
M  V30 37 1 35 4
M  V30 38 1 36 6
M  V30 39 1 37 6
M  V30 40 1 38 6
M  V30 41 1 39 7
M  V30 42 1 40 7
M  V30 43 1 41 7
M  V30 44 1 42 9
M  V30 45 1 11 43 CFG=1
M  V30 46 1 44 12
M  V30 47 1 45 12
M  V30 48 1 46 13
M  V30 49 1 47 13
M  V30 50 1 48 13
M  V30 51 1 15 49 CFG=1
M  V30 52 1 50 16
M  V30 53 1 51 16
M  V30 54 1 52 16
M  V30 55 1 18 53 CFG=3
M  V30 56 1 19 54 CFG=3
M  V30 57 1 26 55 CFG=1
M  V30 58 1 28 56 CFG=3
M  V30 59 1 57 29
M  V30 END BOND
M  V30 END CTAB
M  END
>  <i_epik_Tot_Q>  (1) 
-2

>  <i_epik_Tot_abs_Q>  (1) 
2

>  <i_i_glide_confnum>  (1) 
1281

>  <i_i_glide_lignum>  (1) 
215

>  <i_i_glide_posenum>  (1) 
368

>  <i_i_glide_rotatable_bonds>  (1) 
12

>  <i_lp_mmshare_version>  (1) 
72125

>  <i_m_source_file_index>  (1) 
83

>  <i_f3d_flags>  (1) 
0

>  <num_sample>  (1) 
100

>  <b_lp_Chiralities_Consistent>  (1) 
1

>  <r_epik_Charging_Adjusted_Penalty>  (1) 
0.00013622687110547772

>  <r_epik_Ionization_Penalty>  (1) 
0.0015792256383976989

>  <r_epik_Ionization_Penalty_Charging>  (1) 
0.00013622687110547772

>  <r_epik_Ionization_Penalty_Neutral>  (1) 
0.0014429987672922213

>  <r_epik_State_Penalty>  (1) 
-0

>  <r_glide_ring_energy>  (1) 
0

>  <r_i_docking_score>  (1) 
-5.8017511323868778

>  <r_i_glide_ecoul>  (1) 
-3.1417413059999881

>  <r_i_glide_eff_state_penalty>  (1) 
-0

>  <r_i_glide_einternal>  (1) 
21.288490988153828

>  <r_i_glide_emodel>  (1) 
-37.729229065325669

>  <r_i_glide_emodel_strain>  (1) 
4.0699819313817045

>  <r_i_glide_energy>  (1) 
-36.411298210436449

>  <r_i_glide_erotb>  (1) 
0.72716710484865599

>  <r_i_glide_esite>  (1) 
-0.058862824261086716

>  <r_i_glide_evdw>  (1) 
-33.269556904436463

>  <r_i_glide_gscore>  (1) 
-5.8017511323868778

>  <r_i_glide_gscore_strain>  (1) 
0.017495482845426125

>  <r_i_glide_hbond>  (1) 
-0.16

>  <r_i_glide_ligand_efficiency>  (1) 
-0.18715326233506058

>  <r_i_glide_ligand_efficiency_ln>  (1) 
-1.3084726826721977

>  <r_i_glide_ligand_efficiency_sa>  (1) 
-0.58791963733129016

>  <r_i_glide_lipo>  (1) 
-2.2865435037798743

>  <r_i_glide_metal>  (1) 
-0

>  <r_i_glide_rewards>  (1) 
-1.906268350918177

>  <r_lp_Energy>  (1) 
24.444061999999999

>  <r_lp_tautomer_probability>  (1) 
1

>  <s_epik_Chemistry_Notes>  (1) 
This compound has an imine and may undergo hydrolysis. This compound contains an acetal/aminal-like group ( X-CH(R)-Y where X, Y are N, S, or O) that may be acid/base labile, releasing an aldehyde.

>  <s_epik_cmdline>  (1) 
J2VwaWtfcHl0aG9uJywgJy1waHQnLCAnMS4wJywgJy1waCcsICc3LjQnLCAnLXRuJywgJzgnLCAnLW1hJywgJzUwMCcsICctaW1hZScsICc8aW5maWxlLm1hZT4nLCAnLW9tYWUnLCAnPG91dGZpbGUubWFlPic=

>  <s_epik_input>  (1) 
W0NASF0xMltDQEhdKFtDSDJdMSlbQ0BIXTJbTkhdW0NAXShbQ0gzXSkoT1tDQEBIXShbQ0gzXSlbT0hdKVNDKD1OW0NAQEhdM0YpW05IXUMoW0NIM10pPUM9QzNbQ0gyXVtDQEBIXShbQ0gzXSlbQ0BIXShDKD1PKVtTSF0pQyg9TylbT0hd

>  <s_glide_docking_method>  (1) 
confgen

>  <s_i_glide_gridfile>  (1) 
gpcr_5ht2c_6bqh_protein_autoprepared_prepared

>  <s_lp_Force_Field>  (1) 
S-OPLS

>  <s_lp_Variant>  (1) 
DiffSBDD_82_num_sample_100-1

>  <s_m_source_file>  (1) 
generated__ligand_DiffSBDD_2026-05-06_prepared.sdf

>  <GenAI_Model>  (1) 
DiffSBDD

>  <Protein>  (1) 
GPCR_5HT2C

$$$$
DiffSBDD_44_num_sample_100
     RDKit          3D

  0  0  0  0  0  0  0  0  0  0999 V3000
M  V30 BEGIN CTAB
M  V30 COUNTS 58 59 0 0 1
M  V30 BEGIN ATOM
M  V30 1 C 37.279077 34.073876 57.916057 0
M  V30 2 O 36.776116 30.821434 61.053498 0 CHG=-1
M  V30 3 C 38.267428 26.998722 55.648433 0
M  V30 4 C 36.234914 33.374147 59.979108 0 CFG=1
M  V30 5 N 37.152766 32.318290 59.457144 0 CFG=1 CHG=1
M  V30 6 C 39.760125 26.873330 57.580040 0
M  V30 7 N 39.467468 29.769946 57.594317 0
M  V30 8 C 39.109084 27.619949 56.430124 0
M  V30 9 O 38.530813 29.818229 55.413017 0
M  V30 10 C 36.401749 34.597313 59.053504 0 CFG=1
M  V30 11 C 37.017965 35.812571 59.765544 0
M  V30 12 C 38.754868 30.355217 59.875541 0 CFG=1
M  V30 13 C 38.512194 29.837199 58.442860 0
M  V30 14 C 38.109555 33.003260 58.563298 0
M  V30 15 C 38.975444 29.868487 54.064419 0
M  V30 16 C 37.365950 24.771319 56.235671 0
M  V30 17 C 37.778146 31.427379 60.476886 0 CFG=2
M  V30 18 C 39.411615 29.118803 56.290943 0 CFG=1
M  V30 19 F 39.467410 24.063904 57.053503 0
M  V30 20 C 38.348875 24.649414 57.448045 0 CFG=1
M  V30 21 C 37.467551 26.011299 55.355438 0
M  V30 22 C 39.111749 29.180751 60.809880 0
M  V30 23 C 37.077302 29.413605 58.120648 0
M  V30 24 C 34.776707 32.891137 60.016184 0
M  V30 25 C 38.757643 25.912542 58.257417 0
M  V30 26 H 37.867400 34.821429 57.404851 0
M  V30 27 H 36.667404 33.621433 57.145172 0
M  V30 28 H 36.535495 33.643508 60.993400 0
M  V30 29 H 40.619069 26.323331 57.192737 0
M  V30 30 H 40.172884 27.533816 58.339421 0
M  V30 31 H 35.436566 34.909436 58.653479 0
M  V30 32 H 37.994704 35.581803 60.192195 0
M  V30 33 H 37.142991 36.644059 59.071272 0
M  V30 34 H 36.374961 36.158341 60.574623 0
M  V30 35 H 39.694274 30.902238 59.830445 0
M  V30 36 H 38.920429 33.449816 59.140408 0
M  V30 37 H 38.548435 32.369719 57.797471 0
M  V30 38 H 38.237017 30.385911 53.453636 0
M  V30 39 H 39.916030 30.415503 53.983788 0
M  V30 40 H 39.117513 28.871396 53.647666 0
M  V30 41 H 36.348056 24.774155 56.626535 0
M  V30 42 H 37.441856 23.884270 55.606132 0
M  V30 43 H 38.412044 32.082441 61.078122 0
M  V30 44 H 40.424572 29.170907 55.887389 0
M  V30 45 H 37.902155 23.934112 58.141236 0
M  V30 46 H 36.774851 26.080780 54.534133 0
M  V30 47 H 40.122236 28.820661 60.614176 0
M  V30 48 H 39.067471 29.469960 61.860923 0
M  V30 49 H 38.446047 28.332291 60.653486 0
M  V30 50 H 36.403832 29.539037 58.962753 0
M  V30 51 H 36.684351 30.004157 57.292807 0
M  V30 52 H 37.019610 28.364229 57.853106 0
M  V30 53 H 34.094930 33.690166 60.301356 0
M  V30 54 H 34.451273 32.501958 59.053497 0
M  V30 55 H 34.667405 32.095265 60.747913 0
M  V30 56 H 39.265394 25.621430 59.164763 0
M  V30 57 H 37.867495 26.442263 58.590124 0
M  V30 58 H 36.577753 31.733176 58.863698 0
M  V30 END ATOM
M  V30 BEGIN BOND
M  V30 1 1 5 4
M  V30 2 2 8 3
M  V30 3 1 8 6
M  V30 4 1 10 1
M  V30 5 1 10 4
M  V30 6 1 11 10
M  V30 7 2 13 7
M  V30 8 1 13 12
M  V30 9 1 14 1
M  V30 10 1 14 5
M  V30 11 1 15 9
M  V30 12 1 17 2
M  V30 13 1 17 5
M  V30 14 1 17 12
M  V30 15 1 18 7
M  V30 16 1 18 8
M  V30 17 1 18 9
M  V30 18 1 20 16
M  V30 19 1 20 19
M  V30 20 2 21 3
M  V30 21 1 21 16
M  V30 22 1 22 12
M  V30 23 1 23 13
M  V30 24 1 24 4
M  V30 25 1 25 6
M  V30 26 1 25 20
M  V30 27 1 26 1
M  V30 28 1 27 1
M  V30 29 1 4 28 CFG=1
M  V30 30 1 29 6
M  V30 31 1 30 6
M  V30 32 1 10 31 CFG=3
M  V30 33 1 32 11
M  V30 34 1 33 11
M  V30 35 1 34 11
M  V30 36 1 12 35 CFG=3
M  V30 37 1 36 14
M  V30 38 1 37 14
M  V30 39 1 38 15
M  V30 40 1 39 15
M  V30 41 1 40 15
M  V30 42 1 41 16
M  V30 43 1 42 16
M  V30 44 1 17 43 CFG=1
M  V30 45 1 18 44 CFG=3
M  V30 46 1 20 45 CFG=1
M  V30 47 1 46 21
M  V30 48 1 47 22
M  V30 49 1 48 22
M  V30 50 1 49 22
M  V30 51 1 50 23
M  V30 52 1 51 23
M  V30 53 1 52 23
M  V30 54 1 53 24
M  V30 55 1 54 24
M  V30 56 1 55 24
M  V30 57 1 56 25
M  V30 58 1 57 25
M  V30 59 1 5 58 CFG=3
M  V30 END BOND
M  V30 END CTAB
M  END
>  <i_epik_Tot_Q>  (1) 
0

>  <i_epik_Tot_abs_Q>  (1) 
2

>  <i_i_glide_confnum>  (1) 
19

>  <i_i_glide_lignum>  (1) 
112

>  <i_i_glide_posenum>  (1) 
162

>  <i_i_glide_rotatable_bonds>  (1) 
6

>  <i_lp_mmshare_version>  (1) 
72125

>  <i_m_source_file_index>  (1) 
45

>  <i_f3d_flags>  (1) 
0

>  <num_sample>  (1) 
100

>  <b_lp_Chiralities_Consistent>  (1) 
1

>  <r_epik_Charging_Adjusted_Penalty>  (1) 
0.41733257654759531

>  <r_epik_Ionization_Penalty>  (1) 
0.0069177268181324029

>  <r_epik_Ionization_Penalty_Charging>  (1) 
0.0066527375949913311

>  <r_epik_Ionization_Penalty_Neutral>  (1) 
0.00026498922314107146

>  <r_epik_State_Penalty>  (1) 
0.41067983895260396

>  <r_glide_ring_energy>  (1) 
0

>  <r_i_docking_score>  (1) 
-5.8013199630339995

>  <r_i_glide_ecoul>  (1) 
-4.5360675052539676

>  <r_i_glide_eff_state_penalty>  (1) 
0.41067983895260396

>  <r_i_glide_einternal>  (1) 
5.2790598233366826

>  <r_i_glide_emodel>  (1) 
-41.541648943317561

>  <r_i_glide_emodel_strain>  (1) 
2.903637866892943

>  <r_i_glide_energy>  (1) 
-33.317266981302481

>  <r_i_glide_erotb>  (1) 
0.61440649929112812

>  <r_i_glide_esite>  (1) 
-0.081942434622940152

>  <r_i_glide_evdw>  (1) 
-28.781199476048513

>  <r_i_glide_gscore>  (1) 
-6.2119998019866038

>  <r_i_glide_gscore_strain>  (1) 
0

>  <r_i_glide_hbond>  (1) 
-0.21095528823487045

>  <r_i_glide_ligand_efficiency>  (1) 
-0.23205279852135999

>  <r_i_glide_ligand_efficiency_ln>  (1) 
-1.3750866827693926

>  <r_i_glide_ligand_efficiency_sa>  (1) 
-0.67852649907839302

>  <r_i_glide_lipo>  (1) 
-2.4308344999082721

>  <r_i_glide_metal>  (1) 
-0

>  <r_i_glide_rewards>  (1) 
-1.9832039789211289

>  <r_lp_Energy>  (1) 
11.823086999999999

>  <r_lp_tautomer_probability>  (1) 
0.49999399997599986

>  <s_epik_Chemistry_Notes>  (1) 
This compound has an imine and may undergo hydrolysis. This compound contains an acetal/aminal-like group ( X-CH(R)-Y where X, Y are N, S, or O) that may be acid/base labile, releasing an aldehyde.

>  <s_epik_cmdline>  (1) 
J2VwaWtfcHl0aG9uJywgJy1waHQnLCAnMS4wJywgJy1waCcsICc3LjQnLCAnLXRuJywgJzgnLCAnLW1hJywgJzUwMCcsICctaW1hZScsICc8aW5maWxlLm1hZT4nLCAnLW9tYWUnLCAnPG91dGZpbGUubWFlPic=

>  <s_epik_input>  (1) 
W0NIM11bQ0BIXTFbQ0gyXVtDSDJdTihbQ0BASF0xW0NIM10pW0NAQEhdKFtPSF0pW0NAQEhdKFtDSDNdKVxDKFtDSDNdKT1OXFtDQEBIXShPW0NIM10pQzI9Qz1bQ0hdW0NIMl1bQ0BASF0oRilbQ0gyXVtDSDJdMg==

>  <s_glide_docking_method>  (1) 
confgen

>  <s_i_glide_gridfile>  (1) 
gpcr_5ht2c_6bqh_protein_autoprepared_prepared

>  <s_lp_Force_Field>  (1) 
S-OPLS

>  <s_lp_Variant>  (1) 
DiffSBDD_44_num_sample_100-5

>  <s_m_source_file>  (1) 
generated__ligand_DiffSBDD_2026-05-06_prepared.sdf

>  <GenAI_Model>  (1) 
DiffSBDD

>  <Protein>  (1) 
GPCR_5HT2C

$$$$
DiffSBDD_1_num_sample_100
     RDKit          3D

  0  0  0  0  0  0  0  0  0  0999 V3000
M  V30 BEGIN CTAB
M  V30 COUNTS 63 66 0 0 1
M  V30 BEGIN ATOM
M  V30 1 C 38.371395 26.901671 57.477164 0
M  V30 2 C 39.501258 34.810065 62.208986 0
M  V30 3 O 37.883598 25.474395 55.817272 0
M  V30 4 C 37.593649 33.388556 61.305605 0 CFG=1
M  V30 5 C 38.447692 28.227661 58.139993 0
M  V30 6 C 38.019168 31.054416 60.547528 0
M  V30 7 C 42.062391 32.771711 63.268441 0
M  V30 8 C 39.762437 37.109039 62.448364 0
M  V30 9 N 40.924879 36.421430 63.053503 0 CHG=1
M  V30 10 C 37.946061 33.221162 57.484203 0
M  V30 11 C 37.884346 29.443839 57.389945 0
M  V30 12 C 41.344375 34.030351 63.812353 0 CFG=2
M  V30 13 C 40.934051 34.994231 62.654982 0 CFG=1
M  V30 14 C 37.679738 31.468718 59.104830 0 CFG=2
M  V30 15 C 38.267406 31.893935 56.781751 0
M  V30 16 C 37.879835 26.731504 56.289535 0
M  V30 17 N 37.291601 31.951175 61.485079 0
M  V30 18 C 39.030738 33.639333 61.737592 0
M  V30 19 O 38.941107 28.382672 59.256814 0
M  V30 20 C 42.186644 34.714933 64.913244 0
M  V30 21 C 38.527069 24.747567 56.940566 0
M  V30 22 C 37.292066 33.822226 59.852474 0
M  V30 23 C 38.663094 36.051789 62.338964 0
M  V30 24 N 37.983928 32.907829 58.922100 0 CFG=2 CHG=1
M  V30 25 O 36.267401 31.384206 59.053501 0
M  V30 26 C 38.869395 25.717354 58.172990 0
M  V30 27 C 38.381426 30.819690 57.888231 0 CFG=2
M  V30 28 O 42.267399 31.815273 64.286340 0
M  V30 29 H 36.935588 33.971673 61.946377 0
M  V30 30 H 39.095126 31.063852 60.714227 0
M  V30 31 H 37.702569 30.025308 60.714093 0
M  V30 32 H 43.013966 33.036759 62.811523 0
M  V30 33 H 41.498035 32.274090 62.486324 0
M  V30 34 H 40.048177 37.454665 61.454794 0
M  V30 35 H 39.467382 37.978026 63.036008 0
M  V30 36 H 40.818796 36.471805 64.058328 0
M  V30 37 H 38.667397 33.995697 57.235883 0
M  V30 38 H 36.965248 33.598585 57.199985 0
M  V30 39 H 36.794999 29.403615 57.400333 0
M  V30 40 H 38.189507 29.350466 56.348470 0
M  V30 41 H 40.431952 33.690913 64.304338 0
M  V30 42 H 41.588320 34.892450 61.788098 0
M  V30 43 H 39.189162 31.959833 56.201983 0
M  V30 44 H 37.467457 31.656127 56.079234 0
M  V30 45 H 37.467417 27.466382 55.614962 0
M  V30 46 H 36.309985 31.834180 61.238798 0
M  V30 47 H 39.696663 32.802070 61.669544 0
M  V30 48 H 43.067395 35.200744 64.503229 0
M  V30 49 H 41.612212 35.469584 65.451800 0
M  V30 50 H 42.527316 34.001135 65.663725 0
M  V30 51 H 37.870578 23.940748 57.267123 0
M  V30 52 H 39.442426 24.281739 56.575731 0
M  V30 53 H 36.217183 33.830447 59.664062 0
M  V30 54 H 37.637026 34.840431 59.673889 0
M  V30 55 H 37.995116 36.229939 61.496813 0
M  V30 56 H 38.079921 36.021936 63.258258 0
M  V30 57 H 35.940809 31.575873 58.148746 0
M  V30 58 H 39.933137 25.771577 58.406777 0
M  V30 59 H 38.269988 25.497653 59.053499 0
M  V30 60 H 39.442310 30.734184 58.124789 0
M  V30 61 H 41.431213 31.513764 64.609955 0
M  V30 62 H 41.792979 36.883252 62.818785 0
M  V30 63 H 38.959124 32.976168 59.169224 0
M  V30 END ATOM
M  V30 BEGIN BOND
M  V30 1 1 5 1
M  V30 2 1 9 8
M  V30 3 1 11 5
M  V30 4 1 12 7
M  V30 5 1 13 2
M  V30 6 1 13 9
M  V30 7 1 13 12
M  V30 8 1 14 6
M  V30 9 1 15 10
M  V30 10 2 16 1
M  V30 11 1 16 3
M  V30 12 1 17 4
M  V30 13 1 17 6
M  V30 14 2 18 2
M  V30 15 1 18 4
M  V30 16 2 19 5
M  V30 17 1 20 12
M  V30 18 1 21 3
M  V30 19 1 22 4
M  V30 20 1 23 2
M  V30 21 1 23 8
M  V30 22 1 24 10
M  V30 23 1 24 14
M  V30 24 1 24 22
M  V30 25 1 14 25 CFG=3
M  V30 26 1 26 1
M  V30 27 1 26 21
M  V30 28 1 27 11
M  V30 29 1 27 14
M  V30 30 1 27 15
M  V30 31 1 28 7
M  V30 32 1 4 29 CFG=1
M  V30 33 1 30 6
M  V30 34 1 31 6
M  V30 35 1 32 7
M  V30 36 1 33 7
M  V30 37 1 34 8
M  V30 38 1 35 8
M  V30 39 1 36 9
M  V30 40 1 37 10
M  V30 41 1 38 10
M  V30 42 1 39 11
M  V30 43 1 40 11
M  V30 44 1 12 41 CFG=1
M  V30 45 1 13 42 CFG=3
M  V30 46 1 43 15
M  V30 47 1 44 15
M  V30 48 1 45 16
M  V30 49 1 46 17
M  V30 50 1 47 18
M  V30 51 1 48 20
M  V30 52 1 49 20
M  V30 53 1 50 20
M  V30 54 1 51 21
M  V30 55 1 52 21
M  V30 56 1 53 22
M  V30 57 1 54 22
M  V30 58 1 55 23
M  V30 59 1 56 23
M  V30 60 1 57 25
M  V30 61 1 58 26
M  V30 62 1 59 26
M  V30 63 1 27 60 CFG=1
M  V30 64 1 61 28
M  V30 65 1 62 9
M  V30 66 1 24 63 CFG=1
M  V30 END BOND
M  V30 END CTAB
M  END
>  <i_epik_Tot_Q>  (1) 
2

>  <i_epik_Tot_abs_Q>  (1) 
2

>  <i_i_glide_confnum>  (1) 
117

>  <i_i_glide_lignum>  (1) 
11

>  <i_i_glide_posenum>  (1) 
103

>  <i_i_glide_rotatable_bonds>  (1) 
8

>  <i_lp_mmshare_version>  (1) 
72125

>  <i_m_source_file_index>  (1) 
2

>  <i_f3d_flags>  (1) 
0

>  <num_sample>  (1) 
100

>  <b_lp_Chiralities_Consistent>  (1) 
1

>  <r_epik_Charging_Adjusted_Penalty>  (1) 
2.3622130296898831

>  <r_epik_Ionization_Penalty>  (1) 
1.4312966064593899

>  <r_epik_Ionization_Penalty_Charging>  (1) 
1.1852885594971458

>  <r_epik_Ionization_Penalty_Neutral>  (1) 
0.24600804696224418

>  <r_epik_State_Penalty>  (1) 
1.176924470192737

>  <r_glide_ring_energy>  (1) 
0

>  <r_i_docking_score>  (1) 
-5.7964957702753566

>  <r_i_glide_ecoul>  (1) 
-11.61647934903579

>  <r_i_glide_eff_state_penalty>  (1) 
1.176924470192737

>  <r_i_glide_einternal>  (1) 
7.0942625728464943

>  <r_i_glide_emodel>  (1) 
-54.017150671821035

>  <r_i_glide_emodel_strain>  (1) 
1.293944134860169

>  <r_i_glide_energy>  (1) 
-38.551837539574372

>  <r_i_glide_erotb>  (1) 
0.75687532201182384

>  <r_i_glide_esite>  (1) 
-0.10769485056916706

>  <r_i_glide_evdw>  (1) 
-26.935358190538583

>  <r_i_glide_gscore>  (1) 
-6.9734202404680934

>  <r_i_glide_gscore_strain>  (1) 
0

>  <r_i_glide_hbond>  (1) 
-0.20960097314441292

>  <r_i_glide_ligand_efficiency>  (1) 
-0.20701770608126274

>  <r_i_glide_ligand_efficiency_ln>  (1) 
-1.3380014162906941

>  <r_i_glide_ligand_efficiency_sa>  (1) 
-0.6286276832693598

>  <r_i_glide_lipo>  (1) 
-2.9309959417060365

>  <r_i_glide_metal>  (1) 
-0

>  <r_i_glide_rewards>  (1) 
-1.392763985178004

>  <r_lp_Energy>  (1) 
17.137563

>  <s_epik_cmdline>  (1) 
J2VwaWtfcHl0aG9uJywgJy1waHQnLCAnMS4wJywgJy1waCcsICc3LjQnLCAnLXRuJywgJzgnLCAnLW1hJywgJzUwMCcsICctaW1hZScsICc8aW5maWxlLm1hZT4nLCAnLW9tYWUnLCAnPG91dGZpbGUubWFlPic=

>  <s_epik_input>  (1) 
W0NIMl0xW0NIMl1PW0NIXT1DMUMoPU8pW0NIMl1bQ0BIXTJbQ0gyXVtDSDJdTihbQ0BAXTIzW09IXSlbQ0gyXVtDQEBIXShbTkhdW0NIMl0zKVxbQ0hdPUM0XFtDQEBIXShbTkhdW0NIMl1bQ0gyXTQpW0NASF0oW0NIM10pW0NIMl1bT0hd

>  <s_glide_docking_method>  (1) 
confgen

>  <s_i_glide_gridfile>  (1) 
gpcr_5ht2c_6bqh_protein_autoprepared_prepared

>  <s_lp_Force_Field>  (1) 
S-OPLS

>  <s_lp_Variant>  (1) 
DiffSBDD_1_num_sample_100-5

>  <s_m_source_file>  (1) 
generated__ligand_DiffSBDD_2026-05-06_prepared.sdf

>  <GenAI_Model>  (1) 
DiffSBDD

>  <Protein>  (1) 
GPCR_5HT2C

$$$$
DiffSBDD_1_num_sample_100
     RDKit          3D

  0  0  0  0  0  0  0  0  0  0999 V3000
M  V30 BEGIN CTAB
M  V30 COUNTS 63 66 0 0 1
M  V30 BEGIN ATOM
M  V30 1 C 38.577032 27.324816 56.714282 0
M  V30 2 C 38.993864 35.039978 62.042116 0
M  V30 3 O 37.430995 25.403017 56.869060 0
M  V30 4 C 36.983774 33.502362 61.498258 0 CFG=1
M  V30 5 C 38.848014 28.750226 56.988814 0
M  V30 6 C 37.649036 31.196350 60.856829 0
M  V30 7 C 36.786102 37.022563 63.438056 0
M  V30 8 C 40.734638 36.589187 62.016129 0
M  V30 9 N 39.445709 37.301757 61.881929 0 CHG=1
M  V30 10 C 37.665103 33.256808 57.735416 0
M  V30 11 C 37.867629 29.503509 57.894696 0
M  V30 12 C 36.977430 36.807217 61.920496 0 CFG=2
M  V30 13 C 38.391909 36.326920 61.491206 0 CFG=2
M  V30 14 C 37.422988 31.538781 59.380186 0 CFG=2
M  V30 15 C 38.308616 31.975625 57.166098 0
M  V30 16 C 37.551576 26.697692 57.201344 0
M  V30 17 N 36.770657 32.050179 61.685963 0
M  V30 18 C 38.392715 33.824249 62.027917 0
M  V30 19 O 39.823689 29.342834 56.525191 0
M  V30 20 C 36.594679 38.048734 61.094498 0
M  V30 21 C 38.635536 25.214904 56.018411 0
M  V30 22 C 36.692483 33.836429 60.011861 0
M  V30 23 C 40.370368 35.232752 62.603350 0
M  V30 24 N 37.570656 32.997038 59.175093 0 CFG=2 CHG=1
M  V30 25 O 36.065540 31.244189 59.118958 0
M  V30 26 C 39.487542 26.567535 55.857258 0
M  V30 27 C 38.313600 30.918991 58.306046 0 CFG=2
M  V30 28 O 35.521263 37.580299 63.745712 0
M  V30 29 H 36.256830 34.010802 62.134441 0
M  V30 30 H 38.694351 31.321166 61.133782 0
M  V30 31 H 37.421919 30.147767 61.027874 0
M  V30 32 H 37.582316 37.623961 63.863587 0
M  V30 33 H 36.823952 36.063223 63.938152 0
M  V30 34 H 41.456878 37.123922 62.634481 0
M  V30 35 H 41.157244 36.465307 61.018963 0
M  V30 36 H 39.502644 38.085070 61.242808 0
M  V30 37 H 38.269368 34.132201 57.527317 0
M  V30 38 H 36.674921 33.467778 57.339583 0
M  V30 39 H 37.705968 28.915146 58.797233 0
M  V30 40 H 36.904597 29.561040 57.385252 0
M  V30 41 H 36.268942 36.042868 61.626880 0
M  V30 42 H 38.455331 36.261946 60.405223 0
M  V30 43 H 39.333084 32.174038 56.847182 0
M  V30 44 H 37.759964 31.631456 56.288285 0
M  V30 45 H 36.771104 27.072960 57.849661 0
M  V30 46 H 35.818988 31.848938 61.380173 0
M  V30 47 H 38.931683 32.989515 62.452239 0
M  V30 48 H 37.208221 38.915024 61.343365 0
M  V30 49 H 36.715541 37.842685 60.030980 0
M  V30 50 H 35.552184 38.335342 61.240078 0
M  V30 51 H 39.258926 24.438437 56.463974 0
M  V30 52 H 38.325134 24.851531 55.038028 0
M  V30 53 H 35.643110 33.642302 59.784506 0
M  V30 54 H 36.846237 34.885272 59.776647 0
M  V30 55 H 40.308549 35.304370 63.690970 0
M  V30 56 H 41.061884 34.433603 62.332172 0
M  V30 57 H 35.867326 31.388220 58.182736 0
M  V30 58 H 39.504514 26.953139 54.836856 0
M  V30 59 H 40.493576 26.503617 56.277374 0
M  V30 60 H 39.319596 30.850664 58.721012 0
M  V30 61 H 35.486796 38.479339 63.453018 0
M  V30 62 H 39.234773 37.640798 62.810170 0
M  V30 63 H 38.495390 33.187718 59.530275 0
M  V30 END ATOM
M  V30 BEGIN BOND
M  V30 1 1 5 1
M  V30 2 1 9 8
M  V30 3 1 11 5
M  V30 4 1 12 7
M  V30 5 1 13 2
M  V30 6 1 13 9
M  V30 7 1 13 12
M  V30 8 1 14 6
M  V30 9 1 15 10
M  V30 10 2 16 1
M  V30 11 1 16 3
M  V30 12 1 17 4
M  V30 13 1 17 6
M  V30 14 2 18 2
M  V30 15 1 18 4
M  V30 16 2 19 5
M  V30 17 1 20 12
M  V30 18 1 21 3
M  V30 19 1 22 4
M  V30 20 1 23 2
M  V30 21 1 23 8
M  V30 22 1 24 10
M  V30 23 1 24 14
M  V30 24 1 24 22
M  V30 25 1 14 25 CFG=3
M  V30 26 1 26 1
M  V30 27 1 26 21
M  V30 28 1 27 11
M  V30 29 1 27 14
M  V30 30 1 27 15
M  V30 31 1 28 7
M  V30 32 1 4 29 CFG=1
M  V30 33 1 30 6
M  V30 34 1 31 6
M  V30 35 1 32 7
M  V30 36 1 33 7
M  V30 37 1 34 8
M  V30 38 1 35 8
M  V30 39 1 36 9
M  V30 40 1 37 10
M  V30 41 1 38 10
M  V30 42 1 39 11
M  V30 43 1 40 11
M  V30 44 1 12 41 CFG=3
M  V30 45 1 13 42 CFG=3
M  V30 46 1 43 15
M  V30 47 1 44 15
M  V30 48 1 45 16
M  V30 49 1 46 17
M  V30 50 1 47 18
M  V30 51 1 48 20
M  V30 52 1 49 20
M  V30 53 1 50 20
M  V30 54 1 51 21
M  V30 55 1 52 21
M  V30 56 1 53 22
M  V30 57 1 54 22
M  V30 58 1 55 23
M  V30 59 1 56 23
M  V30 60 1 57 25
M  V30 61 1 58 26
M  V30 62 1 59 26
M  V30 63 1 27 60 CFG=1
M  V30 64 1 61 28
M  V30 65 1 62 9
M  V30 66 1 24 63 CFG=1
M  V30 END BOND
M  V30 END CTAB
M  END
>  <i_epik_Tot_Q>  (1) 
2

>  <i_epik_Tot_abs_Q>  (1) 
2

>  <i_i_glide_confnum>  (1) 
56

>  <i_i_glide_lignum>  (1) 
17

>  <i_i_glide_posenum>  (1) 
252

>  <i_i_glide_rotatable_bonds>  (1) 
8

>  <i_lp_mmshare_version>  (1) 
72125

>  <i_m_source_file_index>  (1) 
2

>  <i_f3d_flags>  (1) 
0

>  <num_sample>  (1) 
100

>  <b_lp_Chiralities_Consistent>  (1) 
1

>  <r_epik_Charging_Adjusted_Penalty>  (1) 
2.3622130296898831

>  <r_epik_Ionization_Penalty>  (1) 
1.4312966064593899

>  <r_epik_Ionization_Penalty_Charging>  (1) 
1.1852885594971458

>  <r_epik_Ionization_Penalty_Neutral>  (1) 
0.24600804696224418

>  <r_epik_State_Penalty>  (1) 
1.176924470192737

>  <r_glide_ring_energy>  (1) 
0

>  <r_i_docking_score>  (1) 
-5.7932269003300636

>  <r_i_glide_ecoul>  (1) 
-11.301652565302948

>  <r_i_glide_eff_state_penalty>  (1) 
1.176924470192737

>  <r_i_glide_einternal>  (1) 
11.355353340100907

>  <r_i_glide_emodel>  (1) 
-44.856014763930631

>  <r_i_glide_emodel_strain>  (1) 
1.3219559754441406

>  <r_i_glide_energy>  (1) 
-32.287492717684586

>  <r_i_glide_erotb>  (1) 
0.75687532201182384

>  <r_i_glide_esite>  (1) 
-0.12244441956651171

>  <r_i_glide_evdw>  (1) 
-20.985840152381634

>  <r_i_glide_gscore>  (1) 
-6.9701513705228004

>  <r_i_glide_gscore_strain>  (1) 
0

>  <r_i_glide_hbond>  (1) 
-0.42427700459762757

>  <r_i_glide_ligand_efficiency>  (1) 
-0.2069009607260737

>  <r_i_glide_ligand_efficiency_ln>  (1) 
-1.3372468651291285

>  <r_i_glide_ligand_efficiency_sa>  (1) 
-0.62827317561127505

>  <r_i_glide_lipo>  (1) 
-2.8399625134008004

>  <r_i_glide_metal>  (1) 
-0

>  <r_i_glide_rewards>  (1) 
-1.5958028625551612

>  <r_lp_Energy>  (1) 
22.123918

>  <s_epik_cmdline>  (1) 
J2VwaWtfcHl0aG9uJywgJy1waHQnLCAnMS4wJywgJy1waCcsICc3LjQnLCAnLXRuJywgJzgnLCAnLW1hJywgJzUwMCcsICctaW1hZScsICc8aW5maWxlLm1hZT4nLCAnLW9tYWUnLCAnPG91dGZpbGUubWFlPic=

>  <s_epik_input>  (1) 
W0NIMl0xW0NIMl1PW0NIXT1DMUMoPU8pW0NIMl1bQ0BIXTJbQ0gyXVtDSDJdTihbQ0BAXTIzW09IXSlbQ0gyXVtDQEBIXShbTkhdW0NIMl0zKS9bQ0hdPUM0XFtDQEBIXShbTkhdW0NIMl1bQ0gyXTQpW0NASF0oW0NIM10pW0NIMl1bT0hd

>  <s_glide_docking_method>  (1) 
confgen

>  <s_i_glide_gridfile>  (1) 
gpcr_5ht2c_6bqh_protein_autoprepared_prepared

>  <s_lp_Force_Field>  (1) 
S-OPLS

>  <s_lp_Variant>  (1) 
DiffSBDD_1_num_sample_100-11

>  <s_m_source_file>  (1) 
generated__ligand_DiffSBDD_2026-05-06_prepared.sdf

>  <GenAI_Model>  (1) 
DiffSBDD

>  <Protein>  (1) 
GPCR_5HT2C

$$$$
DiffSBDD_44_num_sample_100
     RDKit          3D

  0  0  0  0  0  0  0  0  0  0999 V3000
M  V30 BEGIN CTAB
M  V30 COUNTS 58 59 0 0 1
M  V30 BEGIN ATOM
M  V30 1 C 37.547145 34.773848 59.400618 0
M  V30 2 O 37.155005 30.821520 61.261433 0 CHG=-1
M  V30 3 C 39.486155 30.145743 53.873942 0
M  V30 4 C 36.193026 33.343583 60.785254 0 CFG=1
M  V30 5 N 36.929739 32.484324 59.811251 0 CFG=1 CHG=1
M  V30 6 C 38.869003 27.826121 54.357042 0
M  V30 7 N 38.807287 30.051853 57.144888 0
M  V30 8 C 38.954990 29.301390 54.719644 0
M  V30 9 O 37.467495 30.975497 55.495690 0
M  V30 10 C 36.396057 34.816083 60.395970 0 CFG=1
M  V30 11 C 36.676067 35.737426 61.600675 0
M  V30 12 C 38.749769 30.624896 59.542625 0 CFG=1
M  V30 13 C 38.158174 30.030628 58.257820 0
M  V30 14 C 37.466795 33.388106 58.767278 0
M  V30 15 C 36.361527 30.705069 54.656878 0
M  V30 16 C 40.001787 29.555207 51.539219 0
M  V30 17 C 37.898129 31.559113 60.476869 0 CFG=2
M  V30 18 C 38.112593 29.784951 55.899148 0 CFG=2
M  V30 19 F 39.528008 27.446535 50.697099 0
M  V30 20 C 39.751209 28.045430 51.865798 0 CFG=2
M  V30 21 C 39.867324 30.534462 52.690388 0
M  V30 22 C 39.559482 29.559820 60.306862 0
M  V30 23 C 36.766083 29.409746 58.401902 0
M  V30 24 C 34.726491 32.929743 60.809801 0
M  V30 25 C 38.611136 27.608367 52.835196 0
M  V30 26 H 38.508780 34.876209 59.903449 0
M  V30 27 H 37.467403 35.566838 58.657844 0
M  V30 28 H 36.597822 33.207135 61.790398 0
M  V30 29 H 39.798990 27.339687 54.654037 0
M  V30 30 H 38.080847 27.331717 54.923712 0
M  V30 31 H 35.508070 35.172572 59.867745 0
M  V30 32 H 37.659816 35.542860 62.029276 0
M  V30 33 H 36.662782 36.786846 61.307067 0
M  V30 34 H 35.953625 35.592404 62.405304 0
M  V30 35 H 39.467236 31.331226 59.168550 0
M  V30 36 H 38.412684 33.071529 58.332504 0
M  V30 37 H 36.740914 33.419667 57.953723 0
M  V30 38 H 35.966907 31.624402 54.249536 0
M  V30 39 H 36.625717 30.018937 53.854520 0
M  V30 40 H 35.580513 30.250528 55.260654 0
M  V30 41 H 39.289414 29.872064 50.777190 0
M  V30 42 H 40.989869 29.679055 51.093591 0
M  V30 43 H 38.634046 32.231220 60.924757 0
M  V30 44 H 37.364776 29.011270 56.035248 0
M  V30 45 H 40.667392 27.621077 52.252948 0
M  V30 46 H 39.987212 31.581416 52.454803 0
M  V30 47 H 40.335648 29.121777 59.677249 0
M  V30 48 H 40.039665 29.990867 61.185010 0
M  V30 49 H 38.915997 28.749253 60.650615 0
M  V30 50 H 36.481687 29.280769 59.441421 0
M  V30 51 H 36.010727 30.019821 57.913109 0
M  V30 52 H 36.740507 28.408141 57.975499 0
M  V30 53 H 34.204421 33.431770 61.619109 0
M  V30 54 H 34.218721 33.148510 59.868900 0
M  V30 55 H 34.667638 31.855162 60.981835 0
M  V30 56 H 38.461434 26.536916 52.705685 0
M  V30 57 H 37.667449 28.067051 52.535464 0
M  V30 58 H 36.255652 31.882732 59.356234 0
M  V30 END ATOM
M  V30 BEGIN BOND
M  V30 1 1 5 4
M  V30 2 2 8 3
M  V30 3 1 8 6
M  V30 4 1 10 1
M  V30 5 1 10 4
M  V30 6 1 11 10
M  V30 7 2 13 7
M  V30 8 1 13 12
M  V30 9 1 14 1
M  V30 10 1 14 5
M  V30 11 1 15 9
M  V30 12 1 17 2
M  V30 13 1 17 5
M  V30 14 1 17 12
M  V30 15 1 18 7
M  V30 16 1 18 8
M  V30 17 1 18 9
M  V30 18 1 20 16
M  V30 19 1 20 19
M  V30 20 2 21 3
M  V30 21 1 21 16
M  V30 22 1 22 12
M  V30 23 1 23 13
M  V30 24 1 24 4
M  V30 25 1 25 6
M  V30 26 1 25 20
M  V30 27 1 26 1
M  V30 28 1 27 1
M  V30 29 1 4 28 CFG=1
M  V30 30 1 29 6
M  V30 31 1 30 6
M  V30 32 1 10 31 CFG=3
M  V30 33 1 32 11
M  V30 34 1 33 11
M  V30 35 1 34 11
M  V30 36 1 12 35 CFG=3
M  V30 37 1 36 14
M  V30 38 1 37 14
M  V30 39 1 38 15
M  V30 40 1 39 15
M  V30 41 1 40 15
M  V30 42 1 41 16
M  V30 43 1 42 16
M  V30 44 1 17 43 CFG=1
M  V30 45 1 18 44 CFG=1
M  V30 46 1 20 45 CFG=1
M  V30 47 1 46 21
M  V30 48 1 47 22
M  V30 49 1 48 22
M  V30 50 1 49 22
M  V30 51 1 50 23
M  V30 52 1 51 23
M  V30 53 1 52 23
M  V30 54 1 53 24
M  V30 55 1 54 24
M  V30 56 1 55 24
M  V30 57 1 56 25
M  V30 58 1 57 25
M  V30 59 1 5 58 CFG=3
M  V30 END BOND
M  V30 END CTAB
M  END
>  <i_epik_Tot_Q>  (1) 
0

>  <i_epik_Tot_abs_Q>  (1) 
2

>  <i_i_glide_confnum>  (1) 
19

>  <i_i_glide_lignum>  (1) 
116

>  <i_i_glide_posenum>  (1) 
82

>  <i_i_glide_rotatable_bonds>  (1) 
6

>  <i_lp_mmshare_version>  (1) 
72125

>  <i_m_source_file_index>  (1) 
45

>  <i_f3d_flags>  (1) 
0

>  <num_sample>  (1) 
100

>  <b_lp_Chiralities_Consistent>  (1) 
1

>  <r_epik_Charging_Adjusted_Penalty>  (1) 
0.41733257654759531

>  <r_epik_Ionization_Penalty>  (1) 
0.0069177268181324029

>  <r_epik_Ionization_Penalty_Charging>  (1) 
0.0066527375949913311

>  <r_epik_Ionization_Penalty_Neutral>  (1) 
0.00026498922314107146

>  <r_epik_State_Penalty>  (1) 
0.41067983895260396

>  <r_glide_ring_energy>  (1) 
0

>  <r_i_docking_score>  (1) 
-5.7890555913173305

>  <r_i_glide_ecoul>  (1) 
-3.2154646167930632

>  <r_i_glide_eff_state_penalty>  (1) 
0.41067983895260396

>  <r_i_glide_einternal>  (1) 
1.5817141760422508

>  <r_i_glide_emodel>  (1) 
-39.192739563105405

>  <r_i_glide_emodel_strain>  (1) 
4.5636727473100436

>  <r_i_glide_energy>  (1) 
-28.833015457844652

>  <r_i_glide_erotb>  (1) 
0.61440649929112812

>  <r_i_glide_esite>  (1) 
-0.11953220844401993

>  <r_i_glide_evdw>  (1) 
-25.617550841051589

>  <r_i_glide_gscore>  (1) 
-6.1997354302699348

>  <r_i_glide_gscore_strain>  (1) 
0.14091818682751089

>  <r_i_glide_hbond>  (1) 
-0.16

>  <r_i_glide_ligand_efficiency>  (1) 
-0.23156222365269322

>  <r_i_glide_ligand_efficiency_ln>  (1) 
-1.3721796591389799

>  <r_i_glide_ligand_efficiency_sa>  (1) 
-0.67709204946048995

>  <r_i_glide_lipo>  (1) 
-2.7947569363020985

>  <r_i_glide_metal>  (1) 
-0

>  <r_i_glide_rewards>  (1) 
-2.1175737370709165

>  <r_lp_Energy>  (1) 
7.1252040000000001

>  <r_lp_tautomer_probability>  (1) 
0.49999399997599986

>  <s_epik_Chemistry_Notes>  (1) 
This compound has an imine and may undergo hydrolysis. This compound contains an acetal/aminal-like group ( X-CH(R)-Y where X, Y are N, S, or O) that may be acid/base labile, releasing an aldehyde.

>  <s_epik_cmdline>  (1) 
J2VwaWtfcHl0aG9uJywgJy1waHQnLCAnMS4wJywgJy1waCcsICc3LjQnLCAnLXRuJywgJzgnLCAnLW1hJywgJzUwMCcsICctaW1hZScsICc8aW5maWxlLm1hZT4nLCAnLW9tYWUnLCAnPG91dGZpbGUubWFlPic=

>  <s_epik_input>  (1) 
W0NIM11bQ0BIXTFbQ0gyXVtDSDJdTihbQ0BASF0xW0NIM10pW0NAQEhdKFtPSF0pW0NAQEhdKFtDSDNdKVxDKFtDSDNdKT1OXFtDQEBIXShPW0NIM10pQzI9Qz1bQ0hdW0NIMl1bQ0BASF0oRilbQ0gyXVtDSDJdMg==

>  <s_glide_docking_method>  (1) 
confgen

>  <s_i_glide_gridfile>  (1) 
gpcr_5ht2c_6bqh_protein_autoprepared_prepared

>  <s_lp_Force_Field>  (1) 
S-OPLS

>  <s_lp_Variant>  (1) 
DiffSBDD_44_num_sample_100-9

>  <s_m_source_file>  (1) 
generated__ligand_DiffSBDD_2026-05-06_prepared.sdf

>  <GenAI_Model>  (1) 
DiffSBDD

>  <Protein>  (1) 
GPCR_5HT2C

$$$$
DiffSBDD_90_num_sample_100
     RDKit          3D

  0  0  0  0  0  0  0  0  0  0999 V3000
M  V30 BEGIN CTAB
M  V30 COUNTS 85 88 0 0 1
M  V30 BEGIN ATOM
M  V30 1 C 39.232447 29.642077 58.439630 0
M  V30 2 O 40.843560 36.338205 61.541754 0
M  V30 3 F 40.461282 29.760277 49.943436 0
M  V30 4 C 38.684637 26.548428 55.786773 0 CFG=1
M  V30 5 C 37.267103 36.885758 62.529752 0 CFG=2
M  V30 6 C 36.852786 35.625507 60.459056 0 CFG=1
M  V30 7 C 38.582794 26.244651 58.840966 0
M  V30 8 C 37.866843 33.366537 59.955101 0
M  V30 9 C 37.880951 25.547014 56.659023 0
M  V30 10 N 39.629214 36.165371 62.317252 0
M  V30 11 C 39.852179 30.790503 51.976728 0
M  V30 12 C 36.550067 25.217613 56.005681 0
M  V30 13 C 36.669174 35.576044 61.973838 0
M  V30 14 C 38.178933 36.406181 60.301054 0
M  V30 15 O 35.274669 38.129733 62.995070 0
M  V30 16 N 38.345218 30.430928 57.581263 0
M  V30 17 C 36.820470 34.205520 59.919289 0
M  V30 18 F 38.512172 29.303640 50.737253 0
M  V30 19 C 39.467372 28.070868 53.076286 0 CFG=2
M  V30 20 N 38.734090 30.391139 56.149111 0 CHG=1
M  V30 21 C 39.081864 30.553844 53.305188 0
M  V30 22 C 38.368524 31.827887 58.019572 0
M  V30 23 O 37.566930 26.228996 57.853796 0
M  V30 24 C 38.615730 24.218125 56.941969 0
M  V30 25 C 38.691920 29.631070 59.877162 0
M  V30 26 C 40.221316 28.304791 51.741432 0
M  V30 27 C 37.823665 31.945920 59.452430 0 CFG=1
M  V30 28 C 38.573660 36.969787 61.690907 0 CFG=1
M  V30 29 C 38.895208 25.966730 54.393632 0
M  V30 30 O 36.666020 38.938990 61.453510 0 CHG=-1
M  V30 31 C 39.124063 29.097858 55.512256 0 CFG=1
M  V30 32 C 38.588008 31.047019 60.436343 0
M  V30 33 O 37.556344 36.822015 63.914120 0
M  V30 34 C 38.066923 27.983297 55.694863 0
M  V30 35 C 39.605731 29.314208 54.043692 0 CFG=1
M  V30 36 C 39.951417 26.715500 53.630440 0
M  V30 37 C 39.762298 29.564724 51.059241 0
M  V30 38 C 36.316860 38.087808 62.301134 0
M  V30 39 H 39.277426 28.615759 58.092804 0
M  V30 40 H 40.248615 30.021451 58.410276 0
M  V30 41 H 41.021413 37.263920 61.629883 0
M  V30 42 H 39.662920 26.628644 56.258611 0
M  V30 43 H 36.054203 36.190130 59.977158 0
M  V30 44 H 38.332056 26.985249 59.594138 0
M  V30 45 H 38.580708 25.274174 59.319429 0
M  V30 46 H 39.582436 26.452950 58.464082 0
M  V30 47 H 38.805903 33.699995 60.373284 0
M  V30 48 H 39.880870 36.544763 63.221330 0
M  V30 49 H 40.891702 31.042911 52.172846 0
M  V30 50 H 39.467452 31.658330 51.443893 0
M  V30 51 H 36.606186 24.385545 55.302006 0
M  V30 52 H 35.774437 24.998914 56.730314 0
M  V30 53 H 36.267358 26.093416 55.454368 0
M  V30 54 H 35.690489 35.249067 62.327153 0
M  V30 55 H 37.330428 34.763742 62.252637 0
M  V30 56 H 38.010933 37.233588 59.613267 0
M  V30 57 H 38.976252 35.813678 59.867166 0
M  V30 58 H 35.883055 33.871459 59.495019 0
M  V30 59 H 38.409570 27.960067 52.828795 0
M  V30 60 H 37.932150 30.766996 55.657793 0
M  V30 61 H 39.176772 31.459151 53.903117 0
M  V30 62 H 38.023120 30.383394 53.142810 0
M  V30 63 H 37.746019 32.427770 57.355628 0
M  V30 64 H 39.376278 32.240617 57.953573 0
M  V30 65 H 38.654994 23.621855 56.040452 0
M  V30 66 H 39.645646 24.356403 57.272482 0
M  V30 67 H 38.087895 23.619541 57.687592 0
M  V30 68 H 37.702789 29.174669 59.876300 0
M  V30 69 H 39.325505 29.022863 60.523851 0
M  V30 70 H 41.297760 28.377498 51.853535 0
M  V30 71 H 40.037822 27.468395 51.064639 0
M  V30 72 H 36.781769 31.624213 59.436624 0
M  V30 73 H 38.952969 37.986790 61.613155 0
M  V30 74 H 39.239184 24.939375 54.481618 0
M  V30 75 H 37.967098 25.944576 53.819511 0
M  V30 76 H 40.017020 28.788931 56.058106 0
M  V30 77 H 39.587522 31.441410 60.629543 0
M  V30 78 H 38.073926 31.027507 61.397869 0
M  V30 79 H 37.937819 35.975667 64.081638 0
M  V30 80 H 37.502626 28.193855 56.599999 0
M  V30 81 H 37.333537 28.050046 54.892851 0
M  V30 82 H 40.634540 29.622344 54.201348 0
M  V30 83 H 40.820318 26.821430 54.271708 0
M  V30 84 H 40.265847 26.063955 52.816618 0
M  V30 85 H 39.504204 31.039350 56.064129 0
M  V30 END ATOM
M  V30 BEGIN BOND
M  V30 1 1 9 4
M  V30 2 1 10 2
M  V30 3 1 12 9
M  V30 4 1 13 5
M  V30 5 1 13 6
M  V30 6 1 14 6
M  V30 7 1 16 1
M  V30 8 1 17 6
M  V30 9 2 17 8
M  V30 10 1 20 16
M  V30 11 1 21 11
M  V30 12 1 22 16
M  V30 13 1 23 7
M  V30 14 1 23 9
M  V30 15 1 24 9
M  V30 16 1 25 1
M  V30 17 1 26 19
M  V30 18 1 27 8
M  V30 19 1 27 22
M  V30 20 1 28 5
M  V30 21 1 28 10
M  V30 22 1 28 14
M  V30 23 1 29 4
M  V30 24 1 31 20
M  V30 25 1 32 25
M  V30 26 1 32 27
M  V30 27 1 5 33 CFG=1
M  V30 28 1 34 4
M  V30 29 1 34 31
M  V30 30 1 35 19
M  V30 31 1 35 21
M  V30 32 1 35 31
M  V30 33 1 36 19
M  V30 34 1 36 29
M  V30 35 1 37 3
M  V30 36 1 37 11
M  V30 37 1 37 18
M  V30 38 1 37 26
M  V30 39 1 38 5
M  V30 40 2 38 15
M  V30 41 1 38 30
M  V30 42 1 39 1
M  V30 43 1 40 1
M  V30 44 1 41 2
M  V30 45 1 4 42 CFG=1
M  V30 46 1 6 43 CFG=3
M  V30 47 1 44 7
M  V30 48 1 45 7
M  V30 49 1 46 7
M  V30 50 1 47 8
M  V30 51 1 48 10
M  V30 52 1 49 11
M  V30 53 1 50 11
M  V30 54 1 51 12
M  V30 55 1 52 12
M  V30 56 1 53 12
M  V30 57 1 54 13
M  V30 58 1 55 13
M  V30 59 1 56 14
M  V30 60 1 57 14
M  V30 61 1 58 17
M  V30 62 1 19 59 CFG=3
M  V30 63 1 60 20
M  V30 64 1 61 21
M  V30 65 1 62 21
M  V30 66 1 63 22
M  V30 67 1 64 22
M  V30 68 1 65 24
M  V30 69 1 66 24
M  V30 70 1 67 24
M  V30 71 1 68 25
M  V30 72 1 69 25
M  V30 73 1 70 26
M  V30 74 1 71 26
M  V30 75 1 27 72 CFG=3
M  V30 76 1 28 73 CFG=3
M  V30 77 1 74 29
M  V30 78 1 75 29
M  V30 79 1 31 76 CFG=1
M  V30 80 1 77 32
M  V30 81 1 78 32
M  V30 82 1 79 33
M  V30 83 1 80 34
M  V30 84 1 81 34
M  V30 85 1 35 82 CFG=1
M  V30 86 1 83 36
M  V30 87 1 84 36
M  V30 88 1 85 20
M  V30 END BOND
M  V30 END CTAB
M  END
>  <i_epik_Tot_Q>  (1) 
0

>  <i_epik_Tot_abs_Q>  (1) 
2

>  <i_i_glide_confnum>  (1) 
416

>  <i_i_glide_lignum>  (1) 
234

>  <i_i_glide_posenum>  (1) 
55

>  <i_i_glide_rotatable_bonds>  (1) 
10

>  <i_lp_mmshare_version>  (1) 
72125

>  <i_m_source_file_index>  (1) 
91

>  <i_f3d_flags>  (1) 
0

>  <num_sample>  (1) 
100

>  <b_lp_Chiralities_Consistent>  (1) 
1

>  <r_epik_Charging_Adjusted_Penalty>  (1) 
1.3235823108087639

>  <r_epik_Ionization_Penalty>  (1) 
0.58520961668590687

>  <r_epik_Ionization_Penalty_Charging>  (1) 
0.5818654171532841

>  <r_epik_Ionization_Penalty_Neutral>  (1) 
0.0033441995326227757

>  <r_epik_State_Penalty>  (1) 
0.74171689365547977

>  <r_glide_ring_energy>  (1) 
0.35261698705854638

>  <r_i_docking_score>  (1) 
-5.7862440557255734

>  <r_i_glide_ecoul>  (1) 
0.7440459014474099

>  <r_i_glide_eff_state_penalty>  (1) 
0.74171689365547977

>  <r_i_glide_einternal>  (1) 
17.291134785550035

>  <r_i_glide_emodel>  (1) 
-18.590881652587289

>  <r_i_glide_emodel_strain>  (1) 
3.1642807944782732

>  <r_i_glide_energy>  (1) 
-17.818625264265101

>  <r_i_glide_erotb>  (1) 
0.42002339013477186

>  <r_i_glide_esite>  (1) 
-0.01809303453030656

>  <r_i_glide_evdw>  (1) 
-18.562671165712512

>  <r_i_glide_gscore>  (1) 
-6.5279609493810531

>  <r_i_glide_gscore_strain>  (1) 
0

>  <r_i_glide_hbond>  (1) 
0

>  <r_i_glide_ligand_efficiency>  (1) 
-0.15226958041383087

>  <r_i_glide_ligand_efficiency_ln>  (1) 
-1.2476844324692735

>  <r_i_glide_ligand_efficiency_sa>  (1) 
-0.51192658455489659

>  <r_i_glide_lipo>  (1) 
-4.338739196948552

>  <r_i_glide_metal>  (1) 
-0

>  <r_i_glide_rewards>  (1) 
-1.7746254349684512

>  <r_lp_Energy>  (1) 
50.269594999999995

>  <s_epik_Chemistry_Notes>  (1) 
This compound has a N-S or N-O group and may undergo hydrolysis at high or low pH.

>  <s_epik_cmdline>  (1) 
J2VwaWtfcHl0aG9uJywgJy1waHQnLCAnMS4wJywgJy1waCcsICc3LjQnLCAnLXRuJywgJzgnLCAnLW1hJywgJzUwMCcsICctaW1hZScsICc8aW5maWxlLm1hZT4nLCAnLW9tYWUnLCAnPG91dGZpbGUubWFlPic=

>  <s_epik_input>  (1) 
RkMoRikoW0NIMl0xKVtDSDJdW0NIMl1bQ0BIXShbQ0BASF0xMilbQ0BIXShbQ0gyXVtDQEhdKFtDSDJdW0NIMl0yKUMoW0NIM10pKFtDSDNdKU9bQ0gzXSlbTkhdTjNbQ0gyXVtDSDJdW0NIMl1bQ0BIXShbQ0gyXTMpL1tDSF09W0NIXS9bQ0BASF0oW0NIMl1bQ0BdNChbT0hdKUMoPU8pW09IXSlbQ0gyXVtDQEBIXTRbTkhdW09IXQ==

>  <s_glide_docking_method>  (1) 
confgen

>  <s_i_glide_gridfile>  (1) 
gpcr_5ht2c_6bqh_protein_autoprepared_prepared

>  <s_lp_Force_Field>  (1) 
S-OPLS

>  <s_lp_Variant>  (1) 
DiffSBDD_90_num_sample_100-6

>  <s_m_source_file>  (1) 
generated__ligand_DiffSBDD_2026-05-06_prepared.sdf

>  <GenAI_Model>  (1) 
DiffSBDD

>  <Protein>  (1) 
GPCR_5HT2C

$$$$
DiffSBDD_93_num_sample_100
     RDKit          3D

  0  0  0  0  0  0  0  0  0  0999 V3000
M  V30 BEGIN CTAB
M  V30 COUNTS 74 77 0 0 1
M  V30 BEGIN ATOM
M  V30 1 C 41.141809 32.601063 64.272229 0
M  V30 2 S 38.266083 32.859559 58.214711 0
M  V30 3 C 41.654534 30.817977 66.026287 0 CFG=2
M  V30 4 O 37.471705 37.279624 60.361805 0
M  V30 5 C 39.720388 30.990940 54.696617 0
M  V30 6 C 36.805345 34.562579 61.192799 0 CFG=1
M  V30 7 C 37.521180 29.578994 56.188270 0
M  V30 8 C 38.793062 30.143090 58.266457 0
M  V30 9 C 42.900074 31.633761 66.391258 0
M  V30 10 N 38.652887 31.328267 60.429539 0
M  V30 11 C 38.881392 30.188399 53.730331 0
M  V30 12 C 40.962109 31.347678 64.780752 0
M  V30 13 C 40.441767 33.014863 63.016939 0
M  V30 14 C 38.652337 32.572676 61.230594 0 CFG=2
M  V30 15 C 42.581203 33.122059 66.374653 0
M  V30 16 Cl 41.359065 35.209733 65.261983 0
M  V30 17 O 38.566166 27.919590 52.992342 0
M  V30 18 C 42.080708 33.593439 64.996125 0 CFG=2
M  V30 19 C 40.867831 34.295721 62.298005 0
M  V30 20 C 36.895657 33.912894 58.746635 0
M  V30 21 C 37.078615 35.705666 62.210043 0
M  V30 22 C 39.430276 32.253535 62.505487 0
M  V30 23 C 37.804212 28.423589 55.196568 0
M  V30 24 C 37.330608 34.946754 59.802658 0 CFG=1
M  V30 25 C 38.048198 31.261369 59.085876 0 CFG=1
M  V30 26 C 38.856415 28.711195 54.128234 0 CFG=2
M  V30 27 C 36.910164 36.375954 59.423628 0
M  V30 28 C 36.905668 37.141520 61.653652 0
M  V30 29 C 39.613905 30.949153 56.041380 0
M  V30 30 S 36.389031 30.559150 59.354083 0
M  V30 31 N 38.699952 30.202320 56.789486 0
M  V30 32 C 40.667384 30.659437 67.190751 0
M  V30 33 C 37.222480 33.100025 61.602266 0
M  V30 34 H 42.003055 29.816370 65.769476 0
M  V30 35 H 40.472763 31.621407 54.253576 0
M  V30 36 H 35.718177 34.536744 61.109819 0
M  V30 37 H 36.863603 29.221430 56.977683 0
M  V30 38 H 36.954467 30.366268 55.689682 0
M  V30 39 H 38.477529 29.153170 58.598254 0
M  V30 40 H 39.854575 30.165272 58.508481 0
M  V30 41 H 43.284206 31.333007 67.366513 0
M  V30 42 H 43.696225 31.432661 65.672436 0
M  V30 43 H 38.267011 30.569264 60.971211 0
M  V30 44 H 39.356977 30.296467 52.754512 0
M  V30 45 H 37.883966 30.615917 53.638920 0
M  V30 46 H 40.321143 30.644999 64.286684 0
M  V30 47 H 39.202020 33.309428 60.664883 0
M  V30 48 H 41.825860 33.331420 67.132153 0
M  V30 49 H 43.464494 33.686872 66.669928 0
M  V30 50 H 39.219450 28.082271 52.329451 0
M  V30 51 H 42.945582 33.753119 64.358121 0
M  V30 52 H 41.850536 34.640907 62.609998 0
M  V30 53 H 40.964923 34.148793 61.224945 0
M  V30 54 H 40.163315 35.103017 62.476953 0
M  V30 55 H 36.569824 34.421420 57.853489 0
M  V30 56 H 36.026914 33.331336 59.050707 0
M  V30 57 H 38.084635 35.621432 62.612366 0
M  V30 58 H 36.378575 35.621451 63.044217 0
M  V30 59 H 39.121545 31.358566 63.007881 0
M  V30 60 H 36.878954 28.208139 54.653502 0
M  V30 61 H 38.070013 27.514128 55.736166 0
M  V30 62 H 38.416868 34.996096 59.853461 0
M  V30 63 H 39.833219 28.414301 54.511396 0
M  V30 64 H 37.306507 36.635262 58.442752 0
M  V30 65 H 35.826838 36.483275 59.370343 0
M  V30 66 H 37.407721 37.843151 62.317558 0
M  V30 67 H 35.869048 37.479750 61.630112 0
M  V30 68 H 40.267401 31.537161 56.653412 0
M  V30 69 H 35.895723 30.945749 58.156194 0
M  V30 70 H 39.824956 30.025727 66.908775 0
M  V30 71 H 41.148877 30.197791 68.053807 0
M  V30 72 H 40.267391 31.621207 67.507586 0
M  V30 73 H 37.054879 32.907013 62.653493 0
M  V30 74 H 36.470819 32.453312 61.168054 0
M  V30 END ATOM
M  V30 BEGIN BOND
M  V30 1 1 9 3
M  V30 2 1 11 5
M  V30 3 2 12 1
M  V30 4 1 12 3
M  V30 5 1 13 1
M  V30 6 1 14 10
M  V30 7 1 15 9
M  V30 8 1 18 1
M  V30 9 1 18 15
M  V30 10 1 18 16
M  V30 11 1 19 13
M  V30 12 1 20 2
M  V30 13 1 21 6
M  V30 14 2 22 13
M  V30 15 1 22 14
M  V30 16 1 23 7
M  V30 17 1 24 6
M  V30 18 1 24 20
M  V30 19 1 25 2
M  V30 20 1 25 8
M  V30 21 1 25 10
M  V30 22 1 26 11
M  V30 23 1 26 17
M  V30 24 1 26 23
M  V30 25 1 27 4
M  V30 26 1 27 24
M  V30 27 1 28 4
M  V30 28 1 28 21
M  V30 29 2 29 5
M  V30 30 1 25 30 CFG=1
M  V30 31 1 31 7
M  V30 32 1 31 8
M  V30 33 1 31 29
M  V30 34 1 32 3
M  V30 35 1 33 6
M  V30 36 1 33 14
M  V30 37 1 3 34 CFG=3
M  V30 38 1 35 5
M  V30 39 1 6 36 CFG=3
M  V30 40 1 37 7
M  V30 41 1 38 7
M  V30 42 1 39 8
M  V30 43 1 40 8
M  V30 44 1 41 9
M  V30 45 1 42 9
M  V30 46 1 43 10
M  V30 47 1 44 11
M  V30 48 1 45 11
M  V30 49 1 46 12
M  V30 50 1 14 47 CFG=3
M  V30 51 1 48 15
M  V30 52 1 49 15
M  V30 53 1 50 17
M  V30 54 1 18 51 CFG=3
M  V30 55 1 52 19
M  V30 56 1 53 19
M  V30 57 1 54 19
M  V30 58 1 55 20
M  V30 59 1 56 20
M  V30 60 1 57 21
M  V30 61 1 58 21
M  V30 62 1 59 22
M  V30 63 1 60 23
M  V30 64 1 61 23
M  V30 65 1 24 62 CFG=1
M  V30 66 1 26 63 CFG=1
M  V30 67 1 64 27
M  V30 68 1 65 27
M  V30 69 1 66 28
M  V30 70 1 67 28
M  V30 71 1 68 29
M  V30 72 1 69 30
M  V30 73 1 70 32
M  V30 74 1 71 32
M  V30 75 1 72 32
M  V30 76 1 73 33
M  V30 77 1 74 33
M  V30 END BOND
M  V30 END CTAB
M  END
>  <i_epik_Tot_Q>  (1) 
0

>  <i_epik_Tot_abs_Q>  (1) 
0

>  <i_i_glide_confnum>  (1) 
15

>  <i_i_glide_lignum>  (1) 
251

>  <i_i_glide_posenum>  (1) 
387

>  <i_i_glide_rotatable_bonds>  (1) 
6

>  <i_lp_mmshare_version>  (1) 
72125

>  <i_m_source_file_index>  (1) 
94

>  <i_f3d_flags>  (1) 
0

>  <num_sample>  (1) 
100

>  <b_lp_Chiralities_Consistent>  (1) 
1

>  <r_epik_Charging_Adjusted_Penalty>  (1) 
0.20325292957253988

>  <r_epik_Ionization_Penalty>  (1) 
0.031936562948065232

>  <r_epik_Ionization_Penalty_Charging>  (1) 
3.6030848355623751e-07

>  <r_epik_Ionization_Penalty_Neutral>  (1) 
0.031936202639581676

>  <r_epik_State_Penalty>  (1) 
0.20325256926405633

>  <r_glide_ring_energy>  (1) 
1.2305908303780131

>  <r_i_docking_score>  (1) 
-5.7790836304671407

>  <r_i_glide_ecoul>  (1) 
-1.9173537666474023

>  <r_i_glide_eff_state_penalty>  (1) 
0.20325256926405633

>  <r_i_glide_einternal>  (1) 
13.436286443528633

>  <r_i_glide_emodel>  (1) 
-37.037634275346008

>  <r_i_glide_emodel_strain>  (1) 
2.0351721070386191

>  <r_i_glide_energy>  (1) 
-37.170050102399209

>  <r_i_glide_erotb>  (1) 
0.31140238833871409

>  <r_i_glide_esite>  (1) 
-0.13192372783503689

>  <r_i_glide_evdw>  (1) 
-35.252696335751807

>  <r_i_glide_gscore>  (1) 
-5.982336199731197

>  <r_i_glide_gscore_strain>  (1) 
0

>  <r_i_glide_hbond>  (1) 
-0.16

>  <r_i_glide_ligand_efficiency>  (1) 
-0.17512374637779216

>  <r_i_glide_ligand_efficiency_ln>  (1) 
-1.285238276922271

>  <r_i_glide_ligand_efficiency_sa>  (1) 
-0.5617154285042506

>  <r_i_glide_lipo>  (1) 
-3.5145714527239473

>  <r_i_glide_metal>  (1) 
-0

>  <r_i_glide_rewards>  (1) 
-0.43700552572622658

>  <r_lp_Energy>  (1) 
26.376678999999999

>  <s_epik_Chemistry_Notes>  (1) 
This compound has an imine and may undergo hydrolysis.

>  <s_epik_cmdline>  (1) 
J2VwaWtfcHl0aG9uJywgJy1waHQnLCAnMS4wJywgJy1waCcsICc3LjQnLCAnLXRuJywgJzgnLCAnLW1hJywgJzUwMCcsICctaW1hZScsICc8aW5maWxlLm1hZT4nLCAnLW9tYWUnLCAnPG91dGZpbGUubWFlPic=

>  <s_epik_input>  (1) 
Q2xbQ0BIXTFbQ0gyXVtDSDJdW0NAQEhdKFtDSDNdKVtDSF09QzEvQyhbQ0gzXSk9W0NIXS9bQ0BASF0oW0NIMl0yKVtOSF1bQ0BAXShbU0hdKShTW0NIMl1bQ0BIXShbQ0BASF0yMylbQ0gyXU9bQ0gyXVtDSDJdMylbQ0gyXU4oW0NIMl1bQ0gyXTQpW0NIXT1bQ0hdW0NIMl1bQ0BASF00W09IXQ==

>  <s_glide_docking_method>  (1) 
confgen

>  <s_i_glide_gridfile>  (1) 
gpcr_5ht2c_6bqh_protein_autoprepared_prepared

>  <s_lp_Force_Field>  (1) 
S-OPLS

>  <s_lp_Variant>  (1) 
DiffSBDD_93_num_sample_100-3

>  <s_m_source_file>  (1) 
generated__ligand_DiffSBDD_2026-05-06_prepared.sdf

>  <GenAI_Model>  (1) 
DiffSBDD

>  <Protein>  (1) 
GPCR_5HT2C

$$$$
DiffSBDD_54_num_sample_100
     RDKit          3D

  0  0  0  0  0  0  0  0  0  0999 V3000
M  V30 BEGIN CTAB
M  V30 COUNTS 32 33 0 0 1
M  V30 BEGIN ATOM
M  V30 1 C 40.528250 27.743399 58.659475 0
M  V30 2 C 39.172621 28.315160 56.595279 0
M  V30 3 C 40.570305 30.163824 49.588434 0
M  V30 4 N 39.154284 27.023853 54.553775 0
M  V30 5 N 40.659292 28.326434 59.890528 0
M  V30 6 C 39.791679 29.619524 51.987724 0
M  V30 7 C 39.273094 29.559086 58.869547 0
M  V30 8 C 39.115391 28.270445 51.655050 0
M  V30 9 C 39.571997 27.212996 55.821626 0
M  V30 10 N 37.874574 29.062992 54.701045 0
M  V30 11 C 37.978647 27.854197 52.608001 0
M  V30 12 C 40.947541 29.984015 51.053507 0
M  V30 13 C 39.647238 28.511352 57.978242 0
M  V30 14 C 38.352096 27.982414 54.070652 0
M  V30 15 N 39.899257 29.442999 60.050600 0
M  V30 16 C 38.298747 29.221188 55.971343 0
M  V30 17 H 41.068353 26.850030 58.380747 0
M  V30 18 H 41.463523 30.479625 49.053491 0
M  V30 19 H 40.212047 29.241415 49.131179 0
M  V30 20 H 39.806866 30.932472 49.462012 0
M  V30 21 H 41.256058 27.982841 60.631503 0
M  V30 22 H 39.067410 30.421259 51.984471 0
M  V30 23 H 40.184738 29.621037 53.003611 0
M  V30 24 H 38.590593 30.380919 58.709961 0
M  V30 25 H 39.868129 27.484031 51.674022 0
M  V30 26 H 38.723360 28.286060 50.638495 0
M  V30 27 H 40.242641 26.468119 56.223787 0
M  V30 28 H 37.699138 26.821671 52.410202 0
M  V30 29 H 37.088434 28.451303 52.404959 0
M  V30 30 H 41.384905 30.922013 51.395472 0
M  V30 31 H 41.718680 29.221430 51.132382 0
M  V30 32 H 37.940436 30.095450 56.494282 0
M  V30 END ATOM
M  V30 BEGIN BOND
M  V30 1 1 5 1
M  V30 2 1 8 6
M  V30 3 1 9 2
M  V30 4 2 9 4
M  V30 5 1 11 8
M  V30 6 1 12 3
M  V30 7 1 12 6
M  V30 8 2 13 1
M  V30 9 1 13 2
M  V30 10 1 13 7
M  V30 11 1 14 4
M  V30 12 2 14 10
M  V30 13 1 14 11
M  V30 14 1 15 5
M  V30 15 2 15 7
M  V30 16 2 16 2
M  V30 17 1 16 10
M  V30 18 1 17 1
M  V30 19 1 18 3
M  V30 20 1 19 3
M  V30 21 1 20 3
M  V30 22 1 21 5
M  V30 23 1 22 6
M  V30 24 1 23 6
M  V30 25 1 24 7
M  V30 26 1 25 8
M  V30 27 1 26 8
M  V30 28 1 27 9
M  V30 29 1 28 11
M  V30 30 1 29 11
M  V30 31 1 30 12
M  V30 32 1 31 12
M  V30 33 1 32 16
M  V30 END BOND
M  V30 END CTAB
M  END
>  <i_epik_Tot_Q>  (1) 
0

>  <i_epik_Tot_abs_Q>  (1) 
0

>  <i_i_glide_confnum>  (1) 
6

>  <i_i_glide_lignum>  (1) 
142

>  <i_i_glide_posenum>  (1) 
272

>  <i_i_glide_rotatable_bonds>  (1) 
5

>  <i_lp_mmshare_version>  (1) 
72125

>  <i_m_source_file_index>  (1) 
55

>  <i_f3d_flags>  (1) 
0

>  <num_sample>  (1) 
100

>  <b_lp_Chiralities_Consistent>  (1) 
1

>  <r_epik_Charging_Adjusted_Penalty>  (1) 
0

>  <r_epik_Ionization_Penalty>  (1) 
2.7336504673295612e-06

>  <r_epik_Ionization_Penalty_Charging>  (1) 
0

>  <r_epik_Ionization_Penalty_Neutral>  (1) 
2.7336504673295612e-06

>  <r_epik_State_Penalty>  (1) 
-0

>  <r_glide_ring_energy>  (1) 
0

>  <r_i_docking_score>  (1) 
-5.7786208664044718

>  <r_i_glide_ecoul>  (1) 
-2.81797264180131

>  <r_i_glide_eff_state_penalty>  (1) 
-0

>  <r_i_glide_einternal>  (1) 
3.0219258900019388

>  <r_i_glide_emodel>  (1) 
-39.782107001857923

>  <r_i_glide_emodel_strain>  (1) 
0

>  <r_i_glide_energy>  (1) 
-29.720269330339455

>  <r_i_glide_erotb>  (1) 
1.4325524447639233

>  <r_i_glide_esite>  (1) 
0

>  <r_i_glide_evdw>  (1) 
-26.902296688538144

>  <r_i_glide_gscore>  (1) 
-5.7786208664044718

>  <r_i_glide_gscore_strain>  (1) 
0

>  <r_i_glide_hbond>  (1) 
0

>  <r_i_glide_ligand_efficiency>  (1) 
-0.36116380415027949

>  <r_i_glide_ligand_efficiency_ln>  (1) 
-1.5317388912125338

>  <r_i_glide_ligand_efficiency_sa>  (1) 
-0.91007575861809298

>  <r_i_glide_lipo>  (1) 
-2.5409717590726628

>  <r_i_glide_metal>  (1) 
-0

>  <r_i_glide_rewards>  (1) 
-2.9023908213986287

>  <r_lp_Energy>  (1) 
15.064480999999999

>  <r_lp_tautomer_probability>  (1) 
1

>  <s_epik_cmdline>  (1) 
J2VwaWtfcHl0aG9uJywgJy1waHQnLCAnMS4wJywgJy1waCcsICc3LjQnLCAnLXRuJywgJzgnLCAnLW1hJywgJzUwMCcsICctaW1hZScsICc8aW5maWxlLm1hZT4nLCAnLW9tYWUnLCAnPG91dGZpbGUubWFlPic=

>  <s_epik_input>  (1) 
W2NIXTFuW25IXVtjSF1jMS1jMltjSF1uYyhuW2NIXTIpW0NIMl1bQ0gyXVtDSDJdW0NIMl1bQ0gzXQ==

>  <s_glide_docking_method>  (1) 
confgen

>  <s_i_glide_gridfile>  (1) 
gpcr_5ht2c_6bqh_protein_autoprepared_prepared

>  <s_lp_Force_Field>  (1) 
S-OPLS

>  <s_lp_Variant>  (1) 
DiffSBDD_54_num_sample_100-1

>  <s_m_source_file>  (1) 
generated__ligand_DiffSBDD_2026-05-06_prepared.sdf

>  <GenAI_Model>  (1) 
DiffSBDD

>  <Protein>  (1) 
GPCR_5HT2C

$$$$
DiffSBDD_1_num_sample_100
     RDKit          3D

  0  0  0  0  0  0  0  0  0  0999 V3000
M  V30 BEGIN CTAB
M  V30 COUNTS 63 66 0 0 1
M  V30 BEGIN ATOM
M  V30 1 C 40.708517 34.213235 62.339993 0
M  V30 2 C 38.575344 28.022349 55.004466 0
M  V30 3 O 40.900515 36.421548 62.659393 0
M  V30 4 C 38.116666 29.859330 56.692763 0 CFG=1
M  V30 5 C 40.239108 32.992059 61.651459 0
M  V30 6 C 38.597278 32.160438 57.289497 0
M  V30 7 C 39.226788 25.221178 56.656266 0
M  V30 8 C 38.340626 28.076891 52.709118 0
M  V30 9 N 39.037470 26.821429 53.089493 0 CHG=1
M  V30 10 C 36.512228 30.662437 60.057636 0
M  V30 11 C 39.309981 33.161772 60.437640 0
M  V30 12 C 38.796146 25.434652 55.184936 0 CFG=2
M  V30 13 C 39.286058 26.773045 54.555544 0 CFG=2
M  V30 14 C 37.858628 31.991174 58.636182 0 CFG=2
M  V30 15 C 37.667822 31.209013 60.917894 0
M  V30 16 C 40.407371 35.406574 61.936303 0
M  V30 17 N 39.133127 30.898810 56.787471 0
M  V30 18 C 38.794823 28.596431 56.202219 0
M  V30 19 O 40.563591 31.860182 62.012316 0
M  V30 20 C 37.294861 25.152159 54.972234 0
M  V30 21 C 41.630303 35.689452 63.726123 0
M  V30 22 C 37.506909 29.609896 58.080164 0
M  V30 23 C 37.645162 28.584230 53.971706 0
M  V30 24 N 36.920705 30.845803 58.653500 0 CFG=1 CHG=1
M  V30 25 O 36.975436 33.093800 58.745796 0
M  V30 26 C 41.548454 34.095424 63.532953 0
M  V30 27 C 38.673210 31.848746 59.932172 0 CFG=2
M  V30 28 O 38.369828 25.868351 57.575986 0
M  V30 29 H 37.322393 30.175100 56.016912 0
M  V30 30 H 39.392393 32.899959 57.385279 0
M  V30 31 H 37.904848 32.560950 56.546140 0
M  V30 32 H 40.251807 25.560335 56.813131 0
M  V30 33 H 39.217202 24.156631 56.895407 0
M  V30 34 H 37.647891 27.919572 51.881414 0
M  V30 35 H 39.088616 28.800824 52.381788 0
M  V30 36 H 39.893475 26.712444 52.565406 0
M  V30 37 H 36.272684 29.621437 60.253495 0
M  V30 38 H 35.606325 31.243141 60.237243 0
M  V30 39 H 39.867414 33.631377 59.628811 0
M  V30 40 H 38.516094 33.858750 60.708334 0
M  V30 41 H 39.334273 24.651292 54.653507 0
M  V30 42 H 40.354918 26.886228 54.734385 0
M  V30 43 H 38.145477 30.421368 61.501991 0
M  V30 44 H 37.283113 31.946482 61.623787 0
M  V30 45 H 39.806993 35.703876 61.088545 0
M  V30 46 H 39.534054 31.063626 55.868594 0
M  V30 47 H 39.499270 28.140767 56.883577 0
M  V30 48 H 36.667814 25.892329 55.470285 0
M  V30 49 H 37.028915 25.154488 53.915486 0
M  V30 50 H 37.022791 24.172730 55.367245 0
M  V30 51 H 42.667401 36.021605 63.738188 0
M  V30 52 H 41.205940 35.970741 64.690646 0
M  V30 53 H 36.728777 28.848867 58.008952 0
M  V30 54 H 38.268891 29.216144 58.755859 0
M  V30 55 H 36.667398 28.120905 54.083835 0
M  V30 56 H 37.543931 29.669170 53.972970 0
M  V30 57 H 36.376181 33.063831 58.004863 0
M  V30 58 H 41.036930 33.588950 64.352217 0
M  V30 59 H 42.510756 33.629053 63.319446 0
M  V30 60 H 39.465332 31.121248 59.744654 0
M  V30 61 H 37.525055 25.443987 57.546990 0
M  V30 62 H 38.416322 26.057274 52.862654 0
M  V30 63 H 36.127924 31.105323 58.055357 0
M  V30 END ATOM
M  V30 BEGIN BOND
M  V30 1 1 5 1
M  V30 2 1 9 8
M  V30 3 1 11 5
M  V30 4 1 12 7
M  V30 5 1 13 2
M  V30 6 1 13 9
M  V30 7 1 13 12
M  V30 8 1 14 6
M  V30 9 1 15 10
M  V30 10 2 16 1
M  V30 11 1 16 3
M  V30 12 1 17 4
M  V30 13 1 17 6
M  V30 14 2 18 2
M  V30 15 1 18 4
M  V30 16 2 19 5
M  V30 17 1 20 12
M  V30 18 1 21 3
M  V30 19 1 22 4
M  V30 20 1 23 2
M  V30 21 1 23 8
M  V30 22 1 24 10
M  V30 23 1 24 14
M  V30 24 1 24 22
M  V30 25 1 14 25 CFG=1
M  V30 26 1 26 1
M  V30 27 1 26 21
M  V30 28 1 27 11
M  V30 29 1 27 14
M  V30 30 1 27 15
M  V30 31 1 28 7
M  V30 32 1 4 29 CFG=3
M  V30 33 1 30 6
M  V30 34 1 31 6
M  V30 35 1 32 7
M  V30 36 1 33 7
M  V30 37 1 34 8
M  V30 38 1 35 8
M  V30 39 1 36 9
M  V30 40 1 37 10
M  V30 41 1 38 10
M  V30 42 1 39 11
M  V30 43 1 40 11
M  V30 44 1 12 41 CFG=3
M  V30 45 1 13 42 CFG=3
M  V30 46 1 43 15
M  V30 47 1 44 15
M  V30 48 1 45 16
M  V30 49 1 46 17
M  V30 50 1 47 18
M  V30 51 1 48 20
M  V30 52 1 49 20
M  V30 53 1 50 20
M  V30 54 1 51 21
M  V30 55 1 52 21
M  V30 56 1 53 22
M  V30 57 1 54 22
M  V30 58 1 55 23
M  V30 59 1 56 23
M  V30 60 1 57 25
M  V30 61 1 58 26
M  V30 62 1 59 26
M  V30 63 1 27 60 CFG=3
M  V30 64 1 61 28
M  V30 65 1 62 9
M  V30 66 1 24 63 CFG=3
M  V30 END BOND
M  V30 END CTAB
M  END
>  <i_epik_Tot_Q>  (1) 
2

>  <i_epik_Tot_abs_Q>  (1) 
2

>  <i_i_glide_confnum>  (1) 
41

>  <i_i_glide_lignum>  (1) 
16

>  <i_i_glide_posenum>  (1) 
90

>  <i_i_glide_rotatable_bonds>  (1) 
8

>  <i_lp_mmshare_version>  (1) 
72125

>  <i_m_source_file_index>  (1) 
2

>  <i_f3d_flags>  (1) 
0

>  <num_sample>  (1) 
100

>  <b_lp_Chiralities_Consistent>  (1) 
1

>  <r_epik_Charging_Adjusted_Penalty>  (1) 
2.3622130296898831

>  <r_epik_Ionization_Penalty>  (1) 
1.4312966064593899

>  <r_epik_Ionization_Penalty_Charging>  (1) 
1.1852885594971458

>  <r_epik_Ionization_Penalty_Neutral>  (1) 
0.24600804696224418

>  <r_epik_State_Penalty>  (1) 
1.176924470192737

>  <r_glide_ring_energy>  (1) 
0

>  <r_i_docking_score>  (1) 
-5.7785400166111893

>  <r_i_glide_ecoul>  (1) 
-7.0867287056951653

>  <r_i_glide_eff_state_penalty>  (1) 
1.176924470192737

>  <r_i_glide_einternal>  (1) 
2.4779333723902361

>  <r_i_glide_emodel>  (1) 
-64.687917970284744

>  <r_i_glide_emodel_strain>  (1) 
0.86332837818108032

>  <r_i_glide_energy>  (1) 
-43.317432095492897

>  <r_i_glide_erotb>  (1) 
0.75687532201182384

>  <r_i_glide_esite>  (1) 
-0.17992888628557255

>  <r_i_glide_evdw>  (1) 
-36.230703389797732

>  <r_i_glide_gscore>  (1) 
-6.9554644868039261

>  <r_i_glide_gscore_strain>  (1) 
0

>  <r_i_glide_hbond>  (1) 
-0.34015467596571891

>  <r_i_glide_ligand_efficiency>  (1) 
-0.20637642916468532

>  <r_i_glide_ligand_efficiency_ln>  (1) 
-1.3338567011411684

>  <r_i_glide_ligand_efficiency_sa>  (1) 
-0.62668038885656241

>  <r_i_glide_lipo>  (1) 
-3.0638279808506335

>  <r_i_glide_metal>  (1) 
-0

>  <r_i_glide_rewards>  (1) 
-1.2538837903696636

>  <r_lp_Energy>  (1) 
23.737466999999999

>  <s_epik_cmdline>  (1) 
J2VwaWtfcHl0aG9uJywgJy1waHQnLCAnMS4wJywgJy1waCcsICc3LjQnLCAnLXRuJywgJzgnLCAnLW1hJywgJzUwMCcsICctaW1hZScsICc8aW5maWxlLm1hZT4nLCAnLW9tYWUnLCAnPG91dGZpbGUubWFlPic=

>  <s_epik_input>  (1) 
W0NIMl0xW0NIMl1PW0NIXT1DMUMoPU8pW0NIMl1bQ0BIXTJbQ0gyXVtDSDJdTihbQ0BAXTIzW09IXSlbQ0gyXVtDQEBIXShbTkhdW0NIMl0zKVxbQ0hdPUM0XFtDQEBIXShbTkhdW0NIMl1bQ0gyXTQpW0NASF0oW0NIM10pW0NIMl1bT0hd

>  <s_glide_docking_method>  (1) 
confgen

>  <s_i_glide_gridfile>  (1) 
gpcr_5ht2c_6bqh_protein_autoprepared_prepared

>  <s_lp_Force_Field>  (1) 
S-OPLS

>  <s_lp_Variant>  (1) 
DiffSBDD_1_num_sample_100-10

>  <s_m_source_file>  (1) 
generated__ligand_DiffSBDD_2026-05-06_prepared.sdf

>  <GenAI_Model>  (1) 
DiffSBDD

>  <Protein>  (1) 
GPCR_5HT2C

$$$$
DiffSBDD_54_num_sample_100
     RDKit          3D

  0  0  0  0  0  0  0  0  0  0999 V3000
M  V30 BEGIN CTAB
M  V30 COUNTS 32 33 0 0 1
M  V30 BEGIN ATOM
M  V30 1 C 40.613371 27.724999 58.694188 0
M  V30 2 C 39.314603 28.224941 56.578006 0
M  V30 3 C 40.603127 30.821530 50.352271 0
M  V30 4 N 39.211323 26.774579 54.652061 0
M  V30 5 N 40.758476 28.379456 59.887041 0
M  V30 6 C 40.092910 28.675053 51.592468 0
M  V30 7 C 39.467322 29.621428 58.759800 0
M  V30 8 C 39.231221 27.396200 51.675698 0
M  V30 9 C 39.636483 27.036895 55.902561 0
M  V30 10 N 38.087739 28.909202 54.610734 0
M  V30 11 C 38.039684 27.480954 52.654172 0
M  V30 12 C 39.678677 29.611189 50.460846 0
M  V30 13 C 39.787504 28.492806 57.948985 0
M  V30 14 C 38.474520 27.739795 54.084206 0
M  V30 15 N 40.064493 29.546562 59.958682 0
M  V30 16 C 38.515313 29.140085 55.869534 0
M  V30 17 H 41.104449 26.785903 58.485027 0
M  V30 18 H 40.231864 31.529569 49.611645 0
M  V30 19 H 40.664112 31.344733 51.306961 0
M  V30 20 H 41.612990 30.527974 50.062726 0
M  V30 21 H 41.323025 28.050850 60.660640 0
M  V30 22 H 40.065892 29.223683 52.532957 0
M  V30 23 H 41.138633 28.413373 51.453035 0
M  V30 24 H 38.836735 30.470569 58.533451 0
M  V30 25 H 39.866644 26.572547 51.999235 0
M  V30 26 H 38.881253 27.111804 50.682330 0
M  V30 27 H 40.245333 26.278957 56.375374 0
M  V30 28 H 37.471779 26.552101 52.653351 0
M  V30 29 H 37.347789 28.258726 52.325387 0
M  V30 30 H 39.656895 29.084063 49.506788 0
M  V30 31 H 38.667352 29.952764 50.653529 0
M  V30 32 H 38.220265 30.078094 56.313177 0
M  V30 END ATOM
M  V30 BEGIN BOND
M  V30 1 1 5 1
M  V30 2 1 8 6
M  V30 3 1 9 2
M  V30 4 2 9 4
M  V30 5 1 11 8
M  V30 6 1 12 3
M  V30 7 1 12 6
M  V30 8 2 13 1
M  V30 9 1 13 2
M  V30 10 1 13 7
M  V30 11 1 14 4
M  V30 12 2 14 10
M  V30 13 1 14 11
M  V30 14 1 15 5
M  V30 15 2 15 7
M  V30 16 2 16 2
M  V30 17 1 16 10
M  V30 18 1 17 1
M  V30 19 1 18 3
M  V30 20 1 19 3
M  V30 21 1 20 3
M  V30 22 1 21 5
M  V30 23 1 22 6
M  V30 24 1 23 6
M  V30 25 1 24 7
M  V30 26 1 25 8
M  V30 27 1 26 8
M  V30 28 1 27 9
M  V30 29 1 28 11
M  V30 30 1 29 11
M  V30 31 1 30 12
M  V30 32 1 31 12
M  V30 33 1 32 16
M  V30 END BOND
M  V30 END CTAB
M  END
>  <i_epik_Tot_Q>  (1) 
0

>  <i_epik_Tot_abs_Q>  (1) 
0

>  <i_i_glide_confnum>  (1) 
17

>  <i_i_glide_lignum>  (1) 
142

>  <i_i_glide_posenum>  (1) 
278

>  <i_i_glide_rotatable_bonds>  (1) 
5

>  <i_lp_mmshare_version>  (1) 
72125

>  <i_m_source_file_index>  (1) 
55

>  <i_f3d_flags>  (1) 
0

>  <num_sample>  (1) 
100

>  <b_lp_Chiralities_Consistent>  (1) 
1

>  <r_epik_Charging_Adjusted_Penalty>  (1) 
0

>  <r_epik_Ionization_Penalty>  (1) 
2.7336504673295612e-06

>  <r_epik_Ionization_Penalty_Charging>  (1) 
0

>  <r_epik_Ionization_Penalty_Neutral>  (1) 
2.7336504673295612e-06

>  <r_epik_State_Penalty>  (1) 
-0

>  <r_glide_ring_energy>  (1) 
0

>  <r_i_docking_score>  (1) 
-5.7770456038205289

>  <r_i_glide_ecoul>  (1) 
-3.0854739357210805

>  <r_i_glide_eff_state_penalty>  (1) 
-0

>  <r_i_glide_einternal>  (1) 
5.638047188575726

>  <r_i_glide_emodel>  (1) 
-39.602712881825184

>  <r_i_glide_emodel_strain>  (1) 
1.2268431293164106

>  <r_i_glide_energy>  (1) 
-32.078933755457967

>  <r_i_glide_erotb>  (1) 
1.4325524447639233

>  <r_i_glide_esite>  (1) 
0

>  <r_i_glide_evdw>  (1) 
-28.993459819736884

>  <r_i_glide_gscore>  (1) 
-5.7770456038205289

>  <r_i_glide_gscore_strain>  (1) 
0

>  <r_i_glide_hbond>  (1) 
0

>  <r_i_glide_ligand_efficiency>  (1) 
-0.36106535023878306

>  <r_i_glide_ligand_efficiency_ln>  (1) 
-1.5313213363980753

>  <r_i_glide_ligand_efficiency_sa>  (1) 
-0.90982767030701539

>  <r_i_glide_lipo>  (1) 
-2.5464714175627896

>  <r_i_glide_metal>  (1) 
-0

>  <r_i_glide_rewards>  (1) 
-2.7506325496766566

>  <r_lp_Energy>  (1) 
15.064480999999999

>  <r_lp_tautomer_probability>  (1) 
1

>  <s_epik_cmdline>  (1) 
J2VwaWtfcHl0aG9uJywgJy1waHQnLCAnMS4wJywgJy1waCcsICc3LjQnLCAnLXRuJywgJzgnLCAnLW1hJywgJzUwMCcsICctaW1hZScsICc8aW5maWxlLm1hZT4nLCAnLW9tYWUnLCAnPG91dGZpbGUubWFlPic=

>  <s_epik_input>  (1) 
W2NIXTFuW25IXVtjSF1jMS1jMltjSF1uYyhuW2NIXTIpW0NIMl1bQ0gyXVtDSDJdW0NIMl1bQ0gzXQ==

>  <s_glide_docking_method>  (1) 
confgen

>  <s_i_glide_gridfile>  (1) 
gpcr_5ht2c_6bqh_protein_autoprepared_prepared

>  <s_lp_Force_Field>  (1) 
S-OPLS

>  <s_lp_Variant>  (1) 
DiffSBDD_54_num_sample_100-1

>  <s_m_source_file>  (1) 
generated__ligand_DiffSBDD_2026-05-06_prepared.sdf

>  <GenAI_Model>  (1) 
DiffSBDD

>  <Protein>  (1) 
GPCR_5HT2C

$$$$
DiffSBDD_90_num_sample_100
     RDKit          3D

  0  0  0  0  0  0  0  0  0  0999 V3000
M  V30 BEGIN CTAB
M  V30 COUNTS 85 88 0 0 1
M  V30 BEGIN ATOM
M  V30 1 C 40.186960 28.267875 60.343154 0
M  V30 2 O 41.867425 35.227598 63.568273 0
M  V30 3 F 39.467383 31.639331 52.527159 0
M  V30 4 C 38.697300 25.998621 56.256604 0 CFG=1
M  V30 5 C 38.590120 36.455374 62.353942 0 CFG=2
M  V30 6 C 38.963840 34.646041 60.727713 0 CFG=1
M  V30 7 C 36.399025 23.617646 55.182740 0
M  V30 8 C 38.323021 32.171325 61.000024 0
M  V30 9 C 37.627730 25.021184 56.803280 0
M  V30 10 N 40.479829 35.576137 63.629493 0
M  V30 11 C 39.841015 31.458130 54.825223 0
M  V30 12 C 38.122546 24.319567 58.045745 0
M  V30 13 C 38.052806 35.084352 61.859166 0
M  V30 14 C 40.336054 35.215620 61.136366 0
M  V30 15 O 38.982972 38.632111 61.453493 0
M  V30 16 N 39.673413 28.987202 59.163711 0 CFG=2 CHG=1
M  V30 17 C 39.025354 33.153806 60.375426 0
M  V30 18 F 37.780146 31.198123 53.853485 0
M  V30 19 C 39.173528 28.603265 54.484472 0 CFG=2
M  V30 20 N 40.629771 28.805149 58.056070 0
M  V30 21 C 39.551200 30.549935 56.012198 0
M  V30 22 C 39.370494 30.406825 59.477017 0
M  V30 23 O 37.575711 23.937482 55.892163 0
M  V30 24 C 36.300599 25.737887 57.078951 0
M  V30 25 C 39.176815 28.364462 61.461655 0
M  V30 26 C 39.298314 29.510236 53.257014 0
M  V30 27 C 38.408880 30.669157 60.639959 0 CFG=1
M  V30 28 C 40.115282 36.174055 62.343919 0 CFG=1
M  V30 29 C 38.460166 26.219783 54.752576 0
M  V30 30 O 37.250771 37.475716 60.656699 0 CHG=-1
M  V30 31 C 40.073330 28.128790 56.881326 0 CFG=1
M  V30 32 C 38.899606 29.841784 61.842042 0
M  V30 33 O 38.101240 36.821419 63.638507 0
M  V30 34 C 38.793670 27.295833 57.110480 0
M  V30 35 C 40.008799 29.116059 55.689056 0 CFG=1
M  V30 36 C 39.458512 27.147330 54.092217 0
M  V30 37 C 39.070448 30.973675 53.603256 0
M  V30 38 C 38.243826 37.620523 61.405125 0
M  V30 39 H 41.159731 28.655911 60.648752 0
M  V30 40 H 40.315668 27.221406 60.079078 0
M  V30 41 H 41.851920 34.320345 63.834231 0
M  V30 42 H 39.662090 25.493330 56.330147 0
M  V30 43 H 38.608795 35.176787 59.853483 0
M  V30 44 H 36.667405 22.749662 54.578181 0
M  V30 45 H 35.578709 23.345032 55.846668 0
M  V30 46 H 36.089721 24.420697 54.513778 0
M  V30 47 H 37.655205 32.427280 61.807571 0
M  V30 48 H 40.481995 36.285866 64.352457 0
M  V30 49 H 40.913906 31.460846 54.625972 0
M  V30 50 H 39.551952 32.482357 55.062112 0
M  V30 51 H 38.198302 24.994223 58.895251 0
M  V30 52 H 37.467414 23.493878 58.308218 0
M  V30 53 H 39.103228 23.882301 57.853496 0
M  V30 54 H 36.988881 35.067680 61.618999 0
M  V30 55 H 38.267699 34.346358 62.622579 0
M  V30 56 H 40.735049 35.778734 60.295471 0
M  V30 57 H 41.055124 34.426105 61.350781 0
M  V30 58 H 39.688090 32.900104 59.567588 0
M  V30 59 H 38.121313 28.681645 54.767422 0
M  V30 60 H 41.291786 28.190384 58.510173 0
M  V30 61 H 40.109310 30.969433 56.835446 0
M  V30 62 H 38.493715 30.579195 56.282474 0
M  V30 63 H 39.021821 30.946791 58.603102 0
M  V30 64 H 40.284678 30.821153 59.853534 0
M  V30 65 H 36.438171 26.621995 57.694994 0
M  V30 66 H 35.867404 26.021416 56.132083 0
M  V30 67 H 35.545966 25.221434 57.640568 0
M  V30 68 H 39.537579 27.823941 62.335578 0
M  V30 69 H 38.322937 27.813921 61.053476 0
M  V30 70 H 40.267393 29.404693 52.780650 0
M  V30 71 H 38.573748 29.209826 52.497724 0
M  V30 72 H 37.409703 30.334014 60.355987 0
M  V30 73 H 40.709554 37.080988 62.223591 0
M  V30 74 H 38.562091 25.260802 54.253514 0
M  V30 75 H 37.441426 26.552785 54.551222 0
M  V30 76 H 40.852769 27.407061 56.629487 0
M  V30 77 H 39.817971 30.284662 62.231690 0
M  V30 78 H 38.182138 29.914880 62.653508 0
M  V30 79 H 38.328579 36.125737 64.234253 0
M  V30 80 H 38.756629 26.959916 58.142961 0
M  V30 81 H 37.926780 27.943652 56.965302 0
M  V30 82 H 41.054652 29.220889 55.413046 0
M  V30 83 H 40.469666 26.821407 54.338091 0
M  V30 84 H 39.356059 27.023450 53.012760 0
M  V30 85 H 38.817828 28.547549 58.854933 0
M  V30 END ATOM
M  V30 BEGIN BOND
M  V30 1 1 9 4
M  V30 2 1 10 2
M  V30 3 1 12 9
M  V30 4 1 13 5
M  V30 5 1 13 6
M  V30 6 1 14 6
M  V30 7 1 16 1
M  V30 8 1 17 6
M  V30 9 2 17 8
M  V30 10 1 20 16
M  V30 11 1 21 11
M  V30 12 1 22 16
M  V30 13 1 23 7
M  V30 14 1 23 9
M  V30 15 1 24 9
M  V30 16 1 25 1
M  V30 17 1 26 19
M  V30 18 1 27 8
M  V30 19 1 27 22
M  V30 20 1 28 5
M  V30 21 1 28 10
M  V30 22 1 28 14
M  V30 23 1 29 4
M  V30 24 1 31 20
M  V30 25 1 32 25
M  V30 26 1 32 27
M  V30 27 1 5 33 CFG=1
M  V30 28 1 34 4
M  V30 29 1 34 31
M  V30 30 1 35 19
M  V30 31 1 35 21
M  V30 32 1 35 31
M  V30 33 1 36 19
M  V30 34 1 36 29
M  V30 35 1 37 3
M  V30 36 1 37 11
M  V30 37 1 37 18
M  V30 38 1 37 26
M  V30 39 1 38 5
M  V30 40 2 38 15
M  V30 41 1 38 30
M  V30 42 1 39 1
M  V30 43 1 40 1
M  V30 44 1 41 2
M  V30 45 1 4 42 CFG=3
M  V30 46 1 6 43 CFG=3
M  V30 47 1 44 7
M  V30 48 1 45 7
M  V30 49 1 46 7
M  V30 50 1 47 8
M  V30 51 1 48 10
M  V30 52 1 49 11
M  V30 53 1 50 11
M  V30 54 1 51 12
M  V30 55 1 52 12
M  V30 56 1 53 12
M  V30 57 1 54 13
M  V30 58 1 55 13
M  V30 59 1 56 14
M  V30 60 1 57 14
M  V30 61 1 58 17
M  V30 62 1 19 59 CFG=1
M  V30 63 1 60 20
M  V30 64 1 61 21
M  V30 65 1 62 21
M  V30 66 1 63 22
M  V30 67 1 64 22
M  V30 68 1 65 24
M  V30 69 1 66 24
M  V30 70 1 67 24
M  V30 71 1 68 25
M  V30 72 1 69 25
M  V30 73 1 70 26
M  V30 74 1 71 26
M  V30 75 1 27 72 CFG=3
M  V30 76 1 28 73 CFG=3
M  V30 77 1 74 29
M  V30 78 1 75 29
M  V30 79 1 31 76 CFG=3
M  V30 80 1 77 32
M  V30 81 1 78 32
M  V30 82 1 79 33
M  V30 83 1 80 34
M  V30 84 1 81 34
M  V30 85 1 35 82 CFG=3
M  V30 86 1 83 36
M  V30 87 1 84 36
M  V30 88 1 16 85 CFG=3
M  V30 END BOND
M  V30 END CTAB
M  END
>  <i_epik_Tot_Q>  (1) 
0

>  <i_epik_Tot_abs_Q>  (1) 
2

>  <i_i_glide_confnum>  (1) 
951

>  <i_i_glide_lignum>  (1) 
240

>  <i_i_glide_posenum>  (1) 
289

>  <i_i_glide_rotatable_bonds>  (1) 
10

>  <i_lp_mmshare_version>  (1) 
72125

>  <i_m_source_file_index>  (1) 
91

>  <i_f3d_flags>  (1) 
0

>  <num_sample>  (1) 
100

>  <b_lp_Chiralities_Consistent>  (1) 
1

>  <r_epik_Charging_Adjusted_Penalty>  (1) 
1.5083745474312953

>  <r_epik_Ionization_Penalty>  (1) 
0.65750586125956467

>  <r_epik_Ionization_Penalty_Charging>  (1) 
0.6544614066189578

>  <r_epik_Ionization_Penalty_Neutral>  (1) 
0.0030444546406068235

>  <r_epik_State_Penalty>  (1) 
0.8539131408123376

>  <r_glide_ring_energy>  (1) 
0.69230642483631666

>  <r_i_docking_score>  (1) 
-5.7745725299953561

>  <r_i_glide_ecoul>  (1) 
-1.5121710489765259

>  <r_i_glide_eff_state_penalty>  (1) 
0.8539131408123376

>  <r_i_glide_einternal>  (1) 
18.364338042380382

>  <r_i_glide_emodel>  (1) 
-54.765507958632085

>  <r_i_glide_emodel_strain>  (1) 
0.39576496163891761

>  <r_i_glide_energy>  (1) 
-21.139222617807256

>  <r_i_glide_erotb>  (1) 
0.42002339013477186

>  <r_i_glide_esite>  (1) 
-0.017046276582121458

>  <r_i_glide_evdw>  (1) 
-19.62705156883073

>  <r_i_glide_gscore>  (1) 
-6.6284856708076934

>  <r_i_glide_gscore_strain>  (1) 
0

>  <r_i_glide_hbond>  (1) 
0

>  <r_i_glide_ligand_efficiency>  (1) 
-0.1519624349998778

>  <r_i_glide_ligand_efficiency_ln>  (1) 
-1.2451677081803374

>  <r_i_glide_ligand_efficiency_sa>  (1) 
-0.51089396922687524

>  <r_i_glide_lipo>  (1) 
-4.9130609928633824

>  <r_i_glide_metal>  (1) 
-0

>  <r_i_glide_rewards>  (1) 
-0.91022355570894575

>  <r_lp_Energy>  (1) 
52.906404999999999

>  <s_epik_Chemistry_Notes>  (1) 
This compound has a N-S or N-O group and may undergo hydrolysis at high or low pH.

>  <s_epik_cmdline>  (1) 
J2VwaWtfcHl0aG9uJywgJy1waHQnLCAnMS4wJywgJy1waCcsICc3LjQnLCAnLXRuJywgJzgnLCAnLW1hJywgJzUwMCcsICctaW1hZScsICc8aW5maWxlLm1hZT4nLCAnLW9tYWUnLCAnPG91dGZpbGUubWFlPic=

>  <s_epik_input>  (1) 
RkMoRikoW0NIMl0xKVtDSDJdW0NIMl1bQ0BIXShbQ0BASF0xMilbQ0BIXShbQ0gyXVtDQEhdKFtDSDJdW0NIMl0yKUMoW0NIM10pKFtDSDNdKU9bQ0gzXSlbTkhdTjNbQ0gyXVtDSDJdW0NIMl1bQ0BIXShbQ0gyXTMpL1tDSF09W0NIXS9bQ0BASF0oW0NIMl1bQ0BdNChbT0hdKUMoPU8pW09IXSlbQ0gyXVtDQEBIXTRbTkhdW09IXQ==

>  <s_glide_docking_method>  (1) 
confgen

>  <s_i_glide_gridfile>  (1) 
gpcr_5ht2c_6bqh_protein_autoprepared_prepared

>  <s_lp_Force_Field>  (1) 
S-OPLS

>  <s_lp_Variant>  (1) 
DiffSBDD_90_num_sample_100-12

>  <s_m_source_file>  (1) 
generated__ligand_DiffSBDD_2026-05-06_prepared.sdf

>  <GenAI_Model>  (1) 
DiffSBDD

>  <Protein>  (1) 
GPCR_5HT2C

$$$$
DiffSBDD_1_num_sample_100
     RDKit          3D

  0  0  0  0  0  0  0  0  0  0999 V3000
M  V30 BEGIN CTAB
M  V30 COUNTS 63 66 0 0 1
M  V30 BEGIN ATOM
M  V30 1 C 39.297711 36.189336 61.564995 0
M  V30 2 C 38.581559 27.989714 56.365779 0
M  V30 3 O 39.467346 38.402864 61.853382 0
M  V30 4 C 38.093762 29.642708 58.241229 0 CFG=1
M  V30 5 C 39.800859 34.801111 61.540165 0
M  V30 6 C 37.163381 31.481691 59.508401 0
M  V30 7 C 39.384825 28.263947 52.534043 0
M  V30 8 C 38.810994 25.675505 56.408870 0
M  V30 9 N 39.034455 26.149426 55.019322 0 CHG=1
M  V30 10 C 40.027973 30.074192 61.544519 0
M  V30 11 C 38.779928 33.684040 61.302069 0
M  V30 12 C 38.436908 28.266969 53.758209 0 CFG=2
M  V30 13 C 39.130733 27.631728 55.003885 0 CFG=1
M  V30 14 C 38.193517 31.283699 60.641899 0 CFG=2
M  V30 15 C 40.308023 31.579964 61.736010 0
M  V30 16 C 40.052921 37.195517 61.858451 0
M  V30 17 N 37.671025 31.043181 58.216080 0
M  V30 18 C 38.596093 29.247901 56.856560 0
M  V30 19 O 40.985901 34.515895 61.715038 0
M  V30 20 C 37.074104 27.624760 53.412460 0
M  V30 21 C 38.083543 38.046315 61.432371 0
M  V30 22 C 39.223710 29.481573 59.286530 0
M  V30 23 C 38.074768 26.804997 57.137510 0
M  V30 24 N 38.849095 29.957124 60.648369 0 CFG=1 CHG=1
M  V30 25 O 37.467974 31.221401 61.853352 0
M  V30 26 C 37.892354 36.465432 61.255259 0
M  V30 27 C 39.314272 32.317762 60.816355 0 CFG=2
M  V30 28 O 38.722627 28.604965 51.340515 0
M  V30 29 H 37.248012 29.007090 58.508765 0
M  V30 30 H 36.847426 32.523250 59.450880 0
M  V30 31 H 36.259548 30.912565 59.733122 0
M  V30 32 H 39.863861 27.292793 52.400440 0
M  V30 33 H 40.167012 29.013059 52.653506 0
M  V30 34 H 39.784186 25.504409 56.873119 0
M  V30 35 H 38.261541 24.733286 56.430088 0
M  V30 36 H 38.219103 25.897676 54.477908 0
M  V30 37 H 40.897832 29.541383 61.156732 0
M  V30 38 H 39.782343 29.618776 62.505681 0
M  V30 39 H 38.053547 34.031818 60.569999 0
M  V30 40 H 38.242884 33.570443 62.242658 0
M  V30 41 H 38.237514 29.316132 53.984882 0
M  V30 42 H 40.184640 27.907805 55.053378 0
M  V30 43 H 41.341417 31.832178 61.495495 0
M  V30 44 H 40.141325 31.853079 62.779365 0
M  V30 45 H 41.100780 37.198159 62.116330 0
M  V30 46 H 36.907916 31.186536 57.538084 0
M  V30 47 H 38.998814 30.046631 56.249042 0
M  V30 48 H 37.176476 26.600446 53.053526 0
M  V30 49 H 36.395476 27.621335 54.254094 0
M  V30 50 H 36.560618 28.189548 52.634822 0
M  V30 51 H 37.346269 38.421256 62.140972 0
M  V30 52 H 37.874554 38.550158 60.487392 0
M  V30 53 H 39.525358 28.436331 59.359210 0
M  V30 54 H 40.104067 30.021300 58.942724 0
M  V30 55 H 38.300476 26.832464 58.203096 0
M  V30 56 H 36.998471 26.709714 57.006144 0
M  V30 57 H 37.471500 32.087286 62.234850 0
M  V30 58 H 37.615751 36.193528 60.235869 0
M  V30 59 H 37.210239 36.032680 61.988124 0
M  V30 60 H 39.794178 32.471841 59.852970 0
M  V30 61 H 38.095026 27.929201 51.128217 0
M  V30 62 H 39.852135 25.717925 54.612088 0
M  V30 63 H 38.193680 29.296469 61.036991 0
M  V30 END ATOM
M  V30 BEGIN BOND
M  V30 1 1 5 1
M  V30 2 1 9 8
M  V30 3 1 11 5
M  V30 4 1 12 7
M  V30 5 1 13 2
M  V30 6 1 13 9
M  V30 7 1 13 12
M  V30 8 1 14 6
M  V30 9 1 15 10
M  V30 10 2 16 1
M  V30 11 1 16 3
M  V30 12 1 17 4
M  V30 13 1 17 6
M  V30 14 2 18 2
M  V30 15 1 18 4
M  V30 16 2 19 5
M  V30 17 1 20 12
M  V30 18 1 21 3
M  V30 19 1 22 4
M  V30 20 1 23 2
M  V30 21 1 23 8
M  V30 22 1 24 10
M  V30 23 1 24 14
M  V30 24 1 24 22
M  V30 25 1 14 25 CFG=1
M  V30 26 1 26 1
M  V30 27 1 26 21
M  V30 28 1 27 11
M  V30 29 1 27 14
M  V30 30 1 27 15
M  V30 31 1 28 7
M  V30 32 1 4 29 CFG=1
M  V30 33 1 30 6
M  V30 34 1 31 6
M  V30 35 1 32 7
M  V30 36 1 33 7
M  V30 37 1 34 8
M  V30 38 1 35 8
M  V30 39 1 36 9
M  V30 40 1 37 10
M  V30 41 1 38 10
M  V30 42 1 39 11
M  V30 43 1 40 11
M  V30 44 1 12 41 CFG=1
M  V30 45 1 13 42 CFG=1
M  V30 46 1 43 15
M  V30 47 1 44 15
M  V30 48 1 45 16
M  V30 49 1 46 17
M  V30 50 1 47 18
M  V30 51 1 48 20
M  V30 52 1 49 20
M  V30 53 1 50 20
M  V30 54 1 51 21
M  V30 55 1 52 21
M  V30 56 1 53 22
M  V30 57 1 54 22
M  V30 58 1 55 23
M  V30 59 1 56 23
M  V30 60 1 57 25
M  V30 61 1 58 26
M  V30 62 1 59 26
M  V30 63 1 27 60 CFG=3
M  V30 64 1 61 28
M  V30 65 1 62 9
M  V30 66 1 24 63 CFG=1
M  V30 END BOND
M  V30 END CTAB
M  END
>  <i_epik_Tot_Q>  (1) 
2

>  <i_epik_Tot_abs_Q>  (1) 
2

>  <i_i_glide_confnum>  (1) 
94

>  <i_i_glide_lignum>  (1) 
12

>  <i_i_glide_posenum>  (1) 
194

>  <i_i_glide_rotatable_bonds>  (1) 
8

>  <i_lp_mmshare_version>  (1) 
72125

>  <i_m_source_file_index>  (1) 
2

>  <i_f3d_flags>  (1) 
0

>  <num_sample>  (1) 
100

>  <b_lp_Chiralities_Consistent>  (1) 
1

>  <r_epik_Charging_Adjusted_Penalty>  (1) 
2.3622130296898831

>  <r_epik_Ionization_Penalty>  (1) 
1.4312966064593899

>  <r_epik_Ionization_Penalty_Charging>  (1) 
1.1852885594971458

>  <r_epik_Ionization_Penalty_Neutral>  (1) 
0.24600804696224418

>  <r_epik_State_Penalty>  (1) 
1.176924470192737

>  <r_glide_ring_energy>  (1) 
0

>  <r_i_docking_score>  (1) 
-5.7740225242693279

>  <r_i_glide_ecoul>  (1) 
-6.1086019297985557

>  <r_i_glide_eff_state_penalty>  (1) 
1.176924470192737

>  <r_i_glide_einternal>  (1) 
6.8818044794704001

>  <r_i_glide_emodel>  (1) 
-54.168683626720174

>  <r_i_glide_emodel_strain>  (1) 
0.95617391093540505

>  <r_i_glide_energy>  (1) 
-35.997817546064404

>  <r_i_glide_erotb>  (1) 
0.75687532201182384

>  <r_i_glide_esite>  (1) 
0

>  <r_i_glide_evdw>  (1) 
-29.889215616265851

>  <r_i_glide_gscore>  (1) 
-6.9509469944620648

>  <r_i_glide_gscore_strain>  (1) 
0

>  <r_i_glide_hbond>  (1) 
-0.45436105823002043

>  <r_i_glide_ligand_efficiency>  (1) 
-0.20621509015247599

>  <r_i_glide_ligand_efficiency_ln>  (1) 
-1.3328139312693281

>  <r_i_glide_ligand_efficiency_sa>  (1) 
-0.6261904685913543

>  <r_i_glide_lipo>  (1) 
-3.1209583317430041

>  <r_i_glide_metal>  (1) 
-0

>  <r_i_glide_rewards>  (1) 
-1.7217518562177896

>  <r_lp_Energy>  (1) 
21.512373

>  <s_epik_cmdline>  (1) 
J2VwaWtfcHl0aG9uJywgJy1waHQnLCAnMS4wJywgJy1waCcsICc3LjQnLCAnLXRuJywgJzgnLCAnLW1hJywgJzUwMCcsICctaW1hZScsICc8aW5maWxlLm1hZT4nLCAnLW9tYWUnLCAnPG91dGZpbGUubWFlPic=

>  <s_epik_input>  (1) 
W0NIMl0xW0NIMl1PW0NIXT1DMUMoPU8pW0NIMl1bQ0BIXTJbQ0gyXVtDSDJdTihbQ0BAXTIzW09IXSlbQ0gyXVtDQEBIXShbTkhdW0NIMl0zKVxbQ0hdPUM0XFtDQEBIXShbTkhdW0NIMl1bQ0gyXTQpW0NASF0oW0NIM10pW0NIMl1bT0hd

>  <s_glide_docking_method>  (1) 
confgen

>  <s_i_glide_gridfile>  (1) 
gpcr_5ht2c_6bqh_protein_autoprepared_prepared

>  <s_lp_Force_Field>  (1) 
S-OPLS

>  <s_lp_Variant>  (1) 
DiffSBDD_1_num_sample_100-6

>  <s_m_source_file>  (1) 
generated__ligand_DiffSBDD_2026-05-06_prepared.sdf

>  <GenAI_Model>  (1) 
DiffSBDD

>  <Protein>  (1) 
GPCR_5HT2C

$$$$
DiffSBDD_18_num_sample_100
     RDKit          3D

  0  0  0  0  0  0  0  0  0  0999 V3000
M  V30 BEGIN CTAB
M  V30 COUNTS 71 73 0 0 1
M  V30 BEGIN ATOM
M  V30 1 O 39.695799 31.104657 63.022556 0
M  V30 2 C 38.585118 28.029969 52.376810 0
M  V30 3 C 38.503691 28.076415 57.688485 0
M  V30 4 C 39.084209 28.273480 51.171419 0
M  V30 5 O 39.716431 28.021368 60.218910 0
M  V30 6 C 38.448698 29.023568 54.620884 0 CFG=2
M  V30 7 C 43.519318 28.740500 66.744206 0
M  V30 8 N 38.861588 28.984113 53.199871 0 CHG=1
M  V30 9 N 37.530685 30.143786 54.824455 0
M  V30 10 C 42.182124 31.204849 63.431749 0
M  V30 11 C 41.099646 28.848083 66.139733 0
M  V30 12 O 43.893121 29.016939 67.884243 0
M  V30 13 O 40.338910 30.061306 50.251948 0
M  V30 14 C 42.674381 26.615067 64.277329 0
M  V30 15 C 41.071490 28.043550 57.376181 0
M  V30 16 C 39.696496 29.424629 51.238896 0
M  V30 17 C 41.067402 25.735254 66.045499 0
M  V30 18 C 41.136218 29.844738 65.229073 0
M  V30 19 C 39.136981 29.046970 59.862467 0
M  V30 20 N 44.177625 29.050828 65.596143 0
M  V30 21 C 39.694243 28.097669 56.687130 0 CFG=2
M  V30 22 C 40.878032 31.899180 63.016417 0 CFG=2
M  V30 23 C 39.627961 29.204002 55.597126 0 CFG=2
M  V30 24 C 39.436580 30.640559 56.081735 0
M  V30 25 O 40.694552 25.621089 67.231712 0 CHG=-1
M  V30 26 C 39.697822 30.175276 52.601662 0
M  V30 27 C 43.731001 29.737651 64.614755 0
M  V30 28 C 39.091796 30.272445 60.782828 0
M  V30 29 C 39.694588 29.969381 62.167468 0
M  V30 30 C 40.642637 33.159915 63.851526 0
M  V30 31 C 42.317812 30.279891 64.420188 0
M  V30 32 C 42.243344 27.967421 66.527620 0 CFG=1
M  V30 33 C 42.334822 26.582481 65.787983 0 CFG=2
M  V30 34 N 38.526420 29.162265 58.671699 0
M  V30 35 N 38.031316 30.955560 55.874021 0
M  V30 36 O 40.503094 25.221429 65.053540 0
M  V30 37 H 38.011808 27.161482 52.683730 0
M  V30 38 H 37.554233 28.139027 57.156298 0
M  V30 39 H 38.479981 27.110096 58.196599 0
M  V30 40 H 38.972014 27.609900 50.325576 0
M  V30 41 H 37.909044 28.097567 54.826521 0
M  V30 42 H 37.443579 30.706739 53.981551 0
M  V30 43 H 43.057380 31.496449 62.868561 0
M  V30 44 H 40.164199 28.643293 66.642667 0
M  V30 45 H 40.667172 30.240777 53.091026 0
M  V30 46 H 42.653678 25.610919 63.853461 0
M  V30 47 H 41.965244 27.230502 63.722816 0
M  V30 48 H 43.679666 26.983533 64.085161 0
M  V30 49 H 41.269939 28.934624 57.971296 0
M  V30 50 H 41.142700 27.180590 58.039507 0
M  V30 51 H 41.875906 27.951907 56.648648 0
M  V30 52 H 40.212080 30.369220 65.073050 0
M  V30 53 H 39.629214 27.155951 56.139304 0
M  V30 54 H 41.026501 32.217439 61.983901 0
M  V30 55 H 40.571337 29.178534 55.057949 0
M  V30 56 H 40.029062 31.315930 55.462607 0
M  V30 57 H 39.733246 30.812141 57.113921 0
M  V30 58 H 39.116441 31.095514 52.653665 0
M  V30 59 H 44.412237 30.024513 63.809450 0
M  V30 60 H 39.629658 31.090286 60.304145 0
M  V30 61 H 38.056201 30.596198 60.892995 0
M  V30 62 H 39.073516 29.220968 62.653058 0
M  V30 63 H 40.686630 29.523379 62.090635 0
M  V30 64 H 41.522658 33.804523 63.848165 0
M  V30 65 H 39.810176 33.738419 63.451721 0
M  V30 66 H 40.412682 32.911787 64.888242 0
M  V30 67 H 41.975929 27.712981 67.555246 0
M  V30 68 H 43.139986 26.021973 66.263635 0
M  V30 69 H 38.065566 30.029421 58.430260 0
M  V30 70 H 37.869952 31.944709 55.685698 0
M  V30 71 H 40.238307 29.547820 49.464480 0
M  V30 END ATOM
M  V30 BEGIN BOND
M  V30 1 1 4 2
M  V30 2 2 8 2
M  V30 3 1 8 6
M  V30 4 1 9 6
M  V30 5 2 12 7
M  V30 6 2 16 4
M  V30 7 1 16 13
M  V30 8 2 18 11
M  V30 9 2 19 5
M  V30 10 1 20 7
M  V30 11 1 21 3
M  V30 12 1 21 15
M  V30 13 1 22 1
M  V30 14 1 22 10
M  V30 15 1 23 6
M  V30 16 1 23 21
M  V30 17 1 24 23
M  V30 18 1 25 17
M  V30 19 1 26 8
M  V30 20 1 26 16
M  V30 21 2 27 20
M  V30 22 1 28 19
M  V30 23 1 29 1
M  V30 24 1 29 28
M  V30 25 1 30 22
M  V30 26 2 31 10
M  V30 27 1 31 18
M  V30 28 1 31 27
M  V30 29 1 32 7
M  V30 30 1 32 11
M  V30 31 1 33 14
M  V30 32 1 33 17
M  V30 33 1 33 32
M  V30 34 1 34 3
M  V30 35 1 34 19
M  V30 36 1 35 9
M  V30 37 1 35 24
M  V30 38 2 36 17
M  V30 39 1 37 2
M  V30 40 1 38 3
M  V30 41 1 39 3
M  V30 42 1 40 4
M  V30 43 1 6 41 CFG=1
M  V30 44 1 42 9
M  V30 45 1 43 10
M  V30 46 1 44 11
M  V30 47 1 45 26
M  V30 48 1 46 14
M  V30 49 1 47 14
M  V30 50 1 48 14
M  V30 51 1 49 15
M  V30 52 1 50 15
M  V30 53 1 51 15
M  V30 54 1 52 18
M  V30 55 1 21 53 CFG=3
M  V30 56 1 22 54 CFG=3
M  V30 57 1 23 55 CFG=3
M  V30 58 1 56 24
M  V30 59 1 57 24
M  V30 60 1 58 26
M  V30 61 1 59 27
M  V30 62 1 60 28
M  V30 63 1 61 28
M  V30 64 1 62 29
M  V30 65 1 63 29
M  V30 66 1 64 30
M  V30 67 1 65 30
M  V30 68 1 66 30
M  V30 69 1 32 67 CFG=1
M  V30 70 1 33 68 CFG=1
M  V30 71 1 69 34
M  V30 72 1 70 35
M  V30 73 1 71 13
M  V30 END BOND
M  V30 END CTAB
M  END
>  <i_epik_Tot_Q>  (1) 
0

>  <i_epik_Tot_abs_Q>  (1) 
2

>  <i_i_glide_confnum>  (1) 
2544

>  <i_i_glide_lignum>  (1) 
47

>  <i_i_glide_posenum>  (1) 
241

>  <i_i_glide_rotatable_bonds>  (1) 
13

>  <i_lp_mmshare_version>  (1) 
72125

>  <i_m_source_file_index>  (1) 
19

>  <i_f3d_flags>  (1) 
0

>  <num_sample>  (1) 
100

>  <b_lp_Chiralities_Consistent>  (1) 
1

>  <r_epik_Charging_Adjusted_Penalty>  (1) 
0.76693695219889413

>  <r_epik_Ionization_Penalty>  (1) 
0.76778133156762796

>  <r_epik_Ionization_Penalty_Charging>  (1) 
0.00011398914501928687

>  <r_epik_Ionization_Penalty_Neutral>  (1) 
0.7676673424226087

>  <r_epik_State_Penalty>  (1) 
0.76682296305387487

>  <r_glide_ring_energy>  (1) 
1.845819541117304

>  <r_i_docking_score>  (1) 
-5.7721197219624711

>  <r_i_glide_ecoul>  (1) 
0.067429172580434016

>  <r_i_glide_eff_state_penalty>  (1) 
0.76682296305387487

>  <r_i_glide_einternal>  (1) 
8.3957501269741037

>  <r_i_glide_emodel>  (1) 
-69.920125581941406

>  <r_i_glide_emodel_strain>  (1) 
0.41650209156449591

>  <r_i_glide_energy>  (1) 
-52.527955954750773

>  <r_i_glide_erotb>  (1) 
0.89312676016186854

>  <r_i_glide_esite>  (1) 
-0.098350120502087399

>  <r_i_glide_evdw>  (1) 
-52.595385127331205

>  <r_i_glide_gscore>  (1) 
-6.5389426850163463

>  <r_i_glide_gscore_strain>  (1) 
0

>  <r_i_glide_hbond>  (1) 
0

>  <r_i_glide_ligand_efficiency>  (1) 
-0.16033665894340199

>  <r_i_glide_ligand_efficiency_ln>  (1) 
-1.2593205786789492

>  <r_i_glide_ligand_efficiency_sa>  (1) 
-0.52941998316194339

>  <r_i_glide_lipo>  (1) 
-2.8039046772937133

>  <r_i_glide_metal>  (1) 
-0

>  <r_i_glide_rewards>  (1) 
-1.910159766902918

>  <r_lp_Energy>  (1) 
29.432984999999999

>  <r_lp_tautomer_probability>  (1) 
0.99929914239148299

>  <s_epik_Chemistry_Notes>  (1) 
This compound has an imine and may undergo hydrolysis. This compound contains an acetal/aminal-like group ( X-CH(R)-Y where X, Y are N, S, or O) that may be acid/base labile, releasing an aldehyde.

>  <s_epik_cmdline>  (1) 
J2VwaWtfcHl0aG9uJywgJy1waHQnLCAnMS4wJywgJy1waCcsICc3LjQnLCAnLXRuJywgJzgnLCAnLW1hJywgJzUwMCcsICctaW1hZScsICc8aW5maWxlLm1hZT4nLCAnLW9tYWUnLCAnPG91dGZpbGUubWFlPic=

>  <s_epik_input>  (1) 
W09IXUMoPU8pW0NASF0oW0NIM10pW0NAQEhdMVtDSF09W0NIXS9DKFtDSF09TkMxPU8pPVtDSF1cW0NASF0oW0NIM10pT1tDSDJdW0NIMl1DKD1PKVtOSF1bQ0gyXVtDQEhdKFtDSDNdKVtDQEBIXTJbQ0gyXVtOSF1bTkhdW0NASF0ybjNbY0hdW2NIXWMoW09IXSlbY0hdMw==

>  <s_glide_docking_method>  (1) 
confgen

>  <s_i_glide_gridfile>  (1) 
gpcr_5ht2c_6bqh_protein_autoprepared_prepared

>  <s_lp_Force_Field>  (1) 
S-OPLS

>  <s_lp_Variant>  (1) 
DiffSBDD_18_num_sample_100-7

>  <s_m_source_file>  (1) 
generated__ligand_DiffSBDD_2026-05-06_prepared.sdf

>  <GenAI_Model>  (1) 
DiffSBDD

>  <Protein>  (1) 
GPCR_5HT2C

$$$$
DiffSBDD_90_num_sample_100
     RDKit          3D

  0  0  0  0  0  0  0  0  0  0999 V3000
M  V30 BEGIN CTAB
M  V30 COUNTS 85 88 0 0 1
M  V30 BEGIN ATOM
M  V30 1 C 38.870359 30.281232 54.736663 0
M  V30 2 O 34.781013 32.821190 59.652104 0
M  V30 3 F 38.032604 24.391526 54.899372 0
M  V30 4 C 39.983327 28.159702 59.708592 0 CFG=1
M  V30 5 C 36.627939 36.017114 60.384197 0 CFG=2
M  V30 6 C 38.396224 34.375006 60.063677 0 CFG=1
M  V30 7 C 41.774725 29.926858 62.653085 0
M  V30 8 C 38.278550 33.210535 57.823818 0
M  V30 9 C 40.095690 29.062586 61.009958 0
M  V30 10 N 35.237750 34.181116 59.455143 0
M  V30 11 C 39.516483 26.164555 54.532762 0
M  V30 12 C 39.366110 30.414413 60.819505 0
M  V30 13 C 37.829784 35.700936 59.560908 0
M  V30 14 C 37.256778 33.678378 60.807317 0
M  V30 15 O 36.667369 36.421415 62.753119 0
M  V30 16 N 39.467504 30.115630 56.063828 0
M  V30 17 C 38.959429 33.547736 58.934214 0
M  V30 18 F 37.252175 26.173413 53.957448 0
M  V30 19 C 38.739963 26.017558 57.362832 0 CFG=1
M  V30 20 N 39.341187 28.733286 56.440662 0 CHG=1
M  V30 21 C 40.462872 25.813989 55.679538 0
M  V30 22 C 38.704832 30.903485 57.025498 0
M  V30 23 O 41.461763 29.276937 61.397954 0
M  V30 24 C 39.581544 28.328143 62.249241 0
M  V30 25 C 38.944145 31.754139 54.317083 0
M  V30 26 C 37.667099 26.247674 56.260146 0
M  V30 27 C 38.866320 32.386732 56.707284 0 CFG=1
M  V30 28 C 36.027833 34.590807 60.630877 0 CFG=1
M  V30 29 C 38.521638 27.870512 59.276075 0
M  V30 30 O 37.780867 37.842018 61.453605 0 CHG=-1
M  V30 31 C 40.468597 28.009272 57.066364 0 CFG=1
M  V30 32 C 38.250492 32.662244 55.334081 0
M  V30 33 O 35.867407 36.822023 59.505260 0
M  V30 34 C 40.862810 28.550390 58.486086 0
M  V30 35 C 40.164979 26.481565 57.018141 0 CFG=1
M  V30 36 C 38.276050 26.429608 58.739077 0
M  V30 37 C 38.094579 25.722770 54.885242 0
M  V30 38 C 37.067335 36.828754 61.643752 0
M  V30 39 H 39.411367 29.671604 54.010312 0
M  V30 40 H 37.831026 29.947272 54.733881 0
M  V30 41 H 35.064309 32.404710 58.840590 0
M  V30 42 H 40.391366 27.221412 60.042477 0
M  V30 43 H 39.204403 34.580207 60.767117 0
M  V30 44 H 42.816419 30.233760 62.663750 0
M  V30 45 H 41.189430 30.829226 62.819412 0
M  V30 46 H 41.656972 29.262827 63.510569 0
M  V30 47 H 37.254583 33.532359 57.699984 0
M  V30 48 H 34.365049 34.691241 59.404633 0
M  V30 49 H 39.867500 25.668463 53.632393 0
M  V30 50 H 39.551401 27.226482 54.301615 0
M  V30 51 H 38.340374 30.283976 60.477287 0
M  V30 52 H 39.303617 30.997982 61.737134 0
M  V30 53 H 39.867315 31.034930 60.086581 0
M  V30 54 H 38.546351 36.514919 59.613612 0
M  V30 55 H 37.467399 35.602006 58.530740 0
M  V30 56 H 37.513288 33.627120 61.863482 0
M  V30 57 H 37.111281 32.647985 60.486446 0
M  V30 58 H 39.970766 33.221511 59.050700 0
M  V30 59 H 38.795838 24.927491 57.429971 0
M  V30 60 H 38.550438 28.690626 57.066580 0
M  V30 61 H 40.401110 24.745378 55.853479 0
M  V30 62 H 41.467400 26.001488 55.392490 0
M  V30 63 H 39.067680 30.712677 58.030862 0
M  V30 64 H 37.648468 30.627580 57.011857 0
M  V30 65 H 38.667405 27.767460 62.121997 0
M  V30 66 H 40.322663 27.621438 62.605234 0
M  V30 67 H 39.467398 29.052154 63.053476 0
M  V30 68 H 39.991621 32.021422 54.252491 0
M  V30 69 H 38.519084 31.907192 53.328992 0
M  V30 70 H 36.720914 25.774949 56.532497 0
M  V30 71 H 37.448931 27.301860 56.171010 0
M  V30 72 H 39.926359 32.631173 56.653478 0
M  V30 73 H 35.404693 34.540533 61.524571 0
M  V30 74 H 37.900302 28.021442 60.151359 0
M  V30 75 H 38.118788 28.624950 58.608413 0
M  V30 76 H 41.331908 28.191939 56.422963 0
M  V30 77 H 37.188608 32.421438 55.339180 0
M  V30 78 H 38.343789 33.712600 55.058131 0
M  V30 79 H 35.732758 36.316918 58.716073 0
M  V30 80 H 41.878081 28.212118 58.701443 0
M  V30 81 H 40.960843 29.621457 58.435842 0
M  V30 82 H 40.837288 26.021773 57.743975 0
M  V30 83 H 38.671344 25.709732 59.446749 0
M  V30 84 H 37.228687 26.199143 58.653467 0
M  V30 85 H 39.099622 28.252177 55.586645 0
M  V30 END ATOM
M  V30 BEGIN BOND
M  V30 1 1 9 4
M  V30 2 1 10 2
M  V30 3 1 12 9
M  V30 4 1 13 5
M  V30 5 1 13 6
M  V30 6 1 14 6
M  V30 7 1 16 1
M  V30 8 1 17 6
M  V30 9 2 17 8
M  V30 10 1 20 16
M  V30 11 1 21 11
M  V30 12 1 22 16
M  V30 13 1 23 7
M  V30 14 1 23 9
M  V30 15 1 24 9
M  V30 16 1 25 1
M  V30 17 1 26 19
M  V30 18 1 27 8
M  V30 19 1 27 22
M  V30 20 1 28 5
M  V30 21 1 28 10
M  V30 22 1 28 14
M  V30 23 1 29 4
M  V30 24 1 31 20
M  V30 25 1 32 25
M  V30 26 1 32 27
M  V30 27 1 5 33 CFG=3
M  V30 28 1 34 4
M  V30 29 1 34 31
M  V30 30 1 35 19
M  V30 31 1 35 21
M  V30 32 1 35 31
M  V30 33 1 36 19
M  V30 34 1 36 29
M  V30 35 1 37 3
M  V30 36 1 37 11
M  V30 37 1 37 18
M  V30 38 1 37 26
M  V30 39 1 38 5
M  V30 40 2 38 15
M  V30 41 1 38 30
M  V30 42 1 39 1
M  V30 43 1 40 1
M  V30 44 1 41 2
M  V30 45 1 4 42 CFG=1
M  V30 46 1 6 43 CFG=1
M  V30 47 1 44 7
M  V30 48 1 45 7
M  V30 49 1 46 7
M  V30 50 1 47 8
M  V30 51 1 48 10
M  V30 52 1 49 11
M  V30 53 1 50 11
M  V30 54 1 51 12
M  V30 55 1 52 12
M  V30 56 1 53 12
M  V30 57 1 54 13
M  V30 58 1 55 13
M  V30 59 1 56 14
M  V30 60 1 57 14
M  V30 61 1 58 17
M  V30 62 1 19 59 CFG=1
M  V30 63 1 60 20
M  V30 64 1 61 21
M  V30 65 1 62 21
M  V30 66 1 63 22
M  V30 67 1 64 22
M  V30 68 1 65 24
M  V30 69 1 66 24
M  V30 70 1 67 24
M  V30 71 1 68 25
M  V30 72 1 69 25
M  V30 73 1 70 26
M  V30 74 1 71 26
M  V30 75 1 27 72 CFG=3
M  V30 76 1 28 73 CFG=1
M  V30 77 1 74 29
M  V30 78 1 75 29
M  V30 79 1 31 76 CFG=3
M  V30 80 1 77 32
M  V30 81 1 78 32
M  V30 82 1 79 33
M  V30 83 1 80 34
M  V30 84 1 81 34
M  V30 85 1 35 82 CFG=1
M  V30 86 1 83 36
M  V30 87 1 84 36
M  V30 88 1 85 20
M  V30 END BOND
M  V30 END CTAB
M  END
>  <i_epik_Tot_Q>  (1) 
0

>  <i_epik_Tot_abs_Q>  (1) 
2

>  <i_i_glide_confnum>  (1) 
635

>  <i_i_glide_lignum>  (1) 
236

>  <i_i_glide_posenum>  (1) 
83

>  <i_i_glide_rotatable_bonds>  (1) 
10

>  <i_lp_mmshare_version>  (1) 
72125

>  <i_m_source_file_index>  (1) 
91

>  <i_f3d_flags>  (1) 
0

>  <num_sample>  (1) 
100

>  <b_lp_Chiralities_Consistent>  (1) 
1

>  <r_epik_Charging_Adjusted_Penalty>  (1) 
1.3235823108087639

>  <r_epik_Ionization_Penalty>  (1) 
0.58520961668590687

>  <r_epik_Ionization_Penalty_Charging>  (1) 
0.5818654171532841

>  <r_epik_Ionization_Penalty_Neutral>  (1) 
0.0033441995326227757

>  <r_epik_State_Penalty>  (1) 
0.74171689365547977

>  <r_glide_ring_energy>  (1) 
0.76850257944793787

>  <r_i_docking_score>  (1) 
-5.7708190465292448

>  <r_i_glide_ecoul>  (1) 
-8.6969878163601564

>  <r_i_glide_eff_state_penalty>  (1) 
0.74171689365547977

>  <r_i_glide_einternal>  (1) 
6.5830631853044297

>  <r_i_glide_emodel>  (1) 
-32.378959620183473

>  <r_i_glide_emodel_strain>  (1) 
1.914303492652607

>  <r_i_glide_energy>  (1) 
-10.201250933779715

>  <r_i_glide_erotb>  (1) 
0.42002339013477186

>  <r_i_glide_esite>  (1) 
-0.073301093924393032

>  <r_i_glide_evdw>  (1) 
-1.5042631174195586

>  <r_i_glide_gscore>  (1) 
-6.5125359401847245

>  <r_i_glide_gscore_strain>  (1) 
0

>  <r_i_glide_hbond>  (1) 
-0.48771642436567564

>  <r_i_glide_ligand_efficiency>  (1) 
-0.15186365911919064

>  <r_i_glide_ligand_efficiency_ln>  (1) 
-1.2443583467287471

>  <r_i_glide_ligand_efficiency_sa>  (1) 
-0.51056188714522022

>  <r_i_glide_lipo>  (1) 
-3.683152309021783

>  <r_i_glide_metal>  (1) 
-0

>  <r_i_glide_rewards>  (1) 
-1.3086281746826429

>  <r_lp_Energy>  (1) 
58.928919

>  <s_epik_Chemistry_Notes>  (1) 
This compound has a N-S or N-O group and may undergo hydrolysis at high or low pH.

>  <s_epik_cmdline>  (1) 
J2VwaWtfcHl0aG9uJywgJy1waHQnLCAnMS4wJywgJy1waCcsICc3LjQnLCAnLXRuJywgJzgnLCAnLW1hJywgJzUwMCcsICctaW1hZScsICc8aW5maWxlLm1hZT4nLCAnLW9tYWUnLCAnPG91dGZpbGUubWFlPic=

>  <s_epik_input>  (1) 
RkMoRikoW0NIMl0xKVtDSDJdW0NIMl1bQ0BIXShbQ0BASF0xMilbQ0BIXShbQ0gyXVtDQEhdKFtDSDJdW0NIMl0yKUMoW0NIM10pKFtDSDNdKU9bQ0gzXSlbTkhdTjNbQ0gyXVtDSDJdW0NIMl1bQ0BIXShbQ0gyXTMpL1tDSF09W0NIXS9bQ0BASF0oW0NIMl1bQ0BdNChbT0hdKUMoPU8pW09IXSlbQ0gyXVtDQEBIXTRbTkhdW09IXQ==

>  <s_glide_docking_method>  (1) 
confgen

>  <s_i_glide_gridfile>  (1) 
gpcr_5ht2c_6bqh_protein_autoprepared_prepared

>  <s_lp_Force_Field>  (1) 
S-OPLS

>  <s_lp_Variant>  (1) 
DiffSBDD_90_num_sample_100-8

>  <s_m_source_file>  (1) 
generated__ligand_DiffSBDD_2026-05-06_prepared.sdf

>  <GenAI_Model>  (1) 
DiffSBDD

>  <Protein>  (1) 
GPCR_5HT2C

$$$$
DiffSBDD_93_num_sample_100
     RDKit          3D

  0  0  0  0  0  0  0  0  0  0999 V3000
M  V30 BEGIN CTAB
M  V30 COUNTS 74 77 0 0 1
M  V30 BEGIN ATOM
M  V30 1 C 40.998295 31.310364 64.920995 0
M  V30 2 S 37.320401 33.726452 59.166703 0
M  V30 3 C 41.933508 29.992231 66.884615 0 CFG=2
M  V30 4 O 38.561434 38.021427 61.788570 0
M  V30 5 C 39.335408 31.592284 55.594964 0
M  V30 6 C 39.161303 35.224535 61.711221 0 CFG=1
M  V30 7 C 37.636318 29.726418 57.480796 0
M  V30 8 C 38.538270 31.199110 59.247103 0
M  V30 9 C 41.345709 31.088796 67.777408 0
M  V30 10 N 38.083774 32.335297 61.380871 0
M  V30 11 C 39.370773 30.252647 54.873934 0
M  V30 12 C 41.425088 30.141152 65.461432 0
M  V30 13 C 40.504408 31.324666 63.522457 0
M  V30 14 C 39.514479 32.642351 61.564498 0 CFG=2
M  V30 15 C 41.645015 32.452017 67.169982 0
M  V30 16 Cl 42.003489 33.921792 64.992789 0
M  V30 17 O 37.067399 29.756704 54.654884 0
M  V30 18 C 41.048011 32.610768 65.757542 0 CFG=1
M  V30 19 C 40.570289 30.050141 62.673099 0
M  V30 20 C 36.880117 34.911106 60.469062 0
M  V30 21 C 40.182509 36.302241 62.122687 0
M  V30 22 C 39.999721 32.474125 63.000203 0
M  V30 23 C 38.274818 28.725080 56.534471 0
M  V30 24 C 38.050720 35.854989 60.826007 0 CFG=1
M  V30 25 C 37.551730 32.127126 60.014977 0 CFG=1
M  V30 26 C 38.291561 29.222457 55.097785 0 CFG=2
M  V30 27 C 37.500607 37.118744 61.514345 0
M  V30 28 C 39.483664 37.510721 62.739980 0
M  V30 29 C 38.939227 31.827052 56.872388 0
M  V30 30 S 36.013050 31.221434 60.247751 0
M  V30 31 N 38.411213 30.922271 57.814770 0
M  V30 32 C 41.606210 28.598769 67.437541 0
M  V30 33 C 39.913017 34.042045 61.054404 0
M  V30 34 H 43.019092 30.095372 66.852614 0
M  V30 35 H 39.727268 32.421420 55.030217 0
M  V30 36 H 38.684390 34.887223 62.629572 0
M  V30 37 H 37.420865 29.191598 58.406716 0
M  V30 38 H 36.656678 30.021479 57.112484 0
M  V30 39 H 38.705655 30.270960 59.795190 0
M  V30 40 H 39.467402 31.731003 59.248631 0
M  V30 41 H 40.267420 30.957546 67.853499 0
M  V30 42 H 41.753437 31.024455 68.786842 0
M  V30 43 H 37.522461 33.035927 61.839057 0
M  V30 44 H 40.343928 29.807677 55.083597 0
M  V30 45 H 39.391826 30.483455 53.807327 0
M  V30 46 H 41.403614 29.237289 64.875396 0
M  V30 47 H 40.146828 31.959688 61.014903 0
M  V30 48 H 41.283388 33.251243 67.817889 0
M  V30 49 H 42.729000 32.568053 67.126074 0
M  V30 50 H 36.858738 30.511118 55.193728 0
M  V30 51 H 40.027851 32.972043 65.853501 0
M  V30 52 H 41.606228 29.788124 62.462542 0
M  V30 53 H 40.108413 29.219621 63.205358 0
M  V30 54 H 40.028832 30.088046 61.732974 0
M  V30 55 H 36.068643 35.502772 60.044793 0
M  V30 56 H 36.456564 34.421337 61.345475 0
M  V30 57 H 40.760641 36.622408 61.255090 0
M  V30 58 H 40.898017 35.896704 62.839217 0
M  V30 59 H 39.937555 33.352348 63.615307 0
M  V30 60 H 37.698443 27.801044 56.575141 0
M  V30 61 H 39.278570 28.463524 56.871611 0
M  V30 62 H 38.501417 36.188944 59.892338 0
M  V30 63 H 38.512005 28.369930 54.454151 0
M  V30 64 H 36.788205 37.625291 60.861994 0
M  V30 65 H 36.965883 36.867895 62.432661 0
M  V30 66 H 40.212500 38.280592 62.994315 0
M  V30 67 H 38.975282 37.240724 63.667089 0
M  V30 68 H 39.043649 32.821474 57.277648 0
M  V30 69 H 35.692009 31.220666 58.943869 0
M  V30 70 H 42.063984 27.815971 66.832382 0
M  V30 71 H 41.971575 28.481138 68.458420 0
M  V30 72 H 40.530567 28.424233 67.450887 0
M  V30 73 H 39.867320 34.105108 59.968641 0
M  V30 74 H 40.979819 34.144444 61.260775 0
M  V30 END ATOM
M  V30 BEGIN BOND
M  V30 1 1 9 3
M  V30 2 1 11 5
M  V30 3 2 12 1
M  V30 4 1 12 3
M  V30 5 1 13 1
M  V30 6 1 14 10
M  V30 7 1 15 9
M  V30 8 1 18 1
M  V30 9 1 18 15
M  V30 10 1 18 16
M  V30 11 1 19 13
M  V30 12 1 20 2
M  V30 13 1 21 6
M  V30 14 2 22 13
M  V30 15 1 22 14
M  V30 16 1 23 7
M  V30 17 1 24 6
M  V30 18 1 24 20
M  V30 19 1 25 2
M  V30 20 1 25 8
M  V30 21 1 25 10
M  V30 22 1 26 11
M  V30 23 1 26 17
M  V30 24 1 26 23
M  V30 25 1 27 4
M  V30 26 1 27 24
M  V30 27 1 28 4
M  V30 28 1 28 21
M  V30 29 2 29 5
M  V30 30 1 25 30 CFG=1
M  V30 31 1 31 7
M  V30 32 1 31 8
M  V30 33 1 31 29
M  V30 34 1 32 3
M  V30 35 1 33 6
M  V30 36 1 33 14
M  V30 37 1 3 34 CFG=3
M  V30 38 1 35 5
M  V30 39 1 6 36 CFG=1
M  V30 40 1 37 7
M  V30 41 1 38 7
M  V30 42 1 39 8
M  V30 43 1 40 8
M  V30 44 1 41 9
M  V30 45 1 42 9
M  V30 46 1 43 10
M  V30 47 1 44 11
M  V30 48 1 45 11
M  V30 49 1 46 12
M  V30 50 1 14 47 CFG=3
M  V30 51 1 48 15
M  V30 52 1 49 15
M  V30 53 1 50 17
M  V30 54 1 18 51 CFG=1
M  V30 55 1 52 19
M  V30 56 1 53 19
M  V30 57 1 54 19
M  V30 58 1 55 20
M  V30 59 1 56 20
M  V30 60 1 57 21
M  V30 61 1 58 21
M  V30 62 1 59 22
M  V30 63 1 60 23
M  V30 64 1 61 23
M  V30 65 1 24 62 CFG=3
M  V30 66 1 26 63 CFG=3
M  V30 67 1 64 27
M  V30 68 1 65 27
M  V30 69 1 66 28
M  V30 70 1 67 28
M  V30 71 1 68 29
M  V30 72 1 69 30
M  V30 73 1 70 32
M  V30 74 1 71 32
M  V30 75 1 72 32
M  V30 76 1 73 33
M  V30 77 1 74 33
M  V30 END BOND
M  V30 END CTAB
M  END
>  <i_epik_Tot_Q>  (1) 
0

>  <i_epik_Tot_abs_Q>  (1) 
0

>  <i_i_glide_confnum>  (1) 
32

>  <i_i_glide_lignum>  (1) 
255

>  <i_i_glide_posenum>  (1) 
107

>  <i_i_glide_rotatable_bonds>  (1) 
6

>  <i_lp_mmshare_version>  (1) 
72125

>  <i_m_source_file_index>  (1) 
94

>  <i_f3d_flags>  (1) 
0

>  <num_sample>  (1) 
100

>  <b_lp_Chiralities_Consistent>  (1) 
1

>  <r_epik_Charging_Adjusted_Penalty>  (1) 
0.20325292957253988

>  <r_epik_Ionization_Penalty>  (1) 
0.031936562948065232

>  <r_epik_Ionization_Penalty_Charging>  (1) 
3.6030848355623751e-07

>  <r_epik_Ionization_Penalty_Neutral>  (1) 
0.031936202639581676

>  <r_epik_State_Penalty>  (1) 
0.20325256926405633

>  <r_glide_ring_energy>  (1) 
0

>  <r_i_docking_score>  (1) 
-5.7677781206694494

>  <r_i_glide_ecoul>  (1) 
-3.2424169870731312

>  <r_i_glide_eff_state_penalty>  (1) 
0.20325256926405633

>  <r_i_glide_einternal>  (1) 
10.927596708410478

>  <r_i_glide_emodel>  (1) 
-51.094271831559581

>  <r_i_glide_emodel_strain>  (1) 
0.42372046711412281

>  <r_i_glide_energy>  (1) 
-43.890673287887367

>  <r_i_glide_erotb>  (1) 
0.31140238833871409

>  <r_i_glide_esite>  (1) 
-0.14609885992137223

>  <r_i_glide_evdw>  (1) 
-40.648256300814232

>  <r_i_glide_gscore>  (1) 
-5.9710306899335057

>  <r_i_glide_gscore_strain>  (1) 
0

>  <r_i_glide_hbond>  (1) 
-0.12135354063953749

>  <r_i_glide_ligand_efficiency>  (1) 
-0.17478115517180148

>  <r_i_glide_ligand_efficiency_ln>  (1) 
-1.2827239900800613

>  <r_i_glide_ligand_efficiency_sa>  (1) 
-0.56061655544988098

>  <r_i_glide_lipo>  (1) 
-3.121122333226809

>  <r_i_glide_metal>  (1) 
-0

>  <r_i_glide_rewards>  (1) 
-0.37508298138281959

>  <r_lp_Energy>  (1) 
30.005939999999999

>  <s_epik_Chemistry_Notes>  (1) 
This compound has an imine and may undergo hydrolysis.

>  <s_epik_cmdline>  (1) 
J2VwaWtfcHl0aG9uJywgJy1waHQnLCAnMS4wJywgJy1waCcsICc3LjQnLCAnLXRuJywgJzgnLCAnLW1hJywgJzUwMCcsICctaW1hZScsICc8aW5maWxlLm1hZT4nLCAnLW9tYWUnLCAnPG91dGZpbGUubWFlPic=

>  <s_epik_input>  (1) 
Q2xbQ0BIXTFbQ0gyXVtDSDJdW0NAQEhdKFtDSDNdKVtDSF09QzEvQyhbQ0gzXSk9W0NIXS9bQ0BASF0oW0NIMl0yKVtOSF1bQ0BAXShbU0hdKShTW0NIMl1bQ0BIXShbQ0BASF0yMylbQ0gyXU9bQ0gyXVtDSDJdMylbQ0gyXU4oW0NIMl1bQ0gyXTQpW0NIXT1bQ0hdW0NIMl1bQ0BASF00W09IXQ==

>  <s_glide_docking_method>  (1) 
confgen

>  <s_i_glide_gridfile>  (1) 
gpcr_5ht2c_6bqh_protein_autoprepared_prepared

>  <s_lp_Force_Field>  (1) 
S-OPLS

>  <s_lp_Variant>  (1) 
DiffSBDD_93_num_sample_100-7

>  <s_m_source_file>  (1) 
generated__ligand_DiffSBDD_2026-05-06_prepared.sdf

>  <GenAI_Model>  (1) 
DiffSBDD

>  <Protein>  (1) 
GPCR_5HT2C

$$$$
DiffSBDD_1_num_sample_100
     RDKit          3D

  0  0  0  0  0  0  0  0  0  0999 V3000
M  V30 BEGIN CTAB
M  V30 COUNTS 62 65 0 0 1
M  V30 BEGIN ATOM
M  V30 1 C 38.336983 27.309604 56.181370 0
M  V30 2 C 40.071314 34.849578 61.959333 0
M  V30 3 O 37.251428 25.372475 56.491917 0
M  V30 4 C 37.981800 33.633002 61.160270 0 CFG=1
M  V30 5 C 38.679279 28.722451 56.466063 0
M  V30 6 C 38.214746 31.224822 60.508476 0
M  V30 7 C 37.381796 37.415822 63.000654 0
M  V30 8 C 41.708166 35.614424 63.406566 0
M  V30 9 N 40.414581 36.241010 63.782440 0 CHG=1
M  V30 10 C 37.792063 33.216884 57.393047 0
M  V30 11 C 37.920204 29.439457 57.604033 0
M  V30 12 C 38.601107 36.961733 62.170615 0 CFG=2
M  V30 13 C 39.338614 35.794105 62.863381 0 CFG=1
M  V30 14 C 37.751597 31.608315 59.082319 0 CFG=2
M  V30 15 C 38.225017 31.899966 56.726336 0
M  V30 16 C 37.467449 26.642606 56.871535 0
M  V30 17 N 37.734025 32.213429 61.509315 0
M  V30 18 C 39.478466 33.896394 61.216016 0
M  V30 19 O 39.537328 29.334828 55.829236 0
M  V30 20 C 39.563417 38.121305 61.853601 0
M  V30 21 C 38.161006 25.262433 55.322726 0
M  V30 22 C 37.456005 33.935479 59.743536 0
M  V30 23 C 41.531786 35.018971 62.002543 0
M  V30 24 N 38.043683 33.003415 58.795256 0
M  V30 25 O 36.347082 31.412221 59.053510 0
M  V30 26 C 38.994881 26.614604 55.072333 0
M  V30 27 C 38.403818 30.882379 57.889021 0 CFG=2
M  V30 28 O 36.386878 36.421476 63.053501 0
M  V30 29 H 37.448829 34.277189 61.853467 0
M  V30 30 H 39.302655 31.173136 60.530898 0
M  V30 31 H 37.867324 30.224462 60.766335 0
M  V30 32 H 36.927756 38.312994 62.577301 0
M  V30 33 H 37.693494 37.621438 64.022649 0
M  V30 34 H 41.928998 34.820909 64.121153 0
M  V30 35 H 42.521685 36.339504 63.453706 0
M  V30 36 H 40.527892 37.243806 63.710740 0
M  V30 37 H 36.737954 33.434786 57.237609 0
M  V30 38 H 38.348080 34.067200 57.010433 0
M  V30 39 H 38.017220 28.847444 58.514258 0
M  V30 40 H 36.859025 29.454538 57.353000 0
M  V30 41 H 38.212260 36.602687 61.217024 0
M  V30 42 H 38.667419 35.221428 63.453587 0
M  V30 43 H 37.467425 31.576863 56.013503 0
M  V30 44 H 39.157334 32.025042 56.175077 0
M  V30 45 H 36.879766 26.969029 57.717403 0
M  V30 46 H 38.133205 32.004778 62.417891 0
M  V30 47 H 40.095333 33.251535 60.608468 0
M  V30 48 H 39.867418 38.677293 62.740071 0
M  V30 49 H 40.492526 37.726273 61.453477 0
M  V30 50 H 39.131934 38.824172 61.139290 0
M  V30 51 H 38.838461 24.421532 55.474457 0
M  V30 52 H 37.561283 25.028054 54.441565 0
M  V30 53 H 36.366878 33.872118 59.720841 0
M  V30 54 H 37.710592 34.956772 59.463324 0
M  V30 55 H 42.009486 34.043549 61.885832 0
M  V30 56 H 41.862277 35.700421 61.217217 0
M  V30 57 H 36.005178 31.621423 58.162695 0
M  V30 58 H 38.788319 27.080935 54.107330 0
M  V30 59 H 40.068004 26.495252 55.234535 0
M  V30 60 H 39.467372 30.821276 58.103762 0
M  V30 61 H 35.742577 36.640881 63.712657 0
M  V30 62 H 40.186716 36.016652 64.740189 0
M  V30 END ATOM
M  V30 BEGIN BOND
M  V30 1 1 5 1
M  V30 2 1 9 8
M  V30 3 1 11 5
M  V30 4 1 12 7
M  V30 5 1 13 2
M  V30 6 1 13 9
M  V30 7 1 13 12
M  V30 8 1 14 6
M  V30 9 1 15 10
M  V30 10 2 16 1
M  V30 11 1 16 3
M  V30 12 1 17 4
M  V30 13 1 17 6
M  V30 14 2 18 2
M  V30 15 1 18 4
M  V30 16 2 19 5
M  V30 17 1 20 12
M  V30 18 1 21 3
M  V30 19 1 22 4
M  V30 20 1 23 2
M  V30 21 1 23 8
M  V30 22 1 24 10
M  V30 23 1 24 14
M  V30 24 1 24 22
M  V30 25 1 14 25 CFG=1
M  V30 26 1 26 1
M  V30 27 1 26 21
M  V30 28 1 27 11
M  V30 29 1 27 14
M  V30 30 1 27 15
M  V30 31 1 28 7
M  V30 32 1 4 29 CFG=1
M  V30 33 1 30 6
M  V30 34 1 31 6
M  V30 35 1 32 7
M  V30 36 1 33 7
M  V30 37 1 34 8
M  V30 38 1 35 8
M  V30 39 1 36 9
M  V30 40 1 37 10
M  V30 41 1 38 10
M  V30 42 1 39 11
M  V30 43 1 40 11
M  V30 44 1 12 41 CFG=3
M  V30 45 1 13 42 CFG=1
M  V30 46 1 43 15
M  V30 47 1 44 15
M  V30 48 1 45 16
M  V30 49 1 46 17
M  V30 50 1 47 18
M  V30 51 1 48 20
M  V30 52 1 49 20
M  V30 53 1 50 20
M  V30 54 1 51 21
M  V30 55 1 52 21
M  V30 56 1 53 22
M  V30 57 1 54 22
M  V30 58 1 55 23
M  V30 59 1 56 23
M  V30 60 1 57 25
M  V30 61 1 58 26
M  V30 62 1 59 26
M  V30 63 1 27 60 CFG=1
M  V30 64 1 61 28
M  V30 65 1 62 9
M  V30 END BOND
M  V30 END CTAB
M  END
>  <i_epik_Tot_Q>  (1) 
1

>  <i_epik_Tot_abs_Q>  (1) 
1

>  <i_i_glide_confnum>  (1) 
91

>  <i_i_glide_lignum>  (1) 
8

>  <i_i_glide_posenum>  (1) 
107

>  <i_i_glide_rotatable_bonds>  (1) 
8

>  <i_lp_mmshare_version>  (1) 
72125

>  <i_m_source_file_index>  (1) 
2

>  <i_f3d_flags>  (1) 
0

>  <num_sample>  (1) 
100

>  <b_lp_Chiralities_Consistent>  (1) 
1

>  <r_epik_Charging_Adjusted_Penalty>  (1) 
0.089223518210420474

>  <r_epik_Ionization_Penalty>  (1) 
0.15303808439063821

>  <r_epik_Ionization_Penalty_Charging>  (1) 
0.0017986555257548985

>  <r_epik_Ionization_Penalty_Neutral>  (1) 
0.15123942886488331

>  <r_epik_State_Penalty>  (1) 
0.08742486268466558

>  <r_glide_ring_energy>  (1) 
0

>  <r_i_docking_score>  (1) 
-5.7670659592009912

>  <r_i_glide_ecoul>  (1) 
-11.222096839857993

>  <r_i_glide_eff_state_penalty>  (1) 
0.08742486268466558

>  <r_i_glide_einternal>  (1) 
2.7847236023125195

>  <r_i_glide_emodel>  (1) 
-47.027692556802123

>  <r_i_glide_emodel_strain>  (1) 
1.1673686347176044

>  <r_i_glide_energy>  (1) 
-33.97492884039292

>  <r_i_glide_erotb>  (1) 
0.76037187950223806

>  <r_i_glide_esite>  (1) 
-0.068849969099885694

>  <r_i_glide_evdw>  (1) 
-22.752832000534926

>  <r_i_glide_gscore>  (1) 
-5.8544908218856566

>  <r_i_glide_gscore_strain>  (1) 
0

>  <r_i_glide_hbond>  (1) 
-0.1167651029045173

>  <r_i_glide_ligand_efficiency>  (1) 
-0.2059666414000354

>  <r_i_glide_ligand_efficiency_ln>  (1) 
-1.3312081517979302

>  <r_i_glide_ligand_efficiency_sa>  (1) 
-0.62543603184961682

>  <r_i_glide_lipo>  (1) 
-2.4552287890911462

>  <r_i_glide_metal>  (1) 
-0

>  <r_i_glide_rewards>  (1) 
-1.153062714286899

>  <r_lp_Energy>  (1) 
12.069678999999999

>  <s_epik_cmdline>  (1) 
J2VwaWtfcHl0aG9uJywgJy1waHQnLCAnMS4wJywgJy1waCcsICc3LjQnLCAnLXRuJywgJzgnLCAnLW1hJywgJzUwMCcsICctaW1hZScsICc8aW5maWxlLm1hZT4nLCAnLW9tYWUnLCAnPG91dGZpbGUubWFlPic=

>  <s_epik_input>  (1) 
W0NIMl0xW0NIMl1PW0NIXT1DMUMoPU8pW0NIMl1bQ0BIXTJbQ0gyXVtDSDJdTihbQ0BAXTIzW09IXSlbQ0gyXVtDQEBIXShbTkhdW0NIMl0zKS9bQ0hdPUM0XFtDQEBIXShbTkhdW0NIMl1bQ0gyXTQpW0NASF0oW0NIM10pW0NIMl1bT0hd

>  <s_glide_docking_method>  (1) 
confgen

>  <s_i_glide_gridfile>  (1) 
gpcr_5ht2c_6bqh_protein_autoprepared_prepared

>  <s_lp_Force_Field>  (1) 
S-OPLS

>  <s_lp_Variant>  (1) 
DiffSBDD_1_num_sample_100-2

>  <s_m_source_file>  (1) 
generated__ligand_DiffSBDD_2026-05-06_prepared.sdf

>  <GenAI_Model>  (1) 
DiffSBDD

>  <Protein>  (1) 
GPCR_5HT2C

$$$$
DiffSBDD_90_num_sample_100
     RDKit          3D

  0  0  0  0  0  0  0  0  0  0999 V3000
M  V30 BEGIN CTAB
M  V30 COUNTS 85 88 0 0 1
M  V30 BEGIN ATOM
M  V30 1 C 36.295093 30.041513 59.119096 0
M  V30 2 O 41.163050 35.273079 63.898311 0
M  V30 3 F 39.640361 31.621436 52.942834 0
M  V30 4 C 38.349827 26.653491 55.995027 0 CFG=1
M  V30 5 C 38.958879 36.172672 62.256304 0 CFG=2
M  V30 6 C 39.795900 34.175125 61.105030 0 CFG=1
M  V30 7 C 39.867239 24.749146 57.340283 0
M  V30 8 C 39.735235 31.663913 61.184168 0
M  V30 9 C 37.679631 25.372621 56.569640 0
M  V30 10 N 41.406579 36.420816 63.053474 0
M  V30 11 C 39.143777 32.019582 55.220684 0
M  V30 12 C 36.351824 25.578430 57.310515 0
M  V30 13 C 38.790639 34.647344 62.145619 0
M  V30 14 C 40.834233 35.277444 60.967310 0
M  V30 15 O 37.635385 36.250664 60.254725 0
M  V30 16 N 37.459713 30.537617 58.348484 0 CFG=2 CHG=1
M  V30 17 C 40.339114 32.819299 61.488659 0
M  V30 18 F 37.867420 32.651797 53.543657 0
M  V30 19 C 39.082323 29.241963 54.166240 0 CFG=1
M  V30 20 N 37.639190 29.828207 57.035864 0
M  V30 21 C 40.149196 30.976881 55.640999 0
M  V30 22 C 38.658158 30.660422 59.208598 0
M  V30 23 O 38.503923 24.942325 57.633601 0
M  V30 24 C 37.498111 24.237594 55.534014 0
M  V30 25 C 36.039559 30.903741 60.379409 0
M  V30 26 C 37.991893 30.278385 53.918718 0
M  V30 27 C 38.433713 31.563549 60.404954 0 CFG=1
M  V30 28 C 40.459260 36.404919 61.933656 0 CFG=1
M  V30 29 C 37.677435 27.243499 54.760575 0
M  V30 30 O 37.827379 38.116375 61.453424 0 CHG=-1
M  V30 31 C 38.910624 29.119838 56.823100 0 CFG=1
M  V30 32 C 37.295901 31.037420 61.257705 0
M  V30 33 O 38.626789 36.674418 63.534087 0
M  V30 34 C 38.700679 27.651526 57.137183 0
M  V30 35 C 39.705581 29.498539 55.548652 0 CFG=1
M  V30 36 C 38.678741 27.818866 53.779651 0
M  V30 37 C 38.661854 31.652605 53.851544 0
M  V30 38 C 38.061122 36.908802 61.230428 0
M  V30 39 H 36.498194 29.016804 59.398373 0
M  V30 40 H 35.410650 30.021542 58.482652 0
M  V30 41 H 40.247497 35.411309 64.115614 0
M  V30 42 H 39.295567 26.331989 55.572299 0
M  V30 43 H 39.313190 34.126700 60.132366 0
M  V30 44 H 40.267401 24.421463 58.253505 0
M  V30 45 H 39.982757 24.021423 56.569582 0
M  V30 46 H 40.487829 25.598802 57.080655 0
M  V30 47 H 40.181504 30.732991 61.501006 0
M  V30 48 H 41.319652 37.198736 63.706229 0
M  V30 49 H 39.564098 33.020633 55.248514 0
M  V30 50 H 38.300798 32.068102 55.910595 0
M  V30 51 H 35.497673 25.457986 56.653386 0
M  V30 52 H 36.267394 24.821533 58.089500 0
M  V30 53 H 36.267518 26.528784 57.827331 0
M  V30 54 H 37.780162 34.322400 61.881805 0
M  V30 55 H 39.067347 34.170556 63.080550 0
M  V30 56 H 40.667431 35.621498 59.956427 0
M  V30 57 H 41.867765 34.950738 61.053632 0
M  V30 58 H 41.264538 32.807850 62.045331 0
M  V30 59 H 39.867286 29.438020 53.440651 0
M  V30 60 H 37.562371 30.622843 56.416285 0
M  V30 61 H 41.061693 31.129474 55.054375 0
M  V30 62 H 40.267391 31.238732 56.675327 0
M  V30 63 H 39.451934 31.102708 58.623762 0
M  V30 64 H 38.985076 29.677243 59.556328 0
M  V30 65 H 36.729535 24.470795 54.798441 0
M  V30 66 H 38.411834 24.031518 54.978836 0
M  V30 67 H 37.166580 23.315982 56.011881 0
M  V30 68 H 35.225329 30.509326 60.982136 0
M  V30 69 H 35.712061 31.896149 60.065554 0
M  V30 70 H 37.482868 29.964496 53.047552 0
M  V30 71 H 37.197466 30.278024 54.658223 0
M  V30 72 H 38.101433 32.523669 60.023334 0
M  V30 73 H 40.591937 37.373933 61.453680 0
M  V30 74 H 37.067004 26.516211 54.233880 0
M  V30 75 H 37.067423 28.070587 55.053428 0
M  V30 76 H 39.646805 29.379505 57.567909 0
M  V30 77 H 37.619738 30.093125 61.685144 0
M  V30 78 H 37.104483 31.714662 62.090597 0
M  V30 79 H 38.361614 37.571152 63.368887 0
M  V30 80 H 39.629324 27.350199 57.611087 0
M  V30 81 H 38.005857 27.580386 57.968539 0
M  V30 82 H 40.617580 28.900809 55.593348 0
M  V30 83 H 39.554665 27.182446 53.657288 0
M  V30 84 H 38.222632 27.837136 52.788771 0
M  V30 85 H 37.184994 31.474328 58.068983 0
M  V30 END ATOM
M  V30 BEGIN BOND
M  V30 1 1 9 4
M  V30 2 1 10 2
M  V30 3 1 12 9
M  V30 4 1 13 5
M  V30 5 1 13 6
M  V30 6 1 14 6
M  V30 7 1 16 1
M  V30 8 1 17 6
M  V30 9 2 17 8
M  V30 10 1 20 16
M  V30 11 1 21 11
M  V30 12 1 22 16
M  V30 13 1 23 7
M  V30 14 1 23 9
M  V30 15 1 24 9
M  V30 16 1 25 1
M  V30 17 1 26 19
M  V30 18 1 27 8
M  V30 19 1 27 22
M  V30 20 1 28 5
M  V30 21 1 28 10
M  V30 22 1 28 14
M  V30 23 1 29 4
M  V30 24 1 31 20
M  V30 25 1 32 25
M  V30 26 1 32 27
M  V30 27 1 5 33 CFG=1
M  V30 28 1 34 4
M  V30 29 1 34 31
M  V30 30 1 35 19
M  V30 31 1 35 21
M  V30 32 1 35 31
M  V30 33 1 36 19
M  V30 34 1 36 29
M  V30 35 1 37 3
M  V30 36 1 37 11
M  V30 37 1 37 18
M  V30 38 1 37 26
M  V30 39 1 38 5
M  V30 40 2 38 15
M  V30 41 1 38 30
M  V30 42 1 39 1
M  V30 43 1 40 1
M  V30 44 1 41 2
M  V30 45 1 4 42 CFG=3
M  V30 46 1 6 43 CFG=3
M  V30 47 1 44 7
M  V30 48 1 45 7
M  V30 49 1 46 7
M  V30 50 1 47 8
M  V30 51 1 48 10
M  V30 52 1 49 11
M  V30 53 1 50 11
M  V30 54 1 51 12
M  V30 55 1 52 12
M  V30 56 1 53 12
M  V30 57 1 54 13
M  V30 58 1 55 13
M  V30 59 1 56 14
M  V30 60 1 57 14
M  V30 61 1 58 17
M  V30 62 1 19 59 CFG=3
M  V30 63 1 60 20
M  V30 64 1 61 21
M  V30 65 1 62 21
M  V30 66 1 63 22
M  V30 67 1 64 22
M  V30 68 1 65 24
M  V30 69 1 66 24
M  V30 70 1 67 24
M  V30 71 1 68 25
M  V30 72 1 69 25
M  V30 73 1 70 26
M  V30 74 1 71 26
M  V30 75 1 27 72 CFG=3
M  V30 76 1 28 73 CFG=3
M  V30 77 1 74 29
M  V30 78 1 75 29
M  V30 79 1 31 76 CFG=1
M  V30 80 1 77 32
M  V30 81 1 78 32
M  V30 82 1 79 33
M  V30 83 1 80 34
M  V30 84 1 81 34
M  V30 85 1 35 82 CFG=3
M  V30 86 1 83 36
M  V30 87 1 84 36
M  V30 88 1 16 85 CFG=3
M  V30 END BOND
M  V30 END CTAB
M  END
>  <i_epik_Tot_Q>  (1) 
0

>  <i_epik_Tot_abs_Q>  (1) 
2

>  <i_i_glide_confnum>  (1) 
871

>  <i_i_glide_lignum>  (1) 
242

>  <i_i_glide_posenum>  (1) 
103

>  <i_i_glide_rotatable_bonds>  (1) 
10

>  <i_lp_mmshare_version>  (1) 
72125

>  <i_m_source_file_index>  (1) 
91

>  <i_f3d_flags>  (1) 
0

>  <num_sample>  (1) 
100

>  <b_lp_Chiralities_Consistent>  (1) 
1

>  <r_epik_Charging_Adjusted_Penalty>  (1) 
1.5083745474312953

>  <r_epik_Ionization_Penalty>  (1) 
0.65750586125956467

>  <r_epik_Ionization_Penalty_Charging>  (1) 
0.6544614066189578

>  <r_epik_Ionization_Penalty_Neutral>  (1) 
0.0030444546406068235

>  <r_epik_State_Penalty>  (1) 
0.8539131408123376

>  <r_glide_ring_energy>  (1) 
0.76850257944793787

>  <r_i_docking_score>  (1) 
-5.762867300857744

>  <r_i_glide_ecoul>  (1) 
-3.3005850642537857

>  <r_i_glide_eff_state_penalty>  (1) 
0.8539131408123376

>  <r_i_glide_einternal>  (1) 
29.867076187255247

>  <r_i_glide_emodel>  (1) 
-4.693029630806981

>  <r_i_glide_emodel_strain>  (1) 
4.6252629670691903

>  <r_i_glide_energy>  (1) 
-19.069814062806103

>  <r_i_glide_erotb>  (1) 
0.42002339013477186

>  <r_i_glide_esite>  (1) 
-0.099589379136094475

>  <r_i_glide_evdw>  (1) 
-15.769228998552318

>  <r_i_glide_gscore>  (1) 
-6.6167804416700813

>  <r_i_glide_gscore_strain>  (1) 
0.15631574176729757

>  <r_i_glide_hbond>  (1) 
-0.3675170326952224

>  <r_i_glide_ligand_efficiency>  (1) 
-0.15165440265415117

>  <r_i_glide_ligand_efficiency_ln>  (1) 
-1.2426437164453132

>  <r_i_glide_ligand_efficiency_sa>  (1) 
-0.50985837205604378

>  <r_i_glide_lipo>  (1) 
-4.1445819838654367

>  <r_i_glide_metal>  (1) 
-0

>  <r_i_glide_rewards>  (1) 
-1.2978819683097131

>  <r_lp_Energy>  (1) 
47.513490999999995

>  <s_epik_Chemistry_Notes>  (1) 
This compound has a N-S or N-O group and may undergo hydrolysis at high or low pH.

>  <s_epik_cmdline>  (1) 
J2VwaWtfcHl0aG9uJywgJy1waHQnLCAnMS4wJywgJy1waCcsICc3LjQnLCAnLXRuJywgJzgnLCAnLW1hJywgJzUwMCcsICctaW1hZScsICc8aW5maWxlLm1hZT4nLCAnLW9tYWUnLCAnPG91dGZpbGUubWFlPic=

>  <s_epik_input>  (1) 
RkMoRikoW0NIMl0xKVtDSDJdW0NIMl1bQ0BIXShbQ0BASF0xMilbQ0BIXShbQ0gyXVtDQEhdKFtDSDJdW0NIMl0yKUMoW0NIM10pKFtDSDNdKU9bQ0gzXSlbTkhdTjNbQ0gyXVtDSDJdW0NIMl1bQ0BIXShbQ0gyXTMpL1tDSF09W0NIXVxbQ0BASF0oW0NIMl1bQ0BdNChbT0hdKUMoPU8pW09IXSlbQ0gyXVtDQEBIXTRbTkhdW09IXQ==

>  <s_glide_docking_method>  (1) 
confgen

>  <s_i_glide_gridfile>  (1) 
gpcr_5ht2c_6bqh_protein_autoprepared_prepared

>  <s_lp_Force_Field>  (1) 
S-OPLS

>  <s_lp_Variant>  (1) 
DiffSBDD_90_num_sample_100-14

>  <s_m_source_file>  (1) 
generated__ligand_DiffSBDD_2026-05-06_prepared.sdf

>  <GenAI_Model>  (1) 
DiffSBDD

>  <Protein>  (1) 
GPCR_5HT2C

$$$$
DiffSBDD_47_num_sample_100
     RDKit          3D

  0  0  0  0  0  0  0  0  0  0999 V3000
M  V30 BEGIN CTAB
M  V30 COUNTS 32 32 0 0 1
M  V30 BEGIN ATOM
M  V30 1 S 38.267395 32.326820 55.654066 0
M  V30 2 C 38.214176 29.775794 60.224554 0
M  V30 3 N 38.051538 29.583244 55.863136 0
M  V30 4 C 39.309992 29.804286 53.772446 0
M  V30 5 C 38.267593 30.887632 57.914381 0
M  V30 6 O 39.628630 31.260665 62.011286 0 CHG=-1
M  V30 7 C 38.710621 30.747438 56.448712 0 CFG=2
M  V30 8 C 39.405906 28.877955 52.534004 0 CFG=2
M  V30 9 C 38.890892 29.840032 58.850044 0
M  V30 10 C 39.888913 29.623538 51.306401 0
M  V30 11 O 40.265839 30.797011 51.357294 0
M  V30 12 O 37.067524 31.621356 61.853506 0
M  V30 13 S 38.391663 31.388401 61.120658 0
M  V30 14 C 38.306378 29.162107 54.688449 0
M  V30 15 C 38.070320 28.128144 52.345868 0
M  V30 16 O 39.867394 28.878041 50.218428 0
M  V30 17 O 40.267389 29.621429 49.053502 0
M  V30 18 S 37.467398 27.758906 54.003403 0
M  V30 19 H 36.961545 32.286881 55.977351 0
M  V30 20 H 37.152687 29.561321 60.110134 0
M  V30 21 H 38.667419 28.988276 60.826985 0
M  V30 22 H 40.273198 29.932283 54.261836 0
M  V30 23 H 38.936439 30.787078 53.487012 0
M  V30 24 H 38.532865 31.877887 58.286274 0
M  V30 25 H 37.178742 30.829628 57.966525 0
M  V30 26 H 39.796112 30.642494 56.412159 0
M  V30 27 H 40.147621 28.094384 52.653506 0
M  V30 28 H 38.806562 28.855343 58.390324 0
M  V30 29 H 39.957037 30.021420 58.968733 0
M  V30 30 H 37.333574 28.761055 51.853501 0
M  V30 31 H 38.178115 27.213093 51.761954 0
M  V30 32 H 39.428467 29.988086 48.797319 0
M  V30 END ATOM
M  V30 BEGIN BOND
M  V30 1 1 7 1
M  V30 2 1 7 3
M  V30 3 1 7 5
M  V30 4 1 8 4
M  V30 5 1 9 2
M  V30 6 1 9 5
M  V30 7 1 10 8
M  V30 8 2 11 10
M  V30 9 1 13 2
M  V30 10 1 13 6
M  V30 11 2 13 12
M  V30 12 2 14 3
M  V30 13 1 14 4
M  V30 14 1 15 8
M  V30 15 1 16 10
M  V30 16 1 17 16
M  V30 17 1 18 14
M  V30 18 1 18 15
M  V30 19 1 19 1
M  V30 20 1 20 2
M  V30 21 1 21 2
M  V30 22 1 22 4
M  V30 23 1 23 4
M  V30 24 1 24 5
M  V30 25 1 25 5
M  V30 26 1 7 26 CFG=1
M  V30 27 1 8 27 CFG=1
M  V30 28 1 28 9
M  V30 29 1 29 9
M  V30 30 1 30 15
M  V30 31 1 31 15
M  V30 32 1 32 17
M  V30 END BOND
M  V30 END CTAB
M  END
>  <i_epik_Tot_Q>  (1) 
-1

>  <i_epik_Tot_abs_Q>  (1) 
1

>  <i_i_glide_confnum>  (1) 
91

>  <i_i_glide_lignum>  (1) 
130

>  <i_i_glide_posenum>  (1) 
190

>  <i_i_glide_rotatable_bonds>  (1) 
9

>  <i_lp_mmshare_version>  (1) 
72125

>  <i_m_source_file_index>  (1) 
48

>  <i_f3d_flags>  (1) 
0

>  <num_sample>  (1) 
100

>  <b_lp_Chiralities_Consistent>  (1) 
1

>  <r_epik_Charging_Adjusted_Penalty>  (1) 
0.41068401557064588

>  <r_epik_Ionization_Penalty>  (1) 
0.088233061061265911

>  <r_epik_Ionization_Penalty_Charging>  (1) 
4.1766180419441644e-06

>  <r_epik_Ionization_Penalty_Neutral>  (1) 
0.088228884443223965

>  <r_epik_State_Penalty>  (1) 
0.41067983895260396

>  <r_glide_ring_energy>  (1) 
0

>  <r_i_docking_score>  (1) 
-5.7623121931225532

>  <r_i_glide_ecoul>  (1) 
-7.0335122376715749

>  <r_i_glide_eff_state_penalty>  (1) 
0.41067983895260396

>  <r_i_glide_einternal>  (1) 
3.9446388580190508

>  <r_i_glide_emodel>  (1) 
-53.617055056961789

>  <r_i_glide_emodel_strain>  (1) 
0.46050749370982302

>  <r_i_glide_energy>  (1) 
-39.603720601999918

>  <r_i_glide_erotb>  (1) 
1.1409563005043168

>  <r_i_glide_esite>  (1) 
-0.072212552704825059

>  <r_i_glide_evdw>  (1) 
-32.570208364328344

>  <r_i_glide_gscore>  (1) 
-6.1729920320751575

>  <r_i_glide_gscore_strain>  (1) 
0

>  <r_i_glide_hbond>  (1) 
-0.88610984844295004

>  <r_i_glide_ligand_efficiency>  (1) 
-0.32012845517347516

>  <r_i_glide_ligand_efficiency_ln>  (1) 
-1.4811726363751665

>  <r_i_glide_ligand_efficiency_sa>  (1) 
-0.83897389393727362

>  <r_i_glide_lipo>  (1) 
-1.2596776582300719

>  <r_i_glide_metal>  (1) 
-0

>  <r_i_glide_rewards>  (1) 
-2.4124110193344741

>  <r_lp_Energy>  (1) 
-2.1524229999999998

>  <r_lp_tautomer_probability>  (1) 
0.49990026989615577

>  <s_epik_Chemistry_Notes>  (1) 
This compound has an imine and may undergo hydrolysis. This compound contains an acetal/aminal-like group ( X-CH(R)-Y where X, Y are N, S, or O) that may be acid/base labile, releasing an aldehyde.

>  <s_epik_cmdline>  (1) 
J2VwaWtfcHl0aG9uJywgJy1waHQnLCAnMS4wJywgJy1waCcsICc3LjQnLCAnLXRuJywgJzgnLCAnLW1hJywgJzUwMCcsICctaW1hZScsICc8aW5maWxlLm1hZT4nLCAnLW9tYWUnLCAnPG91dGZpbGUubWFlPic=

>  <s_epik_input>  (1) 
W09IXVtTQEBdKD1PKVtDSDJdW0NIMl1bQ0gyXVtDQEhdKFtTSF0pL049QyhTW0NIMl0xKVxbQ0gyXVtDQEBIXTFDKD1PKU9bT0hd

>  <s_glide_docking_method>  (1) 
confgen

>  <s_i_glide_gridfile>  (1) 
gpcr_5ht2c_6bqh_protein_autoprepared_prepared

>  <s_lp_Force_Field>  (1) 
S-OPLS

>  <s_lp_Variant>  (1) 
DiffSBDD_47_num_sample_100-2

>  <s_m_source_file>  (1) 
generated__ligand_DiffSBDD_2026-05-06_prepared.sdf

>  <GenAI_Model>  (1) 
DiffSBDD

>  <Protein>  (1) 
GPCR_5HT2C

$$$$
DiffSBDD_74_num_sample_100
     RDKit          3D

  0  0  0  0  0  0  0  0  0  0999 V3000
M  V30 BEGIN CTAB
M  V30 COUNTS 24 24 0 0 1
M  V30 BEGIN ATOM
M  V30 1 C 40.683518 30.221897 49.929581 0
M  V30 2 C 39.539938 29.100324 55.711580 0
M  V30 3 C 38.840314 29.197301 53.290983 0
M  V30 4 C 38.111580 31.858875 55.026780 0
M  V30 5 C 39.182728 28.477412 51.086635 0
M  V30 6 C 38.563085 28.226409 52.357220 0
M  V30 7 S 39.867403 30.421429 52.612215 0
M  V30 8 C 39.918283 29.637776 51.068442 0
M  V30 9 C 37.464717 30.462234 55.067799 0
M  V30 10 C 38.376688 29.260146 54.719386 0 CFG=2
M  V30 11 H 40.641091 29.575276 49.053484 0
M  V30 12 H 40.274841 31.193773 49.651057 0
M  V30 13 H 41.730501 30.366524 50.197215 0
M  V30 14 H 40.067220 28.160047 55.547407 0
M  V30 15 H 40.267446 29.904378 55.609738 0
M  V30 16 H 39.183004 29.103238 56.741779 0
M  V30 17 H 37.467411 32.590944 55.511953 0
M  V30 18 H 39.067744 31.886424 55.547443 0
M  V30 19 H 38.265365 32.207065 54.006723 0
M  V30 20 H 39.063342 27.810256 50.246176 0
M  V30 21 H 37.947963 27.356035 52.535687 0
M  V30 22 H 36.585946 30.458855 54.423175 0
M  V30 23 H 37.077485 30.311333 56.076427 0
M  V30 24 H 37.747733 28.381968 54.873797 0
M  V30 END ATOM
M  V30 BEGIN BOND
M  V30 1 2 6 3
M  V30 2 1 6 5
M  V30 3 1 7 3
M  V30 4 1 8 1
M  V30 5 2 8 5
M  V30 6 1 8 7
M  V30 7 1 9 4
M  V30 8 1 10 2
M  V30 9 1 10 3
M  V30 10 1 10 9
M  V30 11 1 11 1
M  V30 12 1 12 1
M  V30 13 1 13 1
M  V30 14 1 14 2
M  V30 15 1 15 2
M  V30 16 1 16 2
M  V30 17 1 17 4
M  V30 18 1 18 4
M  V30 19 1 19 4
M  V30 20 1 20 5
M  V30 21 1 21 6
M  V30 22 1 22 9
M  V30 23 1 23 9
M  V30 24 1 10 24 CFG=3
M  V30 END BOND
M  V30 END CTAB
M  END
>  <i_epik_Tot_Q>  (1) 
0

>  <i_epik_Tot_abs_Q>  (1) 
0

>  <i_i_glide_confnum>  (1) 
1

>  <i_i_glide_lignum>  (1) 
187

>  <i_i_glide_posenum>  (1) 
355

>  <i_i_glide_rotatable_bonds>  (1) 
2

>  <i_lp_mmshare_version>  (1) 
72125

>  <i_m_source_file_index>  (1) 
75

>  <i_f3d_flags>  (1) 
0

>  <num_sample>  (1) 
100

>  <b_lp_Chiralities_Consistent>  (1) 
1

>  <r_epik_Charging_Adjusted_Penalty>  (1) 
0

>  <r_epik_Ionization_Penalty>  (1) 
0

>  <r_epik_Ionization_Penalty_Charging>  (1) 
0

>  <r_epik_Ionization_Penalty_Neutral>  (1) 
0

>  <r_epik_State_Penalty>  (1) 
-0

>  <r_glide_ring_energy>  (1) 
0

>  <r_i_docking_score>  (1) 
-5.7620550712075458

>  <r_i_glide_ecoul>  (1) 
-0.80692294879317306

>  <r_i_glide_eff_state_penalty>  (1) 
-0

>  <r_i_glide_einternal>  (1) 
0.31903003370814309

>  <r_i_glide_emodel>  (1) 
-32.338207639184283

>  <r_i_glide_emodel_strain>  (1) 
0.051031855057610986

>  <r_i_glide_energy>  (1) 
-24.038069375507241

>  <r_i_glide_erotb>  (1) 
0.62454345272379397

>  <r_i_glide_esite>  (1) 
0

>  <r_i_glide_evdw>  (1) 
-23.231146426714069

>  <r_i_glide_gscore>  (1) 
-5.7620550712075458

>  <r_i_glide_gscore_strain>  (1) 
0

>  <r_i_glide_hbond>  (1) 
0

>  <r_i_glide_ligand_efficiency>  (1) 
-0.57620550712075458

>  <r_i_glide_ligand_efficiency_ln>  (1) 
-1.7447105552044391

>  <r_i_glide_ligand_efficiency_sa>  (1) 
-1.2413971331283673

>  <r_i_glide_lipo>  (1) 
-2.2601945173878168

>  <r_i_glide_metal>  (1) 
-0

>  <r_i_glide_rewards>  (1) 
-2.8438082428888438

>  <r_lp_Energy>  (1) 
7.9689609999999993

>  <r_lp_tautomer_probability>  (1) 
1

>  <s_epik_cmdline>  (1) 
J2VwaWtfcHl0aG9uJywgJy1waHQnLCAnMS4wJywgJy1waCcsICc3LjQnLCAnLXRuJywgJzgnLCAnLW1hJywgJzUwMCcsICctaW1hZScsICc8aW5maWxlLm1hZT4nLCAnLW9tYWUnLCAnPG91dGZpbGUubWFlPic=

>  <s_epik_input>  (1) 
W0NIM11jKHMxKVtjSF1bY0hdYzFbQ0BIXShbQ0gzXSlbQ0gyXVtDSDNd

>  <s_glide_docking_method>  (1) 
confgen

>  <s_i_glide_gridfile>  (1) 
gpcr_5ht2c_6bqh_protein_autoprepared_prepared

>  <s_lp_Force_Field>  (1) 
S-OPLS

>  <s_lp_Variant>  (1) 
DiffSBDD_74_num_sample_100-2

>  <s_m_source_file>  (1) 
generated__ligand_DiffSBDD_2026-05-06_prepared.sdf

>  <GenAI_Model>  (1) 
DiffSBDD

>  <Protein>  (1) 
GPCR_5HT2C

$$$$
DiffSBDD_60_num_sample_100
     RDKit          3D

  0  0  0  0  0  0  0  0  0  0999 V3000
M  V30 BEGIN CTAB
M  V30 COUNTS 75 77 0 0 1
M  V30 BEGIN ATOM
M  V30 1 C 38.184433 36.951877 61.664959 0
M  V30 2 C 39.776851 29.457400 51.282364 0
M  V30 3 C 39.160275 28.252232 51.668804 0
M  V30 4 C 38.223751 31.178000 59.819697 0
M  V30 5 N 40.053514 36.066738 62.004462 0
M  V30 6 C 36.208116 35.908429 59.530494 0
M  V30 7 C 40.586890 28.420242 56.134581 0
M  V30 8 C 35.942370 30.072784 59.580710 0
M  V30 9 C 37.150372 30.628747 58.855747 0 CFG=2
M  V30 10 C 39.851060 33.723686 61.164645 0
M  V30 11 C 39.264349 29.159520 56.408226 0 CFG=1
M  V30 12 O 37.904265 33.768442 58.670334 0
M  V30 13 C 38.592720 27.545615 58.397817 0 CFG=1
M  V30 14 C 39.885267 27.019456 59.047799 0
M  V30 15 C 37.768721 32.386264 60.688462 0 CFG=1
M  V30 16 N 38.854805 32.746688 61.634643 0 CHG=1
M  V30 17 C 38.187394 29.021548 55.295536 0
M  V30 18 C 39.310276 35.081634 61.419690 0
M  V30 19 C 36.872372 34.942256 60.534989 0 CFG=1
M  V30 20 C 37.163645 33.570576 59.855389 0 CFG=1
M  V30 21 O 39.068079 27.221454 50.786571 0
M  V30 22 C 38.640632 28.111103 52.968823 0
M  V30 23 C 38.077152 35.606708 61.170859 0
M  V30 24 C 37.836342 25.302687 57.802165 0
M  V30 25 C 38.899258 24.402337 57.169815 0
M  V30 26 C 39.869060 30.523736 52.195441 0
M  V30 27 C 38.749246 28.981876 57.851417 0 CFG=2
M  V30 28 O 37.488109 29.631202 57.894234 0
M  V30 29 N 39.390222 37.219304 62.169053 0
M  V30 30 C 40.473672 26.965195 55.610329 0
M  V30 31 C 38.738003 29.177068 53.886968 0
M  V30 32 C 39.351286 30.385866 53.496484 0
M  V30 33 O 38.022795 26.665429 57.427494 0
M  V30 34 H 37.432747 37.728933 61.672669 0
M  V30 35 H 40.176253 29.566428 50.285137 0
M  V30 36 H 38.579341 30.373053 60.464549 0
M  V30 37 H 39.068125 31.503002 59.217969 0
M  V30 38 H 35.867473 36.824887 60.010561 0
M  V30 39 H 35.340212 35.450510 59.054450 0
M  V30 40 H 36.899500 36.204156 58.740669 0
M  V30 41 H 41.224705 28.447820 57.014574 0
M  V30 42 H 41.133343 29.049984 55.453488 0
M  V30 43 H 35.467002 30.820947 60.210711 0
M  V30 44 H 36.267484 29.250194 60.204683 0
M  V30 45 H 35.210765 29.707780 58.859115 0
M  V30 46 H 36.824313 31.461883 58.253540 0
M  V30 47 H 40.777366 33.575484 61.721271 0
M  V30 48 H 40.081534 33.574689 60.111438 0
M  V30 49 H 39.537507 30.215322 56.378207 0
M  V30 50 H 37.355069 34.226768 58.047159 0
M  V30 51 H 37.879323 27.644400 59.197729 0
M  V30 52 H 40.208293 27.665846 59.863989 0
M  V30 53 H 40.713012 26.921354 58.357231 0
M  V30 54 H 39.757886 26.026121 59.453389 0
M  V30 55 H 36.976739 32.033017 61.348449 0
M  V30 56 H 38.435234 33.149850 62.460456 0
M  V30 57 H 37.676874 28.063176 55.372573 0
M  V30 58 H 37.411901 29.776501 55.428029 0
M  V30 59 H 36.137542 34.746936 61.317342 0
M  V30 60 H 36.192149 33.215846 59.506304 0
M  V30 61 H 38.170578 27.183448 53.263125 0
M  V30 62 H 36.847970 24.985072 57.469417 0
M  V30 63 H 37.867361 25.155333 58.875586 0
M  V30 64 H 38.806173 23.387527 57.551258 0
M  V30 65 H 39.906255 24.733105 57.415319 0
M  V30 66 H 38.803630 24.374788 56.084517 0
M  V30 67 H 40.339738 31.449785 51.897416 0
M  V30 68 H 39.471733 29.484353 58.489689 0
M  V30 69 H 41.014110 35.966487 62.304496 0
M  V30 70 H 41.066909 26.288724 56.219728 0
M  V30 71 H 40.808528 26.821413 54.588031 0
M  V30 72 H 39.454175 26.599463 55.597896 0
M  V30 73 H 39.425385 31.206050 54.194871 0
M  V30 74 H 39.432991 27.402654 49.934739 0
M  V30 75 H 39.329863 31.896983 61.901230 0
M  V30 END ATOM
M  V30 BEGIN BOND
M  V30 1 2 3 2
M  V30 2 1 9 4
M  V30 3 1 9 8
M  V30 4 1 11 7
M  V30 5 1 14 13
M  V30 6 1 15 4
M  V30 7 1 16 10
M  V30 8 1 16 15
M  V30 9 1 17 11
M  V30 10 1 18 5
M  V30 11 1 18 10
M  V30 12 1 19 6
M  V30 13 1 20 12
M  V30 14 1 20 15
M  V30 15 1 20 19
M  V30 16 1 21 3
M  V30 17 1 22 3
M  V30 18 1 23 1
M  V30 19 2 23 18
M  V30 20 1 23 19
M  V30 21 1 25 24
M  V30 22 1 26 2
M  V30 23 1 27 11
M  V30 24 1 27 13
M  V30 25 1 28 9
M  V30 26 1 28 27
M  V30 27 2 29 1
M  V30 28 1 29 5
M  V30 29 1 30 7
M  V30 30 1 31 17
M  V30 31 2 31 22
M  V30 32 2 32 26
M  V30 33 1 32 31
M  V30 34 1 33 13
M  V30 35 1 33 24
M  V30 36 1 34 1
M  V30 37 1 35 2
M  V30 38 1 36 4
M  V30 39 1 37 4
M  V30 40 1 38 6
M  V30 41 1 39 6
M  V30 42 1 40 6
M  V30 43 1 41 7
M  V30 44 1 42 7
M  V30 45 1 43 8
M  V30 46 1 44 8
M  V30 47 1 45 8
M  V30 48 1 9 46 CFG=3
M  V30 49 1 47 10
M  V30 50 1 48 10
M  V30 51 1 11 49 CFG=1
M  V30 52 1 50 12
M  V30 53 1 13 51 CFG=1
M  V30 54 1 52 14
M  V30 55 1 53 14
M  V30 56 1 54 14
M  V30 57 1 15 55 CFG=1
M  V30 58 1 56 16
M  V30 59 1 57 17
M  V30 60 1 58 17
M  V30 61 1 19 59 CFG=1
M  V30 62 1 20 60 CFG=3
M  V30 63 1 61 22
M  V30 64 1 62 24
M  V30 65 1 63 24
M  V30 66 1 64 25
M  V30 67 1 65 25
M  V30 68 1 66 25
M  V30 69 1 67 26
M  V30 70 1 27 68 CFG=1
M  V30 71 1 69 5
M  V30 72 1 70 30
M  V30 73 1 71 30
M  V30 74 1 72 30
M  V30 75 1 73 32
M  V30 76 1 74 21
M  V30 77 1 75 16
M  V30 END BOND
M  V30 END CTAB
M  END
>  <i_epik_Tot_Q>  (1) 
1

>  <i_epik_Tot_abs_Q>  (1) 
1

>  <i_i_glide_confnum>  (1) 
1093

>  <i_i_glide_lignum>  (1) 
153

>  <i_i_glide_posenum>  (1) 
31

>  <i_i_glide_rotatable_bonds>  (1) 
13

>  <i_lp_mmshare_version>  (1) 
72125

>  <i_m_source_file_index>  (1) 
61

>  <i_f3d_flags>  (1) 
0

>  <num_sample>  (1) 
100

>  <b_lp_Chiralities_Consistent>  (1) 
1

>  <r_epik_Charging_Adjusted_Penalty>  (1) 
1.0909141645048002

>  <r_epik_Ionization_Penalty>  (1) 
0.35907651910540517

>  <r_epik_Ionization_Penalty_Charging>  (1) 
0.3574178230480502

>  <r_epik_Ionization_Penalty_Neutral>  (1) 
0.0016586960573549945

>  <r_epik_State_Penalty>  (1) 
0.73349634145674991

>  <r_glide_ring_energy>  (1) 
0

>  <r_i_docking_score>  (1) 
-5.7600602318977732

>  <r_i_glide_ecoul>  (1) 
-0.26050215140660593

>  <r_i_glide_eff_state_penalty>  (1) 
0.73349634145674991

>  <r_i_glide_einternal>  (1) 
9.1616951678868102

>  <r_i_glide_emodel>  (1) 
-54.698445601980879

>  <r_i_glide_emodel_strain>  (1) 
1.9103730319146734

>  <r_i_glide_energy>  (1) 
-39.700730312226902

>  <r_i_glide_erotb>  (1) 
0.85380530184711001

>  <r_i_glide_esite>  (1) 
0

>  <r_i_glide_evdw>  (1) 
-39.440228160820297

>  <r_i_glide_gscore>  (1) 
-6.4935565733545229

>  <r_i_glide_gscore_strain>  (1) 
0

>  <r_i_glide_hbond>  (1) 
0

>  <r_i_glide_ligand_efficiency>  (1) 
-0.17454727975447798

>  <r_i_glide_ligand_efficiency_ln>  (1) 
-1.2810075715783298

>  <r_i_glide_ligand_efficiency_sa>  (1) 
-0.55986639201987365

>  <r_i_glide_lipo>  (1) 
-4.3257520673663317

>  <r_i_glide_metal>  (1) 
-0

>  <r_i_glide_rewards>  (1) 
-1.010523077083296

>  <r_lp_Energy>  (1) 
28.272465

>  <r_lp_tautomer_probability>  (1) 
0.49999999999868239

>  <s_epik_cmdline>  (1) 
J2VwaWtfcHl0aG9uJywgJy1waHQnLCAnMS4wJywgJy1waCcsICc3LjQnLCAnLXRuJywgJzgnLCAnLW1hJywgJzUwMCcsICctaW1hZScsICc8aW5maWxlLm1hZT4nLCAnLW9tYWUnLCAnPG91dGZpbGUubWFlPic=

>  <s_epik_input>  (1) 
bjFbbkhdW2NIXWMoYzEyKVtDQEBIXShbQ0gzXSlbQ0BASF0oW09IXSlbQ0BIXShbTkhdW0NIMl0yKVtDSDJdW0NASF0oW0NIM10pT1tDQEBIXShbQ0BIXShbQ0gzXSlPW0NIMl1bQ0gzXSlbQ0BASF0oW0NIMl1bQ0gzXSlbQ0gyXUMoPVtDSF0zKVtDSDJdW0NIXT1bQ0hdQzM9Tw==

>  <s_glide_docking_method>  (1) 
confgen

>  <s_i_glide_gridfile>  (1) 
gpcr_5ht2c_6bqh_protein_autoprepared_prepared

>  <s_lp_Force_Field>  (1) 
S-OPLS

>  <s_lp_Variant>  (1) 
DiffSBDD_60_num_sample_100-2

>  <s_m_source_file>  (1) 
generated__ligand_DiffSBDD_2026-05-06_prepared.sdf

>  <GenAI_Model>  (1) 
DiffSBDD

>  <Protein>  (1) 
GPCR_5HT2C

$$$$
DiffSBDD_79_num_sample_100
     RDKit          3D

  0  0  0  0  0  0  0  0  0  0999 V3000
M  V30 BEGIN CTAB
M  V30 COUNTS 85 87 0 0 1
M  V30 BEGIN ATOM
M  V30 1 C 35.199892 34.706984 58.653520 0
M  V30 2 C 37.779918 30.270307 59.548046 0
M  V30 3 C 41.233921 34.942909 64.614074 0
M  V30 4 C 38.978138 25.409922 54.685174 0
M  V30 5 C 33.864632 32.816441 59.212251 0
M  V30 6 C 41.701532 32.774302 65.699387 0
M  V30 7 C 35.245879 33.395882 59.385458 0
M  V30 8 C 39.647859 34.492875 60.280237 0
M  V30 9 F 42.987532 32.640025 66.017877 0
M  V30 10 C 40.248859 26.183460 54.319488 0
M  V30 11 C 36.496459 31.038619 59.289173 0
M  V30 12 C 41.342239 33.423579 61.909706 0
M  V30 13 F 41.064467 33.282815 66.755360 0
M  V30 14 C 41.564486 33.651233 64.458438 0
M  V30 15 C 40.361849 35.661814 62.328063 0
M  V30 16 C 39.793533 29.301192 58.499696 0
M  V30 17 C 37.223326 25.045717 56.376595 0
M  V30 18 N 38.378886 25.673758 56.005500 0
M  V30 19 C 35.888901 33.225377 60.720785 0
M  V30 20 C 40.462919 34.561903 61.568062 0
M  V30 21 C 39.104186 26.636283 56.884276 0
M  V30 22 C 38.861575 31.453224 57.413257 0 CFG=2
M  V30 23 C 36.545044 32.567427 59.511317 0
M  V30 24 C 35.242002 32.321124 61.717410 0
M  V30 25 O 38.012894 32.520685 57.682921 0
M  V30 26 O 36.667996 25.235317 57.453444 0
M  V30 27 C 38.503096 30.937139 56.012453 0
M  V30 28 C 36.463123 34.436458 61.453521 0
M  V30 29 C 36.612344 24.052695 55.375010 0
M  V30 30 N 38.558493 30.108221 58.294387 0 CFG=2 CHG=1
M  V30 31 F 41.207771 31.558405 65.467165 0
M  V30 32 C 41.808724 33.036644 63.138576 0
M  V30 33 C 38.604961 26.978564 58.302147 0
M  V30 34 C 41.147180 35.954416 63.541815 0
M  V30 35 C 39.567466 27.888339 59.083745 0
M  V30 36 C 39.034729 33.107392 59.992988 0
M  V30 37 C 37.861433 33.119420 58.966475 0 CFG=2
M  V30 38 H 34.273994 35.221409 58.868255 0
M  V30 39 H 36.031419 35.386192 58.813059 0
M  V30 40 H 35.155647 34.421414 57.612010 0
M  V30 41 H 37.461632 29.275047 59.851953 0
M  V30 42 H 38.362949 30.646833 60.384434 0
M  V30 43 H 41.073807 35.319472 65.613480 0
M  V30 44 H 39.224586 24.355581 54.653979 0
M  V30 45 H 38.239552 25.621425 53.909588 0
M  V30 46 H 33.212330 33.214574 59.990261 0
M  V30 47 H 33.425826 33.164450 58.284307 0
M  V30 48 H 33.867418 31.729090 59.203395 0
M  V30 49 H 38.861795 35.243630 60.330297 0
M  V30 50 H 40.267292 34.808533 59.453549 0
M  V30 51 H 40.614327 25.879587 53.339399 0
M  V30 52 H 40.023090 27.242115 54.267937 0
M  V30 53 H 41.060178 26.022317 55.027710 0
M  V30 54 H 36.267410 30.821053 58.253500 0
M  V30 55 H 35.691639 30.565038 59.834279 0
M  V30 56 H 41.608316 32.775288 61.089175 0
M  V30 57 H 39.699678 36.453138 62.006666 0
M  V30 58 H 40.333433 29.220837 57.556218 0
M  V30 59 H 40.451684 29.831516 59.186662 0
M  V30 60 H 39.186053 27.573823 56.335933 0
M  V30 61 H 40.115637 26.248404 57.007651 0
M  V30 62 H 39.867401 31.812030 57.442032 0
M  V30 63 H 34.521530 32.918796 62.260784 0
M  V30 64 H 34.669834 31.507737 61.292547 0
M  V30 65 H 36.064946 31.873459 62.253482 0
M  V30 66 H 39.165762 30.126723 55.709697 0
M  V30 67 H 37.467108 30.596690 55.984882 0
M  V30 68 H 38.602701 31.751311 55.291744 0
M  V30 69 H 35.765166 34.809132 62.204449 0
M  V30 70 H 37.384769 34.159702 61.952859 0
M  V30 71 H 36.693599 35.268527 60.796175 0
M  V30 72 H 37.295706 23.233927 55.151049 0
M  V30 73 H 35.704666 23.612634 55.790169 0
M  V30 74 H 36.332960 24.541288 54.442494 0
M  V30 75 H 42.387929 32.125687 63.149630 0
M  V30 76 H 38.505982 26.061294 58.882668 0
M  V30 77 H 37.618135 27.435809 58.250521 0
M  V30 78 H 42.150489 36.275314 63.261865 0
M  V30 79 H 40.666141 36.821333 63.992023 0
M  V30 80 H 40.536622 27.391058 59.150746 0
M  V30 81 H 39.227870 27.963806 60.117402 0
M  V30 82 H 39.820708 32.421429 59.717798 0
M  V30 83 H 38.672977 32.717172 60.941590 0
M  V30 84 H 37.715253 34.163241 58.713194 0
M  V30 85 H 37.953834 29.536981 57.721455 0
M  V30 END ATOM
M  V30 BEGIN BOND
M  V30 1 1 7 1
M  V30 2 1 7 5
M  V30 3 1 9 6
M  V30 4 1 10 4
M  V30 5 1 11 2
M  V30 6 1 13 6
M  V30 7 2 14 3
M  V30 8 1 14 6
M  V30 9 1 18 4
M  V30 10 1 18 17
M  V30 11 1 19 7
M  V30 12 1 20 8
M  V30 13 1 20 12
M  V30 14 2 20 15
M  V30 15 1 21 18
M  V30 16 1 23 7
M  V30 17 1 23 11
M  V30 18 1 23 19
M  V30 19 1 24 19
M  V30 20 1 25 22
M  V30 21 2 26 17
M  V30 22 1 27 22
M  V30 23 1 28 19
M  V30 24 1 29 17
M  V30 25 1 30 2
M  V30 26 1 30 16
M  V30 27 1 30 22
M  V30 28 1 31 6
M  V30 29 2 32 12
M  V30 30 1 32 14
M  V30 31 1 33 21
M  V30 32 1 34 3
M  V30 33 1 34 15
M  V30 34 1 35 16
M  V30 35 1 35 33
M  V30 36 1 36 8
M  V30 37 1 37 23
M  V30 38 1 37 25
M  V30 39 1 37 36
M  V30 40 1 38 1
M  V30 41 1 39 1
M  V30 42 1 40 1
M  V30 43 1 41 2
M  V30 44 1 42 2
M  V30 45 1 43 3
M  V30 46 1 44 4
M  V30 47 1 45 4
M  V30 48 1 46 5
M  V30 49 1 47 5
M  V30 50 1 48 5
M  V30 51 1 49 8
M  V30 52 1 50 8
M  V30 53 1 51 10
M  V30 54 1 52 10
M  V30 55 1 53 10
M  V30 56 1 54 11
M  V30 57 1 55 11
M  V30 58 1 56 12
M  V30 59 1 57 15
M  V30 60 1 58 16
M  V30 61 1 59 16
M  V30 62 1 60 21
M  V30 63 1 61 21
M  V30 64 1 22 62 CFG=3
M  V30 65 1 63 24
M  V30 66 1 64 24
M  V30 67 1 65 24
M  V30 68 1 66 27
M  V30 69 1 67 27
M  V30 70 1 68 27
M  V30 71 1 69 28
M  V30 72 1 70 28
M  V30 73 1 71 28
M  V30 74 1 72 29
M  V30 75 1 73 29
M  V30 76 1 74 29
M  V30 77 1 75 32
M  V30 78 1 76 33
M  V30 79 1 77 33
M  V30 80 1 78 34
M  V30 81 1 79 34
M  V30 82 1 80 35
M  V30 83 1 81 35
M  V30 84 1 82 36
M  V30 85 1 83 36
M  V30 86 1 37 84 CFG=3
M  V30 87 1 30 85 CFG=3
M  V30 END BOND
M  V30 END CTAB
M  END
>  <i_epik_Tot_Q>  (1) 
1

>  <i_epik_Tot_abs_Q>  (1) 
1

>  <i_i_glide_confnum>  (1) 
515

>  <i_i_glide_lignum>  (1) 
204

>  <i_i_glide_posenum>  (1) 
26

>  <i_i_glide_rotatable_bonds>  (1) 
11

>  <i_lp_mmshare_version>  (1) 
72125

>  <i_m_source_file_index>  (1) 
80

>  <i_f3d_flags>  (1) 
0

>  <num_sample>  (1) 
100

>  <b_lp_Chiralities_Consistent>  (1) 
1

>  <r_epik_Charging_Adjusted_Penalty>  (1) 
1.4563538393833728

>  <r_epik_Ionization_Penalty>  (1) 
0.72817750760685918

>  <r_epik_Ionization_Penalty_Charging>  (1) 
0.72817691969168641

>  <r_epik_Ionization_Penalty_Neutral>  (1) 
5.8791517278497126e-07

>  <r_epik_State_Penalty>  (1) 
0.72817691969168641

>  <r_glide_ring_energy>  (1) 
0

>  <r_i_docking_score>  (1) 
-5.759858129242847

>  <r_i_glide_ecoul>  (1) 
0.93697061899412037

>  <r_i_glide_eff_state_penalty>  (1) 
0.72817691969168641

>  <r_i_glide_einternal>  (1) 
12.782489190886508

>  <r_i_glide_emodel>  (1) 
-30.714450001041158

>  <r_i_glide_emodel_strain>  (1) 
3.0378834001673738

>  <r_i_glide_energy>  (1) 
-34.313769337883478

>  <r_i_glide_erotb>  (1) 
0.59581955881290138

>  <r_i_glide_esite>  (1) 
-0.06379703717323866

>  <r_i_glide_evdw>  (1) 
-35.250739956877595

>  <r_i_glide_gscore>  (1) 
-6.4880350489345338

>  <r_i_glide_gscore_strain>  (1) 
0

>  <r_i_glide_hbond>  (1) 
0

>  <r_i_glide_ligand_efficiency>  (1) 
-0.15567184133088777

>  <r_i_glide_ligand_efficiency_ln>  (1) 
-1.249178198000003

>  <r_i_glide_ligand_efficiency_sa>  (1) 
-0.51873311136874589

>  <r_i_glide_lipo>  (1) 
-3.6376018090283417

>  <r_i_glide_metal>  (1) 
-0

>  <r_i_glide_rewards>  (1) 
-1.7604643565510931

>  <r_lp_Energy>  (1) 
61.755589999999998

>  <s_epik_Chemistry_Notes>  (1) 
This compound contains an acetal/aminal-like group ( X-CH(R)-Y where X, Y are N, S, or O) that may be acid/base labile, releasing an aldehyde.

>  <s_epik_cmdline>  (1) 
J2VwaWtfcHl0aG9uJywgJy1waHQnLCAnMS4wJywgJy1waCcsICc3LjQnLCAnLXRuJywgJzgnLCAnLW1hJywgJzUwMCcsICctaW1hZScsICc8aW5maWxlLm1hZT4nLCAnLW9tYWUnLCAnPG91dGZpbGUubWFlPic=

>  <s_epik_input>  (1) 
W0NIM11bQ0gyXU4oQyg9TylbQ0gzXSlbQ0gyXVtDSDJdW0NIMl1bQ0gyXU4oW0NIMl1bQ0gyXUMxMkMoW0NIM10pKFtDSDNdKUMxKFtDSDNdKVtDSDNdKVtDQEBIXShbQ0gzXSlPW0NASF0yW0NIMl1bQ0gyXUMoW0NIXT1bQ0hdMyk9W0NIXVtDSDJdW0NIXT1DM0MoRikoRilG

>  <s_glide_docking_method>  (1) 
confgen

>  <s_i_glide_gridfile>  (1) 
gpcr_5ht2c_6bqh_protein_autoprepared_prepared

>  <s_lp_Force_Field>  (1) 
S-OPLS

>  <s_lp_Variant>  (1) 
DiffSBDD_79_num_sample_100-6

>  <s_m_source_file>  (1) 
generated__ligand_DiffSBDD_2026-05-06_prepared.sdf

>  <GenAI_Model>  (1) 
DiffSBDD

>  <Protein>  (1) 
GPCR_5HT2C

$$$$
DiffSBDD_68_num_sample_100
     RDKit          3D

  0  0  0  0  0  0  0  0  0  0999 V3000
M  V30 BEGIN CTAB
M  V30 COUNTS 94 97 0 0 1
M  V30 BEGIN ATOM
M  V30 1 C 39.830591 30.882464 63.304749 0 CFG=1
M  V30 2 C 44.410029 30.211345 64.756413 0 CFG=1
M  V30 3 C 39.322731 28.015085 55.259428 0
M  V30 4 C 36.175366 37.106334 59.743576 0
M  V30 5 C 38.746471 29.909724 57.270173 0
M  V30 6 N 38.952788 30.891664 60.843208 0
M  V30 7 C 43.907794 31.580798 68.816434 0
M  V30 8 O 43.196211 27.099098 69.500518 0
M  V30 9 C 38.787625 34.469238 60.213236 0
M  V30 10 O 37.867442 29.148626 59.853500 0
M  V30 11 C 44.009334 30.194778 69.494224 0 CFG=2
M  V30 12 C 38.908064 36.584165 61.517521 0
M  V30 13 C 39.839008 29.022870 57.418722 0
M  V30 14 O 37.467387 28.838560 53.977786 0
M  V30 15 C 43.353556 29.286229 68.460897 0 CFG=2
M  V30 16 C 45.801533 29.828274 64.277008 0
M  V30 17 C 37.624562 38.750775 61.053344 0
M  V30 18 C 42.177519 31.019477 63.810785 0
M  V30 19 C 39.608302 32.198923 60.742859 0
M  V30 20 C 38.394995 30.246943 59.758042 0
M  V30 21 O 43.947411 31.340309 67.410517 0
M  V30 22 C 38.749123 37.914208 61.680122 0
M  V30 23 C 38.430079 30.934607 58.363665 0
M  V30 24 C 36.282051 38.005620 60.998134 0
M  V30 25 C 38.237576 28.899130 55.102824 0
M  V30 26 C 37.467385 36.419237 59.426738 0
M  V30 27 C 38.897967 30.280767 62.201779 0
M  V30 28 C 41.107586 25.946822 65.607084 0
M  V30 29 C 39.497415 30.421426 64.740470 0
M  V30 30 C 43.820058 27.952053 65.864442 0
M  V30 31 O 44.092209 27.346020 64.829909 0
M  V30 32 C 43.754628 27.800243 68.405209 0 CFG=2
M  V30 33 C 38.013373 35.696381 60.661578 0 CFG=1
M  V30 34 C 43.393630 30.129606 63.606468 0
M  V30 35 C 40.122258 28.077824 56.415868 0
M  V30 36 N 41.985332 25.221415 65.068909 0
M  V30 37 C 43.378612 30.145232 70.892625 0
M  V30 38 O 41.155100 30.485302 62.982683 0
M  V30 39 C 38.732248 33.343437 61.236898 0
M  V30 40 C 43.979742 29.432762 66.005849 0
M  V30 41 S 41.467388 27.097100 66.947420 0
M  V30 42 C 43.759299 30.005598 67.208778 0
M  V30 43 C 43.287657 27.165106 67.071051 0 CFG=1
M  V30 44 C 37.946753 29.845373 56.108152 0
M  V30 45 H 39.760151 31.967623 63.326136 0
M  V30 46 H 44.484860 31.257742 65.047420 0
M  V30 47 H 39.544720 27.289143 54.490638 0
M  V30 48 H 35.467400 36.298317 59.853501 0
M  V30 49 H 35.851047 37.621429 58.847366 0
M  V30 50 H 44.719214 32.242109 69.122941 0
M  V30 51 H 42.964287 32.072358 69.057304 0
M  V30 52 H 42.252077 27.127344 69.426289 0
M  V30 53 H 39.819251 34.743130 59.979350 0
M  V30 54 H 38.369215 34.062898 59.290284 0
M  V30 55 H 45.065309 29.928315 69.570919 0
M  V30 56 H 39.736072 36.092680 62.007955 0
M  V30 57 H 40.456589 29.065743 58.304244 0
M  V30 58 H 37.734930 28.160280 53.376993 0
M  V30 59 H 42.269016 29.379118 68.536817 0
M  V30 60 H 46.505915 30.054130 65.053677 0
M  V30 61 H 45.867384 28.786120 63.969685 0
M  V30 62 H 46.146534 30.421432 63.452906 0
M  V30 63 H 37.467381 39.669876 61.613885 0
M  V30 64 H 37.926576 39.105089 60.067691 0
M  V30 65 H 41.934585 30.997295 64.869512 0
M  V30 66 H 42.385383 32.056917 63.548929 0
M  V30 67 H 40.579761 32.207034 61.233794 0
M  V30 68 H 39.867401 32.456508 59.747018 0
M  V30 69 H 39.461186 38.448318 62.292343 0
M  V30 70 H 37.420664 31.309743 58.197442 0
M  V30 71 H 39.067357 31.779056 58.154483 0
M  V30 72 H 36.194554 37.408588 61.907035 0
M  V30 73 H 35.453217 38.709959 61.053469 0
M  V30 74 H 38.185337 37.143207 59.042933 0
M  V30 75 H 37.250205 35.727887 58.612771 0
M  V30 76 H 39.082971 29.207306 62.140378 0
M  V30 77 H 37.868166 30.392504 62.537611 0
M  V30 78 H 40.058241 25.933341 65.301072 0
M  V30 79 H 38.435078 30.421425 64.936431 0
M  V30 80 H 39.868270 29.415543 64.935130 0
M  V30 81 H 39.924133 31.078826 65.498090 0
M  V30 82 H 44.840614 27.712506 68.479305 0
M  V30 83 H 37.179123 35.349797 61.275103 0
M  V30 84 H 43.867303 30.421422 62.680129 0
M  V30 85 H 43.068325 29.103780 63.439537 0
M  V30 86 H 40.956296 27.400532 56.533007 0
M  V30 87 H 41.625601 24.646281 64.321665 0
M  V30 88 H 42.319023 30.400057 70.862613 0
M  V30 89 H 43.471339 29.150717 71.329502 0
M  V30 90 H 43.872652 30.845928 71.565950 0
M  V30 91 H 37.698551 33.019793 61.369894 0
M  V30 92 H 39.079739 33.707360 62.203355 0
M  V30 93 H 43.674680 26.147524 67.014779 0
M  V30 94 H 37.110648 30.520702 55.988249 0
M  V30 END ATOM
M  V30 BEGIN BOND
M  V30 1 1 11 7
M  V30 2 2 13 5
M  V30 3 1 15 11
M  V30 4 1 16 2
M  V30 5 1 19 6
M  V30 6 1 20 6
M  V30 7 2 20 10
M  V30 8 1 21 7
M  V30 9 2 22 12
M  V30 10 1 22 17
M  V30 11 1 23 5
M  V30 12 1 23 20
M  V30 13 1 24 4
M  V30 14 1 24 17
M  V30 15 1 25 3
M  V30 16 1 25 14
M  V30 17 1 26 4
M  V30 18 1 27 1
M  V30 19 1 27 6
M  V30 20 1 29 1
M  V30 21 2 31 30
M  V30 22 1 32 8
M  V30 23 1 32 15
M  V30 24 1 33 9
M  V30 25 1 33 12
M  V30 26 1 33 26
M  V30 27 1 34 2
M  V30 28 1 34 18
M  V30 29 2 35 3
M  V30 30 1 35 13
M  V30 31 2 36 28
M  V30 32 1 37 11
M  V30 33 1 38 1
M  V30 34 1 38 18
M  V30 35 1 39 9
M  V30 36 1 39 19
M  V30 37 1 40 2
M  V30 38 1 40 30
M  V30 39 1 41 28
M  V30 40 1 42 15
M  V30 41 1 42 21
M  V30 42 2 42 40
M  V30 43 1 43 30
M  V30 44 1 43 32
M  V30 45 1 43 41
M  V30 46 1 44 5
M  V30 47 2 44 25
M  V30 48 1 1 45 CFG=1
M  V30 49 1 2 46 CFG=1
M  V30 50 1 47 3
M  V30 51 1 48 4
M  V30 52 1 49 4
M  V30 53 1 50 7
M  V30 54 1 51 7
M  V30 55 1 52 8
M  V30 56 1 53 9
M  V30 57 1 54 9
M  V30 58 1 11 55 CFG=1
M  V30 59 1 56 12
M  V30 60 1 57 13
M  V30 61 1 58 14
M  V30 62 1 15 59 CFG=1
M  V30 63 1 60 16
M  V30 64 1 61 16
M  V30 65 1 62 16
M  V30 66 1 63 17
M  V30 67 1 64 17
M  V30 68 1 65 18
M  V30 69 1 66 18
M  V30 70 1 67 19
M  V30 71 1 68 19
M  V30 72 1 69 22
M  V30 73 1 70 23
M  V30 74 1 71 23
M  V30 75 1 72 24
M  V30 76 1 73 24
M  V30 77 1 74 26
M  V30 78 1 75 26
M  V30 79 1 76 27
M  V30 80 1 77 27
M  V30 81 1 78 28
M  V30 82 1 79 29
M  V30 83 1 80 29
M  V30 84 1 81 29
M  V30 85 1 32 82 CFG=1
M  V30 86 1 33 83 CFG=1
M  V30 87 1 84 34
M  V30 88 1 85 34
M  V30 89 1 86 35
M  V30 90 1 87 36
M  V30 91 1 88 37
M  V30 92 1 89 37
M  V30 93 1 90 37
M  V30 94 1 91 39
M  V30 95 1 92 39
M  V30 96 1 43 93 CFG=3
M  V30 97 1 94 44
M  V30 END BOND
M  V30 END CTAB
M  END
>  <i_epik_Tot_Q>  (1) 
0

>  <i_epik_Tot_abs_Q>  (1) 
0

>  <i_i_glide_confnum>  (1) 
3583

>  <i_i_glide_lignum>  (1) 
176

>  <i_i_glide_posenum>  (1) 
330

>  <i_i_glide_rotatable_bonds>  (1) 
18

>  <i_lp_mmshare_version>  (1) 
72125

>  <i_m_source_file_index>  (1) 
69

>  <i_f3d_flags>  (1) 
0

>  <num_sample>  (1) 
100

>  <b_lp_Chiralities_Consistent>  (1) 
1

>  <r_epik_Charging_Adjusted_Penalty>  (1) 
0

>  <r_epik_Ionization_Penalty>  (1) 
0.0034918609457469025

>  <r_epik_Ionization_Penalty_Charging>  (1) 
0

>  <r_epik_Ionization_Penalty_Neutral>  (1) 
0.0034918609457469025

>  <r_epik_State_Penalty>  (1) 
-0

>  <r_glide_ring_energy>  (1) 
1.2573811357100717

>  <r_i_docking_score>  (1) 
-5.7591205097161016

>  <r_i_glide_ecoul>  (1) 
-2.1414039900027455

>  <r_i_glide_eff_state_penalty>  (1) 
-0

>  <r_i_glide_einternal>  (1) 
12.895105698693136

>  <r_i_glide_emodel>  (1) 
-39.488677670790509

>  <r_i_glide_emodel_strain>  (1) 
1.4866394857485261

>  <r_i_glide_energy>  (1) 
-36.850632232528667

>  <r_i_glide_erotb>  (1) 
0.6701242194964161

>  <r_i_glide_esite>  (1) 
0

>  <r_i_glide_evdw>  (1) 
-34.709228242525924

>  <r_i_glide_gscore>  (1) 
-5.7591205097161016

>  <r_i_glide_gscore_strain>  (1) 
0

>  <r_i_glide_hbond>  (1) 
0

>  <r_i_glide_ligand_efficiency>  (1) 
-0.13088910249354777

>  <r_i_glide_ligand_efficiency_ln>  (1) 
-1.2037818210394327

>  <r_i_glide_ligand_efficiency_sa>  (1) 
-0.46208412510041885

>  <r_i_glide_lipo>  (1) 
-2.7908160924172969

>  <r_i_glide_metal>  (1) 
-0

>  <r_i_glide_rewards>  (1) 
-1.5817566261685132

>  <r_lp_Energy>  (1) 
28.073183999999998

>  <r_lp_tautomer_probability>  (1) 
1

>  <s_epik_Chemistry_Notes>  (1) 
This compound has an imine and may undergo hydrolysis.

>  <s_epik_cmdline>  (1) 
J2VwaWtfcHl0aG9uJywgJy1waHQnLCAnMS4wJywgJy1waCcsICc3LjQnLCAnLXRuJywgJzgnLCAnLW1hJywgJzUwMCcsICctaW1hZScsICc8aW5maWxlLm1hZT4nLCAnLW9tYWUnLCAnPG91dGZpbGUubWFlPic=

>  <s_epik_input>  (1) 
W0hdXE49W0NIXVxTW0NASF0oW0NAQEhdMVtPSF0pQyg9TylDKD1DKFtDQEBIXTEyKU9bQ0gyXVtDQEhdMltDSDNdKVtDQEBIXShbQ0gzXSlbQ0gyXVtDSDJdT1tDQEhdKFtDSDNdKVtDSDJdTihDKD1PKVtDSDJdYzNbY0hdW2NIXVtjSF1jKFtPSF0pW2NIXTMpW0NIMl1bQ0gyXVtDSDJdW0NASF00W0NIXT1bQ0hdW0NIMl1bQ0gyXVtDSDJdW0NIMl00

>  <s_glide_docking_method>  (1) 
confgen

>  <s_i_glide_gridfile>  (1) 
gpcr_5ht2c_6bqh_protein_autoprepared_prepared

>  <s_lp_Force_Field>  (1) 
S-OPLS

>  <s_lp_Variant>  (1) 
DiffSBDD_68_num_sample_100-1

>  <s_m_source_file>  (1) 
generated__ligand_DiffSBDD_2026-05-06_prepared.sdf

>  <GenAI_Model>  (1) 
DiffSBDD

>  <Protein>  (1) 
GPCR_5HT2C

$$$$
DiffSBDD_79_num_sample_100
     RDKit          3D

  0  0  0  0  0  0  0  0  0  0999 V3000
M  V30 BEGIN CTAB
M  V30 COUNTS 85 87 0 0 1
M  V30 BEGIN ATOM
M  V30 1 C 38.684669 26.456278 59.009059 0
M  V30 2 C 38.256036 30.971441 59.459623 0
M  V30 3 C 39.814843 28.157156 50.989593 0
M  V30 4 C 40.646230 35.269946 63.587268 0
M  V30 5 C 40.258810 26.624346 57.209866 0
M  V30 6 C 40.160451 30.278568 49.836640 0
M  V30 7 C 39.524865 27.447214 58.275350 0
M  V30 8 C 37.297008 28.686258 54.697526 0
M  V30 9 F 39.608537 31.490616 49.867758 0
M  V30 10 C 41.798817 36.091307 63.024724 0
M  V30 11 C 37.925672 29.517042 59.114743 0
M  V30 12 C 39.197080 29.842860 53.479371 0
M  V30 13 F 41.468091 30.407192 49.609475 0
M  V30 14 C 39.943441 29.490282 51.088354 0
M  V30 15 C 38.596193 27.484440 53.041610 0
M  V30 16 C 37.774802 33.387797 59.110343 0
M  V30 17 C 38.721865 36.758547 63.261960 0
M  V30 18 N 39.387779 35.624704 62.920555 0
M  V30 19 C 40.348338 28.540350 58.905581 0
M  V30 20 C 38.388683 28.635050 53.693697 0
M  V30 21 C 38.875606 34.674980 61.925835 0
M  V30 22 C 37.883582 31.829483 56.968700 0 CFG=2
M  V30 23 C 39.018500 28.920996 58.207888 0
M  V30 24 C 41.711341 28.819598 58.305337 0
M  V30 25 O 37.777903 30.478868 56.636185 0
M  V30 26 O 39.140729 37.531675 64.116820 0
M  V30 27 C 39.228894 32.420758 56.671591 0
M  V30 28 C 40.524630 28.582966 60.424440 0
M  V30 29 C 37.393868 37.055856 62.544785 0
M  V30 30 N 37.644409 31.998209 58.570728 0 CFG=1 CHG=1
M  V30 31 F 39.570149 29.621886 48.853478 0
M  V30 32 C 39.867390 30.208517 52.358596 0
M  V30 33 C 39.241059 35.046259 60.478721 0
M  V30 34 C 39.679281 27.222652 52.105047 0
M  V30 35 C 39.204361 33.818805 59.556081 0
M  V30 36 C 37.867521 28.354754 56.084991 0
M  V30 37 C 38.745367 29.424475 56.775594 0 CFG=2
M  V30 38 H 39.308453 25.622969 59.316471 0
M  V30 39 H 38.267456 26.943064 59.858326 0
M  V30 40 H 37.875402 26.087671 58.378214 0
M  V30 41 H 39.337033 31.065633 59.480396 0
M  V30 42 H 37.925006 31.166237 60.479544 0
M  V30 43 H 39.873775 27.698789 50.015343 0
M  V30 44 H 40.570214 35.457974 64.659153 0
M  V30 45 H 40.871014 34.207879 63.496762 0
M  V30 46 H 40.602035 27.223962 56.367192 0
M  V30 47 H 39.619259 25.835569 56.809700 0
M  V30 48 H 41.103014 26.119521 57.678032 0
M  V30 49 H 36.781111 29.644458 54.647341 0
M  V30 50 H 36.568803 27.935947 54.396383 0
M  V30 51 H 42.699424 35.960076 63.617883 0
M  V30 52 H 41.986214 35.836709 61.986615 0
M  V30 53 H 41.564962 37.150207 63.041854 0
M  V30 54 H 37.866239 28.982121 60.055718 0
M  V30 55 H 36.928730 29.409341 58.686024 0
M  V30 56 H 39.206300 30.558374 54.283376 0
M  V30 57 H 37.960218 26.637236 53.260851 0
M  V30 58 H 37.358944 34.097051 58.393286 0
M  V30 59 H 37.123482 33.444227 59.984762 0
M  V30 60 H 37.806180 34.522534 62.020441 0
M  V30 61 H 39.289935 33.691372 62.149903 0
M  V30 62 H 37.157601 32.401032 56.390834 0
M  V30 63 H 42.417314 28.046451 58.615055 0
M  V30 64 H 41.678028 28.821279 57.221265 0
M  V30 65 H 42.097422 29.764517 58.657289 0
M  V30 66 H 39.138870 33.503975 56.688647 0
M  V30 67 H 39.867292 32.064988 57.440887 0
M  V30 68 H 39.593514 32.129453 55.690384 0
M  V30 69 H 39.650227 28.253198 60.975539 0
M  V30 70 H 41.350797 27.940843 60.737498 0
M  V30 71 H 40.767972 29.597873 60.736988 0
M  V30 72 H 37.560251 37.295714 61.496529 0
M  V30 73 H 36.678016 36.236977 62.624364 0
M  V30 74 H 36.914619 37.926795 62.997919 0
M  V30 75 H 40.343644 31.176770 52.386273 0
M  V30 76 H 40.250885 35.456260 60.455536 0
M  V30 77 H 38.591668 35.832921 60.095620 0
M  V30 78 H 40.610260 27.158593 52.652356 0
M  V30 79 H 39.495859 26.239533 51.679285 0
M  V30 80 H 39.732550 33.029626 60.079267 0
M  V30 81 H 39.830530 34.020888 58.692821 0
M  V30 82 H 37.076025 28.148656 56.806620 0
M  V30 83 H 38.357227 27.404151 55.948136 0
M  V30 84 H 39.677076 29.621777 56.243258 0
M  V30 85 H 36.648507 31.821625 58.656154 0
M  V30 END ATOM
M  V30 BEGIN BOND
M  V30 1 1 7 1
M  V30 2 1 7 5
M  V30 3 1 9 6
M  V30 4 1 10 4
M  V30 5 1 11 2
M  V30 6 1 13 6
M  V30 7 2 14 3
M  V30 8 1 14 6
M  V30 9 1 18 4
M  V30 10 1 18 17
M  V30 11 1 19 7
M  V30 12 1 20 8
M  V30 13 1 20 12
M  V30 14 2 20 15
M  V30 15 1 21 18
M  V30 16 1 23 7
M  V30 17 1 23 11
M  V30 18 1 23 19
M  V30 19 1 24 19
M  V30 20 1 25 22
M  V30 21 2 26 17
M  V30 22 1 27 22
M  V30 23 1 28 19
M  V30 24 1 29 17
M  V30 25 1 30 2
M  V30 26 1 30 16
M  V30 27 1 30 22
M  V30 28 1 31 6
M  V30 29 2 32 12
M  V30 30 1 32 14
M  V30 31 1 33 21
M  V30 32 1 34 3
M  V30 33 1 34 15
M  V30 34 1 35 16
M  V30 35 1 35 33
M  V30 36 1 36 8
M  V30 37 1 37 23
M  V30 38 1 37 25
M  V30 39 1 37 36
M  V30 40 1 38 1
M  V30 41 1 39 1
M  V30 42 1 40 1
M  V30 43 1 41 2
M  V30 44 1 42 2
M  V30 45 1 43 3
M  V30 46 1 44 4
M  V30 47 1 45 4
M  V30 48 1 46 5
M  V30 49 1 47 5
M  V30 50 1 48 5
M  V30 51 1 49 8
M  V30 52 1 50 8
M  V30 53 1 51 10
M  V30 54 1 52 10
M  V30 55 1 53 10
M  V30 56 1 54 11
M  V30 57 1 55 11
M  V30 58 1 56 12
M  V30 59 1 57 15
M  V30 60 1 58 16
M  V30 61 1 59 16
M  V30 62 1 60 21
M  V30 63 1 61 21
M  V30 64 1 22 62 CFG=3
M  V30 65 1 63 24
M  V30 66 1 64 24
M  V30 67 1 65 24
M  V30 68 1 66 27
M  V30 69 1 67 27
M  V30 70 1 68 27
M  V30 71 1 69 28
M  V30 72 1 70 28
M  V30 73 1 71 28
M  V30 74 1 72 29
M  V30 75 1 73 29
M  V30 76 1 74 29
M  V30 77 1 75 32
M  V30 78 1 76 33
M  V30 79 1 77 33
M  V30 80 1 78 34
M  V30 81 1 79 34
M  V30 82 1 80 35
M  V30 83 1 81 35
M  V30 84 1 82 36
M  V30 85 1 83 36
M  V30 86 1 37 84 CFG=3
M  V30 87 1 30 85 CFG=3
M  V30 END BOND
M  V30 END CTAB
M  END
>  <i_epik_Tot_Q>  (1) 
1

>  <i_epik_Tot_abs_Q>  (1) 
1

>  <i_i_glide_confnum>  (1) 
681

>  <i_i_glide_lignum>  (1) 
203

>  <i_i_glide_posenum>  (1) 
290

>  <i_i_glide_rotatable_bonds>  (1) 
11

>  <i_lp_mmshare_version>  (1) 
72125

>  <i_m_source_file_index>  (1) 
80

>  <i_f3d_flags>  (1) 
0

>  <num_sample>  (1) 
100

>  <b_lp_Chiralities_Consistent>  (1) 
1

>  <r_epik_Charging_Adjusted_Penalty>  (1) 
1.4563538393833728

>  <r_epik_Ionization_Penalty>  (1) 
0.72817750760685918

>  <r_epik_Ionization_Penalty_Charging>  (1) 
0.72817691969168641

>  <r_epik_Ionization_Penalty_Neutral>  (1) 
5.8791517278497126e-07

>  <r_epik_State_Penalty>  (1) 
0.72817691969168641

>  <r_glide_ring_energy>  (1) 
0

>  <r_i_docking_score>  (1) 
-5.753012048690934

>  <r_i_glide_ecoul>  (1) 
-0.67686723674107707

>  <r_i_glide_eff_state_penalty>  (1) 
0.72817691969168641

>  <r_i_glide_einternal>  (1) 
17.813405484186916

>  <r_i_glide_emodel>  (1) 
-12.79343682739955

>  <r_i_glide_emodel_strain>  (1) 
1.7129258204831501

>  <r_i_glide_energy>  (1) 
-9.6181198749854069

>  <r_i_glide_erotb>  (1) 
0.59581955881290138

>  <r_i_glide_esite>  (1) 
-0.20101956516622776

>  <r_i_glide_evdw>  (1) 
-8.9412526382443289

>  <r_i_glide_gscore>  (1) 
-6.4811889683826207

>  <r_i_glide_gscore_strain>  (1) 
0

>  <r_i_glide_hbond>  (1) 
-0.056590986492899058

>  <r_i_glide_ligand_efficiency>  (1) 
-0.155486812126782

>  <r_i_glide_ligand_efficiency_ln>  (1) 
-1.2476934436231923

>  <r_i_glide_ligand_efficiency_sa>  (1) 
-0.51811655301163206

>  <r_i_glide_lipo>  (1) 
-4.5376728588971655

>  <r_i_glide_metal>  (1) 
-0

>  <r_i_glide_rewards>  (1) 
-1.7331323992158514

>  <r_lp_Energy>  (1) 
66.61177099999999

>  <s_epik_Chemistry_Notes>  (1) 
This compound contains an acetal/aminal-like group ( X-CH(R)-Y where X, Y are N, S, or O) that may be acid/base labile, releasing an aldehyde.

>  <s_epik_cmdline>  (1) 
J2VwaWtfcHl0aG9uJywgJy1waHQnLCAnMS4wJywgJy1waCcsICc3LjQnLCAnLXRuJywgJzgnLCAnLW1hJywgJzUwMCcsICctaW1hZScsICc8aW5maWxlLm1hZT4nLCAnLW9tYWUnLCAnPG91dGZpbGUubWFlPic=

>  <s_epik_input>  (1) 
W0NIM11bQ0gyXU4oQyg9TylbQ0gzXSlbQ0gyXVtDSDJdW0NIMl1bQ0gyXU4oW0NIMl1bQ0gyXUMxMkMoW0NIM10pKFtDSDNdKUMxKFtDSDNdKVtDSDNdKVtDQEBIXShbQ0gzXSlPW0NASF0yW0NIMl1bQ0gyXUMoW0NIXT1bQ0hdMyk9W0NIXVtDSDJdW0NIXT1DM0MoRikoRilG

>  <s_glide_docking_method>  (1) 
confgen

>  <s_i_glide_gridfile>  (1) 
gpcr_5ht2c_6bqh_protein_autoprepared_prepared

>  <s_lp_Force_Field>  (1) 
S-OPLS

>  <s_lp_Variant>  (1) 
DiffSBDD_79_num_sample_100-5

>  <s_m_source_file>  (1) 
generated__ligand_DiffSBDD_2026-05-06_prepared.sdf

>  <GenAI_Model>  (1) 
DiffSBDD

>  <Protein>  (1) 
GPCR_5HT2C

$$$$
DiffSBDD_18_num_sample_100
     RDKit          3D

  0  0  0  0  0  0  0  0  0  0999 V3000
M  V30 BEGIN CTAB
M  V30 COUNTS 71 73 0 0 1
M  V30 BEGIN ATOM
M  V30 1 O 40.875201 31.044296 62.316595 0
M  V30 2 C 37.635506 28.650167 53.830706 0
M  V30 3 C 37.809307 30.226870 58.599708 0
M  V30 4 C 38.095629 28.064761 52.733381 0
M  V30 5 O 36.727555 31.215613 60.998260 0
M  V30 6 C 38.003543 30.628740 55.236446 0 CFG=2
M  V30 7 C 44.294705 27.759172 65.554377 0
M  V30 8 N 38.291423 29.725048 54.099520 0 CHG=1
M  V30 9 N 37.880247 32.008905 54.777190 0
M  V30 10 C 41.869213 31.231592 64.556566 0
M  V30 11 C 42.614317 28.660579 67.133517 0
M  V30 12 O 45.461039 27.621874 65.919642 0
M  V30 13 O 39.833789 28.582631 51.209878 0
M  V30 14 C 40.927422 26.187870 66.933521 0
M  V30 15 C 39.980954 28.933582 58.093129 0
M  V30 16 C 39.082747 28.797144 52.297574 0
M  V30 17 C 42.642116 25.138950 65.448482 0
M  V30 18 C 42.284044 29.803788 66.498312 0
M  V30 19 C 37.919681 31.407287 60.755048 0
M  V30 20 N 43.886882 28.168865 64.319742 0
M  V30 21 C 38.742532 29.641566 57.510621 0 CFG=2
M  V30 22 C 41.897226 31.679817 63.091650 0 CFG=2
M  V30 23 C 39.085839 30.597094 56.327337 0 CFG=2
M  V30 24 C 39.288544 32.093283 56.622167 0
M  V30 25 O 43.262158 24.459784 66.294805 0 CHG=-1
M  V30 26 C 39.461661 30.072219 53.105829 0
M  V30 27 C 43.089201 29.133638 64.049830 0
M  V30 28 C 38.789820 32.183610 61.741197 0
M  V30 29 C 39.527965 31.273064 62.737556 0
M  V30 30 C 41.825328 33.211887 62.965641 0
M  V30 31 C 42.404277 30.081164 65.043597 0
M  V30 32 C 43.157224 27.427058 66.490102 0 CFG=1
M  V30 33 C 42.051393 26.476632 65.921462 0 CFG=2
M  V30 34 N 38.521353 30.966612 59.639517 0
M  V30 35 N 38.306681 32.835361 55.842269 0
M  V30 36 O 42.453808 24.823896 64.254527 0
M  V30 37 H 36.817274 28.315758 54.454347 0
M  V30 38 H 37.067738 30.880059 58.145174 0
M  V30 39 H 37.255825 29.410336 59.066496 0
M  V30 40 H 37.687888 27.154594 52.317684 0
M  V30 41 H 37.037908 30.344281 55.659380 0
M  V30 42 H 38.479428 32.184123 53.974294 0
M  V30 43 H 41.376850 31.906582 65.242127 0
M  V30 44 H 42.462172 28.600985 68.201397 0
M  V30 45 H 40.415816 30.025104 53.628695 0
M  V30 46 H 40.283130 25.373164 66.599275 0
M  V30 47 H 41.327543 25.919105 67.911740 0
M  V30 48 H 40.293636 27.066347 67.053428 0
M  V30 49 H 40.693624 29.621293 58.540426 0
M  V30 50 H 39.693103 28.219339 58.865492 0
M  V30 51 H 40.512003 28.376186 57.321124 0
M  V30 52 H 41.878947 30.595550 67.111894 0
M  V30 53 H 38.168716 28.828562 57.062123 0
M  V30 54 H 42.856740 31.416807 62.653546 0
M  V30 55 H 40.012014 30.241735 55.876046 0
M  V30 56 H 40.265313 32.397288 56.253723 0
M  V30 57 H 39.232700 32.378583 57.669983 0
M  V30 58 H 39.273164 31.026498 52.618299 0
M  V30 59 H 42.871228 29.365376 63.009660 0
M  V30 60 H 39.485039 32.835151 61.211234 0
M  V30 61 H 38.123792 32.845422 62.294379 0
M  V30 62 H 39.467872 31.712132 63.731558 0
M  V30 63 H 39.032048 30.304608 62.823054 0
M  V30 64 H 42.664169 33.679017 63.481882 0
M  V30 65 H 41.865700 33.522634 61.921439 0
M  V30 66 H 40.911108 33.620121 63.396219 0
M  V30 67 H 43.628391 26.890516 67.316116 0
M  V30 68 H 41.575151 26.941491 65.057464 0
M  V30 69 H 39.501770 31.152111 59.502377 0
M  V30 70 H 38.683959 33.713278 55.489966 0
M  V30 71 H 39.508506 27.804813 50.780712 0
M  V30 END ATOM
M  V30 BEGIN BOND
M  V30 1 1 4 2
M  V30 2 2 8 2
M  V30 3 1 8 6
M  V30 4 1 9 6
M  V30 5 2 12 7
M  V30 6 2 16 4
M  V30 7 1 16 13
M  V30 8 2 18 11
M  V30 9 2 19 5
M  V30 10 1 20 7
M  V30 11 1 21 3
M  V30 12 1 21 15
M  V30 13 1 22 1
M  V30 14 1 22 10
M  V30 15 1 23 6
M  V30 16 1 23 21
M  V30 17 1 24 23
M  V30 18 1 25 17
M  V30 19 1 26 8
M  V30 20 1 26 16
M  V30 21 2 27 20
M  V30 22 1 28 19
M  V30 23 1 29 1
M  V30 24 1 29 28
M  V30 25 1 30 22
M  V30 26 2 31 10
M  V30 27 1 31 18
M  V30 28 1 31 27
M  V30 29 1 32 7
M  V30 30 1 32 11
M  V30 31 1 33 14
M  V30 32 1 33 17
M  V30 33 1 33 32
M  V30 34 1 34 3
M  V30 35 1 34 19
M  V30 36 1 35 9
M  V30 37 1 35 24
M  V30 38 2 36 17
M  V30 39 1 37 2
M  V30 40 1 38 3
M  V30 41 1 39 3
M  V30 42 1 40 4
M  V30 43 1 6 41 CFG=1
M  V30 44 1 42 9
M  V30 45 1 43 10
M  V30 46 1 44 11
M  V30 47 1 45 26
M  V30 48 1 46 14
M  V30 49 1 47 14
M  V30 50 1 48 14
M  V30 51 1 49 15
M  V30 52 1 50 15
M  V30 53 1 51 15
M  V30 54 1 52 18
M  V30 55 1 21 53 CFG=3
M  V30 56 1 22 54 CFG=3
M  V30 57 1 23 55 CFG=3
M  V30 58 1 56 24
M  V30 59 1 57 24
M  V30 60 1 58 26
M  V30 61 1 59 27
M  V30 62 1 60 28
M  V30 63 1 61 28
M  V30 64 1 62 29
M  V30 65 1 63 29
M  V30 66 1 64 30
M  V30 67 1 65 30
M  V30 68 1 66 30
M  V30 69 1 32 67 CFG=1
M  V30 70 1 33 68 CFG=3
M  V30 71 1 69 34
M  V30 72 1 70 35
M  V30 73 1 71 13
M  V30 END BOND
M  V30 END CTAB
M  END
>  <i_epik_Tot_Q>  (1) 
0

>  <i_epik_Tot_abs_Q>  (1) 
2

>  <i_i_glide_confnum>  (1) 
3055

>  <i_i_glide_lignum>  (1) 
48

>  <i_i_glide_posenum>  (1) 
170

>  <i_i_glide_rotatable_bonds>  (1) 
13

>  <i_lp_mmshare_version>  (1) 
72125

>  <i_m_source_file_index>  (1) 
19

>  <i_f3d_flags>  (1) 
0

>  <num_sample>  (1) 
100

>  <b_lp_Chiralities_Consistent>  (1) 
1

>  <r_epik_Charging_Adjusted_Penalty>  (1) 
0.76693695219889413

>  <r_epik_Ionization_Penalty>  (1) 
0.76778133156762796

>  <r_epik_Ionization_Penalty_Charging>  (1) 
0.00011398914501928687

>  <r_epik_Ionization_Penalty_Neutral>  (1) 
0.7676673424226087

>  <r_epik_State_Penalty>  (1) 
0.76682296305387487

>  <r_glide_ring_energy>  (1) 
1.7561163794185919

>  <r_i_docking_score>  (1) 
-5.7493897872824116

>  <r_i_glide_ecoul>  (1) 
-1.7497659443292064

>  <r_i_glide_eff_state_penalty>  (1) 
0.76682296305387487

>  <r_i_glide_einternal>  (1) 
17.658290003373438

>  <r_i_glide_emodel>  (1) 
-64.445675439127029

>  <r_i_glide_emodel_strain>  (1) 
2.3298969213675775

>  <r_i_glide_energy>  (1) 
-53.383222337641769

>  <r_i_glide_erotb>  (1) 
0.89312676016186854

>  <r_i_glide_esite>  (1) 
-0.17147803789355096

>  <r_i_glide_evdw>  (1) 
-51.633456393312564

>  <r_i_glide_gscore>  (1) 
-6.5162127503362868

>  <r_i_glide_gscore_strain>  (1) 
0

>  <r_i_glide_hbond>  (1) 
-0.29810663256210346

>  <r_i_glide_ligand_efficiency>  (1) 
-0.15970527186895589

>  <r_i_glide_ligand_efficiency_ln>  (1) 
-1.2543615210236281

>  <r_i_glide_ligand_efficiency_sa>  (1) 
-0.52733518897623

>  <r_i_glide_lipo>  (1) 
-2.3408834872074666

>  <r_i_glide_metal>  (1) 
-0

>  <r_i_glide_rewards>  (1) 
-1.7547336415200241

>  <r_lp_Energy>  (1) 
32.790411999999996

>  <r_lp_tautomer_probability>  (1) 
0.99929914239148299

>  <s_epik_Chemistry_Notes>  (1) 
This compound has an imine and may undergo hydrolysis. This compound contains an acetal/aminal-like group ( X-CH(R)-Y where X, Y are N, S, or O) that may be acid/base labile, releasing an aldehyde.

>  <s_epik_cmdline>  (1) 
J2VwaWtfcHl0aG9uJywgJy1waHQnLCAnMS4wJywgJy1waCcsICc3LjQnLCAnLXRuJywgJzgnLCAnLW1hJywgJzUwMCcsICctaW1hZScsICc8aW5maWxlLm1hZT4nLCAnLW9tYWUnLCAnPG91dGZpbGUubWFlPic=

>  <s_epik_input>  (1) 
W09IXUMoPU8pW0NASF0oW0NIM10pW0NAQEhdMVtDSF09W0NIXVxDKFtDSF09TkMxPU8pPVtDSF1cW0NASF0oW0NIM10pT1tDSDJdW0NIMl1DKD1PKVtOSF1bQ0gyXVtDQEhdKFtDSDNdKVtDQEBIXTJbQ0gyXVtOSF1bTkhdW0NASF0ybjNbY0hdW2NIXWMoW09IXSlbY0hdMw==

>  <s_glide_docking_method>  (1) 
confgen

>  <s_i_glide_gridfile>  (1) 
gpcr_5ht2c_6bqh_protein_autoprepared_prepared

>  <s_lp_Force_Field>  (1) 
S-OPLS

>  <s_lp_Variant>  (1) 
DiffSBDD_18_num_sample_100-8

>  <s_m_source_file>  (1) 
generated__ligand_DiffSBDD_2026-05-06_prepared.sdf

>  <GenAI_Model>  (1) 
DiffSBDD

>  <Protein>  (1) 
GPCR_5HT2C

$$$$
DiffSBDD_29_num_sample_100
     RDKit          3D

  0  0  0  0  0  0  0  0  0  0999 V3000
M  V30 BEGIN CTAB
M  V30 COUNTS 86 90 0 0 1
M  V30 BEGIN ATOM
M  V30 1 F 38.813689 27.254536 51.117824 0
M  V30 2 C 39.948669 25.573373 56.890087 0
M  V30 3 C 38.138743 28.404511 53.708233 0
M  V30 4 C 37.511484 30.884532 60.093533 0 CFG=2
M  V30 5 C 39.672124 32.450760 63.152380 0
M  V30 6 C 36.291585 30.127332 59.531456 0
M  V30 7 C 39.858164 29.247277 50.665589 0
M  V30 8 N 39.487082 26.975201 57.074688 0 CFG=2 CHG=1
M  V30 9 C 35.792044 32.844206 60.658278 0 CFG=1
M  V30 10 C 41.779670 33.889615 61.550628 0
M  V30 11 C 41.376147 27.651645 58.499316 0
M  V30 12 C 40.307873 34.022336 61.405390 0 CFG=1
M  V30 13 C 39.175263 28.499220 51.465838 0
M  V30 14 C 40.555661 28.906614 58.415278 0 CFG=2
M  V30 15 C 37.930814 25.032696 55.600729 0
M  V30 16 C 35.556363 35.008934 59.235748 0
M  V30 17 C 37.251684 32.421645 60.242498 0 CFG=1
M  V30 18 C 39.404438 29.143606 59.391363 0 CFG=1
M  V30 19 C 39.432285 30.410114 52.883482 0
M  V30 20 N 37.467017 26.393794 55.822845 0
M  V30 21 N 38.879174 29.053686 52.650377 0
M  V30 22 F 40.258436 28.871419 49.453566 0
M  V30 23 S 39.466474 34.021352 59.852902 0
M  V30 24 C 38.497695 27.406936 56.041715 0 CFG=2
M  V30 25 C 38.748012 24.644568 56.819334 0
M  V30 26 C 33.581668 33.334076 59.507840 0
M  V30 27 O 39.978376 29.099273 60.689884 0
M  V30 28 C 38.316475 33.241436 60.990655 0 CFG=2
M  V30 29 C 38.723026 30.536110 59.179439 0
M  V30 30 C 41.976078 33.722802 63.074922 0
M  V30 31 C 41.143695 32.535740 63.655466 0
M  V30 32 C 39.125845 27.790833 54.699311 0
M  V30 33 O 35.632719 33.628252 61.826045 0
M  V30 34 C 39.594342 32.711931 61.701108 0 CFG=2
M  V30 35 C 40.622513 27.922145 57.242017 0 CFG=2
M  V30 36 C 35.085665 33.571448 59.509691 0
M  V30 37 O 37.797397 30.427343 61.390191 0
M  V30 38 S 40.268091 30.816400 51.221752 0
M  V30 39 H 40.551855 25.493457 55.984669 0
M  V30 40 H 40.573449 25.246451 57.717871 0
M  V30 41 H 37.465200 27.645955 53.296849 0
M  V30 42 H 37.512495 29.152065 54.202764 0
M  V30 43 H 39.187260 31.519132 63.447187 0
M  V30 44 H 39.068057 33.269281 63.485203 0
M  V30 45 H 35.902425 30.632384 58.653832 0
M  V30 46 H 36.560176 29.127492 59.212280 0
M  V30 47 H 35.475760 30.027508 60.241148 0
M  V30 48 H 35.216396 31.960861 60.924263 0
M  V30 49 H 42.155130 32.987894 61.056077 0
M  V30 50 H 42.262693 34.746273 61.077646 0
M  V30 51 H 42.460779 27.754094 58.490798 0
M  V30 52 H 40.973960 26.827602 59.053225 0
M  V30 53 H 39.921395 34.872112 61.974926 0
M  V30 54 H 41.165286 29.778403 58.279564 0
M  V30 55 H 38.524923 24.955692 54.691877 0
M  V30 56 H 37.071852 24.373091 55.483359 0
M  V30 57 H 35.622621 35.615643 60.133526 0
M  V30 58 H 36.553226 35.013875 58.796265 0
M  V30 59 H 34.891638 35.512658 58.537915 0
M  V30 60 H 37.344082 32.739090 59.206021 0
M  V30 61 H 38.682663 28.333664 59.313831 0
M  V30 62 H 38.665314 31.138944 53.136528 0
M  V30 63 H 40.180842 30.402991 53.675848 0
M  V30 64 H 36.774410 26.412714 56.561362 0
M  V30 65 H 37.998096 28.293940 56.436407 0
M  V30 66 H 39.081469 23.623841 56.730997 0
M  V30 67 H 38.153761 24.691701 57.732943 0
M  V30 68 H 33.093412 33.621453 60.429220 0
M  V30 69 H 33.069798 33.800254 58.663709 0
M  V30 70 H 33.470480 32.260367 59.421346 0
M  V30 71 H 40.065481 28.194258 60.965603 0
M  V30 72 H 37.897112 34.060859 61.570109 0
M  V30 73 H 38.423595 30.641387 58.138084 0
M  V30 74 H 39.465978 31.301909 59.299857 0
M  V30 75 H 43.027524 33.614235 63.307810 0
M  V30 76 H 41.674030 34.645289 63.570567 0
M  V30 77 H 41.643772 31.606452 63.381105 0
M  V30 78 H 41.168595 32.572022 64.744801 0
M  V30 79 H 39.867279 28.561334 54.875332 0
M  V30 80 H 39.641952 26.945904 54.243587 0
M  V30 81 H 34.724504 33.889353 61.884845 0
M  V30 82 H 40.080430 31.888286 61.180840 0
M  V30 83 H 41.249380 28.093163 56.372113 0
M  V30 84 H 35.389867 33.013057 58.653485 0
M  V30 85 H 38.668262 30.035831 61.362856 0
M  V30 86 H 38.987994 26.972539 57.950228 0
M  V30 END ATOM
M  V30 BEGIN BOND
M  V30 1 1 6 4
M  V30 2 1 8 2
M  V30 3 1 12 10
M  V30 4 1 13 1
M  V30 5 2 13 7
M  V30 6 1 14 11
M  V30 7 1 17 4
M  V30 8 1 17 9
M  V30 9 1 18 14
M  V30 10 1 20 15
M  V30 11 1 21 3
M  V30 12 1 21 13
M  V30 13 1 21 19
M  V30 14 1 22 7
M  V30 15 1 23 12
M  V30 16 1 24 8
M  V30 17 1 24 20
M  V30 18 1 25 2
M  V30 19 1 25 15
M  V30 20 1 27 18
M  V30 21 1 28 17
M  V30 22 1 28 23
M  V30 23 1 29 4
M  V30 24 1 29 18
M  V30 25 1 30 10
M  V30 26 1 31 5
M  V30 27 1 31 30
M  V30 28 1 32 3
M  V30 29 1 32 24
M  V30 30 1 33 9
M  V30 31 1 34 5
M  V30 32 1 34 12
M  V30 33 1 34 28
M  V30 34 1 35 8
M  V30 35 1 35 11
M  V30 36 1 35 14
M  V30 37 1 36 9
M  V30 38 1 36 16
M  V30 39 1 36 26
M  V30 40 1 4 37 CFG=1
M  V30 41 1 38 7
M  V30 42 1 38 19
M  V30 43 1 39 2
M  V30 44 1 40 2
M  V30 45 1 41 3
M  V30 46 1 42 3
M  V30 47 1 43 5
M  V30 48 1 44 5
M  V30 49 1 45 6
M  V30 50 1 46 6
M  V30 51 1 47 6
M  V30 52 1 9 48 CFG=1
M  V30 53 1 49 10
M  V30 54 1 50 10
M  V30 55 1 51 11
M  V30 56 1 52 11
M  V30 57 1 12 53 CFG=1
M  V30 58 1 14 54 CFG=3
M  V30 59 1 55 15
M  V30 60 1 56 15
M  V30 61 1 57 16
M  V30 62 1 58 16
M  V30 63 1 59 16
M  V30 64 1 17 60 CFG=3
M  V30 65 1 18 61 CFG=1
M  V30 66 1 62 19
M  V30 67 1 63 19
M  V30 68 1 64 20
M  V30 69 1 24 65 CFG=1
M  V30 70 1 66 25
M  V30 71 1 67 25
M  V30 72 1 68 26
M  V30 73 1 69 26
M  V30 74 1 70 26
M  V30 75 1 71 27
M  V30 76 1 28 72 CFG=1
M  V30 77 1 73 29
M  V30 78 1 74 29
M  V30 79 1 75 30
M  V30 80 1 76 30
M  V30 81 1 77 31
M  V30 82 1 78 31
M  V30 83 1 79 32
M  V30 84 1 80 32
M  V30 85 1 81 33
M  V30 86 1 34 82 CFG=3
M  V30 87 1 35 83 CFG=3
M  V30 88 1 84 36
M  V30 89 1 85 37
M  V30 90 1 8 86 CFG=1
M  V30 END BOND
M  V30 END CTAB
M  END
>  <i_epik_Tot_Q>  (1) 
1

>  <i_epik_Tot_abs_Q>  (1) 
1

>  <i_i_glide_confnum>  (1) 
1206

>  <i_i_glide_lignum>  (1) 
78

>  <i_i_glide_posenum>  (1) 
333

>  <i_i_glide_rotatable_bonds>  (1) 
14

>  <i_lp_mmshare_version>  (1) 
72125

>  <i_m_source_file_index>  (1) 
30

>  <i_f3d_flags>  (1) 
0

>  <num_sample>  (1) 
100

>  <b_lp_Chiralities_Consistent>  (1) 
1

>  <r_epik_Charging_Adjusted_Penalty>  (1) 
1.7477768688038313

>  <r_epik_Ionization_Penalty>  (1) 
0.56833185219894722

>  <r_epik_Ionization_Penalty_Charging>  (1) 
0.56833130032608237

>  <r_epik_Ionization_Penalty_Neutral>  (1) 
5.5187286482775955e-07

>  <r_epik_State_Penalty>  (1) 
1.179445568477749

>  <r_glide_ring_energy>  (1) 
2.3029442833191154

>  <r_i_docking_score>  (1) 
-5.7459642652397518

>  <r_i_glide_ecoul>  (1) 
-3.7878559407046435

>  <r_i_glide_eff_state_penalty>  (1) 
1.179445568477749

>  <r_i_glide_einternal>  (1) 
27.550998144887725

>  <r_i_glide_emodel>  (1) 
-21.972202174636607

>  <r_i_glide_emodel_strain>  (1) 
8.4238694407208072

>  <r_i_glide_energy>  (1) 
-28.284758822365703

>  <r_i_glide_erotb>  (1) 
0.46833353265868582

>  <r_i_glide_esite>  (1) 
0

>  <r_i_glide_evdw>  (1) 
-24.496902881661057

>  <r_i_glide_gscore>  (1) 
-6.9254098337175005

>  <r_i_glide_gscore_strain>  (1) 
1.1059673601802018

>  <r_i_glide_hbond>  (1) 
-0.11221952047282084

>  <r_i_glide_ligand_efficiency>  (1) 
-0.15120958592736189

>  <r_i_glide_ligand_efficiency_ln>  (1) 
-1.238998924729144

>  <r_i_glide_ligand_efficiency_sa>  (1) 
-0.50836290916004534

>  <r_i_glide_lipo>  (1) 
-4.6155725896537216

>  <r_i_glide_metal>  (1) 
-0

>  <r_i_glide_rewards>  (1) 
-1.9788950812410957

>  <r_lp_Energy>  (1) 
47.259627999999999

>  <s_epik_Chemistry_Notes>  (1) 
This compound has an imine and may undergo hydrolysis. This compound contains an acetal/aminal-like group ( X-CH(R)-Y where X, Y are N, S, or O) that may be acid/base labile, releasing an aldehyde.

>  <s_epik_cmdline>  (1) 
J2VwaWtfcHl0aG9uJywgJy1waHQnLCAnMS4wJywgJy1waCcsICc3LjQnLCAnLXRuJywgJzgnLCAnLW1hJywgJzUwMCcsICctaW1hZScsICc8aW5maWxlLm1hZT4nLCAnLW9tYWUnLCAnPG91dGZpbGUubWFlPic=

>  <s_epik_input>  (1) 
RkMxPUMoRilOKFtDSDJdUzEpW0NIMl1bQ0gyXVtDQEhdMltOSF1bQ0gyXVtDSDJdW0NIMl1OMltDQEBIXTNbQ0gyXVtDQEBIXTNbQ0BASF0oW09IXSlbQ0gyXVtDQEBdKFtDSDNdKShbT0hdKVtDQEBIXShbQ0BASF0oW09IXSlbQ0hdKFtDSDNdKVtDSDNdKVtDQEhdKFM0KVtDQEBIXShbQ0BASF00NSlbQ0gyXVtDSDJdW0NIMl1bQ0gyXTU=

>  <s_glide_docking_method>  (1) 
confgen

>  <s_i_glide_gridfile>  (1) 
gpcr_5ht2c_6bqh_protein_autoprepared_prepared

>  <s_lp_Force_Field>  (1) 
S-OPLS

>  <s_lp_Variant>  (1) 
DiffSBDD_29_num_sample_100-8

>  <s_m_source_file>  (1) 
generated__ligand_DiffSBDD_2026-05-06_prepared.sdf

>  <GenAI_Model>  (1) 
DiffSBDD

>  <Protein>  (1) 
GPCR_5HT2C

$$$$
DiffSBDD_93_num_sample_100
     RDKit          3D

  0  0  0  0  0  0  0  0  0  0999 V3000
M  V30 BEGIN CTAB
M  V30 COUNTS 74 77 0 0 1
M  V30 BEGIN ATOM
M  V30 1 C 41.100353 32.625561 64.359604 0
M  V30 2 S 38.267414 32.837142 58.288476 0
M  V30 3 C 41.577045 30.832152 66.114093 0 CFG=2
M  V30 4 O 37.486419 37.341368 60.316796 0
M  V30 5 C 39.420265 30.514752 54.842087 0
M  V30 6 C 36.792276 34.660302 61.187379 0 CFG=1
M  V30 7 C 37.565645 29.078070 56.708821 0
M  V30 8 C 38.811731 30.152391 58.559752 0
M  V30 9 C 42.857585 31.603595 66.449806 0
M  V30 10 N 38.571797 31.393477 60.586659 0
M  V30 11 C 38.429442 29.663794 54.069891 0
M  V30 12 C 40.884267 31.380219 64.875822 0
M  V30 13 C 40.404425 33.057960 63.108237 0
M  V30 14 C 38.597481 32.659304 61.329910 0 CFG=2
M  V30 15 C 42.580485 33.100441 66.440673 0
M  V30 16 Cl 41.409185 35.221100 65.342561 0
M  V30 17 O 37.453682 27.546316 53.640270 0
M  V30 18 C 42.080865 33.586996 65.068266 0 CFG=2
M  V30 19 C 40.867287 34.321501 62.382475 0
M  V30 20 C 36.906796 33.937283 58.763028 0
M  V30 21 C 37.117721 35.794295 62.188679 0
M  V30 22 C 39.367115 32.327339 62.605519 0
M  V30 23 C 38.136868 27.879669 55.932487 0
M  V30 24 C 37.334958 34.999879 59.795101 0 CFG=1
M  V30 25 C 38.000276 31.293304 59.239467 0 CFG=1
M  V30 26 C 38.428465 28.173384 54.448539 0 CFG=2
M  V30 27 C 36.921836 36.424569 59.391583 0
M  V30 28 C 36.940021 37.222862 61.620920 0
M  V30 29 C 39.467085 30.626478 56.187390 0
M  V30 30 S 36.316633 30.628388 59.453509 0
M  V30 31 N 38.628723 29.987292 57.110303 0
M  V30 32 C 40.612760 30.718572 67.301020 0
M  V30 33 C 37.161872 33.206833 61.626230 0
M  V30 34 H 41.883261 29.817282 65.858739 0
M  V30 35 H 40.130458 31.071030 54.247766 0
M  V30 36 H 35.705487 34.667111 61.103490 0
M  V30 37 H 37.071731 28.687417 57.597205 0
M  V30 38 H 36.791039 29.621468 56.163120 0
M  V30 39 H 38.608866 29.201746 59.055386 0
M  V30 40 H 39.867417 30.313037 58.738663 0
M  V30 41 H 43.252908 31.291926 67.416462 0
M  V30 42 H 43.631862 31.373934 65.715052 0
M  V30 43 H 38.154088 30.669726 61.151697 0
M  V30 44 H 38.686917 29.749836 53.013780 0
M  V30 45 H 37.436314 30.104952 54.158371 0
M  V30 46 H 40.214072 30.696334 64.392906 0
M  V30 47 H 39.170402 33.361714 60.744118 0
M  V30 48 H 41.837577 33.329973 67.204900 0
M  V30 49 H 43.478799 33.642714 66.728226 0
M  V30 50 H 37.520041 26.609275 53.745755 0
M  V30 51 H 42.942130 33.722030 64.419018 0
M  V30 52 H 41.867146 34.624641 62.679717 0
M  V30 53 H 40.939452 34.180669 61.307111 0
M  V30 54 H 40.205190 35.158112 62.584359 0
M  V30 55 H 36.601006 34.421433 57.853502 0
M  V30 56 H 36.021419 33.382034 59.065403 0
M  V30 57 H 38.134490 35.683218 62.554158 0
M  V30 58 H 36.452519 35.709291 63.048738 0
M  V30 59 H 39.034961 31.445755 63.112332 0
M  V30 60 H 37.467449 27.024288 56.021678 0
M  V30 61 H 39.058104 27.561101 56.422506 0
M  V30 62 H 38.420591 35.037468 59.853346 0
M  V30 63 H 39.393063 27.734506 54.187825 0
M  V30 64 H 37.319151 36.668143 58.407322 0
M  V30 65 H 35.839150 36.540160 59.338059 0
M  V30 66 H 37.458800 37.930022 62.266881 0
M  V30 67 H 35.901836 37.559040 61.610622 0
M  V30 68 H 40.200369 31.259187 56.653392 0
M  V30 69 H 35.906573 30.939735 58.203764 0
M  V30 70 H 39.733216 30.130692 67.038501 0
M  V30 71 H 41.088649 30.225624 68.150154 0
M  V30 72 H 40.267449 31.695615 67.633899 0
M  V30 73 H 36.913768 33.031162 62.653500 0
M  V30 74 H 36.418596 32.574997 61.163301 0
M  V30 END ATOM
M  V30 BEGIN BOND
M  V30 1 1 9 3
M  V30 2 1 11 5
M  V30 3 2 12 1
M  V30 4 1 12 3
M  V30 5 1 13 1
M  V30 6 1 14 10
M  V30 7 1 15 9
M  V30 8 1 18 1
M  V30 9 1 18 15
M  V30 10 1 18 16
M  V30 11 1 19 13
M  V30 12 1 20 2
M  V30 13 1 21 6
M  V30 14 2 22 13
M  V30 15 1 22 14
M  V30 16 1 23 7
M  V30 17 1 24 6
M  V30 18 1 24 20
M  V30 19 1 25 2
M  V30 20 1 25 8
M  V30 21 1 25 10
M  V30 22 1 26 11
M  V30 23 1 26 17
M  V30 24 1 26 23
M  V30 25 1 27 4
M  V30 26 1 27 24
M  V30 27 1 28 4
M  V30 28 1 28 21
M  V30 29 2 29 5
M  V30 30 1 25 30 CFG=1
M  V30 31 1 31 7
M  V30 32 1 31 8
M  V30 33 1 31 29
M  V30 34 1 32 3
M  V30 35 1 33 6
M  V30 36 1 33 14
M  V30 37 1 3 34 CFG=3
M  V30 38 1 35 5
M  V30 39 1 6 36 CFG=3
M  V30 40 1 37 7
M  V30 41 1 38 7
M  V30 42 1 39 8
M  V30 43 1 40 8
M  V30 44 1 41 9
M  V30 45 1 42 9
M  V30 46 1 43 10
M  V30 47 1 44 11
M  V30 48 1 45 11
M  V30 49 1 46 12
M  V30 50 1 14 47 CFG=3
M  V30 51 1 48 15
M  V30 52 1 49 15
M  V30 53 1 50 17
M  V30 54 1 18 51 CFG=3
M  V30 55 1 52 19
M  V30 56 1 53 19
M  V30 57 1 54 19
M  V30 58 1 55 20
M  V30 59 1 56 20
M  V30 60 1 57 21
M  V30 61 1 58 21
M  V30 62 1 59 22
M  V30 63 1 60 23
M  V30 64 1 61 23
M  V30 65 1 24 62 CFG=1
M  V30 66 1 26 63 CFG=3
M  V30 67 1 64 27
M  V30 68 1 65 27
M  V30 69 1 66 28
M  V30 70 1 67 28
M  V30 71 1 68 29
M  V30 72 1 69 30
M  V30 73 1 70 32
M  V30 74 1 71 32
M  V30 75 1 72 32
M  V30 76 1 73 33
M  V30 77 1 74 33
M  V30 END BOND
M  V30 END CTAB
M  END
>  <i_epik_Tot_Q>  (1) 
0

>  <i_epik_Tot_abs_Q>  (1) 
0

>  <i_i_glide_confnum>  (1) 
15

>  <i_i_glide_lignum>  (1) 
251

>  <i_i_glide_posenum>  (1) 
387

>  <i_i_glide_rotatable_bonds>  (1) 
6

>  <i_lp_mmshare_version>  (1) 
72125

>  <i_m_source_file_index>  (1) 
94

>  <i_f3d_flags>  (1) 
0

>  <num_sample>  (1) 
100

>  <b_lp_Chiralities_Consistent>  (1) 
1

>  <r_epik_Charging_Adjusted_Penalty>  (1) 
0.20325292957253988

>  <r_epik_Ionization_Penalty>  (1) 
0.031936562948065232

>  <r_epik_Ionization_Penalty_Charging>  (1) 
3.6030848355623751e-07

>  <r_epik_Ionization_Penalty_Neutral>  (1) 
0.031936202639581676

>  <r_epik_State_Penalty>  (1) 
0.20325256926405633

>  <r_glide_ring_energy>  (1) 
1.2305908303780131

>  <r_i_docking_score>  (1) 
-5.7459552355185375

>  <r_i_glide_ecoul>  (1) 
-1.8328784502225743

>  <r_i_glide_eff_state_penalty>  (1) 
0.20325256926405633

>  <r_i_glide_einternal>  (1) 
15.516650157358331

>  <r_i_glide_emodel>  (1) 
-39.057348760639549

>  <r_i_glide_emodel_strain>  (1) 
0.83322576382133207

>  <r_i_glide_energy>  (1) 
-39.075740073530127

>  <r_i_glide_erotb>  (1) 
0.31140238833871409

>  <r_i_glide_esite>  (1) 
-0.12855643681102152

>  <r_i_glide_evdw>  (1) 
-37.242861623307554

>  <r_i_glide_gscore>  (1) 
-5.9492078047825938

>  <r_i_glide_gscore_strain>  (1) 
0

>  <r_i_glide_hbond>  (1) 
-0.16

>  <r_i_glide_ligand_efficiency>  (1) 
-0.17411985562177387

>  <r_i_glide_ligand_efficiency_ln>  (1) 
-1.2778706934153505

>  <r_i_glide_ligand_efficiency_sa>  (1) 
-0.55849541444075645

>  <r_i_glide_lipo>  (1) 
-3.3585759825173005

>  <r_i_glide_metal>  (1) 
-0

>  <r_i_glide_rewards>  (1) 
-0.47640292509422233

>  <r_lp_Energy>  (1) 
26.376678999999999

>  <s_epik_Chemistry_Notes>  (1) 
This compound has an imine and may undergo hydrolysis.

>  <s_epik_cmdline>  (1) 
J2VwaWtfcHl0aG9uJywgJy1waHQnLCAnMS4wJywgJy1waCcsICc3LjQnLCAnLXRuJywgJzgnLCAnLW1hJywgJzUwMCcsICctaW1hZScsICc8aW5maWxlLm1hZT4nLCAnLW9tYWUnLCAnPG91dGZpbGUubWFlPic=

>  <s_epik_input>  (1) 
Q2xbQ0BIXTFbQ0gyXVtDSDJdW0NAQEhdKFtDSDNdKVtDSF09QzEvQyhbQ0gzXSk9W0NIXS9bQ0BASF0oW0NIMl0yKVtOSF1bQ0BAXShbU0hdKShTW0NIMl1bQ0BIXShbQ0BASF0yMylbQ0gyXU9bQ0gyXVtDSDJdMylbQ0gyXU4oW0NIMl1bQ0gyXTQpW0NIXT1bQ0hdW0NIMl1bQ0BASF00W09IXQ==

>  <s_glide_docking_method>  (1) 
confgen

>  <s_i_glide_gridfile>  (1) 
gpcr_5ht2c_6bqh_protein_autoprepared_prepared

>  <s_lp_Force_Field>  (1) 
S-OPLS

>  <s_lp_Variant>  (1) 
DiffSBDD_93_num_sample_100-3

>  <s_m_source_file>  (1) 
generated__ligand_DiffSBDD_2026-05-06_prepared.sdf

>  <GenAI_Model>  (1) 
DiffSBDD

>  <Protein>  (1) 
GPCR_5HT2C

$$$$
DiffSBDD_21_num_sample_100
     RDKit          3D

  0  0  0  0  0  0  0  0  0  0999 V3000
M  V30 BEGIN CTAB
M  V30 COUNTS 40 40 0 0 1
M  V30 BEGIN ATOM
M  V30 1 C 38.651960 26.314113 56.504422 0
M  V30 2 C 37.579341 29.856453 54.812696 0
M  V30 3 C 38.230327 28.713144 54.010809 0 CFG=2
M  V30 4 C 40.667422 29.572331 50.539877 0
M  V30 5 N 38.714447 29.106332 52.665533 0
M  V30 6 N 39.316538 28.018815 51.941088 0
M  V30 7 C 37.719802 26.243803 54.054362 0
M  V30 8 C 39.750309 28.346385 50.582816 0
M  V30 9 C 39.558032 30.325934 52.652828 0
M  V30 10 C 38.384328 25.753418 57.908020 0
M  V30 11 N 37.234789 27.628197 53.853513 0 CHG=1
M  V30 12 C 37.613166 25.752778 55.510370 0
M  V30 13 C 39.993291 30.744750 51.238238 0
M  V30 14 C 40.101921 26.012057 56.089545 0
M  V30 15 H 38.532444 27.395596 56.565834 0
M  V30 16 H 38.304037 30.622146 55.089359 0
M  V30 17 H 36.778540 30.341231 54.253501 0
M  V30 18 H 37.153588 29.495786 55.749053 0
M  V30 19 H 39.084013 28.351104 54.583322 0
M  V30 20 H 40.917933 29.832297 49.510782 0
M  V30 21 H 41.600046 29.345957 51.053503 0
M  V30 22 H 38.676835 27.227798 51.911996 0
M  V30 23 H 37.067407 25.611980 53.453506 0
M  V30 24 H 38.719747 26.098700 53.650492 0
M  V30 25 H 40.267307 27.476521 50.182227 0
M  V30 26 H 38.869487 28.507682 49.962024 0
M  V30 27 H 39.022854 31.162466 53.098853 0
M  V30 28 H 40.436228 30.151909 53.274353 0
M  V30 29 H 38.461364 24.665899 57.914463 0
M  V30 30 H 39.095798 26.143464 58.636802 0
M  V30 31 H 37.385258 26.016106 58.253419 0
M  V30 32 H 36.479680 27.789391 54.503389 0
M  V30 33 H 36.608051 25.952748 55.882979 0
M  V30 34 H 37.706407 24.665321 55.500969 0
M  V30 35 H 39.145434 31.062325 50.633038 0
M  V30 36 H 40.667375 31.597398 51.294048 0
M  V30 37 H 40.267403 24.937421 56.007440 0
M  V30 38 H 40.368416 26.465494 55.135840 0
M  V30 39 H 40.805698 26.401207 56.826525 0
M  V30 40 H 36.868885 27.704959 52.914853 0
M  V30 END ATOM
M  V30 BEGIN BOND
M  V30 1 1 3 2
M  V30 2 1 5 3
M  V30 3 1 6 5
M  V30 4 1 8 4
M  V30 5 1 8 6
M  V30 6 1 9 5
M  V30 7 1 10 1
M  V30 8 1 11 3
M  V30 9 1 11 7
M  V30 10 1 12 1
M  V30 11 1 12 7
M  V30 12 1 13 4
M  V30 13 1 13 9
M  V30 14 1 14 1
M  V30 15 1 15 1
M  V30 16 1 16 2
M  V30 17 1 17 2
M  V30 18 1 18 2
M  V30 19 1 3 19 CFG=1
M  V30 20 1 20 4
M  V30 21 1 21 4
M  V30 22 1 22 6
M  V30 23 1 23 7
M  V30 24 1 24 7
M  V30 25 1 25 8
M  V30 26 1 26 8
M  V30 27 1 27 9
M  V30 28 1 28 9
M  V30 29 1 29 10
M  V30 30 1 30 10
M  V30 31 1 31 10
M  V30 32 1 32 11
M  V30 33 1 33 12
M  V30 34 1 34 12
M  V30 35 1 35 13
M  V30 36 1 36 13
M  V30 37 1 37 14
M  V30 38 1 38 14
M  V30 39 1 39 14
M  V30 40 1 40 11
M  V30 END BOND
M  V30 END CTAB
M  END
>  <i_epik_Tot_Q>  (1) 
1

>  <i_epik_Tot_abs_Q>  (1) 
1

>  <i_i_glide_confnum>  (1) 
6

>  <i_i_glide_lignum>  (1) 
57

>  <i_i_glide_posenum>  (1) 
372

>  <i_i_glide_rotatable_bonds>  (1) 
5

>  <i_lp_mmshare_version>  (1) 
72125

>  <i_m_source_file_index>  (1) 
22

>  <i_f3d_flags>  (1) 
0

>  <num_sample>  (1) 
100

>  <b_lp_Chiralities_Consistent>  (1) 
1

>  <r_epik_Charging_Adjusted_Penalty>  (1) 
0.0010092621186252495

>  <r_epik_Ionization_Penalty>  (1) 
0.001234333594752046

>  <r_epik_Ionization_Penalty_Charging>  (1) 
0.0010092621186252495

>  <r_epik_Ionization_Penalty_Neutral>  (1) 
0.0002250714761267966

>  <r_epik_State_Penalty>  (1) 
-0

>  <r_glide_ring_energy>  (1) 
0

>  <r_i_docking_score>  (1) 
-5.7457202652274608

>  <r_i_glide_ecoul>  (1) 
-1.0025310286888749

>  <r_i_glide_eff_state_penalty>  (1) 
-0

>  <r_i_glide_einternal>  (1) 
5.7761487586929956

>  <r_i_glide_emodel>  (1) 
-32.628166515694417

>  <r_i_glide_emodel_strain>  (1) 
0

>  <r_i_glide_energy>  (1) 
-25.325568311106597

>  <r_i_glide_erotb>  (1) 
1.2214352924196943

>  <r_i_glide_esite>  (1) 
0

>  <r_i_glide_evdw>  (1) 
-24.323037282417722

>  <r_i_glide_gscore>  (1) 
-5.7457202652274608

>  <r_i_glide_gscore_strain>  (1) 
0

>  <r_i_glide_hbond>  (1) 
0

>  <r_i_glide_ligand_efficiency>  (1) 
-0.41040859037339006

>  <r_i_glide_ligand_efficiency_ln>  (1) 
-1.5789034754874089

>  <r_i_glide_ligand_efficiency_sa>  (1) 
-0.98914308923948691

>  <r_i_glide_lipo>  (1) 
-2.6058544767986511

>  <r_i_glide_metal>  (1) 
-0

>  <r_i_glide_rewards>  (1) 
-2.9947695624242874

>  <r_lp_Energy>  (1) 
8.4597719999999992

>  <r_lp_tautomer_probability>  (1) 
1

>  <s_epik_Chemistry_Notes>  (1) 
This compound contains an acetal/aminal-like group ( X-CH(R)-Y where X, Y are N, S, or O) that may be acid/base labile, releasing an aldehyde.

>  <s_epik_cmdline>  (1) 
J2VwaWtfcHl0aG9uJywgJy1waHQnLCAnMS4wJywgJy1waCcsICc3LjQnLCAnLXRuJywgJzgnLCAnLW1hJywgJzUwMCcsICctaW1hZScsICc8aW5maWxlLm1hZT4nLCAnLW9tYWUnLCAnPG91dGZpbGUubWFlPic=

>  <s_epik_input>  (1) 
W0NIM11bQ0hdKFtDSDNdKVtDSDJdW0NIMl1bTkhdW0NASF0oW0NIM10pTjFbTkhdW0NIMl1bQ0gyXVtDSDJdW0NIMl0x

>  <s_glide_docking_method>  (1) 
confgen

>  <s_i_glide_gridfile>  (1) 
gpcr_5ht2c_6bqh_protein_autoprepared_prepared

>  <s_lp_Force_Field>  (1) 
S-OPLS

>  <s_lp_Variant>  (1) 
DiffSBDD_21_num_sample_100-1

>  <s_m_source_file>  (1) 
generated__ligand_DiffSBDD_2026-05-06_prepared.sdf

>  <GenAI_Model>  (1) 
DiffSBDD

>  <Protein>  (1) 
GPCR_5HT2C

$$$$
DiffSBDD_30_num_sample_100
     RDKit          3D

  0  0  0  0  0  0  0  0  0  0999 V3000
M  V30 BEGIN CTAB
M  V30 COUNTS 70 73 0 0 1
M  V30 BEGIN ATOM
M  V30 1 C 41.174763 29.586634 68.546809 0
M  V30 2 C 43.876591 30.219313 65.652188 0 CFG=1
M  V30 3 O 41.067413 27.517996 67.327168 0
M  V30 4 C 38.635155 27.934898 52.583615 0
M  V30 5 C 39.073104 29.221422 52.238459 0
M  V30 6 N 41.467364 28.707176 64.842741 0
M  V30 7 C 39.467399 29.724356 54.593186 0
M  V30 8 C 41.659550 29.524653 66.054831 0 CFG=1
M  V30 9 O 43.407960 32.198548 67.729422 0
M  V30 10 O 44.414184 27.938356 65.048559 0
M  V30 11 C 38.005954 26.133031 57.809446 0
M  V30 12 C 44.627969 29.138110 64.872519 0
M  V30 13 C 45.630821 29.610180 63.853480 0
M  V30 14 C 36.809213 25.229446 57.644337 0
M  V30 15 C 38.072262 28.673514 57.368478 0 CFG=2
M  V30 16 C 40.561697 29.099017 61.240475 0
M  V30 17 N 41.067537 28.482848 62.489645 0 CHG=1
M  V30 18 C 38.163849 24.766070 57.173008 0
M  V30 19 C 40.173811 28.713034 58.707272 0 CFG=1
M  V30 20 C 39.484329 30.117958 53.241029 0
M  V30 21 C 38.644471 28.908755 58.752959 0
M  V30 22 N 37.867405 27.294881 56.895204 0 CFG=1 CHG=1
M  V30 23 C 38.612992 27.533876 53.933366 0
M  V30 24 C 41.265943 29.441945 63.596003 0
M  V30 25 C 39.037980 28.427565 54.954673 0
M  V30 26 C 40.748412 28.167428 60.027102 0
M  V30 27 C 44.383545 32.238616 66.716155 0
M  V30 28 C 40.845095 28.908480 67.205512 0 CFG=2
M  V30 29 C 39.019386 28.017229 56.406117 0 CFG=1
M  V30 30 O 38.172528 26.285881 54.253988 0
M  V30 31 S 40.589075 27.680289 57.261214 0
M  V30 32 O 42.983175 29.586995 66.509824 0
M  V30 33 O 44.831339 30.975869 66.335433 0
M  V30 34 H 41.067401 30.669013 68.487995 0
M  V30 35 H 40.523346 29.221489 69.340341 0
M  V30 36 H 42.197917 29.376486 68.860392 0
M  V30 37 H 43.354656 30.876697 64.956427 0
M  V30 38 H 40.471706 27.221422 68.010995 0
M  V30 39 H 38.311338 27.252323 51.810375 0
M  V30 40 H 39.089372 29.525571 51.201511 0
M  V30 41 H 42.243520 28.049323 64.789017 0
M  V30 42 H 39.787156 30.418990 55.357261 0
M  V30 43 H 41.311942 30.545583 65.885144 0
M  V30 44 H 43.787321 31.759278 68.476213 0
M  V30 45 H 38.446065 26.283216 58.789515 0
M  V30 46 H 45.067444 30.021429 63.021036 0
M  V30 47 H 46.296382 30.369962 64.262533 0
M  V30 48 H 46.209983 28.778122 63.453513 0
M  V30 49 H 36.392619 24.821421 58.553332 0
M  V30 50 H 36.076649 25.459281 56.872705 0
M  V30 51 H 37.235223 29.283945 57.033158 0
M  V30 52 H 41.067350 30.046256 61.052768 0
M  V30 53 H 39.506749 29.335771 61.384539 0
M  V30 54 H 40.399083 27.788326 62.796448 0
M  V30 55 H 38.323986 24.682923 56.103876 0
M  V30 56 H 38.644034 23.987393 57.761520 0
M  V30 57 H 40.643810 29.664624 58.487329 0
M  V30 58 H 39.817731 31.110778 52.972791 0
M  V30 59 H 38.156812 28.279985 59.494153 0
M  V30 60 H 38.421751 29.934540 59.048869 0
M  V30 61 H 42.117565 30.081792 63.367159 0
M  V30 62 H 40.385642 30.081591 63.681639 0
M  V30 63 H 40.267416 27.221441 60.244818 0
M  V30 64 H 41.810464 27.959050 59.889391 0
M  V30 65 H 45.235583 32.796359 67.107943 0
M  V30 66 H 43.976377 32.792938 65.868926 0
M  V30 67 H 39.788230 29.054540 66.974698 0
M  V30 68 H 37.909976 25.782756 53.495615 0
M  V30 69 H 41.948967 28.021468 62.297148 0
M  V30 70 H 37.209555 27.182375 56.135915 0
M  V30 END ATOM
M  V30 BEGIN BOND
M  V30 1 1 5 4
M  V30 2 1 8 6
M  V30 3 1 12 2
M  V30 4 2 12 10
M  V30 5 1 13 12
M  V30 6 1 14 11
M  V30 7 1 17 16
M  V30 8 1 18 11
M  V30 9 1 18 14
M  V30 10 2 20 5
M  V30 11 1 20 7
M  V30 12 1 21 15
M  V30 13 1 21 19
M  V30 14 1 22 11
M  V30 15 1 22 15
M  V30 16 2 23 4
M  V30 17 1 24 6
M  V30 18 1 24 17
M  V30 19 2 25 7
M  V30 20 1 25 23
M  V30 21 1 26 16
M  V30 22 1 26 19
M  V30 23 1 27 9
M  V30 24 1 28 1
M  V30 25 1 28 3
M  V30 26 1 28 8
M  V30 27 1 29 15
M  V30 28 1 29 22
M  V30 29 1 29 25 CFG=3
M  V30 30 1 30 23
M  V30 31 1 31 19
M  V30 32 1 31 29
M  V30 33 1 32 2
M  V30 34 1 32 8
M  V30 35 1 33 2
M  V30 36 1 33 27
M  V30 37 1 34 1
M  V30 38 1 35 1
M  V30 39 1 36 1
M  V30 40 1 2 37 CFG=3
M  V30 41 1 38 3
M  V30 42 1 39 4
M  V30 43 1 40 5
M  V30 44 1 41 6
M  V30 45 1 42 7
M  V30 46 1 8 43 CFG=3
M  V30 47 1 44 9
M  V30 48 1 45 11
M  V30 49 1 46 13
M  V30 50 1 47 13
M  V30 51 1 48 13
M  V30 52 1 49 14
M  V30 53 1 50 14
M  V30 54 1 15 51 CFG=3
M  V30 55 1 52 16
M  V30 56 1 53 16
M  V30 57 1 54 17
M  V30 58 1 55 18
M  V30 59 1 56 18
M  V30 60 1 19 57 CFG=3
M  V30 61 1 58 20
M  V30 62 1 59 21
M  V30 63 1 60 21
M  V30 64 1 61 24
M  V30 65 1 62 24
M  V30 66 1 63 26
M  V30 67 1 64 26
M  V30 68 1 65 27
M  V30 69 1 66 27
M  V30 70 1 28 67 CFG=3
M  V30 71 1 68 30
M  V30 72 1 69 17
M  V30 73 1 22 70 CFG=3
M  V30 END BOND
M  V30 END CTAB
M  END
>  <i_epik_Tot_Q>  (1) 
2

>  <i_epik_Tot_abs_Q>  (1) 
2

>  <i_i_glide_confnum>  (1) 
7465

>  <i_i_glide_lignum>  (1) 
81

>  <i_i_glide_posenum>  (1) 
360

>  <i_i_glide_rotatable_bonds>  (1) 
17

>  <i_lp_mmshare_version>  (1) 
72125

>  <i_m_source_file_index>  (1) 
31

>  <i_f3d_flags>  (1) 
0

>  <num_sample>  (1) 
100

>  <b_lp_Chiralities_Consistent>  (1) 
1

>  <r_epik_Charging_Adjusted_Penalty>  (1) 
1.979093595035226

>  <r_epik_Ionization_Penalty>  (1) 
0.79989620662071081

>  <r_epik_Ionization_Penalty_Charging>  (1) 
0.66086891892205935

>  <r_epik_Ionization_Penalty_Neutral>  (1) 
0.13902728769865147

>  <r_epik_State_Penalty>  (1) 
1.3182246761131666

>  <r_glide_ring_energy>  (1) 
0

>  <r_i_docking_score>  (1) 
-5.7441482012820018

>  <r_i_glide_ecoul>  (1) 
-5.9258920039619802

>  <r_i_glide_eff_state_penalty>  (1) 
1.3182246761131666

>  <r_i_glide_einternal>  (1) 
18.087577088407709

>  <r_i_glide_emodel>  (1) 
-62.809911119242557

>  <r_i_glide_emodel_strain>  (1) 
1.6883121024677195

>  <r_i_glide_energy>  (1) 
-46.045682935450131

>  <r_i_glide_erotb>  (1) 
1.1283805066766976

>  <r_i_glide_esite>  (1) 
-0.015269803475526783

>  <r_i_glide_evdw>  (1) 
-40.119790931488154

>  <r_i_glide_gscore>  (1) 
-7.0623728773951688

>  <r_i_glide_gscore_strain>  (1) 
0

>  <r_i_glide_hbond>  (1) 
-0.32000000000000001

>  <r_i_glide_ligand_efficiency>  (1) 
-0.1740650970085455

>  <r_i_glide_ligand_efficiency_ln>  (1) 
-1.2774688183574676

>  <r_i_glide_ligand_efficiency_sa>  (1) 
-0.55831977430896362

>  <r_i_glide_lipo>  (1) 
-3.5044301271815352

>  <r_i_glide_metal>  (1) 
-0

>  <r_i_glide_rewards>  (1) 
-1.4561801062461002

>  <r_lp_Energy>  (1) 
32.029553999999997

>  <r_lp_tautomer_probability>  (1) 
0.99999996999736518

>  <s_epik_Chemistry_Notes>  (1) 
This compound contains an acetal/aminal-like group ( X-CH(R)-Y where X, Y are N, S, or O) that may be acid/base labile, releasing an aldehyde.

>  <s_epik_cmdline>  (1) 
J2VwaWtfcHl0aG9uJywgJy1waHQnLCAnMS4wJywgJy1waCcsICc3LjQnLCAnLXRuJywgJzgnLCAnLW1hJywgJzUwMCcsICctaW1hZScsICc8aW5maWxlLm1hZT4nLCAnLW9tYWUnLCAnPG91dGZpbGUubWFlPic=

>  <s_epik_input>  (1) 
W09IXVtDSDJdT1tDQEBIXShDKD1PKVtDSDNdKU9bQ0BIXShbQ0BIXShbQ0gzXSlbT0hdKVtOSF1bQ0gyXVtOSF1bQ0gyXVtDSDJdW0NAQEhdKFMxKVtDSDJdW0NASF0oTjJbQ0hdM1tDSDJdW0NIMl0zKVtDQEBdMTJjNFtjSF1bY0hdW2NIXVtjSF1jNFtPSF0=

>  <s_glide_docking_method>  (1) 
confgen

>  <s_i_glide_gridfile>  (1) 
gpcr_5ht2c_6bqh_protein_autoprepared_prepared

>  <s_lp_Force_Field>  (1) 
S-OPLS

>  <s_lp_Variant>  (1) 
DiffSBDD_30_num_sample_100-3

>  <s_m_source_file>  (1) 
generated__ligand_DiffSBDD_2026-05-06_prepared.sdf

>  <GenAI_Model>  (1) 
DiffSBDD

>  <Protein>  (1) 
GPCR_5HT2C

$$$$
DiffSBDD_39_num_sample_100
     RDKit          3D

  0  0  0  0  0  0  0  0  0  0999 V3000
M  V30 BEGIN CTAB
M  V30 COUNTS 61 64 0 0 1
M  V30 BEGIN ATOM
M  V30 1 C 39.137370 34.272174 62.247681 0
M  V30 2 C 38.728142 29.762410 59.895601 0
M  V30 3 C 41.867404 31.944379 61.853504 0
M  V30 4 C 39.667835 29.048969 60.890153 0
M  V30 5 C 39.061741 31.793227 62.653488 0
M  V30 6 C 38.944083 29.617166 57.377274 0
M  V30 7 N 38.410988 27.131722 54.420300 0
M  V30 8 O 41.318348 31.865197 60.750187 0 CHG=-1
M  V30 9 C 38.889813 28.986969 55.986024 0
M  V30 10 C 40.540071 33.396457 64.062648 0
M  V30 11 O 42.667411 32.821427 62.183746 0
M  V30 12 C 41.036074 34.700012 64.293333 0
M  V30 13 C 40.582733 35.776833 63.506011 0
M  V30 14 N 39.939038 30.753745 62.784750 0
M  V30 15 C 39.124689 36.711839 61.656839 0
M  V30 16 C 41.838670 31.187051 64.305011 0
M  V30 17 C 38.873594 27.371715 52.036452 0
M  V30 18 C 39.499136 29.410589 62.388622 0
M  V30 19 C 36.939443 37.221431 63.004575 0
M  V30 20 C 39.325605 29.768404 54.879262 0
M  V30 21 C 41.408403 30.886934 62.866839 0 CFG=2
M  V30 22 C 39.472431 28.541391 51.166831 0
M  V30 23 O 37.529940 36.821443 64.028484 0 CHG=-1
M  V30 24 C 39.587511 33.179804 63.001320 0
M  V30 25 S 39.867402 30.038648 52.199620 0
M  V30 26 C 39.299935 29.198284 53.603573 0
M  V30 27 O 39.778760 31.045234 55.053495 0
M  V30 28 C 39.626562 35.559996 62.493223 0
M  V30 29 Cl 37.869807 26.567719 56.932567 0
M  V30 30 C 37.585163 36.910170 61.645482 0
M  V30 31 C 38.429717 27.629908 55.689924 0
M  V30 32 C 38.643559 29.037923 58.562858 0
M  V30 33 C 40.985813 32.256797 64.968363 0
M  V30 34 O 37.910713 31.654994 62.229168 0
M  V30 35 C 38.851977 27.925164 53.428948 0
M  V30 36 O 35.867420 37.865841 62.985928 0
M  V30 37 H 38.417942 34.115699 61.457436 0
M  V30 38 H 39.042299 30.795783 59.746330 0
M  V30 39 H 37.713760 29.800853 60.290346 0
M  V30 40 H 39.488673 27.978085 60.807869 0
M  V30 41 H 40.701883 29.192885 60.578080 0
M  V30 42 H 39.263106 30.649329 57.401917 0
M  V30 43 H 41.751448 34.875502 65.082528 0
M  V30 44 H 40.957036 36.771964 63.688840 0
M  V30 45 H 39.638886 37.637681 61.914590 0
M  V30 46 H 39.431506 36.421445 60.653511 0
M  V30 47 H 42.886753 31.488891 64.320905 0
M  V30 48 H 41.793061 30.277563 64.904769 0
M  V30 49 H 39.490475 26.475213 51.986941 0
M  V30 50 H 37.867463 27.116652 51.713832 0
M  V30 51 H 38.457025 29.305877 62.653501 0
M  V30 52 H 40.029938 28.679351 62.998378 0
M  V30 53 H 41.891271 29.954663 62.576084 0
M  V30 54 H 40.381597 28.211515 50.665945 0
M  V30 55 H 38.770127 28.821109 50.381953 0
M  V30 56 H 39.990102 31.453598 54.226671 0
M  V30 57 H 37.339412 37.721676 60.959565 0
M  V30 58 H 37.094655 36.022235 61.247211 0
M  V30 59 H 38.329089 28.031531 58.622649 0
M  V30 60 H 41.519787 32.657111 65.831001 0
M  V30 61 H 40.086188 31.797490 65.381127 0
M  V30 END ATOM
M  V30 BEGIN BOND
M  V30 1 1 4 2
M  V30 2 1 8 3
M  V30 3 1 9 6
M  V30 4 2 11 3
M  V30 5 1 12 10
M  V30 6 2 13 12
M  V30 7 1 14 5
M  V30 8 1 18 4
M  V30 9 1 18 14
M  V30 10 2 20 9
M  V30 11 1 21 3
M  V30 12 1 21 14
M  V30 13 1 21 16
M  V30 14 1 22 17
M  V30 15 1 23 19
M  V30 16 1 24 1
M  V30 17 1 24 5
M  V30 18 2 24 10
M  V30 19 1 25 22
M  V30 20 1 26 20
M  V30 21 1 26 25
M  V30 22 1 27 20
M  V30 23 2 28 1
M  V30 24 1 28 13
M  V30 25 1 28 15
M  V30 26 1 30 15
M  V30 27 1 30 19
M  V30 28 2 31 7
M  V30 29 1 31 9
M  V30 30 1 31 29
M  V30 31 1 32 2
M  V30 32 2 32 6
M  V30 33 1 33 10
M  V30 34 1 33 16
M  V30 35 2 34 5
M  V30 36 1 35 7
M  V30 37 1 35 17
M  V30 38 2 35 26
M  V30 39 2 36 19
M  V30 40 1 37 1
M  V30 41 1 38 2
M  V30 42 1 39 2
M  V30 43 1 40 4
M  V30 44 1 41 4
M  V30 45 1 42 6
M  V30 46 1 43 12
M  V30 47 1 44 13
M  V30 48 1 45 15
M  V30 49 1 46 15
M  V30 50 1 47 16
M  V30 51 1 48 16
M  V30 52 1 49 17
M  V30 53 1 50 17
M  V30 54 1 51 18
M  V30 55 1 52 18
M  V30 56 1 21 53 CFG=3
M  V30 57 1 54 22
M  V30 58 1 55 22
M  V30 59 1 56 27
M  V30 60 1 57 30
M  V30 61 1 58 30
M  V30 62 1 59 32
M  V30 63 1 60 33
M  V30 64 1 61 33
M  V30 END BOND
M  V30 END CTAB
M  END
>  <i_epik_Tot_Q>  (1) 
-2

>  <i_epik_Tot_abs_Q>  (1) 
2

>  <i_i_glide_confnum>  (1) 
54

>  <i_i_glide_lignum>  (1) 
96

>  <i_i_glide_posenum>  (1) 
195

>  <i_i_glide_rotatable_bonds>  (1) 
10

>  <i_lp_mmshare_version>  (1) 
72125

>  <i_m_source_file_index>  (1) 
40

>  <i_f3d_flags>  (1) 
0

>  <num_sample>  (1) 
100

>  <b_lp_Chiralities_Consistent>  (1) 
1

>  <r_epik_Charging_Adjusted_Penalty>  (1) 
1.1553041349672681

>  <r_epik_Ionization_Penalty>  (1) 
1.0836065631352982

>  <r_epik_Ionization_Penalty_Charging>  (1) 
0.00098582723969229671

>  <r_epik_Ionization_Penalty_Neutral>  (1) 
1.0826207358956059

>  <r_epik_State_Penalty>  (1) 
1.1543183077275758

>  <r_glide_ring_energy>  (1) 
0

>  <r_i_docking_score>  (1) 
-5.743675732748641

>  <r_i_glide_ecoul>  (1) 
-3.2493205576084847

>  <r_i_glide_eff_state_penalty>  (1) 
1.1543183077275758

>  <r_i_glide_einternal>  (1) 
9.1467155384560428

>  <r_i_glide_emodel>  (1) 
-40.168622351046182

>  <r_i_glide_emodel_strain>  (1) 
1.0676331264668733

>  <r_i_glide_energy>  (1) 
-30.003865337214371

>  <r_i_glide_erotb>  (1) 
0.51538728504810294

>  <r_i_glide_esite>  (1) 
0

>  <r_i_glide_evdw>  (1) 
-26.754544779605887

>  <r_i_glide_gscore>  (1) 
-6.8979940404762168

>  <r_i_glide_gscore_strain>  (1) 
0

>  <r_i_glide_hbond>  (1) 
-0.16779789207305926

>  <r_i_glide_ligand_efficiency>  (1) 
-0.15954654813190669

>  <r_i_glide_ligand_efficiency_ln>  (1) 
-1.2531148687002727

>  <r_i_glide_ligand_efficiency_sa>  (1) 
-0.52681109474382093

>  <r_i_glide_lipo>  (1) 
-4.2110926574825847

>  <r_i_glide_metal>  (1) 
-0

>  <r_i_glide_rewards>  (1) 
-1.2093654533471097

>  <r_lp_Energy>  (1) 
56.584314999999997

>  <s_epik_cmdline>  (1) 
J2VwaWtfcHl0aG9uJywgJy1waHQnLCAnMS4wJywgJy1waCcsICc3LjQnLCAnLXRuJywgJzgnLCAnLW1hJywgJzUwMCcsICctaW1hZScsICc8aW5maWxlLm1hZT4nLCAnLW9tYWUnLCAnPG91dGZpbGUubWFlPic=

>  <s_epik_input>  (1) 
W09IXUMoPU8pW0NIMl1bQ0gyXWMoW2NIXVtjSF0xKVtjSF1jKGMxMilDKD1PKU4oW0NAQEhdKEMoPU8pW09IXSlbQ0gyXVtDSDJdMilbQ0gyXVtDSDJdW0NIMl1cW0NIXT1bQ0hdXGMoYzNbT0hdKWMoQ2wpbmMoYzM0KVtDSDJdW0NIMl1TNA==

>  <s_glide_docking_method>  (1) 
confgen

>  <s_i_glide_gridfile>  (1) 
gpcr_5ht2c_6bqh_protein_autoprepared_prepared

>  <s_lp_Force_Field>  (1) 
S-OPLS

>  <s_lp_Variant>  (1) 
DiffSBDD_39_num_sample_100-3

>  <s_m_source_file>  (1) 
generated__ligand_DiffSBDD_2026-05-06_prepared.sdf

>  <GenAI_Model>  (1) 
DiffSBDD

>  <Protein>  (1) 
GPCR_5HT2C

$$$$
DiffSBDD_90_num_sample_100
     RDKit          3D

  0  0  0  0  0  0  0  0  0  0999 V3000
M  V30 BEGIN CTAB
M  V30 COUNTS 85 88 0 0 1
M  V30 BEGIN ATOM
M  V30 1 C 35.355816 31.782553 59.907673 0
M  V30 2 O 39.708133 36.664537 64.876038 0
M  V30 3 F 39.564876 26.567049 54.248525 0
M  V30 4 C 40.008975 29.438392 60.554110 0 CFG=1
M  V30 5 C 38.257393 37.982271 61.686940 0 CFG=2
M  V30 6 C 39.454743 35.889880 60.963806 0 CFG=1
M  V30 7 C 42.184471 29.746738 63.466834 0
M  V30 8 C 38.128207 33.710808 61.032438 0
M  V30 9 C 40.164900 29.443924 62.097853 0
M  V30 10 N 38.694588 36.821497 63.859052 0
M  V30 11 C 38.095202 28.109119 55.209500 0
M  V30 12 C 39.242148 30.435638 62.838791 0
M  V30 13 C 38.267320 36.849998 60.654303 0
M  V30 14 C 40.305728 36.641980 61.989974 0
M  V30 15 O 39.867361 39.643969 61.053531 0
M  V30 16 N 36.763202 31.636455 59.453445 0 CFG=1 CHG=1
M  V30 17 C 39.076051 34.525048 61.532629 0
M  V30 18 F 38.578849 25.986286 56.080094 0
M  V30 19 C 39.885126 28.137236 57.581722 0 CFG=2
M  V30 20 N 36.982295 30.421126 58.653404 0
M  V30 21 C 37.661461 28.746684 56.537644 0
M  V30 22 C 37.272443 32.872012 58.802541 0
M  V30 23 O 41.467435 29.988845 62.260953 0
M  V30 24 C 40.027219 28.021591 62.653593 0
M  V30 25 C 35.165001 33.008619 60.817431 0
M  V30 26 C 40.330357 27.547330 56.231640 0
M  V30 27 C 37.270224 34.010483 59.808317 0 CFG=1
M  V30 28 C 39.319744 37.543824 62.749958 0 CFG=1
M  V30 29 C 40.900475 28.369651 59.895513 0
M  V30 30 O 37.740854 40.094914 60.653214 0 CHG=-1
M  V30 31 C 38.379293 29.996417 58.689613 0 CFG=1
M  V30 32 C 35.822312 34.267306 60.245537 0
M  V30 33 O 36.933831 38.021389 62.231508 0
M  V30 34 C 38.577952 29.262840 60.023423 0
M  V30 35 C 38.836846 29.267403 57.383144 0 CFG=1
M  V30 36 C 41.112833 28.575612 58.406444 0
M  V30 37 C 39.137559 27.009543 55.430312 0
M  V30 38 C 38.656946 39.355125 61.053492 0
M  V30 39 H 35.070287 30.892150 60.465004 0
M  V30 40 H 34.685338 31.853957 59.053591 0
M  V30 41 H 39.751028 35.725058 64.971305 0
M  V30 42 H 40.368124 30.422502 60.252643 0
M  V30 43 H 40.057514 35.690136 60.080813 0
M  V30 44 H 43.086605 30.359172 63.472134 0
M  V30 45 H 41.606751 30.001945 64.353557 0
M  V30 46 H 42.503109 28.706765 63.535369 0
M  V30 47 H 37.944102 32.770854 61.522487 0
M  V30 48 H 38.006906 37.387847 64.339633 0
M  V30 49 H 38.513000 28.880880 54.561589 0
M  V30 50 H 37.227192 27.706752 54.683567 0
M  V30 51 H 38.191679 30.173907 62.755308 0
M  V30 52 H 39.451036 30.453415 63.908619 0
M  V30 53 H 39.383943 31.449792 62.470021 0
M  V30 54 H 38.267403 37.221210 59.629823 0
M  V30 55 H 37.321870 36.348172 60.734917 0
M  V30 56 H 41.031570 37.247110 61.452355 0
M  V30 57 H 40.901977 36.000710 62.639716 0
M  V30 58 H 39.625401 34.206257 62.407467 0
M  V30 59 H 39.399753 27.311703 58.104352 0
M  V30 60 H 36.725037 30.784105 57.741278 0
M  V30 61 H 36.988206 29.570111 56.290614 0
M  V30 62 H 37.104656 28.025828 57.141860 0
M  V30 63 H 36.667498 33.169607 57.946437 0
M  V30 64 H 38.282764 32.756983 58.416587 0
M  V30 65 H 39.029282 27.631427 62.478363 0
M  V30 66 H 40.667722 27.302894 62.179044 0
M  V30 67 H 40.267406 27.972413 63.717314 0
M  V30 68 H 35.576871 32.795806 61.803031 0
M  V30 69 H 34.107119 33.221351 60.970539 0
M  V30 70 H 40.844810 28.321082 55.663347 0
M  V30 71 H 41.050305 26.741792 56.385600 0
M  V30 72 H 37.652837 34.860936 59.254552 0
M  V30 73 H 39.867189 38.393086 63.168218 0
M  V30 74 H 41.867430 28.339711 60.385434 0
M  V30 75 H 40.462928 27.383294 60.043575 0
M  V30 76 H 39.000931 30.885725 58.727042 0
M  V30 77 H 35.815967 35.016264 61.029219 0
M  V30 78 H 35.239964 34.654126 59.407958 0
M  V30 79 H 36.760745 37.172839 62.606887 0
M  V30 80 H 37.889468 29.694934 60.733048 0
M  V30 81 H 38.284698 28.215419 59.954974 0
M  V30 82 H 39.318429 30.033333 56.772537 0
M  V30 83 H 41.373521 29.618069 58.253425 0
M  V30 84 H 41.985954 27.993286 58.111155 0
M  V30 85 H 37.325747 31.496698 60.278655 0
M  V30 END ATOM
M  V30 BEGIN BOND
M  V30 1 1 9 4
M  V30 2 1 10 2
M  V30 3 1 12 9
M  V30 4 1 13 5
M  V30 5 1 13 6
M  V30 6 1 14 6
M  V30 7 1 16 1
M  V30 8 1 17 6
M  V30 9 2 17 8
M  V30 10 1 20 16
M  V30 11 1 21 11
M  V30 12 1 22 16
M  V30 13 1 23 7
M  V30 14 1 23 9
M  V30 15 1 24 9
M  V30 16 1 25 1
M  V30 17 1 26 19
M  V30 18 1 27 8
M  V30 19 1 27 22
M  V30 20 1 28 5
M  V30 21 1 28 10
M  V30 22 1 28 14
M  V30 23 1 29 4
M  V30 24 1 31 20
M  V30 25 1 32 25
M  V30 26 1 32 27
M  V30 27 1 5 33 CFG=1
M  V30 28 1 34 4
M  V30 29 1 34 31
M  V30 30 1 35 19
M  V30 31 1 35 21
M  V30 32 1 35 31
M  V30 33 1 36 19
M  V30 34 1 36 29
M  V30 35 1 37 3
M  V30 36 1 37 11
M  V30 37 1 37 18
M  V30 38 1 37 26
M  V30 39 1 38 5
M  V30 40 2 38 15
M  V30 41 1 38 30
M  V30 42 1 39 1
M  V30 43 1 40 1
M  V30 44 1 41 2
M  V30 45 1 4 42 CFG=3
M  V30 46 1 6 43 CFG=3
M  V30 47 1 44 7
M  V30 48 1 45 7
M  V30 49 1 46 7
M  V30 50 1 47 8
M  V30 51 1 48 10
M  V30 52 1 49 11
M  V30 53 1 50 11
M  V30 54 1 51 12
M  V30 55 1 52 12
M  V30 56 1 53 12
M  V30 57 1 54 13
M  V30 58 1 55 13
M  V30 59 1 56 14
M  V30 60 1 57 14
M  V30 61 1 58 17
M  V30 62 1 19 59 CFG=1
M  V30 63 1 60 20
M  V30 64 1 61 21
M  V30 65 1 62 21
M  V30 66 1 63 22
M  V30 67 1 64 22
M  V30 68 1 65 24
M  V30 69 1 66 24
M  V30 70 1 67 24
M  V30 71 1 68 25
M  V30 72 1 69 25
M  V30 73 1 70 26
M  V30 74 1 71 26
M  V30 75 1 27 72 CFG=3
M  V30 76 1 28 73 CFG=1
M  V30 77 1 74 29
M  V30 78 1 75 29
M  V30 79 1 31 76 CFG=1
M  V30 80 1 77 32
M  V30 81 1 78 32
M  V30 82 1 79 33
M  V30 83 1 80 34
M  V30 84 1 81 34
M  V30 85 1 35 82 CFG=3
M  V30 86 1 83 36
M  V30 87 1 84 36
M  V30 88 1 16 85 CFG=1
M  V30 END BOND
M  V30 END CTAB
M  END
>  <i_epik_Tot_Q>  (1) 
0

>  <i_epik_Tot_abs_Q>  (1) 
2

>  <i_i_glide_confnum>  (1) 
316

>  <i_i_glide_lignum>  (1) 
237

>  <i_i_glide_posenum>  (1) 
360

>  <i_i_glide_rotatable_bonds>  (1) 
10

>  <i_lp_mmshare_version>  (1) 
72125

>  <i_m_source_file_index>  (1) 
91

>  <i_f3d_flags>  (1) 
0

>  <num_sample>  (1) 
100

>  <b_lp_Chiralities_Consistent>  (1) 
1

>  <r_epik_Charging_Adjusted_Penalty>  (1) 
1.5083745474312953

>  <r_epik_Ionization_Penalty>  (1) 
0.65750586125956467

>  <r_epik_Ionization_Penalty_Charging>  (1) 
0.6544614066189578

>  <r_epik_Ionization_Penalty_Neutral>  (1) 
0.0030444546406068235

>  <r_epik_State_Penalty>  (1) 
0.8539131408123376

>  <r_glide_ring_energy>  (1) 
2.1449054143447501

>  <r_i_docking_score>  (1) 
-5.7393297339637632

>  <r_i_glide_ecoul>  (1) 
-5.2409468031885993

>  <r_i_glide_eff_state_penalty>  (1) 
0.8539131408123376

>  <r_i_glide_einternal>  (1) 
30.409455143068804

>  <r_i_glide_emodel>  (1) 
-10.193557699953022

>  <r_i_glide_emodel_strain>  (1) 
4.9640786493018823

>  <r_i_glide_energy>  (1) 
-27.09800074630159

>  <r_i_glide_erotb>  (1) 
0.42002339013477186

>  <r_i_glide_esite>  (1) 
-0.12992506037753696

>  <r_i_glide_evdw>  (1) 
-21.857053943112991

>  <r_i_glide_gscore>  (1) 
-6.5932428747761005

>  <r_i_glide_gscore_strain>  (1) 
0.24101966232547056

>  <r_i_glide_hbond>  (1) 
-0.68577707176196523

>  <r_i_glide_ligand_efficiency>  (1) 
-0.15103499299904641

>  <r_i_glide_ligand_efficiency_ln>  (1) 
-1.2375683246179041

>  <r_i_glide_ligand_efficiency_sa>  (1) 
-0.50777593202884774

>  <r_i_glide_lipo>  (1) 
-3.0344183571632888

>  <r_i_glide_metal>  (1) 
-0

>  <r_i_glide_rewards>  (1) 
-1.525170720299613

>  <r_lp_Energy>  (1) 
46.065079999999995

>  <s_epik_Chemistry_Notes>  (1) 
This compound has a N-S or N-O group and may undergo hydrolysis at high or low pH.

>  <s_epik_cmdline>  (1) 
J2VwaWtfcHl0aG9uJywgJy1waHQnLCAnMS4wJywgJy1waCcsICc3LjQnLCAnLXRuJywgJzgnLCAnLW1hJywgJzUwMCcsICctaW1hZScsICc8aW5maWxlLm1hZT4nLCAnLW9tYWUnLCAnPG91dGZpbGUubWFlPic=

>  <s_epik_input>  (1) 
RkMoRikoW0NIMl0xKVtDSDJdW0NIMl1bQ0BIXShbQ0BASF0xMilbQ0BIXShbQ0gyXVtDQEhdKFtDSDJdW0NIMl0yKUMoW0NIM10pKFtDSDNdKU9bQ0gzXSlbTkhdTjNbQ0gyXVtDSDJdW0NIMl1bQ0BIXShbQ0gyXTMpL1tDSF09W0NIXVxbQ0BASF0oW0NIMl1bQ0BdNChbT0hdKUMoPU8pW09IXSlbQ0gyXVtDQEBIXTRbTkhdW09IXQ==

>  <s_glide_docking_method>  (1) 
confgen

>  <s_i_glide_gridfile>  (1) 
gpcr_5ht2c_6bqh_protein_autoprepared_prepared

>  <s_lp_Force_Field>  (1) 
S-OPLS

>  <s_lp_Variant>  (1) 
DiffSBDD_90_num_sample_100-9

>  <s_m_source_file>  (1) 
generated__ligand_DiffSBDD_2026-05-06_prepared.sdf

>  <GenAI_Model>  (1) 
DiffSBDD

>  <Protein>  (1) 
GPCR_5HT2C

$$$$
DiffSBDD_2_num_sample_100
     RDKit          3D

  0  0  0  0  0  0  0  0  0  0999 V3000
M  V30 BEGIN CTAB
M  V30 COUNTS 51 51 0 0 1
M  V30 BEGIN ATOM
M  V30 1 C 38.727430 26.607936 54.347110 0
M  V30 2 C 37.889592 32.823719 58.359259 0
M  V30 3 O 37.255744 34.250177 61.029308 0
M  V30 4 O 36.184985 31.699385 60.822007 0
M  V30 5 C 36.936564 34.000385 58.629880 0
M  V30 6 F 40.383229 30.925761 50.043208 0
M  V30 7 C 39.923190 29.988417 50.901084 0
M  V30 8 C 39.343425 28.270374 58.379975 0
M  V30 9 O 39.236253 28.725959 59.518474 0
M  V30 10 C 37.867362 28.755003 56.384395 0
M  V30 11 C 39.208286 28.646691 52.838509 0
M  V30 12 S 39.867404 30.260505 52.592198 0
M  V30 13 C 39.219412 31.506074 56.570764 0
M  V30 14 O 34.451392 32.508669 59.453511 0
M  V30 15 O 37.467404 26.219764 53.853501 0
M  V30 16 N 37.921396 28.918778 54.926012 0
M  V30 17 C 36.281282 34.033514 60.029324 0 CFG=1
M  V30 18 C 39.662959 26.796847 58.145046 0
M  V30 19 C 39.160489 29.157789 57.137821 0 CFG=1
M  V30 20 O 39.033503 30.503615 57.564064 0
M  V30 21 C 35.409891 32.820053 60.438791 0
M  V30 22 C 39.467403 28.772301 50.513738 0
M  V30 23 C 38.346100 32.727464 56.890654 0
M  V30 24 C 39.044086 27.987414 51.631314 0
M  V30 25 C 38.930950 28.132212 54.217620 0 CFG=1
M  V30 26 H 39.513577 26.072499 53.814432 0
M  V30 27 H 38.799577 26.289885 55.385604 0
M  V30 28 H 38.754616 32.873945 59.021518 0
M  V30 29 H 37.361965 31.901771 58.589763 0
M  V30 30 H 37.618658 33.405788 61.255941 0
M  V30 31 H 36.681269 31.411787 60.069583 0
M  V30 32 H 36.146683 34.004355 57.880304 0
M  V30 33 H 37.467405 34.936979 58.469215 0
M  V30 34 H 37.582855 27.728676 56.612351 0
M  V30 35 H 37.051902 29.361471 56.778716 0
M  V30 36 H 38.977148 31.162239 55.568096 0
M  V30 37 H 40.266541 31.790536 56.522266 0
M  V30 38 H 34.874890 32.348627 58.606922 0
M  V30 39 H 37.387571 25.280571 53.915602 0
M  V30 40 H 38.005818 29.899592 54.680003 0
M  V30 41 H 35.634722 34.911269 60.038244 0
M  V30 42 H 40.533254 26.688465 57.497571 0
M  V30 43 H 39.867428 26.301697 59.092086 0
M  V30 44 H 38.817104 26.286691 57.687100 0
M  V30 45 H 40.064922 29.055716 56.541986 0
M  V30 46 H 34.844338 33.101657 61.328424 0
M  V30 47 H 39.417946 28.421456 49.496917 0
M  V30 48 H 37.467398 32.682277 56.252422 0
M  V30 49 H 38.877364 33.625275 56.589532 0
M  V30 50 H 38.654448 26.985684 51.519486 0
M  V30 51 H 39.867434 28.298893 54.729455 0
M  V30 END ATOM
M  V30 BEGIN BOND
M  V30 1 1 5 2
M  V30 2 1 7 6
M  V30 3 2 9 8
M  V30 4 1 12 7
M  V30 5 1 12 11
M  V30 6 1 15 1
M  V30 7 1 16 10
M  V30 8 1 17 3
M  V30 9 1 17 5
M  V30 10 1 18 8
M  V30 11 1 19 8
M  V30 12 1 19 10
M  V30 13 1 20 13
M  V30 14 1 20 19
M  V30 15 1 21 4
M  V30 16 1 21 14
M  V30 17 1 21 17
M  V30 18 2 22 7
M  V30 19 1 23 2
M  V30 20 1 23 13
M  V30 21 2 24 11
M  V30 22 1 24 22
M  V30 23 1 25 1
M  V30 24 1 25 11
M  V30 25 1 25 16
M  V30 26 1 26 1
M  V30 27 1 27 1
M  V30 28 1 28 2
M  V30 29 1 29 2
M  V30 30 1 30 3
M  V30 31 1 31 4
M  V30 32 1 32 5
M  V30 33 1 33 5
M  V30 34 1 34 10
M  V30 35 1 35 10
M  V30 36 1 36 13
M  V30 37 1 37 13
M  V30 38 1 38 14
M  V30 39 1 39 15
M  V30 40 1 40 16
M  V30 41 1 17 41 CFG=3
M  V30 42 1 42 18
M  V30 43 1 43 18
M  V30 44 1 44 18
M  V30 45 1 19 45 CFG=3
M  V30 46 1 46 21
M  V30 47 1 47 22
M  V30 48 1 48 23
M  V30 49 1 49 23
M  V30 50 1 50 24
M  V30 51 1 25 51 CFG=1
M  V30 END BOND
M  V30 END CTAB
M  END
>  <i_epik_Tot_Q>  (1) 
0

>  <i_epik_Tot_abs_Q>  (1) 
0

>  <i_i_glide_confnum>  (1) 
1107

>  <i_i_glide_lignum>  (1) 
19

>  <i_i_glide_posenum>  (1) 
87

>  <i_i_glide_rotatable_bonds>  (1) 
17

>  <i_lp_mmshare_version>  (1) 
72125

>  <i_m_source_file_index>  (1) 
3

>  <i_f3d_flags>  (1) 
0

>  <num_sample>  (1) 
100

>  <b_lp_Chiralities_Consistent>  (1) 
1

>  <r_epik_Charging_Adjusted_Penalty>  (1) 
0.24690330696891949

>  <r_epik_Ionization_Penalty>  (1) 
0.24690406667086767

>  <r_epik_Ionization_Penalty_Charging>  (1) 
0

>  <r_epik_Ionization_Penalty_Neutral>  (1) 
0.24690406667086767

>  <r_epik_State_Penalty>  (1) 
0.24690330696891949

>  <r_glide_ring_energy>  (1) 
0

>  <r_i_docking_score>  (1) 
-5.7361058556397762

>  <r_i_glide_ecoul>  (1) 
-5.5704278912301239

>  <r_i_glide_eff_state_penalty>  (1) 
0.24690330696891949

>  <r_i_glide_einternal>  (1) 
19.100522302139485

>  <r_i_glide_emodel>  (1) 
-46.654736041239083

>  <r_i_glide_emodel_strain>  (1) 
3.1183585011509365

>  <r_i_glide_energy>  (1) 
-42.988027226900357

>  <r_i_glide_erotb>  (1) 
1.4813531079748476

>  <r_i_glide_esite>  (1) 
-0.0018123585950558714

>  <r_i_glide_evdw>  (1) 
-37.417599335670232

>  <r_i_glide_gscore>  (1) 
-5.9830091626086954

>  <r_i_glide_gscore_strain>  (1) 
0

>  <r_i_glide_hbond>  (1) 
-0.20701340777991881

>  <r_i_glide_ligand_efficiency>  (1) 
-0.22944423422559104

>  <r_i_glide_ligand_efficiency_ln>  (1) 
-1.3596289850078662

>  <r_i_glide_ligand_efficiency_sa>  (1) 
-0.67089901080629588

>  <r_i_glide_lipo>  (1) 
-2.4410078497986873

>  <r_i_glide_metal>  (1) 
-0

>  <r_i_glide_rewards>  (1) 
-2.1080845039418512

>  <r_lp_Energy>  (1) 
16.825317999999999

>  <r_lp_tautomer_probability>  (1) 
0.9999999700000004

>  <s_epik_Chemistry_Notes>  (1) 
This compound contains an acetal/aminal-like group ( X-CH(R)-Y where X, Y are N, S, or O) that may be acid/base labile, releasing an aldehyde.

>  <s_epik_cmdline>  (1) 
J2VwaWtfcHl0aG9uJywgJy1waHQnLCAnMS4wJywgJy1waCcsICc3LjQnLCAnLXRuJywgJzgnLCAnLW1hJywgJzUwMCcsICctaW1hZScsICc8aW5maWxlLm1hZT4nLCAnLW9tYWUnLCAnPG91dGZpbGUubWFlPic=

>  <s_epik_input>  (1) 
RmMxc2MoW2NIXVtjSF0xKVtDQEhdKFtDSDJdW09IXSlbTkhdW0NIMl1bQ0BIXShDKD1PKVtDSDNdKU9bQ0gyXVtDSDJdW0NIMl1bQ0gyXVtDQEhdKFtPSF0pW0NIXShbT0hdKVtPSF0=

>  <s_glide_docking_method>  (1) 
confgen

>  <s_i_glide_gridfile>  (1) 
gpcr_5ht2c_6bqh_protein_autoprepared_prepared

>  <s_lp_Force_Field>  (1) 
S-OPLS

>  <s_lp_Variant>  (1) 
DiffSBDD_2_num_sample_100-1

>  <s_m_source_file>  (1) 
generated__ligand_DiffSBDD_2026-05-06_prepared.sdf

>  <GenAI_Model>  (1) 
DiffSBDD

>  <Protein>  (1) 
GPCR_5HT2C

$$$$
DiffSBDD_1_num_sample_100
     RDKit          3D

  0  0  0  0  0  0  0  0  0  0999 V3000
M  V30 BEGIN CTAB
M  V30 COUNTS 62 65 0 0 1
M  V30 BEGIN ATOM
M  V30 1 C 36.662219 37.254719 61.869882 0
M  V30 2 C 38.788599 28.935171 57.111063 0
M  V30 3 O 35.867379 39.223407 62.573274 0
M  V30 4 C 37.967825 29.768615 59.367392 0 CFG=1
M  V30 5 C 37.298519 36.338087 60.906716 0
M  V30 6 C 36.769020 31.950697 59.445502 0
M  V30 7 C 39.460616 30.564382 53.569481 0
M  V30 8 C 39.052440 26.802674 56.170130 0
M  V30 9 N 39.026436 27.838847 55.109871 0 CHG=1
M  V30 10 C 39.988367 32.429683 61.228279 0
M  V30 11 C 37.198661 34.837394 61.189051 0
M  V30 12 C 38.730934 30.330954 54.911075 0 CFG=2
M  V30 13 C 39.335357 29.150116 55.718301 0 CFG=1
M  V30 14 C 37.794758 32.430411 60.494625 0 CFG=2
M  V30 15 C 39.603476 33.916061 61.101606 0
M  V30 16 C 36.531138 38.519879 61.642667 0
M  V30 17 N 36.669664 30.474334 59.463050 0
M  V30 18 C 38.535273 29.946239 57.965856 0
M  V30 19 O 37.867367 36.729805 59.890601 0
M  V30 20 C 37.200717 30.235124 54.728728 0
M  V30 21 C 35.384697 38.127133 63.452047 0
M  V30 22 C 38.966309 30.302499 60.427264 0
M  V30 23 C 38.537265 27.488910 57.442702 0
M  V30 24 N 39.067372 31.753325 60.343496 0
M  V30 25 O 37.263123 32.106604 61.774052 0
M  V30 26 C 36.107244 36.735666 63.123996 0
M  V30 27 C 38.190269 33.916877 60.465273 0 CFG=2
M  V30 28 O 39.317470 29.456077 52.698815 0
M  V30 29 H 37.810648 28.711297 59.564803 0
M  V30 30 H 37.072029 32.293124 58.453602 0
M  V30 31 H 35.791833 32.398871 59.625481 0
M  V30 32 H 40.521979 30.747788 53.737616 0
M  V30 33 H 39.067964 31.456007 53.079693 0
M  V30 34 H 40.085393 26.482952 56.315008 0
M  V30 35 H 38.466398 25.926153 55.892850 0
M  V30 36 H 38.082435 27.903564 54.756708 0
M  V30 37 H 39.841953 32.085222 62.253570 0
M  V30 38 H 41.027868 32.243094 60.957434 0
M  V30 39 H 36.182813 34.538804 60.933869 0
M  V30 40 H 37.306538 34.675002 62.253523 0
M  V30 41 H 38.907970 31.238225 55.488230 0
M  V30 42 H 40.419606 29.249545 55.800582 0
M  V30 43 H 39.615051 34.390937 62.084096 0
M  V30 44 H 40.284509 34.467757 60.459433 0
M  V30 45 H 36.853610 39.089348 60.783641 0
M  V30 46 H 36.057420 30.187909 58.702480 0
M  V30 47 H 38.737505 30.962261 57.659180 0
M  V30 48 H 36.926415 29.391600 54.097109 0
M  V30 49 H 36.674721 30.124585 55.679022 0
M  V30 50 H 36.810572 31.142398 54.267118 0
M  V30 51 H 35.467401 38.382852 64.503124 0
M  V30 52 H 34.317291 38.016539 63.253273 0
M  V30 53 H 38.654863 30.000207 61.427823 0
M  V30 54 H 39.948507 29.854693 60.266694 0
M  V30 55 H 39.074055 27.163088 58.335079 0
M  V30 56 H 37.467633 27.318736 57.580839 0
M  V30 57 H 36.321636 32.107372 61.673143 0
M  V30 58 H 35.433287 35.884310 63.053510 0
M  V30 59 H 36.905674 36.528205 63.836863 0
M  V30 60 H 38.278192 34.207441 59.416475 0
M  V30 61 H 39.626483 29.698383 51.837411 0
M  V30 62 H 39.644503 27.641937 54.335480 0
M  V30 END ATOM
M  V30 BEGIN BOND
M  V30 1 1 5 1
M  V30 2 1 9 8
M  V30 3 1 11 5
M  V30 4 1 12 7
M  V30 5 1 13 2
M  V30 6 1 13 9
M  V30 7 1 13 12
M  V30 8 1 14 6
M  V30 9 1 15 10
M  V30 10 2 16 1
M  V30 11 1 16 3
M  V30 12 1 17 4
M  V30 13 1 17 6
M  V30 14 2 18 2
M  V30 15 1 18 4
M  V30 16 2 19 5
M  V30 17 1 20 12
M  V30 18 1 21 3
M  V30 19 1 22 4
M  V30 20 1 23 2
M  V30 21 1 23 8
M  V30 22 1 24 10
M  V30 23 1 24 14
M  V30 24 1 24 22
M  V30 25 1 14 25 CFG=1
M  V30 26 1 26 1
M  V30 27 1 26 21
M  V30 28 1 27 11
M  V30 29 1 27 14
M  V30 30 1 27 15
M  V30 31 1 28 7
M  V30 32 1 4 29 CFG=1
M  V30 33 1 30 6
M  V30 34 1 31 6
M  V30 35 1 32 7
M  V30 36 1 33 7
M  V30 37 1 34 8
M  V30 38 1 35 8
M  V30 39 1 36 9
M  V30 40 1 37 10
M  V30 41 1 38 10
M  V30 42 1 39 11
M  V30 43 1 40 11
M  V30 44 1 12 41 CFG=1
M  V30 45 1 13 42 CFG=1
M  V30 46 1 43 15
M  V30 47 1 44 15
M  V30 48 1 45 16
M  V30 49 1 46 17
M  V30 50 1 47 18
M  V30 51 1 48 20
M  V30 52 1 49 20
M  V30 53 1 50 20
M  V30 54 1 51 21
M  V30 55 1 52 21
M  V30 56 1 53 22
M  V30 57 1 54 22
M  V30 58 1 55 23
M  V30 59 1 56 23
M  V30 60 1 57 25
M  V30 61 1 58 26
M  V30 62 1 59 26
M  V30 63 1 27 60 CFG=3
M  V30 64 1 61 28
M  V30 65 1 62 9
M  V30 END BOND
M  V30 END CTAB
M  END
>  <i_epik_Tot_Q>  (1) 
1

>  <i_epik_Tot_abs_Q>  (1) 
1

>  <i_i_glide_confnum>  (1) 
14

>  <i_i_glide_lignum>  (1) 
7

>  <i_i_glide_posenum>  (1) 
397

>  <i_i_glide_rotatable_bonds>  (1) 
8

>  <i_lp_mmshare_version>  (1) 
72125

>  <i_m_source_file_index>  (1) 
2

>  <i_f3d_flags>  (1) 
0

>  <num_sample>  (1) 
100

>  <b_lp_Chiralities_Consistent>  (1) 
1

>  <r_epik_Charging_Adjusted_Penalty>  (1) 
0.089223518210420474

>  <r_epik_Ionization_Penalty>  (1) 
0.15303808439063821

>  <r_epik_Ionization_Penalty_Charging>  (1) 
0.0017986555257548985

>  <r_epik_Ionization_Penalty_Neutral>  (1) 
0.15123942886488331

>  <r_epik_State_Penalty>  (1) 
0.08742486268466558

>  <r_glide_ring_energy>  (1) 
0

>  <r_i_docking_score>  (1) 
-5.7325703886744162

>  <r_i_glide_ecoul>  (1) 
-3.4318735279362653

>  <r_i_glide_eff_state_penalty>  (1) 
0.08742486268466558

>  <r_i_glide_einternal>  (1) 
6.4485079645250725

>  <r_i_glide_emodel>  (1) 
-47.787929853099854

>  <r_i_glide_emodel_strain>  (1) 
0.56926761919159219

>  <r_i_glide_energy>  (1) 
-37.348365584764025

>  <r_i_glide_erotb>  (1) 
0.76037187950223806

>  <r_i_glide_esite>  (1) 
0

>  <r_i_glide_evdw>  (1) 
-33.916492056827757

>  <r_i_glide_gscore>  (1) 
-5.8199952513590816

>  <r_i_glide_gscore_strain>  (1) 
0

>  <r_i_glide_hbond>  (1) 
-0.17078736762351249

>  <r_i_glide_ligand_efficiency>  (1) 
-0.20473465673837202

>  <r_i_glide_ligand_efficiency_ln>  (1) 
-1.3232455612864356

>  <r_i_glide_ligand_efficiency_sa>  (1) 
-0.62169500081248985

>  <r_i_glide_lipo>  (1) 
-2.3973335509676352

>  <r_i_glide_metal>  (1) 
-0

>  <r_i_glide_rewards>  (1) 
-1.8016405802383444

>  <r_lp_Energy>  (1) 
13.724687999999999

>  <s_epik_cmdline>  (1) 
J2VwaWtfcHl0aG9uJywgJy1waHQnLCAnMS4wJywgJy1waCcsICc3LjQnLCAnLXRuJywgJzgnLCAnLW1hJywgJzUwMCcsICctaW1hZScsICc8aW5maWxlLm1hZT4nLCAnLW9tYWUnLCAnPG91dGZpbGUubWFlPic=

>  <s_epik_input>  (1) 
W0NIMl0xW0NIMl1PW0NIXT1DMUMoPU8pW0NIMl1bQ0BIXTJbQ0gyXVtDSDJdTihbQ0BAXTIzW09IXSlbQ0gyXVtDQEBIXShbTkhdW0NIMl0zKVxbQ0hdPUM0XFtDQEBIXShbTkhdW0NIMl1bQ0gyXTQpW0NASF0oW0NIM10pW0NIMl1bT0hd

>  <s_glide_docking_method>  (1) 
confgen

>  <s_i_glide_gridfile>  (1) 
gpcr_5ht2c_6bqh_protein_autoprepared_prepared

>  <s_lp_Force_Field>  (1) 
S-OPLS

>  <s_lp_Variant>  (1) 
DiffSBDD_1_num_sample_100-1

>  <s_m_source_file>  (1) 
generated__ligand_DiffSBDD_2026-05-06_prepared.sdf

>  <GenAI_Model>  (1) 
DiffSBDD

>  <Protein>  (1) 
GPCR_5HT2C

$$$$
DiffSBDD_44_num_sample_100
     RDKit          3D

  0  0  0  0  0  0  0  0  0  0999 V3000
M  V30 BEGIN CTAB
M  V30 COUNTS 58 59 0 0 1
M  V30 BEGIN ATOM
M  V30 1 C 36.238233 34.582653 58.893614 0
M  V30 2 O 37.489983 30.244010 58.698569 0 CHG=-1
M  V30 3 C 39.021618 26.352757 55.655416 0
M  V30 4 C 37.098565 32.744269 60.256419 0 CFG=1
M  V30 5 N 37.135953 32.385636 58.807532 0 CFG=1 CHG=1
M  V30 6 C 39.383339 26.423806 58.074451 0
M  V30 7 N 39.867403 29.356435 56.984485 0
M  V30 8 C 39.598063 26.938468 56.672892 0
M  V30 9 O 41.808028 27.952261 57.061447 0
M  V30 10 C 36.376031 34.115963 60.339292 0 CFG=1
M  V30 11 C 37.102962 35.162270 61.199002 0
M  V30 12 C 38.416319 31.333073 56.819608 0 CFG=1
M  V30 13 C 39.049554 30.046005 56.287405 0
M  V30 14 C 37.179569 33.681331 58.115470 0
M  V30 15 C 42.033702 28.255048 58.432484 0
M  V30 16 C 37.437036 24.482751 55.919394 0
M  V30 17 C 38.122930 31.347645 58.378276 0 CFG=2
M  V30 18 C 40.507658 28.145978 56.504459 0 CFG=2
M  V30 19 F 39.067447 23.621447 57.453499 0
M  V30 20 C 37.930653 24.298009 57.390420 0 CFG=1
M  V30 21 C 38.192907 25.512772 55.099312 0
M  V30 22 C 39.287940 32.509323 56.306116 0
M  V30 23 C 38.635530 29.671378 54.862111 0
M  V30 24 C 36.436108 31.684604 61.154706 0
M  V30 25 C 38.125565 25.555392 58.269423 0
M  V30 26 H 36.472409 35.638199 58.747888 0
M  V30 27 H 35.215160 34.422180 58.549049 0
M  V30 28 H 38.131319 32.873659 60.584608 0
M  V30 29 H 40.269233 25.859216 58.364969 0
M  V30 30 H 39.292839 27.274641 58.750343 0
M  V30 31 H 35.368588 33.987591 60.738547 0
M  V30 32 H 38.159709 35.236491 60.940626 0
M  V30 33 H 36.667115 36.153259 61.072873 0
M  V30 34 H 37.024242 34.922773 62.253495 0
M  V30 35 H 37.467107 31.413489 56.306683 0
M  V30 36 H 38.194444 34.064055 58.179069 0
M  V30 37 H 36.889418 33.621448 57.070112 0
M  V30 38 H 43.067392 28.003265 58.653524 0
M  V30 39 H 41.900696 29.313905 58.653295 0
M  V30 40 H 41.419378 27.683397 59.120945 0
M  V30 41 H 36.390781 24.788859 55.930110 0
M  V30 42 H 37.467061 23.529572 55.391749 0
M  V30 43 H 39.067328 31.602860 58.856319 0
M  V30 44 H 40.724122 28.233786 55.453506 0
M  V30 45 H 37.206677 23.646624 57.876219 0
M  V30 46 H 37.995365 25.536423 54.038359 0
M  V30 47 H 39.990760 32.217087 55.524387 0
M  V30 48 H 38.682800 33.298792 55.863558 0
M  V30 49 H 39.867383 32.951897 57.109413 0
M  V30 50 H 38.063258 30.475694 54.399588 0
M  V30 51 H 39.499109 29.505206 54.218996 0
M  V30 52 H 37.999497 28.788009 54.862770 0
M  V30 53 H 36.395267 32.034475 62.183409 0
M  V30 54 H 35.420586 31.456993 60.828470 0
M  V30 55 H 37.003773 30.754993 61.163097 0
M  V30 56 H 38.267413 25.221419 59.292518 0
M  V30 57 H 37.229391 26.173329 58.233911 0
M  V30 58 H 36.245510 31.990512 58.516977 0
M  V30 END ATOM
M  V30 BEGIN BOND
M  V30 1 1 5 4
M  V30 2 2 8 3
M  V30 3 1 8 6
M  V30 4 1 10 1
M  V30 5 1 10 4
M  V30 6 1 11 10
M  V30 7 2 13 7
M  V30 8 1 13 12
M  V30 9 1 14 1
M  V30 10 1 14 5
M  V30 11 1 15 9
M  V30 12 1 17 2
M  V30 13 1 17 5
M  V30 14 1 17 12
M  V30 15 1 18 7
M  V30 16 1 18 8
M  V30 17 1 18 9
M  V30 18 1 20 16
M  V30 19 1 20 19
M  V30 20 2 21 3
M  V30 21 1 21 16
M  V30 22 1 22 12
M  V30 23 1 23 13
M  V30 24 1 24 4
M  V30 25 1 25 6
M  V30 26 1 25 20
M  V30 27 1 26 1
M  V30 28 1 27 1
M  V30 29 1 4 28 CFG=1
M  V30 30 1 29 6
M  V30 31 1 30 6
M  V30 32 1 10 31 CFG=1
M  V30 33 1 32 11
M  V30 34 1 33 11
M  V30 35 1 34 11
M  V30 36 1 12 35 CFG=3
M  V30 37 1 36 14
M  V30 38 1 37 14
M  V30 39 1 38 15
M  V30 40 1 39 15
M  V30 41 1 40 15
M  V30 42 1 41 16
M  V30 43 1 42 16
M  V30 44 1 17 43 CFG=1
M  V30 45 1 18 44 CFG=3
M  V30 46 1 20 45 CFG=1
M  V30 47 1 46 21
M  V30 48 1 47 22
M  V30 49 1 48 22
M  V30 50 1 49 22
M  V30 51 1 50 23
M  V30 52 1 51 23
M  V30 53 1 52 23
M  V30 54 1 53 24
M  V30 55 1 54 24
M  V30 56 1 55 24
M  V30 57 1 56 25
M  V30 58 1 57 25
M  V30 59 1 5 58 CFG=3
M  V30 END BOND
M  V30 END CTAB
M  END
>  <i_epik_Tot_Q>  (1) 
0

>  <i_epik_Tot_abs_Q>  (1) 
2

>  <i_i_glide_confnum>  (1) 
10

>  <i_i_glide_lignum>  (1) 
108

>  <i_i_glide_posenum>  (1) 
217

>  <i_i_glide_rotatable_bonds>  (1) 
6

>  <i_lp_mmshare_version>  (1) 
72125

>  <i_m_source_file_index>  (1) 
45

>  <i_f3d_flags>  (1) 
0

>  <num_sample>  (1) 
100

>  <b_lp_Chiralities_Consistent>  (1) 
1

>  <r_epik_Charging_Adjusted_Penalty>  (1) 
0.41733257654759531

>  <r_epik_Ionization_Penalty>  (1) 
0.0069177268181324029

>  <r_epik_Ionization_Penalty_Charging>  (1) 
0.0066527375949913311

>  <r_epik_Ionization_Penalty_Neutral>  (1) 
0.00026498922314107146

>  <r_epik_State_Penalty>  (1) 
0.41067983895260396

>  <r_glide_ring_energy>  (1) 
0

>  <r_i_docking_score>  (1) 
-5.7290020966087347

>  <r_i_glide_ecoul>  (1) 
-1.9806900285023814

>  <r_i_glide_eff_state_penalty>  (1) 
0.41067983895260396

>  <r_i_glide_einternal>  (1) 
4.524420956522718

>  <r_i_glide_emodel>  (1) 
-40.156452240531728

>  <r_i_glide_emodel_strain>  (1) 
0.9181610954807411

>  <r_i_glide_energy>  (1) 
-30.207481231367179

>  <r_i_glide_erotb>  (1) 
0.61440649929112812

>  <r_i_glide_esite>  (1) 
-0.17132950659791502

>  <r_i_glide_evdw>  (1) 
-28.226791202864799

>  <r_i_glide_gscore>  (1) 
-6.139681935561339

>  <r_i_glide_gscore_strain>  (1) 
0

>  <r_i_glide_hbond>  (1) 
-0.14381227024779517

>  <r_i_glide_ligand_efficiency>  (1) 
-0.22916008386434938

>  <r_i_glide_ligand_efficiency_ln>  (1) 
-1.3579451812350296

>  <r_i_glide_ligand_efficiency_sa>  (1) 
-0.67006815010970566

>  <r_i_glide_lipo>  (1) 
-2.6317246133308063

>  <r_i_glide_metal>  (1) 
-0

>  <r_i_glide_rewards>  (1) 
-2.0987789802573529

>  <r_lp_Energy>  (1) 
13.770411999999999

>  <r_lp_tautomer_probability>  (1) 
0.49999399997599986

>  <s_epik_Chemistry_Notes>  (1) 
This compound has an imine and may undergo hydrolysis. This compound contains an acetal/aminal-like group ( X-CH(R)-Y where X, Y are N, S, or O) that may be acid/base labile, releasing an aldehyde.

>  <s_epik_cmdline>  (1) 
J2VwaWtfcHl0aG9uJywgJy1waHQnLCAnMS4wJywgJy1waCcsICc3LjQnLCAnLXRuJywgJzgnLCAnLW1hJywgJzUwMCcsICctaW1hZScsICc8aW5maWxlLm1hZT4nLCAnLW9tYWUnLCAnPG91dGZpbGUubWFlPic=

>  <s_epik_input>  (1) 
W0NIM11bQ0BIXTFbQ0gyXVtDSDJdTihbQ0BASF0xW0NIM10pW0NAQEhdKFtPSF0pW0NAQEhdKFtDSDNdKVxDKFtDSDNdKT1OXFtDQEBIXShPW0NIM10pQzI9Qz1bQ0hdW0NIMl1bQ0BASF0oRilbQ0gyXVtDSDJdMg==

>  <s_glide_docking_method>  (1) 
confgen

>  <s_i_glide_gridfile>  (1) 
gpcr_5ht2c_6bqh_protein_autoprepared_prepared

>  <s_lp_Force_Field>  (1) 
S-OPLS

>  <s_lp_Variant>  (1) 
DiffSBDD_44_num_sample_100-1

>  <s_m_source_file>  (1) 
generated__ligand_DiffSBDD_2026-05-06_prepared.sdf

>  <GenAI_Model>  (1) 
DiffSBDD

>  <Protein>  (1) 
GPCR_5HT2C

$$$$
DiffSBDD_50_num_sample_100
     RDKit          3D

  0  0  0  0  0  0  0  0  0  0999 V3000
M  V30 BEGIN CTAB
M  V30 COUNTS 54 56 0 0 1
M  V30 BEGIN ATOM
M  V30 1 C 38.722394 27.968213 51.538513 0 CFG=1
M  V30 2 N 38.267421 28.983052 52.473436 0
M  V30 3 C 38.587292 26.894494 56.270399 0
M  V30 4 C 39.068691 28.226361 56.906051 0 CFG=1
M  V30 5 N 37.067404 31.057462 58.653504 0 CHG=1
M  V30 6 C 38.128294 33.127427 59.651095 0
M  V30 7 O 39.867405 27.310732 59.026425 0
M  V30 8 C 36.551113 34.346599 61.187953 0
M  V30 9 C 38.241633 30.425065 58.026760 0 CFG=1
M  V30 10 C 35.949442 32.080747 60.568622 0
M  V30 11 C 37.710553 34.310495 60.516450 0
M  V30 12 C 39.640855 28.605819 50.503018 0
M  V30 13 C 37.813721 28.272943 53.662218 0
M  V30 14 C 38.527928 26.904773 53.675759 0 CFG=1
M  V30 15 C 39.396186 26.941059 52.421742 0
M  V30 16 S 40.267403 30.141668 51.198144 0
M  V30 17 C 35.631032 33.238497 61.161548 0
M  V30 18 F 38.531293 35.370386 60.594903 0
M  V30 19 C 39.361611 29.914579 52.749446 0
M  V30 20 C 37.293247 31.829430 59.892374 0 CFG=1
M  V30 21 C 39.320262 26.558126 54.956854 0
M  V30 22 C 37.899171 29.002762 57.553472 0
M  V30 23 O 38.462973 31.291988 56.932933 0
M  V30 24 C 40.266354 27.989865 57.853065 0
M  V30 25 H 37.867321 27.501197 51.053677 0
M  V30 26 H 38.730725 26.079140 56.980620 0
M  V30 27 H 37.512026 26.908490 56.086502 0
M  V30 28 H 39.446149 28.861282 56.104193 0
M  V30 29 H 36.524689 31.604300 57.973834 0
M  V30 30 H 39.192908 32.932517 59.784103 0
M  V30 31 H 38.005915 33.460366 58.619442 0
M  V30 32 H 39.397667 27.904270 59.589742 0
M  V30 33 H 36.303365 35.223975 61.767430 0
M  V30 34 H 39.093139 30.427672 58.706307 0
M  V30 35 H 35.240630 31.264967 60.570654 0
M  V30 36 H 39.093270 28.821423 49.587904 0
M  V30 37 H 40.453580 27.929253 50.253391 0
M  V30 38 H 36.740356 28.106670 53.564205 0
M  V30 39 H 37.952998 28.877089 54.554391 0
M  V30 40 H 37.757240 26.144492 53.536991 0
M  V30 41 H 40.414459 27.221433 52.653502 0
M  V30 42 H 39.467442 26.021429 51.872338 0
M  V30 43 H 34.667319 33.340789 61.639225 0
M  V30 44 H 38.983461 30.868650 53.117317 0
M  V30 45 H 40.034341 29.530413 53.511765 0
M  V30 46 H 37.841807 31.191363 60.586597 0
M  V30 47 H 40.294196 27.045975 54.952395 0
M  V30 48 H 39.540227 25.489457 54.936313 0
M  V30 49 H 37.077880 29.082185 56.841474 0
M  V30 50 H 37.507886 28.421439 58.388798 0
M  V30 51 H 37.728154 31.245822 56.333914 0
M  V30 52 H 40.749427 28.926990 58.129238 0
M  V30 53 H 41.029777 27.394173 57.350493 0
M  V30 54 H 36.455970 30.298395 58.911662 0
M  V30 END ATOM
M  V30 BEGIN BOND
M  V30 1 1 2 1
M  V30 2 1 4 3
M  V30 3 1 9 5
M  V30 4 1 11 6
M  V30 5 2 11 8
M  V30 6 1 12 1
M  V30 7 1 13 2
M  V30 8 1 14 13
M  V30 9 1 15 1
M  V30 10 1 15 14
M  V30 11 1 16 12
M  V30 12 1 17 8
M  V30 13 2 17 10
M  V30 14 1 18 11
M  V30 15 1 19 2
M  V30 16 1 19 16
M  V30 17 1 20 5
M  V30 18 1 20 6
M  V30 19 1 20 10
M  V30 20 1 21 3
M  V30 21 1 21 14
M  V30 22 1 22 4
M  V30 23 1 22 9
M  V30 24 1 23 9
M  V30 25 1 24 4
M  V30 26 1 24 7
M  V30 27 1 1 25 CFG=3
M  V30 28 1 26 3
M  V30 29 1 27 3
M  V30 30 1 4 28 CFG=3
M  V30 31 1 29 5
M  V30 32 1 30 6
M  V30 33 1 31 6
M  V30 34 1 32 7
M  V30 35 1 33 8
M  V30 36 1 9 34 CFG=1
M  V30 37 1 35 10
M  V30 38 1 36 12
M  V30 39 1 37 12
M  V30 40 1 38 13
M  V30 41 1 39 13
M  V30 42 1 14 40 CFG=3
M  V30 43 1 41 15
M  V30 44 1 42 15
M  V30 45 1 43 17
M  V30 46 1 44 19
M  V30 47 1 45 19
M  V30 48 1 20 46 CFG=1
M  V30 49 1 47 21
M  V30 50 1 48 21
M  V30 51 1 49 22
M  V30 52 1 50 22
M  V30 53 1 51 23
M  V30 54 1 52 24
M  V30 55 1 53 24
M  V30 56 1 54 5
M  V30 END BOND
M  V30 END CTAB
M  END
>  <i_epik_Tot_Q>  (1) 
1

>  <i_epik_Tot_abs_Q>  (1) 
1

>  <i_i_glide_confnum>  (1) 
527

>  <i_i_glide_lignum>  (1) 
135

>  <i_i_glide_posenum>  (1) 
232

>  <i_i_glide_rotatable_bonds>  (1) 
10

>  <i_lp_mmshare_version>  (1) 
72125

>  <i_m_source_file_index>  (1) 
51

>  <i_f3d_flags>  (1) 
0

>  <num_sample>  (1) 
100

>  <b_lp_Chiralities_Consistent>  (1) 
1

>  <r_epik_Charging_Adjusted_Penalty>  (1) 
2.5903076652609913

>  <r_epik_Ionization_Penalty>  (1) 
1.4636165094899594

>  <r_epik_Ionization_Penalty_Charging>  (1) 
1.2951538326304957

>  <r_epik_Ionization_Penalty_Neutral>  (1) 
0.1684626768594637

>  <r_epik_State_Penalty>  (1) 
1.2951538326304957

>  <r_glide_ring_energy>  (1) 
0

>  <r_i_docking_score>  (1) 
-5.7206042263896268

>  <r_i_glide_ecoul>  (1) 
-5.9896393477944612

>  <r_i_glide_eff_state_penalty>  (1) 
1.2951538326304957

>  <r_i_glide_einternal>  (1) 
10.972040361081536

>  <r_i_glide_emodel>  (1) 
-54.509740984545104

>  <r_i_glide_emodel_strain>  (1) 
0.97949398399834564

>  <r_i_glide_energy>  (1) 
-39.933207900972242

>  <r_i_glide_erotb>  (1) 
0.89870886967847008

>  <r_i_glide_esite>  (1) 
-0.15239670648741208

>  <r_i_glide_evdw>  (1) 
-33.943568553177784

>  <r_i_glide_gscore>  (1) 
-7.0157580590201221

>  <r_i_glide_gscore_strain>  (1) 
0

>  <r_i_glide_hbond>  (1) 
-0.20000000000000001

>  <r_i_glide_ligand_efficiency>  (1) 
-0.23835850943290113

>  <r_i_glide_ligand_efficiency_ln>  (1) 
-1.3692030927981651

>  <r_i_glide_ligand_efficiency_sa>  (1) 
-0.68754491561743203

>  <r_i_glide_lipo>  (1) 
-3.28782527442447

>  <r_i_glide_metal>  (1) 
-0

>  <r_i_glide_rewards>  (1) 
-1.6786206179586516

>  <r_lp_Energy>  (1) 
5.0849209999999996

>  <s_epik_Chemistry_Notes>  (1) 
This compound contains an acetal/aminal-like group ( X-CH(R)-Y where X, Y are N, S, or O) that may be acid/base labile, releasing an aldehyde.

>  <s_epik_cmdline>  (1) 
J2VwaWtfcHl0aG9uJywgJy1waHQnLCAnMS4wJywgJy1waCcsICc3LjQnLCAnLXRuJywgJzgnLCAnLW1hJywgJzUwMCcsICctaW1hZScsICc8aW5maWxlLm1hZT4nLCAnLW9tYWUnLCAnPG91dGZpbGUubWFlPic=

>  <s_epik_input>  (1) 
W0NIMl0xU1tDSDJdTihbQ0BASF0xMilbQ0gyXVtDQEBIXShbQ0gyXTIpW0NIMl1bQ0gyXVtDQEhdKFtDSDJdW09IXSlbQ0gyXVtDQEBIXShbT0hdKVtOSF1bQ0BASF0oW0NIMl0zKVtDSF09W0NIXVtDSF09QzNG

>  <s_glide_docking_method>  (1) 
confgen

>  <s_i_glide_gridfile>  (1) 
gpcr_5ht2c_6bqh_protein_autoprepared_prepared

>  <s_lp_Force_Field>  (1) 
S-OPLS

>  <s_lp_Variant>  (1) 
DiffSBDD_50_num_sample_100-2

>  <s_m_source_file>  (1) 
generated__ligand_DiffSBDD_2026-05-06_prepared.sdf

>  <GenAI_Model>  (1) 
DiffSBDD

>  <Protein>  (1) 
GPCR_5HT2C

$$$$
DiffSBDD_46_num_sample_100
     RDKit          3D

  0  0  0  0  0  0  0  0  0  0999 V3000
M  V30 BEGIN CTAB
M  V30 COUNTS 67 70 0 0 1
M  V30 BEGIN ATOM
M  V30 1 N 39.786432 31.346402 61.607309 0 CHG=-1
M  V30 2 N 38.061897 28.550853 56.569880 0
M  V30 3 C 36.644127 33.220046 59.045167 0
M  V30 4 C 43.726504 25.413768 67.453443 0
M  V30 5 C 38.051654 31.141163 58.141888 0
M  V30 6 O 41.812694 32.148426 64.537262 0
M  V30 7 O 41.465924 34.430047 62.741255 0
M  V30 8 C 43.073384 27.451326 66.268116 0
M  V30 9 N 43.742231 26.592658 67.141893 0
M  V30 10 F 41.807415 25.621127 65.330949 0
M  V30 11 C 37.939583 32.600764 58.563694 0 CFG=2
M  V30 12 N 41.076437 30.126311 63.690251 0
M  V30 13 C 38.708993 30.961500 56.760387 0 CFG=2
M  V30 14 C 41.439252 27.837935 64.505112 0
M  V30 15 C 41.167685 33.329159 61.905716 0
M  V30 16 C 39.096097 29.913959 54.011873 0
M  V30 17 C 38.974374 24.483408 57.330202 0
M  V30 18 C 38.382757 27.195039 56.828583 0
M  V30 19 C 42.100500 26.945086 65.365233 0
M  V30 20 C 38.461006 31.114799 61.605799 0
M  V30 21 C 42.750994 29.621295 65.499159 0
M  V30 22 C 41.759946 29.203714 64.569317 0
M  V30 23 N 43.392978 28.766091 66.327379 0
M  V30 24 C 39.924267 29.391581 55.199946 0
M  V30 25 C 37.786339 24.826111 56.672963 0
M  V30 26 C 40.369898 32.215448 62.630072 0 CFG=2
M  V30 27 C 37.864932 31.467849 55.577337 0
M  V30 28 C 37.487076 26.174638 56.421389 0
M  V30 29 C 37.419480 31.702803 60.927337 0
M  V30 30 C 39.867400 25.487242 57.741310 0
M  V30 31 C 38.653700 31.363658 54.268650 0
M  V30 32 C 41.198044 31.476134 63.713401 0
M  V30 33 C 39.581791 26.834981 57.493858 0
M  V30 34 O 43.867239 24.285970 67.760114 0
M  V30 35 C 39.177216 29.507835 56.540391 0 CFG=2
M  V30 36 N 37.673833 32.822544 59.984103 0 CFG=2 CHG=1
M  V30 37 H 37.254754 28.751908 55.997745 0
M  V30 38 H 35.748860 32.606694 59.127032 0
M  V30 39 H 36.524057 34.301684 59.043349 0
M  V30 40 H 38.673014 30.616712 58.867613 0
M  V30 41 H 37.067464 30.670885 58.169370 0
M  V30 42 H 40.665266 34.739918 63.134917 0
M  V30 43 H 38.766263 33.249599 58.280326 0
M  V30 44 H 40.437532 29.731271 63.011535 0
M  V30 45 H 39.613788 31.570007 56.772903 0
M  V30 46 H 40.693136 27.480074 63.811266 0
M  V30 47 H 40.594470 33.718758 61.063668 0
M  V30 48 H 42.098285 32.934183 61.493778 0
M  V30 49 H 38.221209 29.282084 53.855878 0
M  V30 50 H 39.684831 29.856117 53.095877 0
M  V30 51 H 39.203809 23.446411 57.522827 0
M  V30 52 H 38.160338 30.289191 62.284931 0
M  V30 53 H 43.048621 30.646490 65.583943 0
M  V30 54 H 40.227297 28.355209 55.053247 0
M  V30 55 H 40.843612 29.969814 55.237307 0
M  V30 56 H 37.099943 24.052986 56.359855 0
M  V30 57 H 39.576429 32.714890 63.190031 0
M  V30 58 H 36.949458 30.883536 55.484244 0
M  V30 59 H 37.558616 32.501423 55.739771 0
M  V30 60 H 36.575069 26.421532 55.911711 0
M  V30 61 H 36.383661 31.412120 61.021370 0
M  V30 62 H 40.778574 25.221450 58.252535 0
M  V30 63 H 38.041451 31.734635 53.453456 0
M  V30 64 H 39.523075 32.019226 54.315727 0
M  V30 65 H 40.280557 27.580147 57.822575 0
M  V30 66 H 39.880338 29.363270 57.351036 0
M  V30 67 H 38.213015 33.586764 60.364233 0
M  V30 END ATOM
M  V30 BEGIN BOND
M  V30 1 2 9 4
M  V30 2 1 9 8
M  V30 3 1 11 3
M  V30 4 1 11 5
M  V30 5 1 13 5
M  V30 6 1 15 7
M  V30 7 1 18 2
M  V30 8 2 19 8
M  V30 9 1 19 10
M  V30 10 1 19 14
M  V30 11 1 20 1
M  V30 12 1 22 12
M  V30 13 2 22 14
M  V30 14 1 22 21
M  V30 15 1 23 8
M  V30 16 2 23 21
M  V30 17 1 24 16
M  V30 18 2 25 17
M  V30 19 1 26 1
M  V30 20 1 26 15
M  V30 21 1 27 13
M  V30 22 2 28 18
M  V30 23 1 28 25
M  V30 24 2 29 20
M  V30 25 1 30 17
M  V30 26 1 31 16
M  V30 27 1 31 27
M  V30 28 2 32 6
M  V30 29 1 32 12
M  V30 30 1 32 26
M  V30 31 1 33 18
M  V30 32 2 33 30
M  V30 33 2 34 4
M  V30 34 1 35 2
M  V30 35 1 35 13
M  V30 36 1 35 24
M  V30 37 1 36 3
M  V30 38 1 36 11
M  V30 39 1 36 29
M  V30 40 1 37 2
M  V30 41 1 38 3
M  V30 42 1 39 3
M  V30 43 1 40 5
M  V30 44 1 41 5
M  V30 45 1 42 7
M  V30 46 1 11 43 CFG=3
M  V30 47 1 44 12
M  V30 48 1 13 45 CFG=1
M  V30 49 1 46 14
M  V30 50 1 47 15
M  V30 51 1 48 15
M  V30 52 1 49 16
M  V30 53 1 50 16
M  V30 54 1 51 17
M  V30 55 1 52 20
M  V30 56 1 53 21
M  V30 57 1 54 24
M  V30 58 1 55 24
M  V30 59 1 56 25
M  V30 60 1 26 57 CFG=1
M  V30 61 1 58 27
M  V30 62 1 59 27
M  V30 63 1 60 28
M  V30 64 1 61 29
M  V30 65 1 62 30
M  V30 66 1 63 31
M  V30 67 1 64 31
M  V30 68 1 65 33
M  V30 69 1 35 66 CFG=1
M  V30 70 1 36 67 CFG=1
M  V30 END BOND
M  V30 END CTAB
M  END
>  <i_epik_Tot_Q>  (1) 
0

>  <i_epik_Tot_abs_Q>  (1) 
2

>  <i_i_glide_confnum>  (1) 
2835

>  <i_i_glide_lignum>  (1) 
125

>  <i_i_glide_posenum>  (1) 
18

>  <i_i_glide_rotatable_bonds>  (1) 
13

>  <i_lp_mmshare_version>  (1) 
72125

>  <i_m_source_file_index>  (1) 
47

>  <i_f3d_flags>  (1) 
0

>  <num_sample>  (1) 
100

>  <b_lp_Chiralities_Consistent>  (1) 
1

>  <r_epik_Charging_Adjusted_Penalty>  (1) 
0.33342598172051213

>  <r_epik_Ionization_Penalty>  (1) 
0.027696632267336825

>  <r_epik_Ionization_Penalty_Charging>  (1) 
0.022930597766060493

>  <r_epik_Ionization_Penalty_Neutral>  (1) 
0.0047660345012763301

>  <r_epik_State_Penalty>  (1) 
0.31049538395445164

>  <r_glide_ring_energy>  (1) 
0.011219957445994763

>  <r_i_docking_score>  (1) 
-5.7133071021114095

>  <r_i_glide_ecoul>  (1) 
-1.2909005384886705

>  <r_i_glide_eff_state_penalty>  (1) 
0.31049538395445164

>  <r_i_glide_einternal>  (1) 
11.027044187662955

>  <r_i_glide_emodel>  (1) 
-59.315266065528043

>  <r_i_glide_emodel_strain>  (1) 
0.325802112900476

>  <r_i_glide_energy>  (1) 
-44.927680550236296

>  <r_i_glide_erotb>  (1) 
0.99979395072351473

>  <r_i_glide_esite>  (1) 
-0.032786263683919958

>  <r_i_glide_evdw>  (1) 
-43.636780011747625

>  <r_i_glide_gscore>  (1) 
-6.0238024860658612

>  <r_i_glide_gscore_strain>  (1) 
0

>  <r_i_glide_hbond>  (1) 
0

>  <r_i_glide_ligand_efficiency>  (1) 
-0.15870297505865028

>  <r_i_glide_ligand_efficiency_ln>  (1) 
-1.2464892539608121

>  <r_i_glide_ligand_efficiency_sa>  (1) 
-0.52402567782680176

>  <r_i_glide_lipo>  (1) 
-3.0824329048897301

>  <r_i_glide_metal>  (1) 
-0

>  <r_i_glide_rewards>  (1) 
-1.5329031868550445

>  <r_lp_Energy>  (1) 
58.099483999999997

>  <s_epik_Chemistry_Notes>  (1) 
This compound has an imine and may undergo hydrolysis.

>  <s_epik_cmdline>  (1) 
J2VwaWtfcHl0aG9uJywgJy1waHQnLCAnMS4wJywgJy1waCcsICc3LjQnLCAnLXRuJywgJzgnLCAnLW1hJywgJzUwMCcsICctaW1hZScsICc8aW5maWxlLm1hZT4nLCAnLW9tYWUnLCAnPG91dGZpbGUubWFlPic=

>  <s_epik_input>  (1) 
Tz1DPU5jMWMoRilbY0hdYyhbY0hdbjEpW05IXUMoPU8pW0NAQEhdKFtDSDJdW09IXSkvTj1bQ0hdL1tDSDJdTjJbQ0gyXVtDQEBIXTJbQ0gyXVtDQEBIXTNbQ0gyXVtDSDJdW0NIMl1bQ0gyXVtDQEBIXTNbTkhdYzRbY0hdW2NIXVtjSF1bY0hdW2NIXTQ=

>  <s_glide_docking_method>  (1) 
confgen

>  <s_i_glide_gridfile>  (1) 
gpcr_5ht2c_6bqh_protein_autoprepared_prepared

>  <s_lp_Force_Field>  (1) 
S-OPLS

>  <s_lp_Variant>  (1) 
DiffSBDD_46_num_sample_100-1

>  <s_m_source_file>  (1) 
generated__ligand_DiffSBDD_2026-05-06_prepared.sdf

>  <GenAI_Model>  (1) 
DiffSBDD

>  <Protein>  (1) 
GPCR_5HT2C

$$$$
DiffSBDD_98_num_sample_100
     RDKit          3D

  0  0  0  0  0  0  0  0  0  0999 V3000
M  V30 BEGIN CTAB
M  V30 COUNTS 63 64 0 0 1
M  V30 BEGIN ATOM
M  V30 1 C 39.864315 26.504110 57.974471 0
M  V30 2 C 41.866197 33.336926 63.564857 0
M  V30 3 C 37.467488 27.329521 54.306418 0
M  V30 4 O 36.859929 34.299905 59.469278 0
M  V30 5 C 37.953206 33.431762 59.728701 0
M  V30 6 O 37.575168 26.118212 55.083779 0
M  V30 7 C 38.349817 28.401722 55.003275 0 CFG=2
M  V30 8 C 40.297952 34.847175 62.266997 0
M  V30 9 N 38.978635 31.921850 61.504104 0
M  V30 10 C 36.942152 35.564341 60.108070 0
M  V30 11 C 38.759641 26.232836 55.853043 0 CFG=2
M  V30 12 C 39.732047 32.391556 62.684247 0
M  V30 13 C 39.958191 25.862521 54.943604 0
M  V30 14 C 40.857397 33.410489 62.405413 0 CFG=2
M  V30 15 O 40.281902 30.061983 61.219172 0
M  V30 16 C 38.905647 25.546435 57.211819 0
M  V30 17 C 38.565024 29.144555 59.174371 0
M  V30 18 C 38.615770 27.670606 56.302952 0 CFG=1
M  V30 19 C 37.798910 32.725769 61.100704 0
M  V30 20 C 37.662041 29.766975 55.163596 0
M  V30 21 N 38.456720 30.398748 59.911801 0
M  V30 22 C 39.731314 29.127427 58.162673 0
M  V30 23 C 41.327786 35.906985 61.857364 0
M  V30 24 C 39.802542 27.882465 57.247134 0 CFG=1
M  V30 25 C 39.310312 30.747569 60.892273 0
M  V30 26 H 40.885793 26.124179 57.943192 0
M  V30 27 H 39.588397 26.551951 59.026214 0
M  V30 28 H 41.382917 33.537740 64.521804 0
M  V30 29 H 42.326839 32.350168 63.625100 0
M  V30 30 H 42.667412 34.059351 63.453500 0
M  V30 31 H 37.804148 27.154163 53.283907 0
M  V30 32 H 36.420545 27.621435 54.253493 0
M  V30 33 H 38.900384 33.963262 59.638309 0
M  V30 34 H 37.953392 32.703204 58.919532 0
M  V30 35 H 39.282151 28.536115 54.454660 0
M  V30 36 H 39.503390 34.867983 61.529246 0
M  V30 37 H 39.830677 35.153231 63.203799 0
M  V30 38 H 36.111533 36.187289 59.776651 0
M  V30 39 H 36.876974 35.478948 61.192413 0
M  V30 40 H 37.867400 36.082149 59.853481 0
M  V30 41 H 39.066402 32.821381 63.426318 0
M  V30 42 H 40.146399 31.523671 63.201491 0
M  V30 43 H 40.915872 25.976346 55.450300 0
M  V30 44 H 39.867402 24.818296 54.653521 0
M  V30 45 H 40.007364 26.437763 54.020919 0
M  V30 46 H 41.371516 33.130318 61.484761 0
M  V30 47 H 39.288571 24.527164 57.142259 0
M  V30 48 H 37.939844 25.503204 57.717865 0
M  V30 49 H 38.646118 28.325183 59.888592 0
M  V30 50 H 37.613337 29.011417 58.662349 0
M  V30 51 H 37.700135 27.737697 56.893363 0
M  V30 52 H 36.897012 32.111480 61.107770 0
M  V30 53 H 37.613519 33.479963 61.861340 0
M  V30 54 H 36.737151 29.695818 55.736534 0
M  V30 55 H 38.309663 30.478801 55.674392 0
M  V30 56 H 37.414163 30.193484 54.192092 0
M  V30 57 H 37.681821 31.008506 59.693667 0
M  V30 58 H 39.676951 30.019238 57.538250 0
M  V30 59 H 40.675224 29.205306 58.703264 0
M  V30 60 H 40.837499 36.857549 61.648622 0
M  V30 61 H 42.051188 36.089701 62.651685 0
M  V30 62 H 41.867402 35.613591 60.957603 0
M  V30 63 H 40.701211 27.986539 56.637387 0
M  V30 END ATOM
M  V30 BEGIN BOND
M  V30 1 1 5 4
M  V30 2 1 6 3
M  V30 3 1 7 3
M  V30 4 1 10 4
M  V30 5 1 11 6
M  V30 6 1 12 9
M  V30 7 1 11 13 CFG=3
M  V30 8 1 14 2
M  V30 9 1 14 8
M  V30 10 1 14 12
M  V30 11 1 16 1
M  V30 12 1 16 11
M  V30 13 1 18 7
M  V30 14 1 18 11
M  V30 15 1 19 5
M  V30 16 1 19 9
M  V30 17 1 20 7
M  V30 18 1 21 17
M  V30 19 1 22 17
M  V30 20 1 23 8
M  V30 21 1 24 1
M  V30 22 1 24 18
M  V30 23 1 24 22
M  V30 24 1 25 9
M  V30 25 2 25 15
M  V30 26 1 25 21
M  V30 27 1 26 1
M  V30 28 1 27 1
M  V30 29 1 28 2
M  V30 30 1 29 2
M  V30 31 1 30 2
M  V30 32 1 31 3
M  V30 33 1 32 3
M  V30 34 1 33 5
M  V30 35 1 34 5
M  V30 36 1 7 35 CFG=3
M  V30 37 1 36 8
M  V30 38 1 37 8
M  V30 39 1 38 10
M  V30 40 1 39 10
M  V30 41 1 40 10
M  V30 42 1 41 12
M  V30 43 1 42 12
M  V30 44 1 43 13
M  V30 45 1 44 13
M  V30 46 1 45 13
M  V30 47 1 14 46 CFG=3
M  V30 48 1 47 16
M  V30 49 1 48 16
M  V30 50 1 49 17
M  V30 51 1 50 17
M  V30 52 1 18 51 CFG=1
M  V30 53 1 52 19
M  V30 54 1 53 19
M  V30 55 1 54 20
M  V30 56 1 55 20
M  V30 57 1 56 20
M  V30 58 1 57 21
M  V30 59 1 58 22
M  V30 60 1 59 22
M  V30 61 1 60 23
M  V30 62 1 61 23
M  V30 63 1 62 23
M  V30 64 1 24 63 CFG=3
M  V30 END BOND
M  V30 END CTAB
M  END
>  <i_epik_Tot_Q>  (1) 
0

>  <i_epik_Tot_abs_Q>  (1) 
0

>  <i_i_glide_confnum>  (1) 
990

>  <i_i_glide_lignum>  (1) 
270

>  <i_i_glide_posenum>  (1) 
311

>  <i_i_glide_rotatable_bonds>  (1) 
11

>  <i_lp_mmshare_version>  (1) 
72125

>  <i_m_source_file_index>  (1) 
99

>  <i_f3d_flags>  (1) 
0

>  <num_sample>  (1) 
100

>  <b_lp_Chiralities_Consistent>  (1) 
1

>  <r_epik_Charging_Adjusted_Penalty>  (1) 
0

>  <r_epik_Ionization_Penalty>  (1) 
2.6949826091905801e-05

>  <r_epik_Ionization_Penalty_Charging>  (1) 
0

>  <r_epik_Ionization_Penalty_Neutral>  (1) 
2.6949826091905801e-05

>  <r_epik_State_Penalty>  (1) 
-0

>  <r_glide_ring_energy>  (1) 
0

>  <r_i_docking_score>  (1) 
-5.7080486313782348

>  <r_i_glide_ecoul>  (1) 
-0.35148479391701626

>  <r_i_glide_eff_state_penalty>  (1) 
-0

>  <r_i_glide_einternal>  (1) 
9.539056356012992

>  <r_i_glide_emodel>  (1) 
-46.120289862655319

>  <r_i_glide_emodel_strain>  (1) 
0.071639043957503645

>  <r_i_glide_energy>  (1) 
-37.208362472578585

>  <r_i_glide_erotb>  (1) 
1.3682856871848257

>  <r_i_glide_esite>  (1) 
0

>  <r_i_glide_evdw>  (1) 
-36.856877678661569

>  <r_i_glide_gscore>  (1) 
-5.7080486313782348

>  <r_i_glide_gscore_strain>  (1) 
0

>  <r_i_glide_hbond>  (1) 
-0.034433688053047098

>  <r_i_glide_ligand_efficiency>  (1) 
-0.22832194525512939

>  <r_i_glide_ligand_efficiency_ln>  (1) 
-1.3529785820507187

>  <r_i_glide_ligand_efficiency_sa>  (1) 
-0.66761741794926532

>  <r_i_glide_lipo>  (1) 
-3.6081091153043099

>  <r_i_glide_metal>  (1) 
-0

>  <r_i_glide_rewards>  (1) 
-1.5382249121850731

>  <r_lp_Energy>  (1) 
41.975189

>  <r_lp_tautomer_probability>  (1) 
1

>  <s_epik_cmdline>  (1) 
J2VwaWtfcHl0aG9uJywgJy1waHQnLCAnMS4wJywgJy1waCcsICc3LjQnLCAnLXRuJywgJzgnLCAnLW1hJywgJzUwMCcsICctaW1hZScsICc8aW5maWxlLm1hZT4nLCAnLW9tYWUnLCAnPG91dGZpbGUubWFlPic=

>  <s_epik_input>  (1) 
TzFbQ0gyXVtDQEBIXShbQ0gzXSlbQ0BASF0oW0NAXTEyW0NIM10pW0NASF0oW0NIMl1bQ0gyXTIpW0NIMl1bQ0gyXVtOSF1DKD1PKU4oW0NIMl1bQ0BIXShbQ0gzXSlbQ0gyXVtDSDNdKVtDSDJdW0NIMl1PW0NIM10=

>  <s_glide_docking_method>  (1) 
confgen

>  <s_i_glide_gridfile>  (1) 
gpcr_5ht2c_6bqh_protein_autoprepared_prepared

>  <s_lp_Force_Field>  (1) 
S-OPLS

>  <s_lp_Variant>  (1) 
DiffSBDD_98_num_sample_100-1

>  <s_m_source_file>  (1) 
generated__ligand_DiffSBDD_2026-05-06_prepared.sdf

>  <GenAI_Model>  (1) 
DiffSBDD

>  <Protein>  (1) 
GPCR_5HT2C

$$$$
DiffSBDD_77_num_sample_100
     RDKit          3D

  0  0  0  0  0  0  0  0  0  0999 V3000
M  V30 BEGIN CTAB
M  V30 COUNTS 77 79 0 0 1
M  V30 BEGIN ATOM
M  V30 1 C 41.356755 28.514441 64.934553 0
M  V30 2 F 44.918379 28.087185 64.127989 0
M  V30 3 C 36.199842 34.172849 60.996901 0
M  V30 4 C 41.311227 29.899527 65.191661 0
M  V30 5 C 38.398917 28.812985 57.428358 0
M  V30 6 C 41.755882 32.579555 62.864363 0
M  V30 7 C 38.769762 33.554414 59.518174 0
M  V30 8 C 40.225548 34.208800 61.543681 0 CFG=2
M  V30 9 O 37.350484 30.153141 59.476545 0
M  V30 10 C 38.863085 27.684279 56.478697 0
M  V30 11 N 41.026439 36.323345 66.253597 0
M  V30 12 C 42.440346 32.172853 65.354152 0
M  V30 13 C 43.747953 28.674663 64.473676 0
M  V30 14 O 34.335873 32.171776 59.453364 0
M  V30 15 C 35.280493 31.852845 60.457513 0
M  V30 16 C 42.486070 30.674670 65.088249 0
M  V30 17 F 42.615218 26.572140 64.325289 0
M  V30 18 C 41.447810 35.393948 63.487726 0
M  V30 19 O 40.102472 37.942035 67.531319 0
M  V30 20 O 39.384573 32.132530 62.528801 0
M  V30 21 C 42.573961 27.902668 64.574132 0
M  V30 22 C 39.207818 29.428766 54.696791 0
M  V30 23 N 38.431094 31.317692 57.834837 0
M  V30 24 C 41.210285 34.903911 65.952013 0
M  V30 25 C 43.705433 30.057942 64.731482 0
M  V30 26 C 36.449183 32.825125 60.334226 0
M  V30 27 C 40.266217 36.753527 67.269334 0
M  V30 28 C 39.015150 30.521018 55.639396 0
M  V30 29 C 40.114875 35.142261 62.763775 0
M  V30 30 F 39.464795 29.718977 53.409911 0
M  V30 31 C 39.196668 31.960762 55.192493 0
M  V30 32 C 41.566439 33.003690 64.363461 0 CFG=1
M  V30 33 C 37.775982 31.212441 59.024070 0
M  V30 34 N 39.023649 34.380077 60.713219 0
M  V30 35 C 37.617543 32.539120 59.661048 0
M  V30 36 C 38.644545 30.245532 56.909294 0
M  V30 37 C 39.132422 28.140879 55.060535 0
M  V30 38 C 40.519052 32.743833 61.940596 0 CFG=2
M  V30 39 N 41.757866 34.473381 64.623517 0 CFG=1 CHG=1
M  V30 40 H 40.457152 27.920812 65.012101 0
M  V30 41 H 36.638395 34.204762 61.990380 0
M  V30 42 H 36.554189 35.008561 60.391981 0
M  V30 43 H 35.128092 34.328446 61.116356 0
M  V30 44 H 40.375944 30.365798 65.465342 0
M  V30 45 H 38.883641 28.646187 58.391178 0
M  V30 46 H 37.321660 28.685050 57.549427 0
M  V30 47 H 42.624018 33.076567 62.432211 0
M  V30 48 H 42.005477 31.523225 62.801236 0
M  V30 49 H 39.694236 33.089745 59.185662 0
M  V30 50 H 38.435614 34.184514 58.700134 0
M  V30 51 H 41.069829 34.565150 60.960248 0
M  V30 52 H 38.125638 26.881299 56.462409 0
M  V30 53 H 39.786729 27.242027 56.854520 0
M  V30 54 H 41.493989 37.008340 65.663143 0
M  V30 55 H 43.461795 32.553944 65.371635 0
M  V30 56 H 42.074338 32.292343 66.373998 0
M  V30 57 H 34.715832 32.022206 58.582127 0
M  V30 58 H 34.812139 32.032512 61.424658 0
M  V30 59 H 35.468591 30.789641 60.486650 0
M  V30 60 H 42.267399 35.376402 62.777013 0
M  V30 61 H 41.462703 36.422225 63.826892 0
M  V30 62 H 39.479023 31.191332 62.484359 0
M  V30 63 H 38.692778 32.238711 57.518027 0
M  V30 64 H 40.267828 34.391724 66.127910 0
M  V30 65 H 41.887578 34.525852 66.717820 0
M  V30 66 H 44.607753 30.645924 64.653208 0
M  V30 67 H 39.817970 35.914139 67.825713 0
M  V30 68 H 39.763644 36.111870 62.407368 0
M  V30 69 H 39.353358 34.795918 63.453628 0
M  V30 70 H 39.497760 32.021314 54.149871 0
M  V30 71 H 38.250157 32.496351 55.287065 0
M  V30 72 H 39.943497 32.461665 55.809671 0
M  V30 73 H 40.534248 32.766495 64.623722 0
M  V30 74 H 38.188037 34.401433 61.290291 0
M  V30 75 H 39.283424 27.366354 54.321385 0
M  V30 76 H 40.725586 32.188861 61.026324 0
M  V30 77 H 42.757676 34.585450 64.723325 0
M  V30 END ATOM
M  V30 BEGIN BOND
M  V30 1 2 4 1
M  V30 2 1 10 5
M  V30 3 1 13 2
M  V30 4 1 15 14
M  V30 5 1 16 4
M  V30 6 1 16 12
M  V30 7 1 21 1
M  V30 8 2 21 13
M  V30 9 1 21 17
M  V30 10 1 24 11
M  V30 11 1 25 13
M  V30 12 2 25 16
M  V30 13 1 26 3
M  V30 14 1 26 15
M  V30 15 1 27 11
M  V30 16 2 27 19
M  V30 17 1 28 22
M  V30 18 1 29 8
M  V30 19 1 29 18
M  V30 20 1 30 22
M  V30 21 1 31 28
M  V30 22 1 32 6
M  V30 23 1 32 12
M  V30 24 2 33 9
M  V30 25 1 33 23
M  V30 26 1 34 7
M  V30 27 1 34 8
M  V30 28 1 35 7
M  V30 29 2 35 26
M  V30 30 1 35 33
M  V30 31 1 36 5
M  V30 32 1 36 23
M  V30 33 2 36 28
M  V30 34 1 37 10
M  V30 35 2 37 22
M  V30 36 1 38 6
M  V30 37 1 38 8
M  V30 38 1 38 20
M  V30 39 1 39 18
M  V30 40 1 39 24
M  V30 41 1 39 32
M  V30 42 1 40 1
M  V30 43 1 41 3
M  V30 44 1 42 3
M  V30 45 1 43 3
M  V30 46 1 44 4
M  V30 47 1 45 5
M  V30 48 1 46 5
M  V30 49 1 47 6
M  V30 50 1 48 6
M  V30 51 1 49 7
M  V30 52 1 50 7
M  V30 53 1 8 51 CFG=3
M  V30 54 1 52 10
M  V30 55 1 53 10
M  V30 56 1 54 11
M  V30 57 1 55 12
M  V30 58 1 56 12
M  V30 59 1 57 14
M  V30 60 1 58 15
M  V30 61 1 59 15
M  V30 62 1 60 18
M  V30 63 1 61 18
M  V30 64 1 62 20
M  V30 65 1 63 23
M  V30 66 1 64 24
M  V30 67 1 65 24
M  V30 68 1 66 25
M  V30 69 1 67 27
M  V30 70 1 68 29
M  V30 71 1 69 29
M  V30 72 1 70 31
M  V30 73 1 71 31
M  V30 74 1 72 31
M  V30 75 1 32 73 CFG=1
M  V30 76 1 74 34
M  V30 77 1 75 37
M  V30 78 1 38 76 CFG=3
M  V30 79 1 39 77 CFG=1
M  V30 END BOND
M  V30 END CTAB
M  END
>  <i_epik_Tot_Q>  (1) 
1

>  <i_epik_Tot_abs_Q>  (1) 
1

>  <i_i_glide_confnum>  (1) 
5334

>  <i_i_glide_lignum>  (1) 
194

>  <i_i_glide_posenum>  (1) 
263

>  <i_i_glide_rotatable_bonds>  (1) 
14

>  <i_lp_mmshare_version>  (1) 
72125

>  <i_m_source_file_index>  (1) 
78

>  <i_f3d_flags>  (1) 
0

>  <num_sample>  (1) 
100

>  <b_lp_Chiralities_Consistent>  (1) 
1

>  <r_epik_Charging_Adjusted_Penalty>  (1) 
1.2599673287133732

>  <r_epik_Ionization_Penalty>  (1) 
0.56885031527891383

>  <r_epik_Ionization_Penalty_Charging>  (1) 
0.52000942162343

>  <r_epik_Ionization_Penalty_Neutral>  (1) 
0.048840893655483872

>  <r_epik_State_Penalty>  (1) 
0.73995790708994325

>  <r_glide_ring_energy>  (1) 
0

>  <r_i_docking_score>  (1) 
-5.7076881367202965

>  <r_i_glide_ecoul>  (1) 
-9.0092844788862294

>  <r_i_glide_eff_state_penalty>  (1) 
0.73995790708994325

>  <r_i_glide_einternal>  (1) 
11.553370489526888

>  <r_i_glide_emodel>  (1) 
-58.734220521058987

>  <r_i_glide_emodel_strain>  (1) 
10.157344839035972

>  <r_i_glide_energy>  (1) 
-52.375927059837437

>  <r_i_glide_erotb>  (1) 
0.67934156738045093

>  <r_i_glide_esite>  (1) 
-0.1415095871397464

>  <r_i_glide_evdw>  (1) 
-43.366642580951208

>  <r_i_glide_gscore>  (1) 
-6.4476460438102396

>  <r_i_glide_gscore_strain>  (1) 
1.5393362097589929

>  <r_i_glide_hbond>  (1) 
-0.45599999999999996

>  <r_i_glide_ligand_efficiency>  (1) 
-0.14635097786462298

>  <r_i_glide_ligand_efficiency_ln>  (1) 
-1.2238903588756429

>  <r_i_glide_ligand_efficiency_sa>  (1) 
-0.49630711083082257

>  <r_i_glide_lipo>  (1) 
-2.6394189534531765

>  <r_i_glide_metal>  (1) 
-0

>  <r_i_glide_rewards>  (1) 
-1.9096704794762644

>  <r_lp_Energy>  (1) 
51.282467999999994

>  <s_epik_Chemistry_Notes>  (1) 
This compound contains an acetal/aminal-like group ( X-CH(R)-Y where X, Y are N, S, or O) that may be acid/base labile, releasing an aldehyde.

>  <s_epik_cmdline>  (1) 
J2VwaWtfcHl0aG9uJywgJy1waHQnLCAnMS4wJywgJy1waCcsICc3LjQnLCAnLXRuJywgJzgnLCAnLW1hJywgJzUwMCcsICctaW1hZScsICc8aW5maWxlLm1hZT4nLCAnLW9tYWUnLCAnPG91dGZpbGUubWFlPic=

>  <s_epik_input>  (1) 
RmMxYyhGKVtjSF1bY0hdYyhbY0hdMSlbQ0gyXVtDQEhdKFtDSDJdW0NASF0yW09IXSlOKFtDSDJdW05IXVtDSF09TylbQ0gyXVtDSDJdW0NAQEhdMltOSF1bQ0gyXS9DKD1DKFxbQ0gzXSlbQ0gyXVtPSF0pQyg9TylbTkhdQyg9QzNbQ0gzXSlbQ0gyXVtDSDJdW0NIXT1DM0Y=

>  <s_glide_docking_method>  (1) 
confgen

>  <s_i_glide_gridfile>  (1) 
gpcr_5ht2c_6bqh_protein_autoprepared_prepared

>  <s_lp_Force_Field>  (1) 
S-OPLS

>  <s_lp_Variant>  (1) 
DiffSBDD_77_num_sample_100-5

>  <s_m_source_file>  (1) 
generated__ligand_DiffSBDD_2026-05-06_prepared.sdf

>  <GenAI_Model>  (1) 
DiffSBDD

>  <Protein>  (1) 
GPCR_5HT2C

$$$$
DiffSBDD_4_num_sample_100
     RDKit          3D

  0  0  0  0  0  0  0  0  0  0999 V3000
M  V30 BEGIN CTAB
M  V30 COUNTS 37 37 0 0 1
M  V30 BEGIN ATOM
M  V30 1 C 41.029453 30.421669 50.583116 0
M  V30 2 C 38.352371 28.251045 53.294636 0
M  V30 3 C 39.514974 28.410165 51.034733 0
M  V30 4 C 38.809556 30.045286 54.948276 0
M  V30 5 C 37.878162 29.552025 57.422900 0 CFG=1
M  V30 6 O 37.867403 30.930734 57.748986 0
M  V30 7 C 37.807930 29.316354 55.886537 0
M  V30 8 C 39.858930 30.172887 52.781036 0
M  V30 9 C 38.953040 28.741467 58.212188 0
M  V30 10 N 39.006655 29.515226 53.702771 0
M  V30 11 O 38.668077 27.365093 58.051200 0
M  V30 12 C 38.873973 29.014374 59.724174 0
M  V30 13 O 39.378515 31.069245 55.331632 0
M  V30 14 C 40.113340 29.699485 51.543061 0
M  V30 15 C 40.389378 28.951121 57.732233 0
M  V30 16 C 38.225537 28.093692 51.779929 0
M  V30 17 H 40.665106 30.354094 49.557914 0
M  V30 18 H 41.067386 31.473879 50.845640 0
M  V30 19 H 42.039897 30.021434 50.631468 0
M  V30 20 H 38.924825 27.416813 53.703005 0
M  V30 21 H 37.334375 28.168531 53.675929 0
M  V30 22 H 39.303655 28.483816 49.967296 0
M  V30 23 H 40.251828 27.621430 51.163994 0
M  V30 24 H 36.916827 29.205046 57.806538 0
M  V30 25 H 37.028816 31.293039 57.453897 0
M  V30 26 H 37.867458 28.238171 55.753954 0
M  V30 27 H 36.817070 29.621451 55.546567 0
M  V30 28 H 40.288296 31.092353 53.154477 0
M  V30 29 H 39.331284 26.868876 58.505689 0
M  V30 30 H 39.142712 30.045598 59.955579 0
M  V30 31 H 37.867402 28.851153 60.096928 0
M  V30 32 H 39.545453 28.367784 60.290670 0
M  V30 33 H 40.649027 29.997742 57.853502 0
M  V30 34 H 41.101957 28.369147 58.317885 0
M  V30 35 H 40.527211 28.675859 56.687132 0
M  V30 36 H 37.467402 28.797199 51.453502 0
M  V30 37 H 37.867461 27.098823 51.520379 0
M  V30 END ATOM
M  V30 BEGIN BOND
M  V30 1 1 6 5
M  V30 2 1 7 4
M  V30 3 1 7 5
M  V30 4 1 9 5
M  V30 5 1 10 2
M  V30 6 1 10 4
M  V30 7 1 10 8
M  V30 8 1 11 9
M  V30 9 1 12 9
M  V30 10 2 13 4
M  V30 11 1 14 1
M  V30 12 1 14 3
M  V30 13 2 14 8
M  V30 14 1 15 9
M  V30 15 1 16 2
M  V30 16 1 16 3
M  V30 17 1 17 1
M  V30 18 1 18 1
M  V30 19 1 19 1
M  V30 20 1 20 2
M  V30 21 1 21 2
M  V30 22 1 22 3
M  V30 23 1 23 3
M  V30 24 1 5 24 CFG=1
M  V30 25 1 25 6
M  V30 26 1 26 7
M  V30 27 1 27 7
M  V30 28 1 28 8
M  V30 29 1 29 11
M  V30 30 1 30 12
M  V30 31 1 31 12
M  V30 32 1 32 12
M  V30 33 1 33 15
M  V30 34 1 34 15
M  V30 35 1 35 15
M  V30 36 1 36 16
M  V30 37 1 37 16
M  V30 END BOND
M  V30 END CTAB
M  END
>  <i_epik_Tot_Q>  (1) 
0

>  <i_epik_Tot_abs_Q>  (1) 
0

>  <i_i_glide_confnum>  (1) 
28

>  <i_i_glide_lignum>  (1) 
22

>  <i_i_glide_posenum>  (1) 
366

>  <i_i_glide_rotatable_bonds>  (1) 
6

>  <i_lp_mmshare_version>  (1) 
72125

>  <i_m_source_file_index>  (1) 
5

>  <i_f3d_flags>  (1) 
0

>  <num_sample>  (1) 
100

>  <b_lp_Chiralities_Consistent>  (1) 
1

>  <r_epik_Charging_Adjusted_Penalty>  (1) 
0

>  <r_epik_Ionization_Penalty>  (1) 
1.0105412208656501e-07

>  <r_epik_Ionization_Penalty_Charging>  (1) 
0

>  <r_epik_Ionization_Penalty_Neutral>  (1) 
1.0105412208656501e-07

>  <r_epik_State_Penalty>  (1) 
-0

>  <r_glide_ring_energy>  (1) 
0

>  <r_i_docking_score>  (1) 
-5.7050411775508199

>  <r_i_glide_ecoul>  (1) 
-3.459650349741255

>  <r_i_glide_eff_state_penalty>  (1) 
-0

>  <r_i_glide_einternal>  (1) 
6.256222596383278

>  <r_i_glide_emodel>  (1) 
-37.108874846321427

>  <r_i_glide_emodel_strain>  (1) 
0.4129933184220107

>  <r_i_glide_energy>  (1) 
-28.409528961872507

>  <r_i_glide_erotb>  (1) 
1.3172280880396094

>  <r_i_glide_esite>  (1) 
0

>  <r_i_glide_evdw>  (1) 
-24.949878612131251

>  <r_i_glide_gscore>  (1) 
-5.7050411775508199

>  <r_i_glide_gscore_strain>  (1) 
0

>  <r_i_glide_hbond>  (1) 
-0.16

>  <r_i_glide_ligand_efficiency>  (1) 
-0.35656507359692624

>  <r_i_glide_ligand_efficiency_ln>  (1) 
-1.512235124894225

>  <r_i_glide_ligand_efficiency_sa>  (1) 
-0.8984876837641641

>  <r_i_glide_lipo>  (1) 
-2.4199139339418867

>  <r_i_glide_metal>  (1) 
-0

>  <r_i_glide_rewards>  (1) 
-2.6759138485807918

>  <r_lp_Energy>  (1) 
15.980511999999999

>  <r_lp_tautomer_probability>  (1) 
1

>  <s_epik_cmdline>  (1) 
J2VwaWtfcHl0aG9uJywgJy1waHQnLCAnMS4wJywgJy1waCcsICc3LjQnLCAnLXRuJywgJzgnLCAnLW1hJywgJzUwMCcsICctaW1hZScsICc8aW5maWxlLm1hZT4nLCAnLW9tYWUnLCAnPG91dGZpbGUubWFlPic=

>  <s_epik_input>  (1) 
W0NIM11DKD1bQ0hdMSlbQ0gyXVtDSDJdW0NIMl1OMUMoPU8pW0NIMl1bQ0BIXShbT0hdKUMoW09IXSkoW0NIM10pW0NIM10=

>  <s_glide_docking_method>  (1) 
confgen

>  <s_i_glide_gridfile>  (1) 
gpcr_5ht2c_6bqh_protein_autoprepared_prepared

>  <s_lp_Force_Field>  (1) 
S-OPLS

>  <s_lp_Variant>  (1) 
DiffSBDD_4_num_sample_100-1

>  <s_m_source_file>  (1) 
generated__ligand_DiffSBDD_2026-05-06_prepared.sdf

>  <GenAI_Model>  (1) 
DiffSBDD

>  <Protein>  (1) 
GPCR_5HT2C

$$$$
DiffSBDD_90_num_sample_100
     RDKit          3D

  0  0  0  0  0  0  0  0  0  0999 V3000
M  V30 BEGIN CTAB
M  V30 COUNTS 85 88 0 0 1
M  V30 BEGIN ATOM
M  V30 1 C 39.805243 28.074636 60.529244 0
M  V30 2 O 39.781848 29.813096 50.906030 0
M  V30 3 F 42.781285 32.166405 67.099184 0
M  V30 4 C 39.146502 33.725054 61.324410 0 CFG=1
M  V30 5 C 38.681665 27.502120 53.657272 0 CFG=2
M  V30 6 C 38.476169 29.341931 55.165831 0 CFG=1
M  V30 7 C 37.348793 36.626898 59.756070 0
M  V30 8 C 37.785841 30.278066 57.413606 0
M  V30 9 C 37.905938 34.373481 60.603074 0
M  V30 10 N 38.856294 28.870209 51.512558 0
M  V30 11 C 41.560959 30.708213 65.736943 0
M  V30 12 C 37.595143 33.612974 59.293742 0
M  V30 13 C 37.758958 28.070148 54.736633 0
M  V30 14 C 38.795300 29.986094 53.816762 0
M  V30 15 O 39.652564 26.211675 55.458188 0
M  V30 16 N 39.910704 29.531831 60.507305 0
M  V30 17 C 37.600701 30.161488 56.084671 0
M  V30 18 F 40.667515 32.538628 66.897532 0
M  V30 19 C 40.987973 33.036875 63.978297 0 CFG=2
M  V30 20 N 39.739331 30.019452 61.887021 0 CHG=1
M  V30 21 C 40.541807 30.631772 64.587638 0
M  V30 22 C 38.881771 30.126349 59.649038 0
M  V30 23 O 38.311871 35.701189 60.253518 0
M  V30 24 C 36.638340 34.440343 61.476980 0
M  V30 25 C 39.935561 27.508955 59.111078 0
M  V30 26 C 42.044728 33.130353 65.098506 0
M  V30 27 C 38.912284 29.612253 58.202466 0 CFG=1
M  V30 28 C 39.209862 28.788582 52.929921 0 CFG=1
M  V30 29 C 39.879198 34.681478 62.296416 0
M  V30 30 O 40.584029 26.021431 53.453501 0 CHG=-1
M  V30 31 C 40.092204 31.439421 62.126671 0 CFG=1
M  V30 32 C 38.827968 28.078258 58.229204 0
M  V30 33 O 37.867400 26.821467 52.764514 0
M  V30 34 C 38.847851 32.365419 62.018649 0
M  V30 35 C 40.933859 31.589342 63.427249 0 CFG=1
M  V30 36 C 41.189632 34.132643 62.905109 0
M  V30 37 C 41.758787 32.144977 66.244219 0
M  V30 38 C 39.735910 26.490628 54.242297 0
M  V30 39 H 40.589548 27.655816 61.162263 0
M  V30 40 H 38.846608 27.780859 60.958794 0
M  V30 41 H 39.204572 30.379258 50.413456 0
M  V30 42 H 39.861061 33.537877 60.522200 0
M  V30 43 H 39.422674 29.094788 55.644854 0
M  V30 44 H 37.865894 37.545498 59.479727 0
M  V30 45 H 36.830865 36.266534 58.868196 0
M  V30 46 H 36.610405 36.897814 60.510691 0
M  V30 47 H 37.096263 30.883559 57.982203 0
M  V30 48 H 39.106455 28.002010 51.052088 0
M  V30 49 H 42.516592 30.314337 65.388276 0
M  V30 50 H 41.246123 30.063211 66.558242 0
M  V30 51 H 37.270767 32.594857 59.496227 0
M  V30 52 H 36.790168 34.071607 58.720913 0
M  V30 53 H 38.466968 33.564931 58.640112 0
M  V30 54 H 37.534813 27.384904 55.552876 0
M  V30 55 H 36.793320 28.333819 54.298648 0
M  V30 56 H 39.579331 30.739774 53.888196 0
M  V30 57 H 37.892997 30.469357 53.453494 0
M  V30 58 H 36.771211 30.676951 55.620350 0
M  V30 59 H 40.032296 33.221356 64.459020 0
M  V30 60 H 38.783111 29.835035 62.156220 0
M  V30 61 H 40.500242 29.592228 64.265382 0
M  V30 62 H 39.545105 30.867644 64.960447 0
M  V30 63 H 39.044258 31.201740 59.608937 0
M  V30 64 H 37.892799 29.948721 60.077761 0
M  V30 65 H 36.396747 33.487599 61.943593 0
M  V30 66 H 36.737114 35.196140 62.253489 0
M  V30 67 H 35.769037 34.713957 60.880962 0
M  V30 68 H 40.915271 27.749722 58.696142 0
M  V30 69 H 39.867168 26.421480 59.120154 0
M  V30 70 H 43.031943 32.927908 64.689244 0
M  V30 71 H 42.082202 34.143237 65.502117 0
M  V30 72 H 39.859043 29.911377 57.751315 0
M  V30 73 H 40.267391 28.816603 52.866153 0
M  V30 74 H 40.150159 35.594745 61.764428 0
M  V30 75 H 39.196338 35.000012 63.082858 0
M  V30 76 H 40.770732 31.706322 61.313131 0
M  V30 77 H 37.863702 27.754781 58.608296 0
M  V30 78 H 38.925520 27.653634 57.241674 0
M  V30 79 H 37.328620 27.446024 52.305389 0
M  V30 80 H 38.058220 31.858116 61.470918 0
M  V30 81 H 38.413617 32.533652 63.000729 0
M  V30 82 H 41.951458 31.312675 63.141305 0
M  V30 83 H 41.867581 33.788406 62.123167 0
M  V30 84 H 41.693098 34.983520 63.366609 0
M  V30 85 H 40.343995 29.439121 62.449237 0
M  V30 END ATOM
M  V30 BEGIN BOND
M  V30 1 1 9 4
M  V30 2 1 10 2
M  V30 3 1 12 9
M  V30 4 1 13 5
M  V30 5 1 13 6
M  V30 6 1 14 6
M  V30 7 1 16 1
M  V30 8 1 17 6
M  V30 9 2 17 8
M  V30 10 1 20 16
M  V30 11 1 21 11
M  V30 12 1 22 16
M  V30 13 1 23 7
M  V30 14 1 23 9
M  V30 15 1 24 9
M  V30 16 1 25 1
M  V30 17 1 26 19
M  V30 18 1 27 8
M  V30 19 1 27 22
M  V30 20 1 28 5
M  V30 21 1 28 10
M  V30 22 1 28 14
M  V30 23 1 29 4
M  V30 24 1 31 20
M  V30 25 1 32 25
M  V30 26 1 32 27
M  V30 27 1 5 33 CFG=3
M  V30 28 1 34 4
M  V30 29 1 34 31
M  V30 30 1 35 19
M  V30 31 1 35 21
M  V30 32 1 35 31
M  V30 33 1 36 19
M  V30 34 1 36 29
M  V30 35 1 37 3
M  V30 36 1 37 11
M  V30 37 1 37 18
M  V30 38 1 37 26
M  V30 39 1 38 5
M  V30 40 2 38 15
M  V30 41 1 38 30
M  V30 42 1 39 1
M  V30 43 1 40 1
M  V30 44 1 41 2
M  V30 45 1 4 42 CFG=3
M  V30 46 1 6 43 CFG=1
M  V30 47 1 44 7
M  V30 48 1 45 7
M  V30 49 1 46 7
M  V30 50 1 47 8
M  V30 51 1 48 10
M  V30 52 1 49 11
M  V30 53 1 50 11
M  V30 54 1 51 12
M  V30 55 1 52 12
M  V30 56 1 53 12
M  V30 57 1 54 13
M  V30 58 1 55 13
M  V30 59 1 56 14
M  V30 60 1 57 14
M  V30 61 1 58 17
M  V30 62 1 19 59 CFG=1
M  V30 63 1 60 20
M  V30 64 1 61 21
M  V30 65 1 62 21
M  V30 66 1 63 22
M  V30 67 1 64 22
M  V30 68 1 65 24
M  V30 69 1 66 24
M  V30 70 1 67 24
M  V30 71 1 68 25
M  V30 72 1 69 25
M  V30 73 1 70 26
M  V30 74 1 71 26
M  V30 75 1 27 72 CFG=3
M  V30 76 1 28 73 CFG=3
M  V30 77 1 74 29
M  V30 78 1 75 29
M  V30 79 1 31 76 CFG=3
M  V30 80 1 77 32
M  V30 81 1 78 32
M  V30 82 1 79 33
M  V30 83 1 80 34
M  V30 84 1 81 34
M  V30 85 1 35 82 CFG=3
M  V30 86 1 83 36
M  V30 87 1 84 36
M  V30 88 1 85 20
M  V30 END BOND
M  V30 END CTAB
M  END
>  <i_epik_Tot_Q>  (1) 
0

>  <i_epik_Tot_abs_Q>  (1) 
2

>  <i_i_glide_confnum>  (1) 
741

>  <i_i_glide_lignum>  (1) 
233

>  <i_i_glide_posenum>  (1) 
166

>  <i_i_glide_rotatable_bonds>  (1) 
10

>  <i_lp_mmshare_version>  (1) 
72125

>  <i_m_source_file_index>  (1) 
91

>  <i_f3d_flags>  (1) 
0

>  <num_sample>  (1) 
100

>  <b_lp_Chiralities_Consistent>  (1) 
1

>  <r_epik_Charging_Adjusted_Penalty>  (1) 
1.3235823108087639

>  <r_epik_Ionization_Penalty>  (1) 
0.58520961668590687

>  <r_epik_Ionization_Penalty_Charging>  (1) 
0.5818654171532841

>  <r_epik_Ionization_Penalty_Neutral>  (1) 
0.0033441995326227757

>  <r_epik_State_Penalty>  (1) 
0.74171689365547977

>  <r_glide_ring_energy>  (1) 
0.52270073413304585

>  <r_i_docking_score>  (1) 
-5.7041775181348902

>  <r_i_glide_ecoul>  (1) 
-2.1399488770677872

>  <r_i_glide_eff_state_penalty>  (1) 
0.74171689365547977

>  <r_i_glide_einternal>  (1) 
13.56380039497752

>  <r_i_glide_emodel>  (1) 
-31.78106315925077

>  <r_i_glide_emodel_strain>  (1) 
1.3974852237837041

>  <r_i_glide_energy>  (1) 
-34.953739239337281

>  <r_i_glide_erotb>  (1) 
0.42002339013477186

>  <r_i_glide_esite>  (1) 
0

>  <r_i_glide_evdw>  (1) 
-32.813790362269494

>  <r_i_glide_gscore>  (1) 
-6.4458944117903698

>  <r_i_glide_gscore_strain>  (1) 
0

>  <r_i_glide_hbond>  (1) 
-0.015563887828412009

>  <r_i_glide_ligand_efficiency>  (1) 
-0.15010993468776027

>  <r_i_glide_ligand_efficiency_ln>  (1) 
-1.2299884728117769

>  <r_i_glide_ligand_efficiency_sa>  (1) 
-0.50466590873644879

>  <r_i_glide_lipo>  (1) 
-3.8998637973591528

>  <r_i_glide_metal>  (1) 
-0

>  <r_i_glide_rewards>  (1) 
-0.98880826706393421

>  <r_lp_Energy>  (1) 
57.623837999999999

>  <s_epik_Chemistry_Notes>  (1) 
This compound has a N-S or N-O group and may undergo hydrolysis at high or low pH.

>  <s_epik_cmdline>  (1) 
J2VwaWtfcHl0aG9uJywgJy1waHQnLCAnMS4wJywgJy1waCcsICc3LjQnLCAnLXRuJywgJzgnLCAnLW1hJywgJzUwMCcsICctaW1hZScsICc8aW5maWxlLm1hZT4nLCAnLW9tYWUnLCAnPG91dGZpbGUubWFlPic=

>  <s_epik_input>  (1) 
RkMoRikoW0NIMl0xKVtDSDJdW0NIMl1bQ0BIXShbQ0BASF0xMilbQ0BIXShbQ0gyXVtDQEhdKFtDSDJdW0NIMl0yKUMoW0NIM10pKFtDSDNdKU9bQ0gzXSlbTkhdTjNbQ0gyXVtDSDJdW0NIMl1bQ0BIXShbQ0gyXTMpL1tDSF09W0NIXVxbQ0BASF0oW0NIMl1bQ0BdNChbT0hdKUMoPU8pW09IXSlbQ0gyXVtDQEBIXTRbTkhdW09IXQ==

>  <s_glide_docking_method>  (1) 
confgen

>  <s_i_glide_gridfile>  (1) 
gpcr_5ht2c_6bqh_protein_autoprepared_prepared

>  <s_lp_Force_Field>  (1) 
S-OPLS

>  <s_lp_Variant>  (1) 
DiffSBDD_90_num_sample_100-5

>  <s_m_source_file>  (1) 
generated__ligand_DiffSBDD_2026-05-06_prepared.sdf

>  <GenAI_Model>  (1) 
DiffSBDD

>  <Protein>  (1) 
GPCR_5HT2C

$$$$
DiffSBDD_77_num_sample_100
     RDKit          3D

  0  0  0  0  0  0  0  0  0  0999 V3000
M  V30 BEGIN CTAB
M  V30 COUNTS 77 79 0 0 1
M  V30 BEGIN ATOM
M  V30 1 C 39.867337 30.321756 52.108215 0
M  V30 2 F 39.067411 27.559986 49.853514 0
M  V30 3 C 35.409177 33.680055 61.701519 0
M  V30 4 C 39.754628 29.672348 53.348745 0
M  V30 5 C 39.692333 35.873427 62.371819 0
M  V30 6 C 38.123820 29.220696 56.119033 0
M  V30 7 C 37.970723 31.993360 59.233260 0
M  V30 8 C 38.749260 29.879267 58.518360 0 CFG=2
M  V30 9 O 39.318096 33.375424 61.542271 0
M  V30 10 C 40.263258 37.126418 63.046180 0
M  V30 11 N 38.467766 24.734432 56.221514 0
M  V30 12 C 39.465987 27.522848 54.725947 0
M  V30 13 C 39.279205 28.245360 50.981457 0
M  V30 14 O 33.965967 32.763644 59.453479 0
M  V30 15 C 35.045240 31.953710 59.881337 0
M  V30 16 C 39.425773 28.288709 53.400372 0
M  V30 17 F 39.759722 30.226601 49.726049 0
M  V30 18 C 40.042727 27.786155 57.874467 0
M  V30 19 O 36.644708 25.221430 57.453450 0
M  V30 20 O 36.667380 28.821432 58.116889 0
M  V30 21 C 39.634639 29.607445 50.923714 0
M  V30 22 C 38.892496 38.510967 61.453495 0
M  V30 23 N 37.852337 35.005794 60.901403 0
M  V30 24 C 39.360550 25.621666 56.954196 0
M  V30 25 C 39.171887 27.592621 52.212525 0
M  V30 26 C 36.034999 32.829753 60.610006 0
M  V30 27 C 37.179257 24.602008 56.539779 0
M  V30 28 C 38.194463 37.362775 60.946960 0
M  V30 29 C 39.443129 28.606361 59.015515 0
M  V30 30 F 38.568673 39.728550 60.980865 0
M  V30 31 C 37.077664 37.544907 59.930241 0
M  V30 32 C 38.482861 27.746323 55.891603 0 CFG=1
M  V30 33 C 38.270441 33.726667 61.004384 0
M  V30 34 N 38.224544 30.626212 59.641919 0
M  V30 35 C 37.372372 32.841514 60.301842 0
M  V30 36 C 38.546813 36.134577 61.376389 0
M  V30 37 C 39.828831 38.421395 62.403150 0
M  V30 38 C 37.616665 29.642937 57.499864 0 CFG=2
M  V30 39 N 38.983300 27.054662 57.129252 0 CFG=2 CHG=1
M  V30 40 H 40.142811 31.366336 52.064747 0
M  V30 41 H 34.842476 34.421447 61.175298 0
M  V30 42 H 34.675035 33.095497 62.253500 0
M  V30 43 H 36.050963 34.177407 62.411884 0
M  V30 44 H 39.974319 30.215614 54.250028 0
M  V30 45 H 39.375672 35.188545 63.158807 0
M  V30 46 H 40.520922 35.421680 61.823152 0
M  V30 47 H 39.004368 29.832212 55.962173 0
M  V30 48 H 37.411282 29.526275 55.351015 0
M  V30 49 H 37.320400 32.106121 58.373744 0
M  V30 50 H 38.908931 32.455848 58.921435 0
M  V30 51 H 39.511690 30.479833 58.024999 0
M  V30 52 H 41.351137 37.071135 63.053523 0
M  V30 53 H 39.944814 37.158296 64.088098 0
M  V30 54 H 38.850789 24.194998 55.457267 0
M  V30 55 H 40.473543 27.651378 55.111908 0
M  V30 56 H 39.425585 26.469595 54.453966 0
M  V30 57 H 33.675116 33.297182 60.177267 0
M  V30 58 H 34.677427 31.234173 60.612573 0
M  V30 59 H 35.447550 31.378758 59.053475 0
M  V30 60 H 40.646743 28.412757 57.217501 0
M  V30 61 H 40.747401 27.081970 58.319245 0
M  V30 62 H 35.813926 29.062815 57.781668 0
M  V30 63 H 37.024354 35.187895 60.352923 0
M  V30 64 H 40.342960 25.557921 56.483585 0
M  V30 65 H 39.485987 25.194220 57.949505 0
M  V30 66 H 38.932486 26.540578 52.240979 0
M  V30 67 H 36.675813 23.877371 55.883456 0
M  V30 68 H 40.253939 28.902948 59.684356 0
M  V30 69 H 38.768559 27.992861 59.615593 0
M  V30 70 H 37.467465 38.196082 59.147723 0
M  V30 71 H 36.736120 36.638029 59.431651 0
M  V30 72 H 36.218650 38.021240 60.400353 0
M  V30 73 H 37.547639 27.262316 55.613085 0
M  V30 74 H 37.340085 30.192485 59.892805 0
M  V30 75 H 40.267381 39.314743 62.773152 0
M  V30 76 H 37.067833 30.545156 57.267685 0
M  V30 77 H 38.178206 27.046103 57.745731 0
M  V30 END ATOM
M  V30 BEGIN BOND
M  V30 1 2 4 1
M  V30 2 1 10 5
M  V30 3 1 13 2
M  V30 4 1 15 14
M  V30 5 1 16 4
M  V30 6 1 16 12
M  V30 7 1 21 1
M  V30 8 2 21 13
M  V30 9 1 21 17
M  V30 10 1 24 11
M  V30 11 1 25 13
M  V30 12 2 25 16
M  V30 13 1 26 3
M  V30 14 1 26 15
M  V30 15 1 27 11
M  V30 16 2 27 19
M  V30 17 1 28 22
M  V30 18 1 29 8
M  V30 19 1 29 18
M  V30 20 1 30 22
M  V30 21 1 31 28
M  V30 22 1 32 6
M  V30 23 1 32 12
M  V30 24 2 33 9
M  V30 25 1 33 23
M  V30 26 1 34 7
M  V30 27 1 34 8
M  V30 28 1 35 7
M  V30 29 2 35 26
M  V30 30 1 35 33
M  V30 31 1 36 5
M  V30 32 1 36 23
M  V30 33 2 36 28
M  V30 34 1 37 10
M  V30 35 2 37 22
M  V30 36 1 38 6
M  V30 37 1 38 8
M  V30 38 1 38 20
M  V30 39 1 39 18
M  V30 40 1 39 24
M  V30 41 1 39 32
M  V30 42 1 40 1
M  V30 43 1 41 3
M  V30 44 1 42 3
M  V30 45 1 43 3
M  V30 46 1 44 4
M  V30 47 1 45 5
M  V30 48 1 46 5
M  V30 49 1 47 6
M  V30 50 1 48 6
M  V30 51 1 49 7
M  V30 52 1 50 7
M  V30 53 1 8 51 CFG=3
M  V30 54 1 52 10
M  V30 55 1 53 10
M  V30 56 1 54 11
M  V30 57 1 55 12
M  V30 58 1 56 12
M  V30 59 1 57 14
M  V30 60 1 58 15
M  V30 61 1 59 15
M  V30 62 1 60 18
M  V30 63 1 61 18
M  V30 64 1 62 20
M  V30 65 1 63 23
M  V30 66 1 64 24
M  V30 67 1 65 24
M  V30 68 1 66 25
M  V30 69 1 67 27
M  V30 70 1 68 29
M  V30 71 1 69 29
M  V30 72 1 70 31
M  V30 73 1 71 31
M  V30 74 1 72 31
M  V30 75 1 32 73 CFG=3
M  V30 76 1 74 34
M  V30 77 1 75 37
M  V30 78 1 38 76 CFG=3
M  V30 79 1 39 77 CFG=1
M  V30 END BOND
M  V30 END CTAB
M  END
>  <i_epik_Tot_Q>  (1) 
1

>  <i_epik_Tot_abs_Q>  (1) 
1

>  <i_i_glide_confnum>  (1) 
4092

>  <i_i_glide_lignum>  (1) 
197

>  <i_i_glide_posenum>  (1) 
352

>  <i_i_glide_rotatable_bonds>  (1) 
14

>  <i_lp_mmshare_version>  (1) 
72125

>  <i_m_source_file_index>  (1) 
78

>  <i_f3d_flags>  (1) 
0

>  <num_sample>  (1) 
100

>  <b_lp_Chiralities_Consistent>  (1) 
1

>  <r_epik_Charging_Adjusted_Penalty>  (1) 
1.2599673287133732

>  <r_epik_Ionization_Penalty>  (1) 
0.56885031527891383

>  <r_epik_Ionization_Penalty_Charging>  (1) 
0.52000942162343

>  <r_epik_Ionization_Penalty_Neutral>  (1) 
0.048840893655483872

>  <r_epik_State_Penalty>  (1) 
0.73995790708994325

>  <r_glide_ring_energy>  (1) 
0

>  <r_i_docking_score>  (1) 
-5.6948412858284918

>  <r_i_glide_ecoul>  (1) 
-3.9926286571270446

>  <r_i_glide_eff_state_penalty>  (1) 
0.73995790708994325

>  <r_i_glide_einternal>  (1) 
29.345186571182072

>  <r_i_glide_emodel>  (1) 
-32.095584051390631

>  <r_i_glide_emodel_strain>  (1) 
8.1146366058908797

>  <r_i_glide_energy>  (1) 
-32.489760726421586

>  <r_i_glide_erotb>  (1) 
0.67934156738045093

>  <r_i_glide_esite>  (1) 
0

>  <r_i_glide_evdw>  (1) 
-28.49713206929454

>  <r_i_glide_gscore>  (1) 
-6.4347991929184349

>  <r_i_glide_gscore_strain>  (1) 
1.0286591514727199

>  <r_i_glide_hbond>  (1) 
0

>  <r_i_glide_ligand_efficiency>  (1) 
-0.1460215714314998

>  <r_i_glide_ligand_efficiency_ln>  (1) 
-1.2211356293648907

>  <r_i_glide_ligand_efficiency_sa>  (1) 
-0.49519002396541267

>  <r_i_glide_lipo>  (1) 
-3.4237827534429783

>  <r_i_glide_metal>  (1) 
-0

>  <r_i_glide_rewards>  (1) 
-2.6952662562948428

>  <r_lp_Energy>  (1) 
45.825868999999997

>  <s_epik_Chemistry_Notes>  (1) 
This compound contains an acetal/aminal-like group ( X-CH(R)-Y where X, Y are N, S, or O) that may be acid/base labile, releasing an aldehyde.

>  <s_epik_cmdline>  (1) 
J2VwaWtfcHl0aG9uJywgJy1waHQnLCAnMS4wJywgJy1waCcsICc3LjQnLCAnLXRuJywgJzgnLCAnLW1hJywgJzUwMCcsICctaW1hZScsICc8aW5maWxlLm1hZT4nLCAnLW9tYWUnLCAnPG91dGZpbGUubWFlPic=

>  <s_epik_input>  (1) 
RmMxYyhGKVtjSF1bY0hdYyhbY0hdMSlbQ0gyXVtDQEhdKFtDSDJdW0NASF0yW09IXSlOKFtDSDJdW05IXVtDSF09TylbQ0gyXVtDSDJdW0NAQEhdMltOSF1bQ0gyXVxDKD1DKFxbQ0gzXSlbQ0gyXVtPSF0pQyg9TylbTkhdQyg9QzNbQ0gzXSlbQ0gyXVtDSDJdW0NIXT1DM0Y=

>  <s_glide_docking_method>  (1) 
confgen

>  <s_i_glide_gridfile>  (1) 
gpcr_5ht2c_6bqh_protein_autoprepared_prepared

>  <s_lp_Force_Field>  (1) 
S-OPLS

>  <s_lp_Variant>  (1) 
DiffSBDD_77_num_sample_100-8

>  <s_m_source_file>  (1) 
generated__ligand_DiffSBDD_2026-05-06_prepared.sdf

>  <GenAI_Model>  (1) 
DiffSBDD

>  <Protein>  (1) 
GPCR_5HT2C

$$$$
DiffSBDD_40_num_sample_100
     RDKit          3D

  0  0  0  0  0  0  0  0  0  0999 V3000
M  V30 BEGIN CTAB
M  V30 COUNTS 73 75 0 0 1
M  V30 BEGIN ATOM
M  V30 1 C 38.267417 39.666927 60.432759 0
M  V30 2 C 39.184007 29.352229 54.915623 0 CFG=1
M  V30 3 N 40.428882 30.010477 65.814248 0
M  V30 4 C 38.977890 28.936426 57.553304 0
M  V30 5 C 41.403368 36.279080 63.231621 0
M  V30 6 C 37.519817 34.319369 59.056527 0
M  V30 7 N 40.267711 31.518550 64.000713 0 CHG=1
M  V30 8 C 37.744121 31.234705 58.681049 0
M  V30 9 O 35.867507 31.108468 60.161531 0
M  V30 10 C 36.440385 33.301447 59.466499 0
M  V30 11 C 38.303660 28.203801 54.409851 0
M  V30 12 C 39.218610 30.564298 53.955481 0
M  V30 13 N 41.102110 32.275223 65.828818 0
M  V30 14 C 37.380732 36.094258 61.604699 0 CFG=2
M  V30 15 C 38.743339 29.831130 56.323229 0
M  V30 16 C 39.464201 34.821949 62.465376 0 CFG=1
M  V30 17 C 40.286562 36.109163 62.205265 0 CFG=1
M  V30 18 S 39.776127 27.474579 57.466831 0
M  V30 19 C 40.565046 32.845306 63.756237 0
M  V30 20 N 38.243943 37.262288 61.284329 0 CFG=1 CHG=1
M  V30 21 S 38.348885 29.563874 59.086060 0
M  V30 22 C 37.468846 38.512769 61.054156 0
M  V30 23 C 41.106816 33.323759 64.941681 0
M  V30 24 C 36.980821 31.901281 59.832072 0 CFG=2
M  V30 25 C 39.394649 37.377316 62.217545 0
M  V30 26 O 38.900412 27.149751 53.777305 0
M  V30 27 C 36.551863 36.298795 62.896343 0
M  V30 28 N 37.958390 28.157860 53.204196 0
M  V30 29 C 40.593331 31.203341 65.245812 0
M  V30 30 C 38.217129 34.776609 61.538575 0 CFG=2
M  V30 31 C 40.302907 33.498740 62.429278 0
M  V30 32 C 38.649377 34.463575 60.095200 0
M  V30 33 H 37.612527 40.526857 60.294748 0
M  V30 34 H 39.094265 40.001308 61.056010 0
M  V30 35 H 38.668127 39.404596 59.456236 0
M  V30 36 H 40.206183 28.983487 54.991894 0
M  V30 37 H 40.015949 29.226838 65.321800 0
M  V30 38 H 40.686390 29.826193 66.774364 0
M  V30 39 H 41.008135 36.318176 64.246717 0
M  V30 40 H 42.153141 35.491081 63.177789 0
M  V30 41 H 41.908046 37.220326 63.053463 0
M  V30 42 H 37.955298 34.021392 58.102268 0
M  V30 43 H 37.055926 35.281361 58.842649 0
M  V30 44 H 37.067379 31.191226 57.840980 0
M  V30 45 H 38.599103 31.844363 58.393696 0
M  V30 46 H 35.333445 31.040560 59.379288 0
M  V30 47 H 35.719753 33.222289 58.653529 0
M  V30 48 H 35.870708 33.697346 60.307556 0
M  V30 49 H 39.582504 30.289408 52.964523 0
M  V30 50 H 38.228598 31.009373 53.843599 0
M  V30 51 H 39.883604 31.344014 54.329251 0
M  V30 52 H 41.434101 32.313465 66.784521 0
M  V30 53 H 36.628319 36.040686 60.821908 0
M  V30 54 H 37.675728 30.029911 56.242724 0
M  V30 55 H 39.242331 30.779568 56.520712 0
M  V30 56 H 39.067416 34.940052 63.453418 0
M  V30 57 H 40.774080 36.040286 61.232854 0
M  V30 58 H 36.656127 38.268713 60.374778 0
M  V30 59 H 36.997518 38.853990 61.971149 0
M  V30 60 H 41.480716 34.301525 65.208063 0
M  V30 61 H 37.618723 31.948244 60.713372 0
M  V30 62 H 39.040902 37.592459 63.226074 0
M  V30 63 H 40.010990 38.224073 61.926693 0
M  V30 64 H 35.867413 35.462401 63.053514 0
M  V30 65 H 37.168185 36.421406 63.787235 0
M  V30 66 H 35.909318 37.175872 62.839257 0
M  V30 67 H 37.580465 33.956868 61.865115 0
M  V30 68 H 39.781127 32.738391 61.851805 0
M  V30 69 H 41.252020 33.655508 61.915398 0
M  V30 70 H 39.249503 33.560795 60.025760 0
M  V30 71 H 39.343842 35.252372 59.853498 0
M  V30 72 H 38.650566 37.043237 60.385954 0
M  V30 73 H 39.855730 30.878576 63.332980 0
M  V30 END ATOM
M  V30 BEGIN BOND
M  V30 1 1 10 6
M  V30 2 1 11 2
M  V30 3 1 12 2
M  V30 4 1 15 2
M  V30 5 1 15 4
M  V30 6 1 17 5
M  V30 7 1 17 16
M  V30 8 2 18 4
M  V30 9 1 19 7
M  V30 10 1 20 14
M  V30 11 1 21 4
M  V30 12 1 21 8
M  V30 13 1 22 1
M  V30 14 1 22 20
M  V30 15 1 23 13
M  V30 16 2 23 19
M  V30 17 1 24 8
M  V30 18 1 24 9
M  V30 19 1 24 10
M  V30 20 1 25 17
M  V30 21 1 25 20
M  V30 22 1 26 11
M  V30 23 1 27 14
M  V30 24 2 28 11
M  V30 25 1 28 26
M  V30 26 1 29 3
M  V30 27 2 29 7
M  V30 28 1 29 13
M  V30 29 1 30 14
M  V30 30 1 30 16
M  V30 31 1 31 16
M  V30 32 1 31 19
M  V30 33 1 32 6
M  V30 34 1 32 30
M  V30 35 1 33 1
M  V30 36 1 34 1
M  V30 37 1 35 1
M  V30 38 1 2 36 CFG=1
M  V30 39 1 37 3
M  V30 40 1 38 3
M  V30 41 1 39 5
M  V30 42 1 40 5
M  V30 43 1 41 5
M  V30 44 1 42 6
M  V30 45 1 43 6
M  V30 46 1 44 8
M  V30 47 1 45 8
M  V30 48 1 46 9
M  V30 49 1 47 10
M  V30 50 1 48 10
M  V30 51 1 49 12
M  V30 52 1 50 12
M  V30 53 1 51 12
M  V30 54 1 52 13
M  V30 55 1 14 53 CFG=3
M  V30 56 1 54 15
M  V30 57 1 55 15
M  V30 58 1 16 56 CFG=1
M  V30 59 1 17 57 CFG=3
M  V30 60 1 58 22
M  V30 61 1 59 22
M  V30 62 1 60 23
M  V30 63 1 24 61 CFG=1
M  V30 64 1 62 25
M  V30 65 1 63 25
M  V30 66 1 64 27
M  V30 67 1 65 27
M  V30 68 1 66 27
M  V30 69 1 30 67 CFG=1
M  V30 70 1 68 31
M  V30 71 1 69 31
M  V30 72 1 70 32
M  V30 73 1 71 32
M  V30 74 1 20 72 CFG=3
M  V30 75 1 73 7
M  V30 END BOND
M  V30 END CTAB
M  END
>  <i_epik_Tot_Q>  (1) 
2

>  <i_epik_Tot_abs_Q>  (1) 
2

>  <i_i_glide_confnum>  (1) 
1383

>  <i_i_glide_lignum>  (1) 
100

>  <i_i_glide_posenum>  (1) 
36

>  <i_i_glide_rotatable_bonds>  (1) 
14

>  <i_lp_mmshare_version>  (1) 
72125

>  <i_m_source_file_index>  (1) 
41

>  <i_f3d_flags>  (1) 
0

>  <num_sample>  (1) 
100

>  <b_lp_Chiralities_Consistent>  (1) 
1

>  <r_epik_Charging_Adjusted_Penalty>  (1) 
0.0037096170623772918

>  <r_epik_Ionization_Penalty>  (1) 
0.054330814931534903

>  <r_epik_Ionization_Penalty_Charging>  (1) 
0.0037096170623772918

>  <r_epik_Ionization_Penalty_Neutral>  (1) 
0.050621197869157614

>  <r_epik_State_Penalty>  (1) 
-0

>  <r_glide_ring_energy>  (1) 
0

>  <r_i_docking_score>  (1) 
-5.6945630580383781

>  <r_i_glide_ecoul>  (1) 
-2.7031582626434076

>  <r_i_glide_eff_state_penalty>  (1) 
-0

>  <r_i_glide_einternal>  (1) 
6.5092919450382247

>  <r_i_glide_emodel>  (1) 
-56.74276625709723

>  <r_i_glide_emodel_strain>  (1) 
0.19384245190076399

>  <r_i_glide_energy>  (1) 
-43.408445491753341

>  <r_i_glide_erotb>  (1) 
0.95438045441749597

>  <r_i_glide_esite>  (1) 
0

>  <r_i_glide_evdw>  (1) 
-40.705287229109935

>  <r_i_glide_gscore>  (1) 
-5.6945630580383781

>  <r_i_glide_gscore_strain>  (1) 
0

>  <r_i_glide_hbond>  (1) 
0

>  <r_i_glide_ligand_efficiency>  (1) 
-0.17795509556369932

>  <r_i_glide_ligand_efficiency_ln>  (1) 
-1.2751678966210824

>  <r_i_glide_ligand_efficiency_sa>  (1) 
-0.56497221180183566

>  <r_i_glide_lipo>  (1) 
-2.4592901061401808

>  <r_i_glide_metal>  (1) 
-0

>  <r_i_glide_rewards>  (1) 
-1.7489153054636852

>  <r_lp_Energy>  (1) 
35.145339999999997

>  <r_lp_tautomer_probability>  (1) 
1

>  <s_epik_Chemistry_Notes>  (1) 
This compound has an imine and may undergo hydrolysis.

>  <s_epik_cmdline>  (1) 
J2VwaWtfcHl0aG9uJywgJy1waHQnLCAnMS4wJywgJy1waCcsICc3LjQnLCAnLXRuJywgJzgnLCAnLW1hJywgJzUwMCcsICctaW1hZScsICc8aW5maWxlLm1hZT4nLCAnLW9tYWUnLCAnPG91dGZpbGUubWFlPic=

>  <s_epik_input>  (1) 
W2NIXTFbbkhdYyhbTkgyXSluYzFbQ0gyXVtDQEBIXShbQ0BIXShbQ0gzXSlbQ0gyXU4oW0NAQEhdMltDSDNdKVtDSDJdW0NIM10pW0NAQEhdMltDSDJdW0NIMl1bQ0gyXVtDQEBIXShbT0hdKVtDSDJdU0MoPVMpW0NIMl1bQ0BIXShbQ0gzXSlDMz1OTzM=

>  <s_glide_docking_method>  (1) 
confgen

>  <s_i_glide_gridfile>  (1) 
gpcr_5ht2c_6bqh_protein_autoprepared_prepared

>  <s_lp_Force_Field>  (1) 
S-OPLS

>  <s_lp_Variant>  (1) 
DiffSBDD_40_num_sample_100-1

>  <s_m_source_file>  (1) 
generated__ligand_DiffSBDD_2026-05-06_prepared.sdf

>  <GenAI_Model>  (1) 
DiffSBDD

>  <Protein>  (1) 
GPCR_5HT2C

$$$$
DiffSBDD_40_num_sample_100
     RDKit          3D

  0  0  0  0  0  0  0  0  0  0999 V3000
M  V30 BEGIN CTAB
M  V30 COUNTS 73 75 0 0 1
M  V30 BEGIN ATOM
M  V30 1 C 37.783985 38.271178 59.639991 0
M  V30 2 C 39.123415 29.091103 55.172855 0 CFG=1
M  V30 3 N 40.346253 29.615497 66.066255 0
M  V30 4 C 39.152154 28.921387 57.841045 0
M  V30 5 C 41.867398 35.666580 63.388379 0
M  V30 6 C 37.626311 34.165991 59.269269 0
M  V30 7 N 40.267406 31.092600 64.222928 0 CHG=1
M  V30 8 C 37.499354 31.011479 58.869949 0
M  V30 9 O 35.867426 31.135621 60.653603 0
M  V30 10 C 36.499231 33.221770 59.720795 0
M  V30 11 C 38.269173 27.848544 54.903707 0
M  V30 12 C 38.994144 30.173129 54.075929 0
M  V30 13 N 41.067367 31.863842 66.060454 0
M  V30 14 C 37.799874 36.009894 61.808615 0 CFG=2
M  V30 15 C 38.803660 29.710980 56.564562 0
M  V30 16 C 39.746417 34.478858 62.637958 0 CFG=1
M  V30 17 C 40.734279 35.624159 62.352085 0 CFG=1
M  V30 18 S 40.180276 27.608673 57.830669 0
M  V30 19 C 40.596450 32.409638 63.964374 0
M  V30 20 N 38.836596 36.989624 61.453506 0 CFG=1 CHG=1
M  V30 21 S 38.402804 29.504817 59.341176 0
M  V30 22 C 38.355276 38.332417 61.053479 0
M  V30 23 C 41.115915 32.897132 65.157579 0
M  V30 24 C 36.969956 31.798878 60.081556 0 CFG=2
M  V30 25 C 39.988857 36.974418 62.373882 0
M  V30 26 O 38.865286 26.750123 54.351294 0
M  V30 27 C 37.044981 36.421423 63.096984 0
M  V30 28 N 37.817583 27.631385 53.753245 0
M  V30 29 C 40.551704 30.793413 65.482044 0
M  V30 30 C 38.473579 34.598616 61.730050 0 CFG=2
M  V30 31 C 40.380659 33.048814 62.617459 0
M  V30 32 C 38.818416 34.251579 60.246415 0
M  V30 33 H 37.867395 39.244277 59.156999 0
M  V30 34 H 38.267399 37.544656 58.990593 0
M  V30 35 H 36.738229 37.973275 59.690197 0
M  V30 36 H 40.166121 28.774844 55.156909 0
M  V30 37 H 39.926633 28.834063 65.577075 0
M  V30 38 H 40.572268 29.443170 67.036127 0
M  V30 39 H 41.493250 35.912142 64.382259 0
M  V30 40 H 42.400120 34.719849 63.453523 0
M  V30 41 H 42.605174 36.421429 63.135695 0
M  V30 42 H 37.996507 33.844173 58.296038 0
M  V30 43 H 37.209663 35.153060 59.073650 0
M  V30 44 H 36.667406 30.739971 58.231348 0
M  V30 45 H 38.174748 31.643189 58.297433 0
M  V30 46 H 35.185201 31.092858 59.998034 0
M  V30 47 H 35.745742 33.173662 58.934118 0
M  V30 48 H 35.989029 33.664167 60.577335 0
M  V30 49 H 39.281896 29.791386 53.095682 0
M  V30 50 H 37.972671 30.548966 54.003979 0
M  V30 51 H 39.644333 31.024205 54.283326 0
M  V30 52 H 41.374530 31.911094 67.024326 0
M  V30 53 H 37.030354 36.049317 61.040626 0
M  V30 54 H 37.736720 29.921259 56.553263 0
M  V30 55 H 39.320347 30.668482 56.635563 0
M  V30 56 H 39.467413 34.698371 63.650525 0
M  V30 57 H 41.182582 35.478883 61.367238 0
M  V30 58 H 37.608563 38.743680 61.727907 0
M  V30 59 H 39.186264 39.038661 61.053496 0
M  V30 60 H 41.500095 33.871582 65.419663 0
M  V30 61 H 37.738389 31.837807 60.851050 0
M  V30 62 H 39.704689 37.280404 63.382466 0
M  V30 63 H 40.667400 37.708028 61.993079 0
M  V30 64 H 36.201642 35.753173 63.267131 0
M  V30 65 H 37.677913 36.421449 63.982996 0
M  V30 66 H 36.598485 37.410934 63.031144 0
M  V30 67 H 37.758183 33.855420 62.077146 0
M  V30 68 H 39.731834 32.366695 62.071855 0
M  V30 69 H 41.324881 33.052236 62.072953 0
M  V30 70 H 39.349680 33.305352 60.178933 0
M  V30 71 H 39.537777 34.966411 59.853507 0
M  V30 72 H 39.225855 36.621509 60.597830 0
M  V30 73 H 39.859825 30.448577 63.556342 0
M  V30 END ATOM
M  V30 BEGIN BOND
M  V30 1 1 10 6
M  V30 2 1 11 2
M  V30 3 1 12 2
M  V30 4 1 15 2
M  V30 5 1 15 4
M  V30 6 1 17 5
M  V30 7 1 17 16
M  V30 8 2 18 4
M  V30 9 1 19 7
M  V30 10 1 20 14
M  V30 11 1 21 4
M  V30 12 1 21 8
M  V30 13 1 22 1
M  V30 14 1 22 20
M  V30 15 1 23 13
M  V30 16 2 23 19
M  V30 17 1 24 8
M  V30 18 1 24 9
M  V30 19 1 24 10
M  V30 20 1 25 17
M  V30 21 1 25 20
M  V30 22 1 26 11
M  V30 23 1 27 14
M  V30 24 2 28 11
M  V30 25 1 28 26
M  V30 26 1 29 3
M  V30 27 2 29 7
M  V30 28 1 29 13
M  V30 29 1 30 14
M  V30 30 1 30 16
M  V30 31 1 31 16
M  V30 32 1 31 19
M  V30 33 1 32 6
M  V30 34 1 32 30
M  V30 35 1 33 1
M  V30 36 1 34 1
M  V30 37 1 35 1
M  V30 38 1 2 36 CFG=1
M  V30 39 1 37 3
M  V30 40 1 38 3
M  V30 41 1 39 5
M  V30 42 1 40 5
M  V30 43 1 41 5
M  V30 44 1 42 6
M  V30 45 1 43 6
M  V30 46 1 44 8
M  V30 47 1 45 8
M  V30 48 1 46 9
M  V30 49 1 47 10
M  V30 50 1 48 10
M  V30 51 1 49 12
M  V30 52 1 50 12
M  V30 53 1 51 12
M  V30 54 1 52 13
M  V30 55 1 14 53 CFG=3
M  V30 56 1 54 15
M  V30 57 1 55 15
M  V30 58 1 16 56 CFG=1
M  V30 59 1 17 57 CFG=3
M  V30 60 1 58 22
M  V30 61 1 59 22
M  V30 62 1 60 23
M  V30 63 1 24 61 CFG=1
M  V30 64 1 62 25
M  V30 65 1 63 25
M  V30 66 1 64 27
M  V30 67 1 65 27
M  V30 68 1 66 27
M  V30 69 1 30 67 CFG=1
M  V30 70 1 68 31
M  V30 71 1 69 31
M  V30 72 1 70 32
M  V30 73 1 71 32
M  V30 74 1 20 72 CFG=3
M  V30 75 1 73 7
M  V30 END BOND
M  V30 END CTAB
M  END
>  <i_epik_Tot_Q>  (1) 
2

>  <i_epik_Tot_abs_Q>  (1) 
2

>  <i_i_glide_confnum>  (1) 
1383

>  <i_i_glide_lignum>  (1) 
100

>  <i_i_glide_posenum>  (1) 
71

>  <i_i_glide_rotatable_bonds>  (1) 
14

>  <i_lp_mmshare_version>  (1) 
72125

>  <i_m_source_file_index>  (1) 
41

>  <i_f3d_flags>  (1) 
0

>  <num_sample>  (1) 
100

>  <b_lp_Chiralities_Consistent>  (1) 
1

>  <r_epik_Charging_Adjusted_Penalty>  (1) 
0.0037096170623772918

>  <r_epik_Ionization_Penalty>  (1) 
0.054330814931534903

>  <r_epik_Ionization_Penalty_Charging>  (1) 
0.0037096170623772918

>  <r_epik_Ionization_Penalty_Neutral>  (1) 
0.050621197869157614

>  <r_epik_State_Penalty>  (1) 
-0

>  <r_glide_ring_energy>  (1) 
0

>  <r_i_docking_score>  (1) 
-5.6827589184424472

>  <r_i_glide_ecoul>  (1) 
-2.7571515819411707

>  <r_i_glide_eff_state_penalty>  (1) 
-0

>  <r_i_glide_einternal>  (1) 
7.3051705861123537

>  <r_i_glide_emodel>  (1) 
-50.94435316948509

>  <r_i_glide_emodel_strain>  (1) 
0.68463001032262127

>  <r_i_glide_energy>  (1) 
-38.533548014117542

>  <r_i_glide_erotb>  (1) 
0.95438045441749597

>  <r_i_glide_esite>  (1) 
0

>  <r_i_glide_evdw>  (1) 
-35.776396432176369

>  <r_i_glide_gscore>  (1) 
-5.6827589184424472

>  <r_i_glide_gscore_strain>  (1) 
0

>  <r_i_glide_hbond>  (1) 
-0.079339103933461982

>  <r_i_glide_ligand_efficiency>  (1) 
-0.17758621620132647

>  <r_i_glide_ligand_efficiency_ln>  (1) 
-1.2725246279968607

>  <r_i_glide_ligand_efficiency_sa>  (1) 
-0.5638010928260756

>  <r_i_glide_lipo>  (1) 
-2.5137034049839646

>  <r_i_glide_metal>  (1) 
-0

>  <r_i_glide_rewards>  (1) 
-1.8417043050425237

>  <r_lp_Energy>  (1) 
35.145339999999997

>  <r_lp_tautomer_probability>  (1) 
1

>  <s_epik_Chemistry_Notes>  (1) 
This compound has an imine and may undergo hydrolysis.

>  <s_epik_cmdline>  (1) 
J2VwaWtfcHl0aG9uJywgJy1waHQnLCAnMS4wJywgJy1waCcsICc3LjQnLCAnLXRuJywgJzgnLCAnLW1hJywgJzUwMCcsICctaW1hZScsICc8aW5maWxlLm1hZT4nLCAnLW9tYWUnLCAnPG91dGZpbGUubWFlPic=

>  <s_epik_input>  (1) 
W2NIXTFbbkhdYyhbTkgyXSluYzFbQ0gyXVtDQEBIXShbQ0BIXShbQ0gzXSlbQ0gyXU4oW0NAQEhdMltDSDNdKVtDSDJdW0NIM10pW0NAQEhdMltDSDJdW0NIMl1bQ0gyXVtDQEBIXShbT0hdKVtDSDJdU0MoPVMpW0NIMl1bQ0BIXShbQ0gzXSlDMz1OTzM=

>  <s_glide_docking_method>  (1) 
confgen

>  <s_i_glide_gridfile>  (1) 
gpcr_5ht2c_6bqh_protein_autoprepared_prepared

>  <s_lp_Force_Field>  (1) 
S-OPLS

>  <s_lp_Variant>  (1) 
DiffSBDD_40_num_sample_100-1

>  <s_m_source_file>  (1) 
generated__ligand_DiffSBDD_2026-05-06_prepared.sdf

>  <GenAI_Model>  (1) 
DiffSBDD

>  <Protein>  (1) 
GPCR_5HT2C

$$$$
DiffSBDD_98_num_sample_100
     RDKit          3D

  0  0  0  0  0  0  0  0  0  0999 V3000
M  V30 BEGIN CTAB
M  V30 COUNTS 63 64 0 0 1
M  V30 BEGIN ATOM
M  V30 1 C 37.732612 29.019081 54.525243 0
M  V30 2 C 38.990821 33.046779 61.121649 0
M  V30 3 C 39.508492 27.939845 50.629279 0
M  V30 4 O 37.867354 28.143792 58.253527 0
M  V30 5 C 37.370752 29.477582 58.151977 0
M  V30 6 O 38.558050 27.221424 51.430052 0
M  V30 7 C 40.116475 29.061505 51.493195 0 CFG=2
M  V30 8 C 37.048933 34.702755 61.000714 0
M  V30 9 N 37.882569 31.918777 58.464521 0
M  V30 10 C 39.230376 27.928241 57.914660 0
M  V30 11 C 38.630895 27.686986 52.763554 0 CFG=2
M  V30 12 C 37.104255 32.711908 59.427402 0
M  V30 13 C 39.615167 26.809079 53.582436 0
M  V30 14 C 37.958883 33.739421 60.210141 0 CFG=2
M  V30 15 O 38.023150 33.616748 56.937927 0
M  V30 16 C 37.345026 27.881244 53.551175 0
M  V30 17 C 39.502051 31.965825 55.187128 0
M  V30 18 C 39.001865 29.133575 52.530078 0 CFG=1
M  V30 19 C 38.229859 30.540245 58.869277 0
M  V30 20 C 40.375651 30.364064 50.720407 0
M  V30 21 N 38.949156 31.590745 56.487086 0
M  V30 22 C 38.832841 31.291743 53.973827 0
M  V30 23 C 37.782650 35.915632 61.591626 0
M  V30 24 C 38.972339 29.757372 53.932551 0 CFG=1
M  V30 25 C 38.267404 32.455446 57.268376 0
M  V30 26 H 37.994333 28.568266 55.475660 0
M  V30 27 H 36.881425 29.678720 54.701456 0
M  V30 28 H 38.502771 32.441816 61.886481 0
M  V30 29 H 39.650941 32.392536 60.553137 0
M  V30 30 H 39.631609 33.768887 61.626122 0
M  V30 31 H 40.267432 27.257586 50.253488 0
M  V30 32 H 38.983198 28.361350 49.775430 0
M  V30 33 H 36.365557 29.492907 58.574486 0
M  V30 34 H 37.232057 29.729111 57.106043 0
M  V30 35 H 41.067386 28.689412 51.853482 0
M  V30 36 H 36.272964 35.080402 60.333764 0
M  V30 37 H 36.527043 34.163025 61.792055 0
M  V30 38 H 39.883128 28.206666 58.742414 0
M  V30 39 H 39.390227 26.866938 57.723348 0
M  V30 40 H 39.539064 28.483213 57.028938 0
M  V30 41 H 36.311271 33.226325 58.879398 0
M  V30 42 H 36.579031 32.056942 60.123072 0
M  V30 43 H 39.873528 27.258017 54.538721 0
M  V30 44 H 39.161225 25.856871 53.853431 0
M  V30 45 H 40.539852 26.593765 53.053417 0
M  V30 46 H 38.508454 34.341590 59.485860 0
M  V30 47 H 37.016240 26.974845 54.059155 0
M  V30 48 H 36.543441 28.203670 52.885401 0
M  V30 49 H 39.467336 33.045875 55.053687 0
M  V30 50 H 40.557907 31.696385 55.197295 0
M  V30 51 H 38.181567 29.600941 51.994146 0
M  V30 52 H 39.296831 30.393563 58.707110 0
M  V30 53 H 38.104399 30.415972 59.945333 0
M  V30 54 H 39.465955 30.754423 50.263368 0
M  V30 55 H 40.780432 31.136264 51.374106 0
M  V30 56 H 41.101696 30.205002 49.922289 0
M  V30 57 H 39.106662 30.651222 56.815372 0
M  V30 58 H 37.788694 31.597318 53.903763 0
M  V30 59 H 39.305689 31.695309 53.080799 0
M  V30 60 H 37.076261 36.605318 62.053667 0
M  V30 61 H 38.496137 35.621595 62.361107 0
M  V30 62 H 38.326034 36.462681 60.820515 0
M  V30 63 H 39.872654 29.469262 54.471366 0
M  V30 END ATOM
M  V30 BEGIN BOND
M  V30 1 1 5 4
M  V30 2 1 6 3
M  V30 3 1 7 3
M  V30 4 1 10 4
M  V30 5 1 11 6
M  V30 6 1 12 9
M  V30 7 1 11 13 CFG=1
M  V30 8 1 14 2
M  V30 9 1 14 8
M  V30 10 1 14 12
M  V30 11 1 16 1
M  V30 12 1 16 11
M  V30 13 1 18 7
M  V30 14 1 18 11
M  V30 15 1 19 5
M  V30 16 1 19 9
M  V30 17 1 20 7
M  V30 18 1 21 17
M  V30 19 1 22 17
M  V30 20 1 23 8
M  V30 21 1 24 1
M  V30 22 1 24 18
M  V30 23 1 24 22
M  V30 24 1 25 9
M  V30 25 2 25 15
M  V30 26 1 25 21
M  V30 27 1 26 1
M  V30 28 1 27 1
M  V30 29 1 28 2
M  V30 30 1 29 2
M  V30 31 1 30 2
M  V30 32 1 31 3
M  V30 33 1 32 3
M  V30 34 1 33 5
M  V30 35 1 34 5
M  V30 36 1 7 35 CFG=1
M  V30 37 1 36 8
M  V30 38 1 37 8
M  V30 39 1 38 10
M  V30 40 1 39 10
M  V30 41 1 40 10
M  V30 42 1 41 12
M  V30 43 1 42 12
M  V30 44 1 43 13
M  V30 45 1 44 13
M  V30 46 1 45 13
M  V30 47 1 14 46 CFG=3
M  V30 48 1 47 16
M  V30 49 1 48 16
M  V30 50 1 49 17
M  V30 51 1 50 17
M  V30 52 1 18 51 CFG=3
M  V30 53 1 52 19
M  V30 54 1 53 19
M  V30 55 1 54 20
M  V30 56 1 55 20
M  V30 57 1 56 20
M  V30 58 1 57 21
M  V30 59 1 58 22
M  V30 60 1 59 22
M  V30 61 1 60 23
M  V30 62 1 61 23
M  V30 63 1 62 23
M  V30 64 1 24 63 CFG=1
M  V30 END BOND
M  V30 END CTAB
M  END
>  <i_epik_Tot_Q>  (1) 
0

>  <i_epik_Tot_abs_Q>  (1) 
0

>  <i_i_glide_confnum>  (1) 
344

>  <i_i_glide_lignum>  (1) 
270

>  <i_i_glide_posenum>  (1) 
297

>  <i_i_glide_rotatable_bonds>  (1) 
11

>  <i_lp_mmshare_version>  (1) 
72125

>  <i_m_source_file_index>  (1) 
99

>  <i_f3d_flags>  (1) 
0

>  <num_sample>  (1) 
100

>  <b_lp_Chiralities_Consistent>  (1) 
1

>  <r_epik_Charging_Adjusted_Penalty>  (1) 
0

>  <r_epik_Ionization_Penalty>  (1) 
2.6949826091905801e-05

>  <r_epik_Ionization_Penalty_Charging>  (1) 
0

>  <r_epik_Ionization_Penalty_Neutral>  (1) 
2.6949826091905801e-05

>  <r_epik_State_Penalty>  (1) 
-0

>  <r_glide_ring_energy>  (1) 
0

>  <r_i_docking_score>  (1) 
-5.6807062602789937

>  <r_i_glide_ecoul>  (1) 
1.2984001427112974

>  <r_i_glide_eff_state_penalty>  (1) 
-0

>  <r_i_glide_einternal>  (1) 
8.6839782038156841

>  <r_i_glide_emodel>  (1) 
-45.210491210456269

>  <r_i_glide_emodel_strain>  (1) 
0.45325156184976834

>  <r_i_glide_energy>  (1) 
-36.318516556644852

>  <r_i_glide_erotb>  (1) 
1.3682856871848257

>  <r_i_glide_esite>  (1) 
-0.21446227930437384

>  <r_i_glide_evdw>  (1) 
-37.616916699356146

>  <r_i_glide_gscore>  (1) 
-5.6807062602789937

>  <r_i_glide_gscore_strain>  (1) 
0

>  <r_i_glide_hbond>  (1) 
0

>  <r_i_glide_ligand_efficiency>  (1) 
-0.22722825041115974

>  <r_i_glide_ligand_efficiency_ln>  (1) 
-1.3464976207154571

>  <r_i_glide_ligand_efficiency_sa>  (1) 
-0.66441943482530608

>  <r_i_glide_lipo>  (1) 
-3.5859728795142791

>  <r_i_glide_metal>  (1) 
-0

>  <r_i_glide_rewards>  (1) 
-1.562470975084054

>  <r_lp_Energy>  (1) 
41.975189

>  <r_lp_tautomer_probability>  (1) 
1

>  <s_epik_cmdline>  (1) 
J2VwaWtfcHl0aG9uJywgJy1waHQnLCAnMS4wJywgJy1waCcsICc3LjQnLCAnLXRuJywgJzgnLCAnLW1hJywgJzUwMCcsICctaW1hZScsICc8aW5maWxlLm1hZT4nLCAnLW9tYWUnLCAnPG91dGZpbGUubWFlPic=

>  <s_epik_input>  (1) 
TzFbQ0gyXVtDQEBIXShbQ0gzXSlbQ0BASF0oW0NAXTEyW0NIM10pW0NASF0oW0NIMl1bQ0gyXTIpW0NIMl1bQ0gyXVtOSF1DKD1PKU4oW0NIMl1bQ0BIXShbQ0gzXSlbQ0gyXVtDSDNdKVtDSDJdW0NIMl1PW0NIM10=

>  <s_glide_docking_method>  (1) 
confgen

>  <s_i_glide_gridfile>  (1) 
gpcr_5ht2c_6bqh_protein_autoprepared_prepared

>  <s_lp_Force_Field>  (1) 
S-OPLS

>  <s_lp_Variant>  (1) 
DiffSBDD_98_num_sample_100-1

>  <s_m_source_file>  (1) 
generated__ligand_DiffSBDD_2026-05-06_prepared.sdf

>  <GenAI_Model>  (1) 
DiffSBDD

>  <Protein>  (1) 
GPCR_5HT2C

$$$$
DiffSBDD_20_num_sample_100
     RDKit          3D

  0  0  0  0  0  0  0  0  0  0999 V3000
M  V30 BEGIN CTAB
M  V30 COUNTS 55 55 0 0 1
M  V30 BEGIN ATOM
M  V30 1 C 39.003235 28.186483 57.410674 0 CFG=1
M  V30 2 C 38.544207 29.481207 55.083800 0 CFG=2
M  V30 3 C 37.657328 30.734062 59.272374 0
M  V30 4 C 41.614704 27.939621 57.076442 0
M  V30 5 N 39.246637 29.560780 53.825425 0
M  V30 6 C 37.544141 28.240933 52.623987 0
M  V30 7 O 39.269839 35.651031 61.054441 0
M  V30 8 C 37.816881 33.779492 60.899237 0
M  V30 9 C 36.068309 31.888082 60.757905 0
M  V30 10 C 39.393005 27.906843 50.441157 0
M  V30 11 N 36.509728 31.404418 59.453464 0
M  V30 12 O 38.434531 30.443992 60.182254 0
M  V30 13 C 37.959067 27.582706 58.340603 0
M  V30 14 C 40.333247 27.458474 57.758212 0
M  V30 15 C 38.903352 28.928372 52.777489 0
M  V30 16 C 38.078378 35.275473 61.104894 0
M  V30 17 O 39.867312 30.821698 50.165054 0
M  V30 18 N 37.867324 30.424477 57.985292 0
M  V30 19 C 39.346139 30.294741 56.099556 0
M  V30 20 S 38.510267 27.779647 55.718437 0
M  V30 21 C 40.550461 30.107828 51.167057 0
M  V30 22 O 37.086223 36.010803 61.308939 0 CHG=-1
M  V30 23 C 39.082466 29.746465 57.509423 0 CFG=2
M  V30 24 C 39.861251 28.784721 51.595400 0 CFG=2
M  V30 25 C 36.319036 33.398757 60.916520 0
M  V30 26 H 37.530642 29.882564 55.020049 0
M  V30 27 H 42.396460 27.184565 57.151914 0
M  V30 28 H 41.463982 28.154796 56.021728 0
M  V30 29 H 42.001240 28.821395 57.577412 0
M  V30 30 H 37.125694 28.421436 51.640378 0
M  V30 31 H 38.347973 33.229477 61.676125 0
M  V30 32 H 38.268614 33.498335 59.948490 0
M  V30 33 H 35.000247 31.689002 60.836312 0
M  V30 34 H 36.540969 31.339607 61.572089 0
M  V30 35 H 38.974585 26.953768 50.765831 0
M  V30 36 H 38.667396 28.421424 49.818874 0
M  V30 37 H 40.267423 27.668288 49.853548 0
M  V30 38 H 35.928928 31.618501 58.639332 0
M  V30 39 H 38.267126 27.749105 59.375411 0
M  V30 40 H 36.971804 28.019231 58.185343 0
M  V30 41 H 37.867299 26.505007 58.197427 0
M  V30 42 H 40.505836 27.505281 58.834417 0
M  V30 43 H 40.215903 26.397228 57.531401 0
M  V30 44 H 40.303480 31.652953 50.037951 0
M  V30 45 H 37.176612 30.700374 57.297156 0
M  V30 46 H 40.395280 30.179950 55.853465 0
M  V30 47 H 39.136710 31.363316 56.017931 0
M  V30 48 H 41.548884 29.898442 50.784122 0
M  V30 49 H 40.667873 30.782212 52.015409 0
M  V30 50 H 39.910496 30.021443 58.161531 0
M  V30 51 H 40.667425 28.185333 52.002238 0
M  V30 52 H 35.792897 33.935088 60.125360 0
M  V30 53 H 35.869852 33.728965 61.853911 0
M  V30 54 H 37.649056 27.163955 52.757258 0
M  V30 55 H 36.806773 28.599113 53.339179 0
M  V30 END ATOM
M  V30 BEGIN BOND
M  V30 1 1 5 2
M  V30 2 1 11 3
M  V30 3 1 11 9
M  V30 4 2 12 3
M  V30 5 1 1 13 CFG=1
M  V30 6 1 14 1
M  V30 7 1 14 4
M  V30 8 2 15 5
M  V30 9 1 15 6
M  V30 10 2 16 7
M  V30 11 1 16 8
M  V30 12 1 18 3
M  V30 13 1 19 2
M  V30 14 1 20 1
M  V30 15 1 20 2
M  V30 16 1 21 17
M  V30 17 1 22 16
M  V30 18 1 23 1
M  V30 19 1 23 18
M  V30 20 1 23 19
M  V30 21 1 24 10
M  V30 22 1 24 15
M  V30 23 1 24 21
M  V30 24 1 25 8
M  V30 25 1 25 9
M  V30 26 1 2 26 CFG=3
M  V30 27 1 27 4
M  V30 28 1 28 4
M  V30 29 1 29 4
M  V30 30 1 30 6
M  V30 31 1 31 8
M  V30 32 1 32 8
M  V30 33 1 33 9
M  V30 34 1 34 9
M  V30 35 1 35 10
M  V30 36 1 36 10
M  V30 37 1 37 10
M  V30 38 1 38 11
M  V30 39 1 39 13
M  V30 40 1 40 13
M  V30 41 1 41 13
M  V30 42 1 42 14
M  V30 43 1 43 14
M  V30 44 1 44 17
M  V30 45 1 45 18
M  V30 46 1 46 19
M  V30 47 1 47 19
M  V30 48 1 48 21
M  V30 49 1 49 21
M  V30 50 1 23 50 CFG=1
M  V30 51 1 24 51 CFG=1
M  V30 52 1 52 25
M  V30 53 1 53 25
M  V30 54 1 54 6
M  V30 55 1 55 6
M  V30 END BOND
M  V30 END CTAB
M  END
>  <i_epik_Tot_Q>  (1) 
-1

>  <i_epik_Tot_abs_Q>  (1) 
1

>  <i_i_glide_confnum>  (1) 
1359

>  <i_i_glide_lignum>  (1) 
56

>  <i_i_glide_posenum>  (1) 
37

>  <i_i_glide_rotatable_bonds>  (1) 
12

>  <i_lp_mmshare_version>  (1) 
72125

>  <i_m_source_file_index>  (1) 
21

>  <i_f3d_flags>  (1) 
0

>  <num_sample>  (1) 
100

>  <b_lp_Chiralities_Consistent>  (1) 
1

>  <r_epik_Charging_Adjusted_Penalty>  (1) 
0.43743025276339681

>  <r_epik_Ionization_Penalty>  (1) 
0.026773266926762091

>  <r_epik_Ionization_Penalty_Charging>  (1) 
0.0015534882308521432

>  <r_epik_Ionization_Penalty_Neutral>  (1) 
0.025219778695909949

>  <r_epik_State_Penalty>  (1) 
0.43587676453254465

>  <r_glide_ring_energy>  (1) 
0

>  <r_i_docking_score>  (1) 
-5.6804522113199845

>  <r_i_glide_ecoul>  (1) 
-4.5895379152574076

>  <r_i_glide_eff_state_penalty>  (1) 
0.43587676453254465

>  <r_i_glide_einternal>  (1) 
11.480701618725444

>  <r_i_glide_emodel>  (1) 
-46.437664971390092

>  <r_i_glide_emodel_strain>  (1) 
1.9346186445120708

>  <r_i_glide_energy>  (1) 
-40.351881372197781

>  <r_i_glide_erotb>  (1) 
1.2527341714622291

>  <r_i_glide_esite>  (1) 
-0.21609401663909855

>  <r_i_glide_evdw>  (1) 
-35.762343456940371

>  <r_i_glide_gscore>  (1) 
-6.1163289758525288

>  <r_i_glide_gscore_strain>  (1) 
0

>  <r_i_glide_hbond>  (1) 
-0.24313706425503892

>  <r_i_glide_ligand_efficiency>  (1) 
-0.22721808845279937

>  <r_i_glide_ligand_efficiency_ln>  (1) 
-1.3464374034989388

>  <r_i_glide_ligand_efficiency_sa>  (1) 
-0.66438972107880545

>  <r_i_glide_lipo>  (1) 
-2.4821705469798139

>  <r_i_glide_metal>  (1) 
-0

>  <r_i_glide_rewards>  (1) 
-1.9511136593051761

>  <r_lp_Energy>  (1) 
19.737282

>  <r_lp_tautomer_probability>  (1) 
0.49999399997599986

>  <s_epik_Chemistry_Notes>  (1) 
This compound has an imine and may undergo hydrolysis. This compound contains an acetal/aminal-like group ( X-CH(R)-Y where X, Y are N, S, or O) that may be acid/base labile, releasing an aldehyde.

>  <s_epik_cmdline>  (1) 
J2VwaWtfcHl0aG9uJywgJy1waHQnLCAnMS4wJywgJy1waCcsICc3LjQnLCAnLXRuJywgJzgnLCAnLW1hJywgJzUwMCcsICctaW1hZScsICc8aW5maWxlLm1hZT4nLCAnLW9tYWUnLCAnPG91dGZpbGUubWFlPic=

>  <s_epik_input>  (1) 
W09IXVtDSDJdW0NAQEhdKFtDSDNdKUMoPVtDSDJdKVtOSF1bQ0BASF0oU1tDQEBdMShbQ0gzXSlbQ0gyXVtDSDNdKVtDSDJdW0NASF0xW05IXUMoPU8pW05IXVtDSDJdW0NIMl1bQ0gyXUMoPU8pW09IXQ==

>  <s_glide_docking_method>  (1) 
confgen

>  <s_i_glide_gridfile>  (1) 
gpcr_5ht2c_6bqh_protein_autoprepared_prepared

>  <s_lp_Force_Field>  (1) 
S-OPLS

>  <s_lp_Variant>  (1) 
DiffSBDD_20_num_sample_100-4

>  <s_m_source_file>  (1) 
generated__ligand_DiffSBDD_2026-05-06_prepared.sdf

>  <GenAI_Model>  (1) 
DiffSBDD

>  <Protein>  (1) 
GPCR_5HT2C

$$$$
DiffSBDD_37_num_sample_100
     RDKit          3D

  0  0  0  0  0  0  0  0  0  0999 V3000
M  V30 BEGIN CTAB
M  V30 COUNTS 23 23 0 0 1
M  V30 BEGIN ATOM
M  V30 1 C 38.206166 31.066485 60.670387 0 CFG=2
M  V30 2 O 39.217649 30.097480 60.878392 0
M  V30 3 C 37.336497 30.729198 59.466765 0 CFG=2
M  V30 4 C 38.532532 32.453468 61.198489 0 CFG=2
M  V30 5 O 40.658241 33.487826 61.562175 0 CHG=-1
M  V30 6 N 37.467410 30.422949 56.971760 0 CHG=1
M  V30 7 C 38.148481 30.946292 58.168636 0
M  V30 8 C 37.908241 33.755042 60.711597 0
M  V30 9 O 36.165907 31.526534 59.453359 0
M  V30 10 C 39.840055 32.645362 61.997492 0
M  V30 11 O 37.597865 31.550870 61.861668 0
M  V30 12 O 39.997296 31.928429 63.011044 0
M  V30 13 H 39.690140 30.375377 61.657359 0
M  V30 14 H 37.023156 29.688676 59.551773 0
M  V30 15 H 38.026807 30.596341 56.151450 0
M  V30 16 H 37.294708 29.435234 57.067501 0
M  V30 17 H 38.365917 32.005988 58.024546 0
M  V30 18 H 39.111330 30.439654 58.239749 0
M  V30 19 H 38.588491 34.599914 60.808664 0
M  V30 20 H 37.625435 33.679383 59.662165 0
M  V30 21 H 37.014189 33.974853 61.296246 0
M  V30 22 H 35.867235 31.618902 58.541769 0
M  V30 23 H 36.567418 30.922255 56.867698 0
M  V30 END ATOM
M  V30 BEGIN BOND
M  V30 1 1 1 2 CFG=1
M  V30 2 1 3 1
M  V30 3 1 4 1
M  V30 4 1 7 3
M  V30 5 1 7 6
M  V30 6 1 4 8 CFG=3
M  V30 7 1 9 3
M  V30 8 1 10 4
M  V30 9 1 10 5
M  V30 10 1 11 1
M  V30 11 1 11 4
M  V30 12 2 12 10
M  V30 13 1 13 2
M  V30 14 1 3 14 CFG=1
M  V30 15 1 15 6
M  V30 16 1 16 6
M  V30 17 1 17 7
M  V30 18 1 18 7
M  V30 19 1 19 8
M  V30 20 1 20 8
M  V30 21 1 21 8
M  V30 22 1 22 9
M  V30 23 1 23 6
M  V30 END BOND
M  V30 END CTAB
M  END
>  <i_epik_Tot_Q>  (1) 
0

>  <i_epik_Tot_abs_Q>  (1) 
2

>  <i_i_glide_confnum>  (1) 
3

>  <i_i_glide_lignum>  (1) 
91

>  <i_i_glide_posenum>  (1) 
38

>  <i_i_glide_rotatable_bonds>  (1) 
5

>  <i_lp_mmshare_version>  (1) 
72125

>  <i_m_source_file_index>  (1) 
38

>  <i_f3d_flags>  (1) 
0

>  <num_sample>  (1) 
100

>  <b_lp_Chiralities_Consistent>  (1) 
1

>  <r_epik_Charging_Adjusted_Penalty>  (1) 
0.074826181312878909

>  <r_epik_Ionization_Penalty>  (1) 
0.037455731975657096

>  <r_epik_Ionization_Penalty_Charging>  (1) 
0.037420022134994256

>  <r_epik_Ionization_Penalty_Neutral>  (1) 
3.5709840662840338e-05

>  <r_epik_State_Penalty>  (1) 
0.03740615917788466

>  <r_glide_ring_energy>  (1) 
0

>  <r_i_docking_score>  (1) 
-5.6740628947206746

>  <r_i_glide_ecoul>  (1) 
-12.271104520781231

>  <r_i_glide_eff_state_penalty>  (1) 
0.03740615917788466

>  <r_i_glide_einternal>  (1) 
6.2065638350261381

>  <r_i_glide_emodel>  (1) 
-38.363202810685721

>  <r_i_glide_emodel_strain>  (1) 
0.60203646042272219

>  <r_i_glide_energy>  (1) 
-25.707017501627377

>  <r_i_glide_erotb>  (1) 
0.49897273093522621

>  <r_i_glide_esite>  (1) 
-0.099220877465918816

>  <r_i_glide_evdw>  (1) 
-13.435912980846147

>  <r_i_glide_gscore>  (1) 
-5.7114690538985595

>  <r_i_glide_gscore_strain>  (1) 
0

>  <r_i_glide_hbond>  (1) 
-0.63891163749197211

>  <r_i_glide_ligand_efficiency>  (1) 
-0.47283857456005624

>  <r_i_glide_ligand_efficiency_ln>  (1) 
-1.6281821767208164

>  <r_i_glide_ligand_efficiency_sa>  (1) 
-1.0825301014550239

>  <r_i_glide_lipo>  (1) 
-0.23533664251532743

>  <r_i_glide_metal>  (1) 
-0

>  <r_i_glide_rewards>  (1) 
-2.7245113002010752

>  <r_lp_Energy>  (1) 
9.471366999999999

>  <s_epik_cmdline>  (1) 
J2VwaWtfcHl0aG9uJywgJy1waHQnLCAnMS4wJywgJy1waCcsICc3LjQnLCAnLXRuJywgJzgnLCAnLW1hJywgJzUwMCcsICctaW1hZScsICc8aW5maWxlLm1hZT4nLCAnLW9tYWUnLCAnPG91dGZpbGUubWFlPic=

>  <s_epik_input>  (1) 
W05IMl1bQ0gyXVtDQEhdKFtPSF0pW0NAQF0xKFtPSF0pW0NAXShPMSkoW0NIM10pQyg9TylbT0hd

>  <s_glide_docking_method>  (1) 
confgen

>  <s_i_glide_gridfile>  (1) 
gpcr_5ht2c_6bqh_protein_autoprepared_prepared

>  <s_lp_Force_Field>  (1) 
S-OPLS

>  <s_lp_Variant>  (1) 
DiffSBDD_37_num_sample_100-1

>  <s_m_source_file>  (1) 
generated__ligand_DiffSBDD_2026-05-06_prepared.sdf

>  <GenAI_Model>  (1) 
DiffSBDD

>  <Protein>  (1) 
GPCR_5HT2C

$$$$
DiffSBDD_18_num_sample_100
     RDKit          3D

  0  0  0  0  0  0  0  0  0  0999 V3000
M  V30 BEGIN CTAB
M  V30 COUNTS 70 72 0 0 1
M  V30 BEGIN ATOM
M  V30 1 O 40.297642 33.998952 61.392799 0
M  V30 2 C 38.844745 27.025736 55.203675 0
M  V30 3 C 38.195606 31.523140 58.120689 0
M  V30 4 C 38.932742 25.854433 55.738681 0
M  V30 5 O 37.495544 32.017176 60.798582 0
M  V30 6 C 38.012589 29.369568 55.698050 0 CFG=2
M  V30 7 C 41.961421 32.675035 67.683220 0
M  V30 8 N 38.267373 27.960355 56.018623 0
M  V30 9 N 37.828733 29.538847 54.253621 0
M  V30 10 C 41.466572 33.796458 63.510550 0
M  V30 11 C 41.832456 30.967486 65.912296 0
M  V30 12 O 41.208321 32.589957 68.652204 0
M  V30 13 O 38.267294 25.023512 57.853494 0
M  V30 14 C 44.951114 31.818760 68.149163 0
M  V30 15 C 37.973644 32.535890 55.772169 0
M  V30 16 C 38.374379 25.946496 57.049862 0
M  V30 17 C 44.667105 30.191397 66.256094 0
M  V30 18 C 41.462619 31.728601 64.864595 0
M  V30 19 C 37.886830 32.951924 60.096682 0
M  V30 20 N 42.324365 33.829137 67.053544 0
M  V30 21 C 38.818771 31.653422 56.713539 0 CFG=2
M  V30 22 C 40.954621 33.090068 62.264656 0 CFG=2
M  V30 23 C 39.186029 30.274617 56.108037 0 CFG=2
M  V30 24 C 39.941326 30.402231 54.788834 0
M  V30 25 O 45.061808 30.234305 65.069379 0 CHG=-1
M  V30 26 C 37.884244 27.418359 57.369535 0
M  V30 27 C 42.231760 34.097649 65.804934 0
M  V30 28 C 38.013638 34.360042 60.682905 0
M  V30 29 C 39.012209 34.397199 61.850353 0
M  V30 30 C 42.112342 32.459877 61.498688 0
M  V30 31 C 41.706968 33.193182 64.698896 0
M  V30 32 C 42.599575 31.438471 67.103561 0 CFG=1
M  V30 33 C 44.147942 31.505387 66.867734 0 CFG=1
M  V30 34 N 38.230136 32.808243 58.808063 0
M  V30 35 N 38.992396 30.151873 53.708818 0
M  V30 36 O 44.651063 29.176552 66.988194 0
M  V30 37 H 39.165732 27.332292 54.219394 0
M  V30 38 H 38.758157 30.796214 58.708846 0
M  V30 39 H 37.169013 31.158766 58.069357 0
M  V30 40 H 39.343127 24.953861 55.306071 0
M  V30 41 H 37.088912 29.662585 56.199101 0
M  V30 42 H 37.667667 28.636738 53.810089 0
M  V30 43 H 41.652545 34.856910 63.407018 0
M  V30 44 H 41.591748 29.913930 65.897420 0
M  V30 45 H 38.453778 27.875421 58.178936 0
M  V30 46 H 46.025682 31.767372 67.965464 0
M  V30 47 H 44.738202 32.821176 68.517705 0
M  V30 48 H 44.716818 31.115183 68.948762 0
M  V30 49 H 37.067741 32.021598 55.453547 0
M  V30 50 H 37.673161 33.468788 56.248706 0
M  V30 51 H 38.522648 32.802360 54.869899 0
M  V30 52 H 40.945989 31.218574 64.071405 0
M  V30 53 H 39.764370 32.180247 56.842741 0
M  V30 54 H 40.248836 32.296493 62.504283 0
M  V30 55 H 39.823675 29.763995 56.831523 0
M  V30 56 H 40.449274 31.356848 54.653326 0
M  V30 57 H 40.690073 29.621544 54.755981 0
M  V30 58 H 36.814222 27.459117 57.566098 0
M  V30 59 H 42.512780 35.092109 65.447297 0
M  V30 60 H 37.029449 34.678481 61.028139 0
M  V30 61 H 38.316159 35.065683 59.908860 0
M  V30 62 H 38.667346 33.749868 62.653493 0
M  V30 63 H 39.080120 35.402473 62.267159 0
M  V30 64 H 42.670780 31.787127 62.149300 0
M  V30 65 H 41.738745 31.885431 60.653613 0
M  V30 66 H 42.799022 33.216536 61.123670 0
M  V30 67 H 42.438106 30.660965 67.852895 0
M  V30 68 H 44.375697 32.284159 66.139673 0
M  V30 69 H 38.537666 33.614964 58.285732 0
M  V30 70 H 39.400764 29.556041 52.991321 0
M  V30 END ATOM
M  V30 BEGIN BOND
M  V30 1 2 4 2
M  V30 2 1 8 2
M  V30 3 1 8 6
M  V30 4 1 9 6
M  V30 5 2 12 7
M  V30 6 1 16 4
M  V30 7 2 16 13
M  V30 8 2 18 11
M  V30 9 2 19 5
M  V30 10 1 20 7
M  V30 11 1 21 3
M  V30 12 1 21 15
M  V30 13 1 22 1
M  V30 14 1 22 10
M  V30 15 1 23 6
M  V30 16 1 23 21
M  V30 17 1 24 23
M  V30 18 1 25 17
M  V30 19 1 26 8
M  V30 20 1 26 16
M  V30 21 2 27 20
M  V30 22 1 28 19
M  V30 23 1 29 1
M  V30 24 1 29 28
M  V30 25 1 30 22
M  V30 26 2 31 10
M  V30 27 1 31 18
M  V30 28 1 31 27
M  V30 29 1 32 7
M  V30 30 1 32 11
M  V30 31 1 33 14
M  V30 32 1 33 17
M  V30 33 1 33 32
M  V30 34 1 34 3
M  V30 35 1 34 19
M  V30 36 1 35 9
M  V30 37 1 35 24
M  V30 38 2 36 17
M  V30 39 1 37 2
M  V30 40 1 38 3
M  V30 41 1 39 3
M  V30 42 1 40 4
M  V30 43 1 6 41 CFG=1
M  V30 44 1 42 9
M  V30 45 1 43 10
M  V30 46 1 44 11
M  V30 47 1 45 26
M  V30 48 1 46 14
M  V30 49 1 47 14
M  V30 50 1 48 14
M  V30 51 1 49 15
M  V30 52 1 50 15
M  V30 53 1 51 15
M  V30 54 1 52 18
M  V30 55 1 21 53 CFG=1
M  V30 56 1 22 54 CFG=1
M  V30 57 1 23 55 CFG=1
M  V30 58 1 56 24
M  V30 59 1 57 24
M  V30 60 1 58 26
M  V30 61 1 59 27
M  V30 62 1 60 28
M  V30 63 1 61 28
M  V30 64 1 62 29
M  V30 65 1 63 29
M  V30 66 1 64 30
M  V30 67 1 65 30
M  V30 68 1 66 30
M  V30 69 1 32 67 CFG=1
M  V30 70 1 33 68 CFG=3
M  V30 71 1 69 34
M  V30 72 1 70 35
M  V30 END BOND
M  V30 END CTAB
M  END
>  <i_epik_Tot_Q>  (1) 
-1

>  <i_epik_Tot_abs_Q>  (1) 
1

>  <i_i_glide_confnum>  (1) 
3636

>  <i_i_glide_lignum>  (1) 
41

>  <i_i_glide_posenum>  (1) 
147

>  <i_i_glide_rotatable_bonds>  (1) 
12

>  <i_lp_mmshare_version>  (1) 
72125

>  <i_m_source_file_index>  (1) 
19

>  <i_f3d_flags>  (1) 
0

>  <num_sample>  (1) 
100

>  <b_lp_Chiralities_Consistent>  (1) 
1

>  <r_epik_Charging_Adjusted_Penalty>  (1) 
0.37971815023500188

>  <r_epik_Ionization_Penalty>  (1) 
0.19445293645399606

>  <r_epik_Ionization_Penalty_Charging>  (1) 
0.18991606969001057

>  <r_epik_Ionization_Penalty_Neutral>  (1) 
0.004536866763985496

>  <r_epik_State_Penalty>  (1) 
0.18980208054499129

>  <r_glide_ring_energy>  (1) 
1.845819541117304

>  <r_i_docking_score>  (1) 
-5.6739673190032667

>  <r_i_glide_ecoul>  (1) 
-1.1322497342100477

>  <r_i_glide_eff_state_penalty>  (1) 
0.18980208054499129

>  <r_i_glide_einternal>  (1) 
11.96687720577628

>  <r_i_glide_emodel>  (1) 
-65.912949058939773

>  <r_i_glide_emodel_strain>  (1) 
0.016078976499983355

>  <r_i_glide_energy>  (1) 
-51.892980567806681

>  <r_i_glide_erotb>  (1) 
0.89642714384868305

>  <r_i_glide_esite>  (1) 
-0.052543491478049535

>  <r_i_glide_evdw>  (1) 
-50.760730833596632

>  <r_i_glide_gscore>  (1) 
-5.863769399548258

>  <r_i_glide_gscore_strain>  (1) 
0

>  <r_i_glide_hbond>  (1) 
0

>  <r_i_glide_ligand_efficiency>  (1) 
-0.15761020330564629

>  <r_i_glide_ligand_efficiency_ln>  (1) 
-1.2379063761247286

>  <r_i_glide_ligand_efficiency_sa>  (1) 
-0.52041742499873556

>  <r_i_glide_lipo>  (1) 
-2.762062093548125

>  <r_i_glide_metal>  (1) 
-0

>  <r_i_glide_rewards>  (1) 
-1.2377169565594279

>  <r_lp_Energy>  (1) 
22.943131999999999

>  <r_lp_tautomer_probability>  (1) 
0.98846045845713826

>  <s_epik_Chemistry_Notes>  (1) 
This compound has an imine and may undergo hydrolysis. This compound contains an acetal/aminal-like group ( X-CH(R)-Y where X, Y are N, S, or O) that may be acid/base labile, releasing an aldehyde.

>  <s_epik_cmdline>  (1) 
J2VwaWtfcHl0aG9uJywgJy1waHQnLCAnMS4wJywgJy1waCcsICc3LjQnLCAnLXRuJywgJzgnLCAnLW1hJywgJzUwMCcsICctaW1hZScsICc8aW5maWxlLm1hZT4nLCAnLW9tYWUnLCAnPG91dGZpbGUubWFlPic=

>  <s_epik_input>  (1) 
W09IXUMoPU8pW0NASF0oW0NIM10pW0NAQEhdMVtDSF09W0NIXS9DKFtDSF09TkMxPU8pPVtDSF1cW0NASF0oW0NIM10pT1tDSDJdW0NIMl1DKD1PKVtOSF1bQ0gyXVtDQEhdKFtDSDNdKVtDQEBIXTJbQ0gyXVtOSF1bTkhdW0NASF0ybjNbY0hdW2NIXWMoW09IXSlbY0hdMw==

>  <s_glide_docking_method>  (1) 
confgen

>  <s_i_glide_gridfile>  (1) 
gpcr_5ht2c_6bqh_protein_autoprepared_prepared

>  <s_lp_Force_Field>  (1) 
S-OPLS

>  <s_lp_Variant>  (1) 
DiffSBDD_18_num_sample_100-1

>  <s_m_source_file>  (1) 
generated__ligand_DiffSBDD_2026-05-06_prepared.sdf

>  <GenAI_Model>  (1) 
DiffSBDD

>  <Protein>  (1) 
GPCR_5HT2C

$$$$
DiffSBDD_23_num_sample_100
     RDKit          3D

  0  0  0  0  0  0  0  0  0  0999 V3000
M  V30 BEGIN CTAB
M  V30 COUNTS 83 87 0 0 1
M  V30 BEGIN ATOM
M  V30 1 C 38.296911 26.625123 54.100777 0
M  V30 2 C 39.940770 30.420442 60.743400 0
M  V30 3 C 40.720428 33.088588 61.453457 0
M  V30 4 O 38.051480 36.095960 62.597208 0
M  V30 5 N 35.464557 32.335964 60.438348 0
M  V30 6 C 40.290337 28.094996 59.760319 0
M  V30 7 C 37.739504 25.982894 57.764806 0
M  V30 8 N 38.898623 31.495634 60.751468 0
M  V30 9 C 38.415633 33.860697 61.726646 0
M  V30 10 C 41.179534 34.295641 61.988808 0
M  V30 11 C 38.350264 33.541779 58.453823 0
M  V30 12 C 37.018392 33.395616 59.173645 0
M  V30 13 C 37.698820 26.685706 56.440057 0 CFG=2
M  V30 14 C 36.014457 34.181179 59.168166 0
M  V30 15 N 38.633829 26.133582 55.446718 0 CFG=1 CHG=1
M  V30 16 C 40.309311 28.532923 62.302791 0
M  V30 17 C 37.187141 36.537576 61.565266 0
M  V30 18 C 38.912840 35.096542 62.226218 0
M  V30 19 C 39.687561 28.911874 60.943574 0 CFG=1
M  V30 20 C 40.267261 29.741792 55.022237 0
M  V30 21 C 36.675445 32.294520 59.981738 0
M  V30 22 C 38.934012 28.660478 57.772293 0
M  V30 23 C 39.449248 29.412272 52.022623 0
M  V30 24 O 39.291657 29.834420 57.822286 0
M  V30 25 C 38.608530 29.897927 53.193939 0
M  V30 26 C 39.328926 32.838910 61.303346 0
M  V30 27 C 37.623400 31.164048 60.234911 0
M  V30 28 C 38.825955 24.669133 55.453065 0
M  V30 29 C 34.849458 33.678241 59.980094 0
M  V30 30 C 37.859231 29.120038 55.437019 0
M  V30 31 C 39.319933 27.682136 53.744210 0 CFG=2
M  V30 32 C 40.286416 35.298482 62.360974 0
M  V30 33 C 39.036485 26.303867 58.507509 0
M  V30 34 C 39.027178 29.072068 54.407829 0 CFG=2
M  V30 35 C 39.398270 27.909091 52.219915 0
M  V30 36 O 37.268883 30.021439 59.980173 0
M  V30 37 N 39.371837 27.729683 58.652594 0
M  V30 38 C 37.916695 28.212288 56.693757 0 CFG=1
M  V30 39 H 38.335674 25.807673 53.405969 0
M  V30 40 H 37.271603 26.979007 53.992513 0
M  V30 41 H 40.631301 30.648415 61.543678 0
M  V30 42 H 40.534541 30.487101 59.853717 0
M  V30 43 H 41.447939 32.356212 61.149201 0
M  V30 44 H 40.667558 27.221437 60.229393 0
M  V30 45 H 41.194322 28.548187 59.349700 0
M  V30 46 H 36.858018 26.361275 58.253508 0
M  V30 47 H 37.567836 24.909432 57.697877 0
M  V30 48 H 37.360092 33.718856 61.692243 0
M  V30 49 H 42.228199 34.449845 62.106575 0
M  V30 50 H 38.744468 32.580506 58.127367 0
M  V30 51 H 39.110710 34.022702 59.056442 0
M  V30 52 H 38.194065 34.123983 57.546293 0
M  V30 53 H 36.702581 26.446060 56.055309 0
M  V30 54 H 35.968109 35.118461 58.639371 0
M  V30 55 H 41.393565 28.428617 62.252223 0
M  V30 56 H 39.887488 27.621472 62.680686 0
M  V30 57 H 40.068258 29.262749 63.078107 0
M  V30 58 H 36.756839 37.505982 61.826383 0
M  V30 59 H 36.367447 35.835195 61.427666 0
M  V30 60 H 37.720736 36.655433 60.620283 0
M  V30 61 H 38.667398 28.617045 61.067095 0
M  V30 62 H 40.786250 29.078475 55.712905 0
M  V30 63 H 40.008135 30.654676 55.557125 0
M  V30 64 H 40.982912 30.067376 54.272700 0
M  V30 65 H 40.473277 29.778950 52.096165 0
M  V30 66 H 39.061301 29.717202 51.050116 0
M  V30 67 H 37.575769 29.625335 52.969754 0
M  V30 68 H 38.668618 30.975773 53.367340 0
M  V30 69 H 37.894221 24.135637 55.264993 0
M  V30 70 H 39.264877 24.312422 56.383605 0
M  V30 71 H 39.531324 24.421379 54.662531 0
M  V30 72 H 33.946290 33.536893 59.386495 0
M  V30 73 H 34.667744 34.299579 60.847800 0
M  V30 74 H 37.737581 30.153279 55.768672 0
M  V30 75 H 36.917546 28.934399 54.926891 0
M  V30 76 H 40.253033 27.221285 54.081743 0
M  V30 77 H 40.658176 36.233030 62.757662 0
M  V30 78 H 38.960558 25.812124 59.453130 0
M  V30 79 H 39.881607 25.832959 58.007949 0
M  V30 80 H 38.506732 27.518847 51.722795 0
M  V30 81 H 40.256530 27.430027 51.763730 0
M  V30 82 H 37.050337 28.520178 57.265034 0
M  V30 83 H 39.538297 26.522963 55.672008 0
M  V30 END ATOM
M  V30 BEGIN BOND
M  V30 1 1 8 2
M  V30 2 1 10 3
M  V30 3 1 12 11
M  V30 4 1 13 7
M  V30 5 2 14 12
M  V30 6 1 15 1
M  V30 7 1 15 13
M  V30 8 1 17 4
M  V30 9 1 18 4
M  V30 10 2 18 9
M  V30 11 1 19 2
M  V30 12 1 19 6
M  V30 13 1 19 16
M  V30 14 2 21 5
M  V30 15 1 21 12
M  V30 16 2 24 22
M  V30 17 1 25 23
M  V30 18 2 26 3
M  V30 19 1 26 8
M  V30 20 1 26 9
M  V30 21 1 27 8
M  V30 22 1 27 21
M  V30 23 1 28 15
M  V30 24 1 29 5
M  V30 25 1 29 14
M  V30 26 1 31 1
M  V30 27 2 32 10
M  V30 28 1 32 18
M  V30 29 1 33 7
M  V30 30 1 34 20 CFG=1
M  V30 31 1 34 25
M  V30 32 1 34 30
M  V30 33 1 34 31
M  V30 34 1 35 23
M  V30 35 1 35 31
M  V30 36 2 36 27
M  V30 37 1 37 6
M  V30 38 1 37 22
M  V30 39 1 37 33
M  V30 40 1 38 13
M  V30 41 1 38 22
M  V30 42 1 38 30
M  V30 43 1 39 1
M  V30 44 1 40 1
M  V30 45 1 41 2
M  V30 46 1 42 2
M  V30 47 1 43 3
M  V30 48 1 44 6
M  V30 49 1 45 6
M  V30 50 1 46 7
M  V30 51 1 47 7
M  V30 52 1 48 9
M  V30 53 1 49 10
M  V30 54 1 50 11
M  V30 55 1 51 11
M  V30 56 1 52 11
M  V30 57 1 13 53 CFG=3
M  V30 58 1 54 14
M  V30 59 1 55 16
M  V30 60 1 56 16
M  V30 61 1 57 16
M  V30 62 1 58 17
M  V30 63 1 59 17
M  V30 64 1 60 17
M  V30 65 1 19 61 CFG=1
M  V30 66 1 62 20
M  V30 67 1 63 20
M  V30 68 1 64 20
M  V30 69 1 65 23
M  V30 70 1 66 23
M  V30 71 1 67 25
M  V30 72 1 68 25
M  V30 73 1 69 28
M  V30 74 1 70 28
M  V30 75 1 71 28
M  V30 76 1 72 29
M  V30 77 1 73 29
M  V30 78 1 74 30
M  V30 79 1 75 30
M  V30 80 1 31 76 CFG=1
M  V30 81 1 77 32
M  V30 82 1 78 33
M  V30 83 1 79 33
M  V30 84 1 80 35
M  V30 85 1 81 35
M  V30 86 1 38 82 CFG=1
M  V30 87 1 15 83 CFG=1
M  V30 END BOND
M  V30 END CTAB
M  END
>  <i_epik_Tot_Q>  (1) 
1

>  <i_epik_Tot_abs_Q>  (1) 
1

>  <i_i_glide_confnum>  (1) 
423

>  <i_i_glide_lignum>  (1) 
60

>  <i_i_glide_posenum>  (1) 
336

>  <i_i_glide_rotatable_bonds>  (1) 
8

>  <i_lp_mmshare_version>  (1) 
72125

>  <i_m_source_file_index>  (1) 
24

>  <i_f3d_flags>  (1) 
0

>  <num_sample>  (1) 
100

>  <b_lp_Chiralities_Consistent>  (1) 
1

>  <r_epik_Charging_Adjusted_Penalty>  (1) 
0.0029773975431382485

>  <r_epik_Ionization_Penalty>  (1) 
0.013183626931022738

>  <r_epik_Ionization_Penalty_Charging>  (1) 
0.0029773975431382485

>  <r_epik_Ionization_Penalty_Neutral>  (1) 
0.010206229387884489

>  <r_epik_State_Penalty>  (1) 
-0

>  <r_glide_ring_energy>  (1) 
0

>  <r_i_docking_score>  (1) 
-5.6720039660327055

>  <r_i_glide_ecoul>  (1) 
-1.0361366169814814

>  <r_i_glide_eff_state_penalty>  (1) 
-0

>  <r_i_glide_einternal>  (1) 
11.35635545200855

>  <r_i_glide_emodel>  (1) 
-32.960443181087626

>  <r_i_glide_emodel_strain>  (1) 
1.849087460898204

>  <r_i_glide_energy>  (1) 
-30.5294559112426

>  <r_i_glide_erotb>  (1) 
0.5287100460970352

>  <r_i_glide_esite>  (1) 
-0.070986812062905622

>  <r_i_glide_evdw>  (1) 
-29.49331929426112

>  <r_i_glide_gscore>  (1) 
-5.6720039660327055

>  <r_i_glide_gscore_strain>  (1) 
0

>  <r_i_glide_hbond>  (1) 
0

>  <r_i_glide_ligand_efficiency>  (1) 
-0.14926326226401856

>  <r_i_glide_ligand_efficiency_ln>  (1) 
-1.2230509085285328

>  <r_i_glide_ligand_efficiency_sa>  (1) 
-0.50181941687021425

>  <r_i_glide_lipo>  (1) 
-4.4299735249227448

>  <r_i_glide_metal>  (1) 
-0

>  <r_i_glide_rewards>  (1) 
-0.069667217883812471

>  <r_lp_Energy>  (1) 
93.987067999999994

>  <r_lp_tautomer_probability>  (1) 
1

>  <s_epik_Chemistry_Notes>  (1) 
This compound has an imine and may undergo hydrolysis.

>  <s_epik_cmdline>  (1) 
J2VwaWtfcHl0aG9uJywgJy1waHQnLCAnMS4wJywgJy1waCcsICc3LjQnLCAnLXRuJywgJzgnLCAnLW1hJywgJzUwMCcsICctaW1hZScsICc8aW5maWxlLm1hZT4nLCAnLW9tYWUnLCAnPG91dGZpbGUubWFlPic=

>  <s_epik_input>  (1) 
W0NIMl0xW0NIMl1bQ0gyXVtDQEBIXShbQ0BAXTEyW0NIM10pW0NIMl1OKFtDSDNdKVtDQEhdM1tDQEhdKFtDSDJdMilDKD1PKU4oW0NIMl1bQ0gyXTMpW0NIMl1bQ0BASF0oW0NIM10pW0NIMl1OKGMoW2NIXVtjSF1bY0hdNClbY0hdYzRPW0NIM10pQyg9TylDNT1OW0NIMl1bQ0hdPUM1W0NIM10=

>  <s_glide_docking_method>  (1) 
confgen

>  <s_i_glide_gridfile>  (1) 
gpcr_5ht2c_6bqh_protein_autoprepared_prepared

>  <s_lp_Force_Field>  (1) 
S-OPLS

>  <s_lp_Variant>  (1) 
DiffSBDD_23_num_sample_100-3

>  <s_m_source_file>  (1) 
generated__ligand_DiffSBDD_2026-05-06_prepared.sdf

>  <GenAI_Model>  (1) 
DiffSBDD

>  <Protein>  (1) 
GPCR_5HT2C

$$$$
DiffSBDD_44_num_sample_100
     RDKit          3D

  0  0  0  0  0  0  0  0  0  0999 V3000
M  V30 BEGIN CTAB
M  V30 COUNTS 58 59 0 0 1
M  V30 BEGIN ATOM
M  V30 1 C 35.584353 31.669316 61.065904 0
M  V30 2 O 38.948318 30.969049 59.488125 0 CHG=-1
M  V30 3 C 38.237477 26.168293 57.706296 0
M  V30 4 C 36.671711 33.098224 59.485950 0 CFG=1
M  V30 5 N 36.880322 31.687143 59.053521 0 CFG=2 CHG=1
M  V30 6 C 39.887326 26.385834 55.912555 0
M  V30 7 N 40.267243 28.931242 57.120075 0
M  V30 8 C 39.350158 26.713058 57.307076 0
M  V30 9 O 41.114016 27.621579 58.887299 0
M  V30 10 C 35.435533 33.043183 60.399459 0 CFG=1
M  V30 11 C 34.125604 33.205164 59.603486 0
M  V30 12 C 38.122973 30.094034 57.483581 0 CFG=1
M  V30 13 C 39.467554 29.857772 56.789991 0
M  V30 14 C 36.217564 30.768381 60.004151 0
M  V30 15 C 42.242056 27.075596 58.254933 0
M  V30 16 C 36.633157 25.191238 56.123258 0
M  V30 17 C 38.198690 31.314312 58.464111 0 CFG=2
M  V30 18 C 39.984333 27.886658 58.074700 0 CFG=1
M  V30 19 F 38.267525 24.021492 55.053822 0
M  V30 20 C 37.679911 25.193097 54.983446 0 CFG=2
M  V30 21 C 37.066342 25.641134 57.495437 0
M  V30 22 C 37.067216 30.139766 56.386344 0
M  V30 23 C 39.796817 30.825440 55.653138 0
M  V30 24 C 37.885052 33.732295 60.203018 0
M  V30 25 C 38.745132 26.327017 54.851110 0
M  V30 26 H 34.667543 31.260276 61.482965 0
M  V30 27 H 36.294909 31.764998 61.885518 0
M  V30 28 H 36.464494 33.700405 58.600792 0
M  V30 29 H 40.660275 27.075641 55.578302 0
M  V30 30 H 40.388350 25.419270 55.964343 0
M  V30 31 H 35.468104 33.834462 61.149377 0
M  V30 32 H 33.976414 32.385647 58.902369 0
M  V30 33 H 33.253511 33.237279 60.253510 0
M  V30 34 H 34.130222 34.132033 59.030165 0
M  V30 35 H 37.800983 29.228893 58.054345 0
M  V30 36 H 35.467492 30.213335 59.445067 0
M  V30 37 H 36.881865 30.032178 60.455443 0
M  V30 38 H 43.134388 27.225557 58.855782 0
M  V30 39 H 42.043667 26.021335 58.253482 0
M  V30 40 H 42.426080 27.442048 57.244758 0
M  V30 41 H 36.145976 24.219372 56.197669 0
M  V30 42 H 35.869365 25.906525 55.853489 0
M  V30 43 H 38.452120 32.167786 57.833326 0
M  V30 44 H 39.301682 28.204688 58.859160 0
M  V30 45 H 37.124919 25.157561 54.044748 0
M  V30 46 H 36.302897 25.659101 58.253371 0
M  V30 47 H 37.181836 29.331430 55.663758 0
M  V30 48 H 36.087816 30.021350 56.831247 0
M  V30 49 H 37.068253 31.082547 55.839114 0
M  V30 50 H 39.888566 31.847031 56.021017 0
M  V30 51 H 40.729559 30.548527 55.165352 0
M  V30 52 H 39.046709 30.801942 54.864306 0
M  V30 53 H 37.658704 34.743353 60.540269 0
M  V30 54 H 38.191870 33.151445 61.073691 0
M  V30 55 H 38.747196 33.806964 59.539703 0
M  V30 56 H 38.233320 27.289042 54.814715 0
M  V30 57 H 39.221323 26.215533 53.876239 0
M  V30 58 H 36.279985 31.634633 58.222552 0
M  V30 END ATOM
M  V30 BEGIN BOND
M  V30 1 1 5 4
M  V30 2 2 8 3
M  V30 3 1 8 6
M  V30 4 1 10 1
M  V30 5 1 10 4
M  V30 6 1 11 10
M  V30 7 2 13 7
M  V30 8 1 13 12
M  V30 9 1 14 1
M  V30 10 1 14 5
M  V30 11 1 15 9
M  V30 12 1 17 2
M  V30 13 1 17 5
M  V30 14 1 17 12
M  V30 15 1 18 7
M  V30 16 1 18 8
M  V30 17 1 18 9
M  V30 18 1 20 16
M  V30 19 1 20 19
M  V30 20 2 21 3
M  V30 21 1 21 16
M  V30 22 1 22 12
M  V30 23 1 23 13
M  V30 24 1 24 4
M  V30 25 1 25 6
M  V30 26 1 25 20
M  V30 27 1 26 1
M  V30 28 1 27 1
M  V30 29 1 4 28 CFG=3
M  V30 30 1 29 6
M  V30 31 1 30 6
M  V30 32 1 10 31 CFG=1
M  V30 33 1 32 11
M  V30 34 1 33 11
M  V30 35 1 34 11
M  V30 36 1 12 35 CFG=1
M  V30 37 1 36 14
M  V30 38 1 37 14
M  V30 39 1 38 15
M  V30 40 1 39 15
M  V30 41 1 40 15
M  V30 42 1 41 16
M  V30 43 1 42 16
M  V30 44 1 17 43 CFG=3
M  V30 45 1 18 44 CFG=1
M  V30 46 1 20 45 CFG=3
M  V30 47 1 46 21
M  V30 48 1 47 22
M  V30 49 1 48 22
M  V30 50 1 49 22
M  V30 51 1 50 23
M  V30 52 1 51 23
M  V30 53 1 52 23
M  V30 54 1 53 24
M  V30 55 1 54 24
M  V30 56 1 55 24
M  V30 57 1 56 25
M  V30 58 1 57 25
M  V30 59 1 5 58 CFG=3
M  V30 END BOND
M  V30 END CTAB
M  END
>  <i_epik_Tot_Q>  (1) 
0

>  <i_epik_Tot_abs_Q>  (1) 
2

>  <i_i_glide_confnum>  (1) 
48

>  <i_i_glide_lignum>  (1) 
123

>  <i_i_glide_posenum>  (1) 
330

>  <i_i_glide_rotatable_bonds>  (1) 
6

>  <i_lp_mmshare_version>  (1) 
72125

>  <i_m_source_file_index>  (1) 
45

>  <i_f3d_flags>  (1) 
0

>  <num_sample>  (1) 
100

>  <b_lp_Chiralities_Consistent>  (1) 
1

>  <r_epik_Charging_Adjusted_Penalty>  (1) 
0.41733257654759531

>  <r_epik_Ionization_Penalty>  (1) 
0.0069177268181324029

>  <r_epik_Ionization_Penalty_Charging>  (1) 
0.0066527375949913311

>  <r_epik_Ionization_Penalty_Neutral>  (1) 
0.00026498922314107146

>  <r_epik_State_Penalty>  (1) 
0.41067983895260396

>  <r_glide_ring_energy>  (1) 
0

>  <r_i_docking_score>  (1) 
-5.6708537707906261

>  <r_i_glide_ecoul>  (1) 
-5.7602615830304655

>  <r_i_glide_eff_state_penalty>  (1) 
0.41067983895260396

>  <r_i_glide_einternal>  (1) 
6.4377408320735512

>  <r_i_glide_emodel>  (1) 
-36.803671988503083

>  <r_i_glide_emodel_strain>  (1) 
4.46479681644756

>  <r_i_glide_energy>  (1) 
-28.668751810412218

>  <r_i_glide_erotb>  (1) 
0.61440649929112812

>  <r_i_glide_esite>  (1) 
-0.16427816350995128

>  <r_i_glide_evdw>  (1) 
-22.908490227381751

>  <r_i_glide_gscore>  (1) 
-6.0815336097432304

>  <r_i_glide_gscore_strain>  (1) 
0.11619920411189

>  <r_i_glide_hbond>  (1) 
-0.20000000000000001

>  <r_i_glide_ligand_efficiency>  (1) 
-0.22683415083162506

>  <r_i_glide_ligand_efficiency_ln>  (1) 
-1.3441622854514295

>  <r_i_glide_ligand_efficiency_sa>  (1) 
-0.66326708066412443

>  <r_i_glide_lipo>  (1) 
-2.3325735937112295

>  <r_i_glide_metal>  (1) 
-0

>  <r_i_glide_rewards>  (1) 
-2.105823807101411

>  <r_lp_Energy>  (1) 
19.622211999999998

>  <r_lp_tautomer_probability>  (1) 
0.49999399997599986

>  <s_epik_Chemistry_Notes>  (1) 
This compound has an imine and may undergo hydrolysis. This compound contains an acetal/aminal-like group ( X-CH(R)-Y where X, Y are N, S, or O) that may be acid/base labile, releasing an aldehyde.

>  <s_epik_cmdline>  (1) 
J2VwaWtfcHl0aG9uJywgJy1waHQnLCAnMS4wJywgJy1waCcsICc3LjQnLCAnLXRuJywgJzgnLCAnLW1hJywgJzUwMCcsICctaW1hZScsICc8aW5maWxlLm1hZT4nLCAnLW9tYWUnLCAnPG91dGZpbGUubWFlPic=

>  <s_epik_input>  (1) 
W0NIM11bQ0BIXTFbQ0gyXVtDSDJdTihbQ0BASF0xW0NIM10pW0NAQEhdKFtPSF0pW0NAQEhdKFtDSDNdKS9DKFtDSDNdKT1OXFtDQEBIXShPW0NIM10pQzI9Qz1bQ0hdW0NIMl1bQ0BASF0oRilbQ0gyXVtDSDJdMg==

>  <s_glide_docking_method>  (1) 
confgen

>  <s_i_glide_gridfile>  (1) 
gpcr_5ht2c_6bqh_protein_autoprepared_prepared

>  <s_lp_Force_Field>  (1) 
S-OPLS

>  <s_lp_Variant>  (1) 
DiffSBDD_44_num_sample_100-16

>  <s_m_source_file>  (1) 
generated__ligand_DiffSBDD_2026-05-06_prepared.sdf

>  <GenAI_Model>  (1) 
DiffSBDD

>  <Protein>  (1) 
GPCR_5HT2C

$$$$
DiffSBDD_90_num_sample_100
     RDKit          3D

  0  0  0  0  0  0  0  0  0  0999 V3000
M  V30 BEGIN CTAB
M  V30 COUNTS 85 88 0 0 1
M  V30 BEGIN ATOM
M  V30 1 C 36.941361 29.439658 58.586964 0
M  V30 2 O 37.505601 36.821434 64.226564 0
M  V30 3 F 40.413880 31.219927 52.712112 0
M  V30 4 C 38.531533 26.467631 56.003331 0 CFG=1
M  V30 5 C 38.064301 37.768132 61.369098 0 CFG=2
M  V30 6 C 38.869708 35.577171 60.472620 0 CFG=1
M  V30 7 C 37.186781 23.836023 54.929077 0
M  V30 8 C 37.422303 33.553332 59.983875 0
M  V30 9 C 37.846502 25.290876 56.772001 0
M  V30 10 N 38.822341 37.221507 63.803493 0
M  V30 11 C 39.304724 31.801200 54.705518 0
M  V30 12 C 38.699713 24.823635 57.928300 0
M  V30 13 C 37.977373 36.806742 60.137634 0
M  V30 14 C 38.787437 35.479732 61.984458 0
M  V30 15 O 37.867682 39.972312 60.443054 0
M  V30 16 N 37.405717 30.421410 57.635417 0 CFG=2 CHG=1
M  V30 17 C 38.525520 34.280159 59.743435 0
M  V30 18 F 38.667294 32.407728 52.653644 0
M  V30 19 C 39.283826 28.951322 53.893389 0 CFG=1
M  V30 20 N 37.867393 29.773109 56.424084 0
M  V30 21 C 40.267336 30.860805 55.395453 0
M  V30 22 C 38.073550 31.601484 58.266109 0
M  V30 23 O 37.849162 24.021440 56.138774 0
M  V30 24 C 36.460614 25.596698 57.328247 0
M  V30 25 C 35.866280 30.078997 59.368598 0
M  V30 26 C 38.419750 30.021233 53.255806 0
M  V30 27 C 37.050908 32.264830 59.257526 0 CFG=1
M  V30 28 C 38.941445 36.943951 62.378142 0 CFG=1
M  V30 29 C 37.753418 27.047560 54.795836 0
M  V30 30 O 39.776145 39.459836 61.452475 0 CHG=-1
M  V30 31 C 39.112496 29.043016 56.561882 0 CFG=1
M  V30 32 C 36.440805 31.217694 60.218804 0
M  V30 33 O 36.723111 37.966409 61.792504 0
M  V30 34 C 39.018899 27.560503 56.988690 0
M  V30 35 C 39.909385 29.352016 55.296710 0 CFG=1
M  V30 36 C 38.713699 27.526648 53.708207 0
M  V30 37 C 39.208769 31.363761 53.269833 0
M  V30 38 C 38.623226 39.189351 61.053486 0
M  V30 39 H 37.740350 29.070448 59.231193 0
M  V30 40 H 36.493867 28.610181 58.049800 0
M  V30 41 H 37.034080 37.640838 64.184352 0
M  V30 42 H 39.439842 26.015097 55.604886 0
M  V30 43 H 39.909454 35.809981 60.242488 0
M  V30 44 H 37.208981 22.783836 54.649918 0
M  V30 45 H 36.155533 24.182637 54.924862 0
M  V30 46 H 37.799973 24.386126 54.244135 0
M  V30 47 H 36.725569 33.889099 60.737763 0
M  V30 48 H 39.439675 36.729651 64.434178 0
M  V30 49 H 39.618263 32.821375 54.837677 0
M  V30 50 H 38.311440 31.822955 55.146494 0
M  V30 51 H 38.677873 25.508691 58.775484 0
M  V30 52 H 38.268386 23.873479 58.258865 0
M  V30 53 H 39.741338 24.664157 57.640269 0
M  V30 54 H 38.265030 37.279634 59.199533 0
M  V30 55 H 36.951385 36.467034 59.990709 0
M  V30 56 H 39.553688 34.831563 62.409758 0
M  V30 57 H 37.802392 35.110208 62.253392 0
M  V30 58 H 39.228466 33.952874 58.992177 0
M  V30 59 H 40.031723 28.996225 53.109741 0
M  V30 60 H 38.023760 30.591940 55.857121 0
M  V30 61 H 41.263373 31.035258 54.991716 0
M  V30 62 H 40.267404 31.207215 56.423286 0
M  V30 63 H 38.358625 32.315411 57.494049 0
M  V30 64 H 38.980006 31.291006 58.787524 0
M  V30 65 H 36.421369 26.542149 57.851911 0
M  V30 66 H 35.708435 25.597138 56.551354 0
M  V30 67 H 36.205351 24.843555 58.068241 0
M  V30 68 H 35.467078 29.221330 59.853586 0
M  V30 69 H 35.073724 30.437447 58.707992 0
M  V30 70 H 38.223860 29.621382 52.255122 0
M  V30 71 H 37.462207 30.119241 53.766455 0
M  V30 72 H 36.225349 32.628727 58.653565 0
M  V30 73 H 39.986300 37.178557 62.167632 0
M  V30 74 H 37.084791 26.318279 54.353528 0
M  V30 75 H 37.068683 27.841316 55.053282 0
M  V30 76 H 39.663445 29.493849 57.388280 0
M  V30 77 H 37.196095 30.837170 60.907376 0
M  V30 78 H 35.649304 31.658311 60.825868 0
M  V30 79 H 36.405922 38.680523 61.249823 0
M  V30 80 H 40.015916 27.265612 57.319133 0
M  V30 81 H 38.443391 27.507516 57.902561 0
M  V30 82 H 40.829811 28.789740 55.453669 0
M  V30 83 H 39.532312 26.815887 53.595398 0
M  V30 84 H 38.188685 27.464038 52.752023 0
M  V30 85 H 36.537065 30.871086 57.306544 0
M  V30 END ATOM
M  V30 BEGIN BOND
M  V30 1 1 9 4
M  V30 2 1 10 2
M  V30 3 1 12 9
M  V30 4 1 13 5
M  V30 5 1 13 6
M  V30 6 1 14 6
M  V30 7 1 16 1
M  V30 8 1 17 6
M  V30 9 2 17 8
M  V30 10 1 20 16
M  V30 11 1 21 11
M  V30 12 1 22 16
M  V30 13 1 23 7
M  V30 14 1 23 9
M  V30 15 1 24 9
M  V30 16 1 25 1
M  V30 17 1 26 19
M  V30 18 1 27 8
M  V30 19 1 27 22
M  V30 20 1 28 5
M  V30 21 1 28 10
M  V30 22 1 28 14
M  V30 23 1 29 4
M  V30 24 1 31 20
M  V30 25 1 32 25
M  V30 26 1 32 27
M  V30 27 1 5 33 CFG=1
M  V30 28 1 34 4
M  V30 29 1 34 31
M  V30 30 1 35 19
M  V30 31 1 35 21
M  V30 32 1 35 31
M  V30 33 1 36 19
M  V30 34 1 36 29
M  V30 35 1 37 3
M  V30 36 1 37 11
M  V30 37 1 37 18
M  V30 38 1 37 26
M  V30 39 1 38 5
M  V30 40 2 38 15
M  V30 41 1 38 30
M  V30 42 1 39 1
M  V30 43 1 40 1
M  V30 44 1 41 2
M  V30 45 1 4 42 CFG=3
M  V30 46 1 6 43 CFG=1
M  V30 47 1 44 7
M  V30 48 1 45 7
M  V30 49 1 46 7
M  V30 50 1 47 8
M  V30 51 1 48 10
M  V30 52 1 49 11
M  V30 53 1 50 11
M  V30 54 1 51 12
M  V30 55 1 52 12
M  V30 56 1 53 12
M  V30 57 1 54 13
M  V30 58 1 55 13
M  V30 59 1 56 14
M  V30 60 1 57 14
M  V30 61 1 58 17
M  V30 62 1 19 59 CFG=3
M  V30 63 1 60 20
M  V30 64 1 61 21
M  V30 65 1 62 21
M  V30 66 1 63 22
M  V30 67 1 64 22
M  V30 68 1 65 24
M  V30 69 1 66 24
M  V30 70 1 67 24
M  V30 71 1 68 25
M  V30 72 1 69 25
M  V30 73 1 70 26
M  V30 74 1 71 26
M  V30 75 1 27 72 CFG=3
M  V30 76 1 28 73 CFG=3
M  V30 77 1 74 29
M  V30 78 1 75 29
M  V30 79 1 31 76 CFG=1
M  V30 80 1 77 32
M  V30 81 1 78 32
M  V30 82 1 79 33
M  V30 83 1 80 34
M  V30 84 1 81 34
M  V30 85 1 35 82 CFG=1
M  V30 86 1 83 36
M  V30 87 1 84 36
M  V30 88 1 16 85 CFG=3
M  V30 END BOND
M  V30 END CTAB
M  END
>  <i_epik_Tot_Q>  (1) 
0

>  <i_epik_Tot_abs_Q>  (1) 
2

>  <i_i_glide_confnum>  (1) 
1116

>  <i_i_glide_lignum>  (1) 
244

>  <i_i_glide_posenum>  (1) 
14

>  <i_i_glide_rotatable_bonds>  (1) 
10

>  <i_lp_mmshare_version>  (1) 
72125

>  <i_m_source_file_index>  (1) 
91

>  <i_f3d_flags>  (1) 
0

>  <num_sample>  (1) 
100

>  <b_lp_Chiralities_Consistent>  (1) 
1

>  <r_epik_Charging_Adjusted_Penalty>  (1) 
1.5083745474312953

>  <r_epik_Ionization_Penalty>  (1) 
0.65750586125956467

>  <r_epik_Ionization_Penalty_Charging>  (1) 
0.6544614066189578

>  <r_epik_Ionization_Penalty_Neutral>  (1) 
0.0030444546406068235

>  <r_epik_State_Penalty>  (1) 
0.8539131408123376

>  <r_glide_ring_energy>  (1) 
0

>  <r_i_docking_score>  (1) 
-5.6704834946250298

>  <r_i_glide_ecoul>  (1) 
-8.3335983289830331

>  <r_i_glide_eff_state_penalty>  (1) 
0.8539131408123376

>  <r_i_glide_einternal>  (1) 
24.081027727514549

>  <r_i_glide_emodel>  (1) 
-76.453825324822517

>  <r_i_glide_emodel_strain>  (1) 
5.4123389193713791

>  <r_i_glide_energy>  (1) 
-15.13585060349876

>  <r_i_glide_erotb>  (1) 
0.42002339013477186

>  <r_i_glide_esite>  (1) 
-0.099570126896097677

>  <r_i_glide_evdw>  (1) 
-6.8022522745157277

>  <r_i_glide_gscore>  (1) 
-6.524396635437367

>  <r_i_glide_gscore_strain>  (1) 
0.35308472984284478

>  <r_i_glide_hbond>  (1) 
-0.47144483461258813

>  <r_i_glide_ligand_efficiency>  (1) 
-0.14922324985855343

>  <r_i_glide_ligand_efficiency_ln>  (1) 
-1.2227230501653008

>  <r_i_glide_ligand_efficiency_sa>  (1) 
-0.50168489614707357

>  <r_i_glide_lipo>  (1) 
-3.9719687878764405

>  <r_i_glide_metal>  (1) 
-0

>  <r_i_glide_rewards>  (1) 
-1.1643686429566165

>  <r_lp_Energy>  (1) 
53.976785999999997

>  <s_epik_Chemistry_Notes>  (1) 
This compound has a N-S or N-O group and may undergo hydrolysis at high or low pH.

>  <s_epik_cmdline>  (1) 
J2VwaWtfcHl0aG9uJywgJy1waHQnLCAnMS4wJywgJy1waCcsICc3LjQnLCAnLXRuJywgJzgnLCAnLW1hJywgJzUwMCcsICctaW1hZScsICc8aW5maWxlLm1hZT4nLCAnLW9tYWUnLCAnPG91dGZpbGUubWFlPic=

>  <s_epik_input>  (1) 
RkMoRikoW0NIMl0xKVtDSDJdW0NIMl1bQ0BIXShbQ0BASF0xMilbQ0BIXShbQ0gyXVtDQEhdKFtDSDJdW0NIMl0yKUMoW0NIM10pKFtDSDNdKU9bQ0gzXSlbTkhdTjNbQ0gyXVtDSDJdW0NIMl1bQ0BIXShbQ0gyXTMpL1tDSF09W0NIXS9bQ0BASF0oW0NIMl1bQ0BdNChbT0hdKUMoPU8pW09IXSlbQ0gyXVtDQEBIXTRbTkhdW09IXQ==

>  <s_glide_docking_method>  (1) 
confgen

>  <s_i_glide_gridfile>  (1) 
gpcr_5ht2c_6bqh_protein_autoprepared_prepared

>  <s_lp_Force_Field>  (1) 
S-OPLS

>  <s_lp_Variant>  (1) 
DiffSBDD_90_num_sample_100-16

>  <s_m_source_file>  (1) 
generated__ligand_DiffSBDD_2026-05-06_prepared.sdf

>  <GenAI_Model>  (1) 
DiffSBDD

>  <Protein>  (1) 
GPCR_5HT2C

$$$$
DiffSBDD_75_num_sample_100
     RDKit          3D

  0  0  0  0  0  0  0  0  0  0999 V3000
M  V30 BEGIN CTAB
M  V30 COUNTS 40 43 0 0 1
M  V30 BEGIN ATOM
M  V30 1 N 39.748898 29.220750 59.198339 0
M  V30 2 C 38.801953 31.006331 60.516771 0
M  V30 3 C 39.362657 31.404639 55.452222 0
M  V30 4 C 38.315079 30.955258 58.187435 0
M  V30 5 C 39.566783 29.870776 60.356863 0
M  V30 6 C 38.798612 31.506674 61.835439 0
M  V30 7 C 39.558291 27.696623 56.890453 0 CFG=1
M  V30 8 C 37.205755 27.755511 53.053581 0
M  V30 9 C 38.137419 31.570197 59.436852 0
M  V30 10 C 39.670791 30.638967 62.698215 0
M  V30 11 O 38.205275 32.495772 62.253609 0
M  V30 12 O 38.644837 26.951998 54.747400 0
M  V30 13 C 39.151986 29.789854 58.101035 0
M  V30 14 S 40.409418 29.216709 61.811541 0
M  V30 15 C 39.054977 29.908036 55.613243 0
M  V30 16 C 40.186111 30.415396 54.715914 0
M  V30 17 N 39.420090 29.173475 56.851973 0
M  V30 18 C 38.375612 26.965484 57.575194 0
M  V30 19 O 39.867306 30.880019 63.887828 0
M  V30 20 C 39.824023 27.037119 55.539515 0
M  V30 21 C 38.318981 28.119427 54.010750 0 CFG=2
M  V30 22 C 37.884858 29.293065 54.903838 0
M  V30 23 H 38.667454 32.005993 54.868966 0
M  V30 24 H 39.867251 31.939388 56.253133 0
M  V30 25 H 37.829783 31.363440 57.315446 0
M  V30 26 H 40.451756 27.495667 57.483354 0
M  V30 27 H 37.032256 28.550100 52.327981 0
M  V30 28 H 37.483853 26.858014 52.500492 0
M  V30 29 H 36.267736 27.574508 53.575556 0
M  V30 30 H 37.528565 32.456428 59.546581 0
M  V30 31 H 41.204463 30.258536 55.050392 0
M  V30 32 H 40.059774 30.423293 53.635001 0
M  V30 33 H 38.518350 25.885037 57.541858 0
M  V30 34 H 38.271791 27.222621 58.627905 0
M  V30 35 H 37.428466 27.184268 57.084969 0
M  V30 36 H 40.146572 26.010714 55.715088 0
M  V30 37 H 40.656739 27.516802 55.053448 0
M  V30 38 H 39.177649 28.381901 53.394195 0
M  V30 39 H 37.145247 29.000528 55.636956 0
M  V30 40 H 37.416944 30.061270 54.286642 0
M  V30 END ATOM
M  V30 BEGIN BOND
M  V30 1 1 5 1
M  V30 2 2 5 2
M  V30 3 1 6 2
M  V30 4 1 9 2
M  V30 5 2 9 4
M  V30 6 1 10 6
M  V30 7 2 11 6
M  V30 8 2 13 1
M  V30 9 1 13 4
M  V30 10 1 14 5
M  V30 11 1 14 10
M  V30 12 1 15 3
M  V30 13 1 16 3
M  V30 14 1 16 15
M  V30 15 1 17 7
M  V30 16 1 17 13
M  V30 17 1 17 15
M  V30 18 1 18 7
M  V30 19 2 19 10
M  V30 20 1 20 7
M  V30 21 1 20 12
M  V30 22 1 21 8
M  V30 23 1 21 12
M  V30 24 1 22 15
M  V30 25 1 22 21
M  V30 26 1 23 3
M  V30 27 1 24 3
M  V30 28 1 25 4
M  V30 29 1 7 26 CFG=1
M  V30 30 1 27 8
M  V30 31 1 28 8
M  V30 32 1 29 8
M  V30 33 1 30 9
M  V30 34 1 31 16
M  V30 35 1 32 16
M  V30 36 1 33 18
M  V30 37 1 34 18
M  V30 38 1 35 18
M  V30 39 1 36 20
M  V30 40 1 37 20
M  V30 41 1 21 38 CFG=3
M  V30 42 1 39 22
M  V30 43 1 40 22
M  V30 END BOND
M  V30 END CTAB
M  END
>  <i_epik_Tot_Q>  (1) 
0

>  <i_epik_Tot_abs_Q>  (1) 
0

>  <i_i_glide_confnum>  (1) 
4

>  <i_i_glide_lignum>  (1) 
188

>  <i_i_glide_posenum>  (1) 
130

>  <i_i_glide_rotatable_bonds>  (1) 
1

>  <i_lp_mmshare_version>  (1) 
72125

>  <i_m_source_file_index>  (1) 
76

>  <i_f3d_flags>  (1) 
0

>  <num_sample>  (1) 
100

>  <b_lp_Chiralities_Consistent>  (1) 
1

>  <r_epik_Charging_Adjusted_Penalty>  (1) 
0

>  <r_epik_Ionization_Penalty>  (1) 
6.9313959963176031e-10

>  <r_epik_Ionization_Penalty_Charging>  (1) 
0

>  <r_epik_Ionization_Penalty_Neutral>  (1) 
6.9313959963176031e-10

>  <r_epik_State_Penalty>  (1) 
-0

>  <r_glide_ring_energy>  (1) 
0.8094378056749032

>  <r_i_docking_score>  (1) 
-5.6676798480071859

>  <r_i_glide_ecoul>  (1) 
-0.048106334757657243

>  <r_i_glide_eff_state_penalty>  (1) 
-0

>  <r_i_glide_einternal>  (1) 
0.59377153363716317

>  <r_i_glide_emodel>  (1) 
-47.007597553297352

>  <r_i_glide_emodel_strain>  (1) 
0

>  <r_i_glide_energy>  (1) 
-34.128299764409

>  <r_i_glide_erotb>  (1) 
0.1839108918674553

>  <r_i_glide_esite>  (1) 
0

>  <r_i_glide_evdw>  (1) 
-34.080193429651345

>  <r_i_glide_gscore>  (1) 
-5.6676798480071859

>  <r_i_glide_gscore_strain>  (1) 
0

>  <r_i_glide_hbond>  (1) 
0

>  <r_i_glide_ligand_efficiency>  (1) 
-0.25762181127305389

>  <r_i_glide_ligand_efficiency_ln>  (1) 
-1.3853876884984697

>  <r_i_glide_ligand_efficiency_sa>  (1) 
-0.72186644762177654

>  <r_i_glide_lipo>  (1) 
-2.0858908706545023

>  <r_i_glide_metal>  (1) 
-0

>  <r_i_glide_rewards>  (1) 
-2.0544742475239235

>  <r_lp_Energy>  (1) 
36.581914999999995

>  <r_lp_tautomer_probability>  (1) 
1

>  <s_epik_cmdline>  (1) 
J2VwaWtfcHl0aG9uJywgJy1waHQnLCAnMS4wJywgJy1waCcsICc3LjQnLCAnLXRuJywgJzgnLCAnLW1hJywgJzUwMCcsICctaW1hZScsICc8aW5maWxlLm1hZT4nLCAnLW9tYWUnLCAnPG91dGZpbGUubWFlPic=

>  <s_epik_input>  (1) 
Tz1DMUMoPU8pU2MoYzEyKW5jKFtjSF1bY0hdMilOKEMzNFtDSDJdW0NIMl0zKVtDQEBIXShbQ0gzXSlbQ0gyXU9bQ0BASF0oW0NIM10pW0NIMl00

>  <s_glide_docking_method>  (1) 
confgen

>  <s_i_glide_gridfile>  (1) 
gpcr_5ht2c_6bqh_protein_autoprepared_prepared

>  <s_lp_Force_Field>  (1) 
S-OPLS

>  <s_lp_Variant>  (1) 
DiffSBDD_75_num_sample_100-1

>  <s_m_source_file>  (1) 
generated__ligand_DiffSBDD_2026-05-06_prepared.sdf

>  <GenAI_Model>  (1) 
DiffSBDD

>  <Protein>  (1) 
GPCR_5HT2C

$$$$
DiffSBDD_42_num_sample_100
     RDKit          3D

  0  0  0  0  0  0  0  0  0  0999 V3000
M  V30 BEGIN CTAB
M  V30 COUNTS 69 73 0 0 1
M  V30 BEGIN ATOM
M  V30 1 O 38.619680 34.808495 59.894060 0
M  V30 2 C 36.667414 36.661228 62.411572 0
M  V30 3 C 39.735292 28.888201 56.268335 0
M  V30 4 C 41.054821 30.089485 64.094345 0
M  V30 5 O 37.961285 28.809432 59.323447 0
M  V30 6 C 37.239003 35.849760 61.289134 0
M  V30 7 C 39.922556 28.902015 60.897152 0
M  V30 8 C 37.321363 31.756683 61.583956 0
M  V30 9 C 39.824190 36.076741 61.604518 0
M  V30 10 C 40.467724 31.199494 63.241446 0 CFG=2
M  V30 11 C 37.313814 34.668128 59.537754 0
M  V30 12 C 38.548720 35.619837 60.988617 0
M  V30 13 O 40.176080 31.042938 61.864880 0
M  V30 14 C 39.858765 27.120376 54.655890 0
M  V30 15 C 39.214644 30.024079 61.635172 0 CFG=1
M  V30 16 C 39.799099 26.698106 53.387489 0
M  V30 17 C 40.923441 34.033225 62.153959 0
M  V30 18 Cl 39.105787 31.138967 54.309955 0
M  V30 19 C 39.874703 29.085641 57.552475 0
M  V30 20 O 41.067252 28.573713 61.195169 0
M  V30 21 N 40.272784 35.224151 62.693247 0
M  V30 22 C 39.349913 29.461856 53.942603 0
M  V30 23 C 37.956540 30.528804 60.959107 0
M  V30 24 C 35.819036 31.890483 61.249943 0
M  V30 25 C 39.637381 28.508356 55.020199 0
M  V30 26 P 41.358836 32.751175 63.409788 0 CFG=2
M  V30 27 C 39.467872 27.610395 52.213633 0
M  V30 28 C 36.142641 30.348816 59.212644 0
M  V30 29 C 39.274030 29.051989 52.660629 0
M  V30 30 O 42.267377 33.041523 64.551667 0
M  V30 31 C 39.159348 28.184576 59.782948 0 CFG=2
M  V30 32 C 35.527352 31.643259 59.761345 0
M  V30 33 C 37.411187 29.920673 59.890070 0
M  V30 34 C 40.027065 27.938467 58.534507 0
M  V30 35 C 41.200873 35.989123 63.513775 0
M  V30 36 N 36.425357 35.221449 60.360620 0
M  V30 37 O 39.867833 32.316982 63.884600 0
M  V30 38 H 37.423668 36.896541 63.161060 0
M  V30 39 H 35.869203 36.126417 62.928311 0
M  V30 40 H 36.259395 37.603172 62.044942 0
M  V30 41 H 40.312745 29.314492 64.283027 0
M  V30 42 H 41.382217 30.479590 65.058251 0
M  V30 43 H 41.913190 29.641775 63.593250 0
M  V30 44 H 37.877101 32.626147 61.239655 0
M  V30 45 H 37.465024 31.720201 62.657781 0
M  V30 46 H 40.605512 36.165261 60.847482 0
M  V30 47 H 39.660561 37.087281 61.979594 0
M  V30 48 H 37.046405 34.136676 58.636346 0
M  V30 49 H 40.102474 26.406895 55.431590 0
M  V30 50 H 38.875042 29.615300 62.586835 0
M  V30 51 H 40.001921 25.659110 53.166749 0
M  V30 52 H 41.825705 34.301930 61.603571 0
M  V30 53 H 40.256545 33.552027 61.439779 0
M  V30 54 H 39.871532 30.081937 57.965467 0
M  V30 55 H 35.224585 31.202070 61.850577 0
M  V30 56 H 35.469242 32.883723 61.530387 0
M  V30 57 H 40.267407 27.618386 51.478165 0
M  V30 58 H 38.562869 27.255779 51.718100 0
M  V30 59 H 36.342160 30.420394 58.147927 0
M  V30 60 H 35.467363 29.509471 59.331613 0
M  V30 61 H 39.068388 29.771226 51.882708 0
M  V30 62 H 38.855690 27.221432 60.178932 0
M  V30 63 H 35.916592 32.462463 59.171395 0
M  V30 64 H 34.454802 31.649725 59.569314 0
M  V30 65 H 39.690073 27.015019 58.058816 0
M  V30 66 H 41.079132 27.765662 58.771788 0
M  V30 67 H 41.566725 35.416635 64.363903 0
M  V30 68 H 40.668138 36.843281 63.925820 0
M  V30 69 H 42.058677 36.347162 62.943945 0
M  V30 END ATOM
M  V30 BEGIN BOND
M  V30 1 1 6 2
M  V30 2 1 10 4
M  V30 3 1 11 1
M  V30 4 1 12 1
M  V30 5 2 12 6
M  V30 6 1 12 9
M  V30 7 1 10 13 CFG=3
M  V30 8 1 15 7
M  V30 9 1 15 13
M  V30 10 2 16 14
M  V30 11 2 19 3
M  V30 12 2 20 7
M  V30 13 1 21 9
M  V30 14 1 21 17
M  V30 15 1 22 18
M  V30 16 1 23 8
M  V30 17 1 23 15
M  V30 18 1 24 8
M  V30 19 2 25 3
M  V30 20 1 25 14
M  V30 21 1 25 22
M  V30 22 1 26 10
M  V30 23 1 26 17 CFG=1
M  V30 24 1 27 16
M  V30 25 2 29 22
M  V30 26 1 29 27
M  V30 27 2 30 26
M  V30 28 1 31 5
M  V30 29 1 31 7
M  V30 30 1 32 24
M  V30 31 1 32 28
M  V30 32 1 33 5
M  V30 33 2 33 23
M  V30 34 1 33 28
M  V30 35 1 34 19
M  V30 36 1 34 31
M  V30 37 1 35 21
M  V30 38 1 36 6
M  V30 39 2 36 11
M  V30 40 1 37 10
M  V30 41 1 37 26
M  V30 42 1 38 2
M  V30 43 1 39 2
M  V30 44 1 40 2
M  V30 45 1 41 4
M  V30 46 1 42 4
M  V30 47 1 43 4
M  V30 48 1 44 8
M  V30 49 1 45 8
M  V30 50 1 46 9
M  V30 51 1 47 9
M  V30 52 1 48 11
M  V30 53 1 49 14
M  V30 54 1 15 50 CFG=1
M  V30 55 1 51 16
M  V30 56 1 52 17
M  V30 57 1 53 17
M  V30 58 1 54 19
M  V30 59 1 55 24
M  V30 60 1 56 24
M  V30 61 1 57 27
M  V30 62 1 58 27
M  V30 63 1 59 28
M  V30 64 1 60 28
M  V30 65 1 61 29
M  V30 66 1 31 62 CFG=1
M  V30 67 1 63 32
M  V30 68 1 64 32
M  V30 69 1 65 34
M  V30 70 1 66 34
M  V30 71 1 67 35
M  V30 72 1 68 35
M  V30 73 1 69 35
M  V30 END BOND
M  V30 END CTAB
M  END
>  <i_epik_Tot_Q>  (1) 
0

>  <i_epik_Tot_abs_Q>  (1) 
0

>  <i_i_glide_confnum>  (1) 
420

>  <i_i_glide_lignum>  (1) 
106

>  <i_i_glide_posenum>  (1) 
94

>  <i_i_glide_rotatable_bonds>  (1) 
8

>  <i_lp_mmshare_version>  (1) 
72125

>  <i_m_source_file_index>  (1) 
43

>  <i_f3d_flags>  (1) 
0

>  <num_sample>  (1) 
100

>  <b_lp_Chiralities_Consistent>  (1) 
1

>  <r_epik_Charging_Adjusted_Penalty>  (1) 
1.0635715053523389

>  <r_epik_Ionization_Penalty>  (1) 
1.0635723392520104

>  <r_epik_Ionization_Penalty_Charging>  (1) 
0

>  <r_epik_Ionization_Penalty_Neutral>  (1) 
1.0635723392520104

>  <r_epik_State_Penalty>  (1) 
1.0635715053523389

>  <r_glide_ring_energy>  (1) 
0

>  <r_i_docking_score>  (1) 
-5.6630464328152863

>  <r_i_glide_ecoul>  (1) 
-2.1300548565267619

>  <r_i_glide_eff_state_penalty>  (1) 
1.0635715053523389

>  <r_i_glide_einternal>  (1) 
11.725010092976431

>  <r_i_glide_emodel>  (1) 
-50.508243613468892

>  <r_i_glide_emodel_strain>  (1) 
2.0903442562566497

>  <r_i_glide_energy>  (1) 
-40.737177652203485

>  <r_i_glide_erotb>  (1) 
0.55382833966271061

>  <r_i_glide_esite>  (1) 
0

>  <r_i_glide_evdw>  (1) 
-38.607122795676723

>  <r_i_glide_gscore>  (1) 
-6.7266179381676254

>  <r_i_glide_gscore_strain>  (1) 
0

>  <r_i_glide_hbond>  (1) 
-0.1813087312353352

>  <r_i_glide_ligand_efficiency>  (1) 
-0.15305530899500774

>  <r_i_glide_ligand_efficiency_ln>  (1) 
-1.2281820106330408

>  <r_i_glide_ligand_efficiency_sa>  (1) 
-0.51001424514358829

>  <r_i_glide_lipo>  (1) 
-3.5479502815011346

>  <r_i_glide_metal>  (1) 
-0

>  <r_i_glide_rewards>  (1) 
-1.3013228968310158

>  <r_lp_Energy>  (1) 
8.4432150000000004

>  <r_lp_tautomer_probability>  (1) 
0.99995000000000001

>  <s_epik_cmdline>  (1) 
J2VwaWtfcHl0aG9uJywgJy1waHQnLCAnMS4wJywgJy1waCcsICc3LjQnLCAnLXRuJywgJzgnLCAnLW1hJywgJzUwMCcsICctaW1hZScsICc8aW5maWxlLm1hZT4nLCAnLW9tYWUnLCAnPG91dGZpbGUubWFlPic=

>  <s_epik_input>  (1) 
bjFbY0hdb2MoYzFbQ0gzXSlbQ0gyXU4oW0NIM10pW0NIMl1bUEBAXSg9TykoTzIpW0NAXTIoW0NIM10pT1tDQEBIXTNDKD1PKVtDQEBIXShPQyg9QzM0KVtDSDJdW0NIMl1bQ0gyXVtDSDJdNClbQ0gyXVtDSF09Qz1DNVtDSF09W0NIXVtDSDJdW0NIXT1DNUNs

>  <s_glide_docking_method>  (1) 
confgen

>  <s_i_glide_gridfile>  (1) 
gpcr_5ht2c_6bqh_protein_autoprepared_prepared

>  <s_lp_Force_Field>  (1) 
S-OPLS

>  <s_lp_Variant>  (1) 
DiffSBDD_42_num_sample_100-3

>  <s_m_source_file>  (1) 
generated__ligand_DiffSBDD_2026-05-06_prepared.sdf

>  <GenAI_Model>  (1) 
DiffSBDD

>  <Protein>  (1) 
GPCR_5HT2C

$$$$
DiffSBDD_60_num_sample_100
     RDKit          3D

  0  0  0  0  0  0  0  0  0  0999 V3000
M  V30 BEGIN CTAB
M  V30 COUNTS 74 76 0 0 1
M  V30 BEGIN ATOM
M  V30 1 C 42.578637 31.372481 64.696915 0
M  V30 2 C 39.467404 29.163100 50.753957 0
M  V30 3 C 38.913877 28.366962 51.772566 0
M  V30 4 C 39.290271 29.180384 60.212687 0
M  V30 5 N 43.083782 29.171896 64.605560 0
M  V30 6 C 40.308825 32.941500 63.575217 0
M  V30 7 C 38.299877 31.710665 56.199583 0
M  V30 8 C 37.047822 30.485393 60.123433 0
M  V30 9 C 38.392938 30.190264 59.446038 0 CFG=2
M  V30 10 C 41.164071 28.275941 63.377929 0
M  V30 11 C 38.736588 30.260413 55.884008 0 CFG=1
M  V30 12 O 41.067406 31.449764 61.109092 0
M  V30 13 C 39.311161 27.957575 57.121156 0 CFG=1
M  V30 14 C 40.768478 27.525257 56.881730 0
M  V30 15 C 39.722793 29.474295 61.673743 0 CFG=1
M  V30 16 N 40.828169 28.541480 61.977815 0
M  V30 17 C 39.942170 30.321035 54.910925 0
M  V30 18 C 41.918602 29.405469 63.990624 0
M  V30 19 C 40.314979 31.409321 63.426231 0 CFG=1
M  V30 20 C 40.052698 30.974338 61.960548 0 CFG=1
M  V30 21 O 38.267403 27.221430 51.453488 0
M  V30 22 C 39.039148 28.751489 53.119198 0
M  V30 23 C 41.552601 30.785287 64.016016 0
M  V30 24 C 37.669027 26.274405 56.551941 0
M  V30 25 C 38.491572 24.995927 56.771077 0
M  V30 26 C 40.139029 30.349623 51.079895 0
M  V30 27 C 39.092172 29.502925 57.207513 0 CFG=2
M  V30 28 O 38.038620 29.681517 58.156000 0
M  V30 29 N 43.458148 30.387593 65.024851 0
M  V30 30 C 37.867404 32.506272 54.962048 0
M  V30 31 C 39.726413 29.934781 53.449509 0
M  V30 32 C 40.267403 30.733066 52.425047 0
M  V30 33 O 38.472463 27.372217 56.130942 0
M  V30 34 H 42.749300 32.403277 64.970187 0
M  V30 35 H 39.372234 28.862278 49.721043 0
M  V30 36 H 38.792388 28.210696 60.210987 0
M  V30 37 H 40.204160 29.048480 59.633199 0
M  V30 38 H 40.327966 33.224717 64.627180 0
M  V30 39 H 39.412785 33.378117 63.135013 0
M  V30 40 H 41.170728 33.400634 63.090025 0
M  V30 41 H 39.106393 32.241042 56.706714 0
M  V30 42 H 37.467405 31.706502 56.900897 0
M  V30 43 H 37.153347 30.776228 61.166618 0
M  V30 44 H 36.389451 29.621423 60.076647 0
M  V30 45 H 36.535441 31.298254 59.607252 0
M  V30 46 H 38.928418 31.131577 59.314825 0
M  V30 47 H 41.769372 27.371464 63.444469 0
M  V30 48 H 40.267410 28.065485 63.956242 0
M  V30 49 H 37.892058 29.752651 55.418692 0
M  V30 50 H 41.213815 32.360778 61.312678 0
M  V30 51 H 39.051922 27.538669 58.091666 0
M  V30 52 H 41.463493 28.088986 57.504343 0
M  V30 53 H 41.067395 27.641684 55.845165 0
M  V30 54 H 40.912276 26.472962 57.121565 0
M  V30 55 H 38.867593 29.221279 62.297804 0
M  V30 56 H 40.713525 27.665786 61.478967 0
M  V30 57 H 40.426902 31.297015 54.957822 0
M  V30 58 H 40.718351 29.653169 55.260544 0
M  V30 59 H 39.467406 31.040050 63.999398 0
M  V30 60 H 39.171556 31.540716 61.666767 0
M  V30 61 H 38.627076 28.129609 53.895656 0
M  V30 62 H 36.942815 26.085027 55.760873 0
M  V30 63 H 37.093629 26.532383 57.443125 0
M  V30 64 H 37.837925 24.143256 56.955160 0
M  V30 65 H 39.155692 25.085108 57.629971 0
M  V30 66 H 39.098491 24.767472 55.894395 0
M  V30 67 H 40.564725 30.963607 50.299478 0
M  V30 68 H 39.996115 29.968816 57.600943 0
M  V30 69 H 44.319541 30.526875 65.534686 0
M  V30 70 H 37.510082 33.497058 55.242253 0
M  V30 71 H 37.060231 31.993714 54.441527 0
M  V30 72 H 38.678966 32.640963 54.253535 0
M  V30 73 H 40.798532 31.621428 52.672555 0
M  V30 74 H 37.685187 26.877000 52.115030 0
M  V30 END ATOM
M  V30 BEGIN BOND
M  V30 1 2 3 2
M  V30 2 1 9 4
M  V30 3 1 9 8
M  V30 4 1 11 7
M  V30 5 1 14 13
M  V30 6 1 15 4
M  V30 7 1 16 10
M  V30 8 1 16 15
M  V30 9 1 17 11
M  V30 10 2 18 5
M  V30 11 1 18 10
M  V30 12 1 19 6
M  V30 13 1 20 12
M  V30 14 1 20 15
M  V30 15 1 20 19
M  V30 16 1 21 3
M  V30 17 1 22 3
M  V30 18 2 23 1
M  V30 19 1 23 18
M  V30 20 1 23 19
M  V30 21 1 25 24
M  V30 22 1 26 2
M  V30 23 1 27 11
M  V30 24 1 27 13
M  V30 25 1 28 9
M  V30 26 1 28 27
M  V30 27 1 29 1
M  V30 28 1 29 5
M  V30 29 1 30 7
M  V30 30 1 31 17
M  V30 31 2 31 22
M  V30 32 2 32 26
M  V30 33 1 32 31
M  V30 34 1 33 13
M  V30 35 1 33 24
M  V30 36 1 34 1
M  V30 37 1 35 2
M  V30 38 1 36 4
M  V30 39 1 37 4
M  V30 40 1 38 6
M  V30 41 1 39 6
M  V30 42 1 40 6
M  V30 43 1 41 7
M  V30 44 1 42 7
M  V30 45 1 43 8
M  V30 46 1 44 8
M  V30 47 1 45 8
M  V30 48 1 9 46 CFG=3
M  V30 49 1 47 10
M  V30 50 1 48 10
M  V30 51 1 11 49 CFG=3
M  V30 52 1 50 12
M  V30 53 1 13 51 CFG=1
M  V30 54 1 52 14
M  V30 55 1 53 14
M  V30 56 1 54 14
M  V30 57 1 15 55 CFG=1
M  V30 58 1 56 16
M  V30 59 1 57 17
M  V30 60 1 58 17
M  V30 61 1 19 59 CFG=1
M  V30 62 1 20 60 CFG=3
M  V30 63 1 61 22
M  V30 64 1 62 24
M  V30 65 1 63 24
M  V30 66 1 64 25
M  V30 67 1 65 25
M  V30 68 1 66 25
M  V30 69 1 67 26
M  V30 70 1 27 68 CFG=1
M  V30 71 1 69 29
M  V30 72 1 70 30
M  V30 73 1 71 30
M  V30 74 1 72 30
M  V30 75 1 73 32
M  V30 76 1 74 21
M  V30 END BOND
M  V30 END CTAB
M  END
>  <i_epik_Tot_Q>  (1) 
0

>  <i_epik_Tot_abs_Q>  (1) 
0

>  <i_i_glide_confnum>  (1) 
1049

>  <i_i_glide_lignum>  (1) 
155

>  <i_i_glide_posenum>  (1) 
176

>  <i_i_glide_rotatable_bonds>  (1) 
13

>  <i_lp_mmshare_version>  (1) 
72125

>  <i_m_source_file_index>  (1) 
61

>  <i_f3d_flags>  (1) 
0

>  <num_sample>  (1) 
100

>  <b_lp_Chiralities_Consistent>  (1) 
1

>  <r_epik_Charging_Adjusted_Penalty>  (1) 
1.0946962456901577

>  <r_epik_Ionization_Penalty>  (1) 
0.79333375819973251

>  <r_epik_Ionization_Penalty_Charging>  (1) 
0

>  <r_epik_Ionization_Penalty_Neutral>  (1) 
0.79333375819973251

>  <r_epik_State_Penalty>  (1) 
1.0946962456901577

>  <r_glide_ring_energy>  (1) 
0

>  <r_i_docking_score>  (1) 
-5.6611950311552057

>  <r_i_glide_ecoul>  (1) 
-4.453782146101867

>  <r_i_glide_eff_state_penalty>  (1) 
1.0946962456901577

>  <r_i_glide_einternal>  (1) 
7.3113087196067035

>  <r_i_glide_emodel>  (1) 
-60.627826324365614

>  <r_i_glide_emodel_strain>  (1) 
1.859732589152884

>  <r_i_glide_energy>  (1) 
-44.68522075267277

>  <r_i_glide_erotb>  (1) 
0.85721886193159891

>  <r_i_glide_esite>  (1) 
0

>  <r_i_glide_evdw>  (1) 
-40.231438606570904

>  <r_i_glide_gscore>  (1) 
-6.7558912768453636

>  <r_i_glide_gscore_strain>  (1) 
0

>  <r_i_glide_hbond>  (1) 
-0.1581737573863341

>  <r_i_glide_ligand_efficiency>  (1) 
-0.17155136458046077

>  <r_i_glide_ligand_efficiency_ln>  (1) 
-1.2590204628297963

>  <r_i_glide_ligand_efficiency_sa>  (1) 
-0.55025689124945809

>  <r_i_glide_lipo>  (1) 
-3.9400099717020782

>  <r_i_glide_metal>  (1) 
-0

>  <r_i_glide_rewards>  (1) 
-0.83528715744472348

>  <r_lp_Energy>  (1) 
28.843152999999997

>  <r_lp_tautomer_probability>  (1) 
0.49999999999868239

>  <s_epik_cmdline>  (1) 
J2VwaWtfcHl0aG9uJywgJy1waHQnLCAnMS4wJywgJy1waCcsICc3LjQnLCAnLXRuJywgJzgnLCAnLW1hJywgJzUwMCcsICctaW1hZScsICc8aW5maWxlLm1hZT4nLCAnLW9tYWUnLCAnPG91dGZpbGUubWFlPic=

>  <s_epik_input>  (1) 
bjFbbkhdW2NIXWMoYzEyKVtDQEBIXShbQ0gzXSlbQ0BASF0oW09IXSlbQ0BIXShbTkhdW0NIMl0yKVtDSDJdW0NASF0oW0NIM10pT1tDQEBIXShbQ0BIXShbQ0gzXSlPW0NIMl1bQ0gzXSlbQ0BASF0oW0NIMl1bQ0gzXSlbQ0gyXUMoPVtDSF0zKVtDSDJdW0NIXT1bQ0hdQzM9Tw==

>  <s_glide_docking_method>  (1) 
confgen

>  <s_i_glide_gridfile>  (1) 
gpcr_5ht2c_6bqh_protein_autoprepared_prepared

>  <s_lp_Force_Field>  (1) 
S-OPLS

>  <s_lp_Variant>  (1) 
DiffSBDD_60_num_sample_100-4

>  <s_m_source_file>  (1) 
generated__ligand_DiffSBDD_2026-05-06_prepared.sdf

>  <GenAI_Model>  (1) 
DiffSBDD

>  <Protein>  (1) 
GPCR_5HT2C

$$$$
DiffSBDD_46_num_sample_100
     RDKit          3D

  0  0  0  0  0  0  0  0  0  0999 V3000
M  V30 BEGIN CTAB
M  V30 COUNTS 67 70 0 0 1
M  V30 BEGIN ATOM
M  V30 1 N 38.834523 33.042438 60.984355 0 CHG=-1
M  V30 2 N 38.725445 30.055143 54.407902 0
M  V30 3 C 38.717732 33.260116 58.016714 0
M  V30 4 C 43.052645 25.926544 64.947676 0
M  V30 5 C 39.067625 30.914086 57.079996 0
M  V30 6 O 41.715910 33.216175 62.937723 0
M  V30 7 O 40.228579 35.221588 60.934186 0
M  V30 8 C 42.612391 28.189217 64.255727 0
M  V30 9 N 43.300750 27.111416 64.803552 0
M  V30 10 F 44.260866 29.709238 65.121077 0
M  V30 11 C 38.806714 31.812862 58.267914 0 CFG=2
M  V30 12 N 40.398267 31.341871 62.597976 0
M  V30 13 C 37.987812 29.855238 56.728353 0 CFG=2
M  V30 14 C 42.402223 30.579498 63.888580 0
M  V30 15 C 39.676221 35.015470 62.206707 0
M  V30 16 C 39.167929 27.123803 56.901071 0
M  V30 17 C 39.850487 28.739678 50.554014 0
M  V30 18 C 39.087072 29.591933 53.130525 0
M  V30 19 C 43.113005 29.497853 64.431601 0
M  V30 20 C 37.379714 32.911930 60.841735 0
M  V30 21 C 40.789390 28.972816 63.052770 0
M  V30 22 C 41.206112 30.307916 63.179250 0
M  V30 23 N 41.467625 27.931189 63.574068 0
M  V30 24 C 39.512359 28.064361 55.735513 0
M  V30 25 C 40.248813 30.000656 51.021927 0
M  V30 26 C 39.409638 33.488947 62.265699 0 CFG=2
M  V30 27 C 37.694957 28.907270 57.918172 0
M  V30 28 C 39.867405 30.426193 52.304017 0
M  V30 29 C 36.770735 32.633355 59.453541 0
M  V30 30 C 39.067388 27.896555 51.367948 0
M  V30 31 C 38.835302 27.910450 58.175078 0
M  V30 32 C 40.651181 32.664699 62.662788 0
M  V30 33 C 38.682301 28.318621 52.656394 0
M  V30 34 O 42.667338 24.821413 65.071626 0
M  V30 35 C 38.361327 29.066448 55.430389 0 CFG=2
M  V30 36 N 37.467644 32.497378 58.339590 0 CHG=1
M  V30 37 H 39.112813 30.930025 54.728833 0
M  V30 38 H 38.578136 33.625284 57.001713 0
M  V30 39 H 38.896232 34.021416 58.766079 0
M  V30 40 H 39.260630 31.579692 56.241002 0
M  V30 41 H 40.012346 30.411495 57.267348 0
M  V30 42 H 39.835601 34.464702 60.488974 0
M  V30 43 H 39.066245 31.385731 59.230958 0
M  V30 44 H 39.542378 31.057738 62.140682 0
M  V30 45 H 37.067372 30.400205 56.514929 0
M  V30 46 H 42.769155 31.578107 64.023772 0
M  V30 47 H 40.340195 35.379053 62.992337 0
M  V30 48 H 38.740868 35.570580 62.281001 0
M  V30 49 H 40.002878 26.447974 57.091662 0
M  V30 50 H 38.319203 26.496353 56.626470 0
M  V30 51 H 40.141643 28.421460 49.567558 0
M  V30 52 H 37.019788 32.118078 61.498371 0
M  V30 53 H 39.879563 28.733132 62.521443 0
M  V30 54 H 40.431898 28.602839 55.966332 0
M  V30 55 H 39.751094 27.449159 54.870376 0
M  V30 56 H 40.847171 30.646058 50.394586 0
M  V30 57 H 38.737970 33.291525 63.092735 0
M  V30 58 H 37.497475 29.478483 58.824896 0
M  V30 59 H 36.778689 28.350102 57.731908 0
M  V30 60 H 40.176226 31.398435 52.658358 0
M  V30 61 H 35.697469 32.538015 59.351657 0
M  V30 62 H 38.759542 26.927361 51.001956 0
M  V30 63 H 39.722786 28.437227 58.527114 0
M  V30 64 H 38.557825 27.221643 58.973584 0
M  V30 65 H 38.078796 27.670243 53.271078 0
M  V30 66 H 37.470647 28.523453 55.111872 0
M  V30 67 H 36.891595 33.812758 61.210782 0
M  V30 END ATOM
M  V30 BEGIN BOND
M  V30 1 2 9 4
M  V30 2 1 9 8
M  V30 3 1 11 3
M  V30 4 1 11 5
M  V30 5 1 13 5
M  V30 6 1 15 7
M  V30 7 1 18 2
M  V30 8 2 19 8
M  V30 9 1 19 10
M  V30 10 1 19 14
M  V30 11 1 20 1
M  V30 12 1 22 12
M  V30 13 2 22 14
M  V30 14 1 22 21
M  V30 15 1 23 8
M  V30 16 2 23 21
M  V30 17 1 24 16
M  V30 18 2 25 17
M  V30 19 1 26 1
M  V30 20 1 26 15
M  V30 21 1 27 13
M  V30 22 2 28 18
M  V30 23 1 28 25
M  V30 24 1 29 20
M  V30 25 1 30 17
M  V30 26 1 31 16
M  V30 27 1 31 27
M  V30 28 2 32 6
M  V30 29 1 32 12
M  V30 30 1 32 26
M  V30 31 1 33 18
M  V30 32 2 33 30
M  V30 33 2 34 4
M  V30 34 1 35 2
M  V30 35 1 35 13
M  V30 36 1 35 24
M  V30 37 1 36 3
M  V30 38 1 36 11
M  V30 39 2 36 29
M  V30 40 1 37 2
M  V30 41 1 38 3
M  V30 42 1 39 3
M  V30 43 1 40 5
M  V30 44 1 41 5
M  V30 45 1 42 7
M  V30 46 1 11 43 CFG=1
M  V30 47 1 44 12
M  V30 48 1 13 45 CFG=3
M  V30 49 1 46 14
M  V30 50 1 47 15
M  V30 51 1 48 15
M  V30 52 1 49 16
M  V30 53 1 50 16
M  V30 54 1 51 17
M  V30 55 1 52 20
M  V30 56 1 53 21
M  V30 57 1 54 24
M  V30 58 1 55 24
M  V30 59 1 56 25
M  V30 60 1 26 57 CFG=1
M  V30 61 1 58 27
M  V30 62 1 59 27
M  V30 63 1 60 28
M  V30 64 1 61 29
M  V30 65 1 62 30
M  V30 66 1 63 31
M  V30 67 1 64 31
M  V30 68 1 65 33
M  V30 69 1 35 66 CFG=3
M  V30 70 1 67 20
M  V30 END BOND
M  V30 END CTAB
M  END
>  <i_epik_Tot_Q>  (1) 
0

>  <i_epik_Tot_abs_Q>  (1) 
2

>  <i_i_glide_confnum>  (1) 
2978

>  <i_i_glide_lignum>  (1) 
128

>  <i_i_glide_posenum>  (1) 
195

>  <i_i_glide_rotatable_bonds>  (1) 
13

>  <i_lp_mmshare_version>  (1) 
72125

>  <i_m_source_file_index>  (1) 
47

>  <i_f3d_flags>  (1) 
0

>  <num_sample>  (1) 
100

>  <b_lp_Chiralities_Consistent>  (1) 
1

>  <r_epik_Charging_Adjusted_Penalty>  (1) 
1.3427112581869221

>  <r_epik_Ionization_Penalty>  (1) 
0.80930426782544973

>  <r_epik_Ionization_Penalty_Charging>  (1) 
0

>  <r_epik_Ionization_Penalty_Neutral>  (1) 
0.80930426782544973

>  <r_epik_State_Penalty>  (1) 
1.3427112581869221

>  <r_glide_ring_energy>  (1) 
0.05726729789671494

>  <r_i_docking_score>  (1) 
-5.6603711865209103

>  <r_i_glide_ecoul>  (1) 
-3.021756126291959

>  <r_i_glide_eff_state_penalty>  (1) 
1.3427112581869221

>  <r_i_glide_einternal>  (1) 
6.9810420031813027

>  <r_i_glide_emodel>  (1) 
-76.710764448893812

>  <r_i_glide_emodel_strain>  (1) 
2.3636204182995755

>  <r_i_glide_energy>  (1) 
-56.509911671841117

>  <r_i_glide_erotb>  (1) 
0.99979395072351473

>  <r_i_glide_esite>  (1) 
-0.17116879561201551

>  <r_i_glide_evdw>  (1) 
-53.488155545549155

>  <r_i_glide_gscore>  (1) 
-7.0030824447078324

>  <r_i_glide_gscore_strain>  (1) 
0

>  <r_i_glide_hbond>  (1) 
0

>  <r_i_glide_ligand_efficiency>  (1) 
-0.15723253295891418

>  <r_i_glide_ligand_efficiency_ln>  (1) 
-1.2349400673421287

>  <r_i_glide_ligand_efficiency_sa>  (1) 
-0.51917038498976131

>  <r_i_glide_lipo>  (1) 
-3.3157618843142336

>  <r_i_glide_metal>  (1) 
-0

>  <r_i_glide_rewards>  (1) 
-1.3882745192838459

>  <r_lp_Energy>  (1) 
87.141047

>  <s_epik_Chemistry_Notes>  (1) 
This compound has an imine and may undergo hydrolysis.

>  <s_epik_cmdline>  (1) 
J2VwaWtfcHl0aG9uJywgJy1waHQnLCAnMS4wJywgJy1waCcsICc3LjQnLCAnLXRuJywgJzgnLCAnLW1hJywgJzUwMCcsICctaW1hZScsICc8aW5maWxlLm1hZT4nLCAnLW9tYWUnLCAnPG91dGZpbGUubWFlPic=

>  <s_epik_input>  (1) 
Tz1DPU5jMWMoRilbY0hdYyhbY0hdbjEpW05IXUMoPU8pW0NAQEhdKFtDSDJdW09IXSkvTj1bQ0hdL1tDSDJdTjJbQ0gyXVtDQEBIXTJbQ0gyXVtDQEBIXTNbQ0gyXVtDSDJdW0NIMl1bQ0gyXVtDQEBIXTNbTkhdYzRbY0hdW2NIXVtjSF1bY0hdW2NIXTQ=

>  <s_glide_docking_method>  (1) 
confgen

>  <s_i_glide_gridfile>  (1) 
gpcr_5ht2c_6bqh_protein_autoprepared_prepared

>  <s_lp_Force_Field>  (1) 
S-OPLS

>  <s_lp_Variant>  (1) 
DiffSBDD_46_num_sample_100-4

>  <s_m_source_file>  (1) 
generated__ligand_DiffSBDD_2026-05-06_prepared.sdf

>  <GenAI_Model>  (1) 
DiffSBDD

>  <Protein>  (1) 
GPCR_5HT2C

$$$$
DiffSBDD_44_num_sample_100
     RDKit          3D

  0  0  0  0  0  0  0  0  0  0999 V3000
M  V30 BEGIN CTAB
M  V30 COUNTS 58 59 0 0 1
M  V30 BEGIN ATOM
M  V30 1 C 35.560468 33.045562 61.348809 0
M  V30 2 O 39.193370 32.166274 60.253509 0 CHG=-1
M  V30 3 C 39.544281 30.021667 54.194183 0
M  V30 4 C 36.588353 33.512768 59.236361 0 CFG=1
M  V30 5 N 37.017946 32.141064 59.632873 0 CFG=2 CHG=1
M  V30 6 C 38.744483 27.693720 54.304635 0
M  V30 7 N 38.077705 28.946531 57.048222 0
M  V30 8 C 39.236811 28.993429 54.941029 0
M  V30 9 O 40.196320 27.877803 56.790391 0
M  V30 10 C 35.291625 33.752348 60.020783 0 CFG=1
M  V30 11 C 34.040722 33.221540 59.307040 0
M  V30 12 C 38.661812 30.171767 59.153465 0 CFG=1
M  V30 13 C 37.711311 29.422127 58.177219 0
M  V30 14 C 36.505712 31.890637 61.010429 0
M  V30 15 C 40.962615 27.915233 57.979759 0
M  V30 16 C 39.790616 29.818074 51.749559 0
M  V30 17 C 38.418589 31.719563 59.288592 0 CFG=2
M  V30 18 C 39.400733 29.016423 56.457078 0 CFG=2
M  V30 19 F 39.067416 27.971320 50.586213 0
M  V30 20 C 38.891620 28.545483 51.773447 0 CFG=1
M  V30 21 C 39.867370 30.580423 53.060154 0
M  V30 22 C 38.864541 29.411611 60.489317 0
M  V30 23 C 36.285794 29.270211 58.654606 0
M  V30 24 C 37.612304 34.615177 59.562710 0
M  V30 25 C 39.204426 27.451348 52.833764 0
M  V30 26 H 34.657849 32.711959 61.853585 0
M  V30 27 H 36.065807 33.735947 62.024462 0
M  V30 28 H 36.406937 33.544563 58.163276 0
M  V30 29 H 39.072656 26.842126 54.900795 0
M  V30 30 H 37.655350 27.692488 54.359151 0
M  V30 31 H 35.142463 34.819023 60.181329 0
M  V30 32 H 34.133161 32.164425 59.056553 0
M  V30 33 H 33.147704 33.346147 59.918541 0
M  V30 34 H 33.871745 33.776229 58.384807 0
M  V30 35 H 39.660475 30.115150 58.742137 0
M  V30 36 H 35.967238 30.946402 61.040872 0
M  V30 37 H 37.285993 31.841518 61.769682 0
M  V30 38 H 41.647497 27.066905 57.985577 0
M  V30 39 H 41.561767 28.821430 58.055866 0
M  V30 40 H 40.329736 27.820331 58.857813 0
M  V30 41 H 39.467429 30.500132 50.963813 0
M  V30 42 H 40.809037 29.532897 51.482328 0
M  V30 43 H 38.545095 32.082678 58.266463 0
M  V30 44 H 39.917585 29.944398 56.704570 0
M  V30 45 H 37.838114 28.821438 51.827245 0
M  V30 46 H 40.281134 31.574797 53.022067 0
M  V30 47 H 38.667405 28.342422 60.406393 0
M  V30 48 H 39.896317 29.518737 60.824132 0
M  V30 49 H 38.267460 29.813798 61.298747 0
M  V30 50 H 36.229109 29.221481 59.737694 0
M  V30 51 H 35.662390 30.080148 58.288439 0
M  V30 52 H 35.867449 28.349912 58.253550 0
M  V30 53 H 37.255656 35.591232 59.232733 0
M  V30 54 H 37.827379 34.676817 60.630555 0
M  V30 55 H 38.552028 34.421410 59.054291 0
M  V30 56 H 40.267216 27.220993 52.802649 0
M  V30 57 H 38.719216 26.530625 52.509942 0
M  V30 58 H 36.438508 31.580368 59.021346 0
M  V30 END ATOM
M  V30 BEGIN BOND
M  V30 1 1 5 4
M  V30 2 2 8 3
M  V30 3 1 8 6
M  V30 4 1 10 1
M  V30 5 1 10 4
M  V30 6 1 11 10
M  V30 7 2 13 7
M  V30 8 1 13 12
M  V30 9 1 14 1
M  V30 10 1 14 5
M  V30 11 1 15 9
M  V30 12 1 17 2
M  V30 13 1 17 5
M  V30 14 1 17 12
M  V30 15 1 18 7
M  V30 16 1 18 8
M  V30 17 1 18 9
M  V30 18 1 20 16
M  V30 19 1 20 19
M  V30 20 2 21 3
M  V30 21 1 21 16
M  V30 22 1 22 12
M  V30 23 1 23 13
M  V30 24 1 24 4
M  V30 25 1 25 6
M  V30 26 1 25 20
M  V30 27 1 26 1
M  V30 28 1 27 1
M  V30 29 1 4 28 CFG=3
M  V30 30 1 29 6
M  V30 31 1 30 6
M  V30 32 1 10 31 CFG=1
M  V30 33 1 32 11
M  V30 34 1 33 11
M  V30 35 1 34 11
M  V30 36 1 12 35 CFG=3
M  V30 37 1 36 14
M  V30 38 1 37 14
M  V30 39 1 38 15
M  V30 40 1 39 15
M  V30 41 1 40 15
M  V30 42 1 41 16
M  V30 43 1 42 16
M  V30 44 1 17 43 CFG=3
M  V30 45 1 18 44 CFG=3
M  V30 46 1 20 45 CFG=3
M  V30 47 1 46 21
M  V30 48 1 47 22
M  V30 49 1 48 22
M  V30 50 1 49 22
M  V30 51 1 50 23
M  V30 52 1 51 23
M  V30 53 1 52 23
M  V30 54 1 53 24
M  V30 55 1 54 24
M  V30 56 1 55 24
M  V30 57 1 56 25
M  V30 58 1 57 25
M  V30 59 1 5 58 CFG=3
M  V30 END BOND
M  V30 END CTAB
M  END
>  <i_epik_Tot_Q>  (1) 
0

>  <i_epik_Tot_abs_Q>  (1) 
2

>  <i_i_glide_confnum>  (1) 
30

>  <i_i_glide_lignum>  (1) 
111

>  <i_i_glide_posenum>  (1) 
38

>  <i_i_glide_rotatable_bonds>  (1) 
6

>  <i_lp_mmshare_version>  (1) 
72125

>  <i_m_source_file_index>  (1) 
45

>  <i_f3d_flags>  (1) 
0

>  <num_sample>  (1) 
100

>  <b_lp_Chiralities_Consistent>  (1) 
1

>  <r_epik_Charging_Adjusted_Penalty>  (1) 
0.41733257654759531

>  <r_epik_Ionization_Penalty>  (1) 
0.0069177268181324029

>  <r_epik_Ionization_Penalty_Charging>  (1) 
0.0066527375949913311

>  <r_epik_Ionization_Penalty_Neutral>  (1) 
0.00026498922314107146

>  <r_epik_State_Penalty>  (1) 
0.41067983895260396

>  <r_glide_ring_energy>  (1) 
0

>  <r_i_docking_score>  (1) 
-5.6490987895973843

>  <r_i_glide_ecoul>  (1) 
-1.3215316918217157

>  <r_i_glide_eff_state_penalty>  (1) 
0.41067983895260396

>  <r_i_glide_einternal>  (1) 
18.474361731684048

>  <r_i_glide_emodel>  (1) 
-35.344125137292664

>  <r_i_glide_emodel_strain>  (1) 
4.6293383194002615

>  <r_i_glide_energy>  (1) 
-33.989582148669491

>  <r_i_glide_erotb>  (1) 
0.61440649929112812

>  <r_i_glide_esite>  (1) 
-0.13379258736114102

>  <r_i_glide_evdw>  (1) 
-32.668050456847773

>  <r_i_glide_gscore>  (1) 
-6.0597786285499886

>  <r_i_glide_gscore_strain>  (1) 
0.15733457985006538

>  <r_i_glide_hbond>  (1) 
-0.018694497692701054

>  <r_i_glide_ligand_efficiency>  (1) 
-0.22596395158389537

>  <r_i_glide_ligand_efficiency_ln>  (1) 
-1.3390057029644535

>  <r_i_glide_ligand_efficiency_sa>  (1) 
-0.66072260262798332

>  <r_i_glide_lipo>  (1) 
-2.5147026549022704

>  <r_i_glide_metal>  (1) 
-0

>  <r_i_glide_rewards>  (1) 
-2.3326976911194226

>  <r_lp_Energy>  (1) 
15.952547999999998

>  <r_lp_tautomer_probability>  (1) 
0.49999399997599986

>  <s_epik_Chemistry_Notes>  (1) 
This compound has an imine and may undergo hydrolysis. This compound contains an acetal/aminal-like group ( X-CH(R)-Y where X, Y are N, S, or O) that may be acid/base labile, releasing an aldehyde.

>  <s_epik_cmdline>  (1) 
J2VwaWtfcHl0aG9uJywgJy1waHQnLCAnMS4wJywgJy1waCcsICc3LjQnLCAnLXRuJywgJzgnLCAnLW1hJywgJzUwMCcsICctaW1hZScsICc8aW5maWxlLm1hZT4nLCAnLW9tYWUnLCAnPG91dGZpbGUubWFlPic=

>  <s_epik_input>  (1) 
W0NIM11bQ0BIXTFbQ0gyXVtDSDJdTihbQ0BASF0xW0NIM10pW0NAQEhdKFtPSF0pW0NAQEhdKFtDSDNdKS9DKFtDSDNdKT1OXFtDQEBIXShPW0NIM10pQzI9Qz1bQ0hdW0NIMl1bQ0BASF0oRilbQ0gyXVtDSDJdMg==

>  <s_glide_docking_method>  (1) 
confgen

>  <s_i_glide_gridfile>  (1) 
gpcr_5ht2c_6bqh_protein_autoprepared_prepared

>  <s_lp_Force_Field>  (1) 
S-OPLS

>  <s_lp_Variant>  (1) 
DiffSBDD_44_num_sample_100-4

>  <s_m_source_file>  (1) 
generated__ligand_DiffSBDD_2026-05-06_prepared.sdf

>  <GenAI_Model>  (1) 
DiffSBDD

>  <Protein>  (1) 
GPCR_5HT2C

$$$$
DiffSBDD_39_num_sample_100
     RDKit          3D

  0  0  0  0  0  0  0  0  0  0999 V3000
M  V30 BEGIN CTAB
M  V30 COUNTS 61 64 0 0 1
M  V30 BEGIN ATOM
M  V30 1 C 39.467407 34.177438 62.653499 0
M  V30 2 C 39.229633 29.655099 60.086862 0
M  V30 3 C 42.248081 32.041803 62.235954 0
M  V30 4 C 40.247853 28.999962 61.040893 0
M  V30 5 C 39.454305 31.672810 62.831511 0
M  V30 6 C 39.104374 29.432942 57.582653 0
M  V30 7 N 38.393930 26.780661 54.834607 0
M  V30 8 O 41.867410 32.021384 61.053505 0 CHG=-1
M  V30 9 C 38.929583 28.737859 56.245078 0
M  V30 10 C 40.667401 33.190114 64.551919 0
M  V30 11 O 42.667404 33.077963 62.752343 0
M  V30 12 C 41.067405 34.484708 64.960501 0
M  V30 13 C 40.664020 35.616241 64.219908 0
M  V30 14 N 40.354722 30.658043 62.978712 0
M  V30 15 C 39.395965 36.693347 62.289985 0
M  V30 16 C 42.116950 31.098386 64.644693 0
M  V30 17 C 38.639057 26.915053 52.421947 0
M  V30 18 C 39.988926 29.304176 62.530959 0
M  V30 19 C 37.528540 37.513284 60.653668 0
M  V30 20 C 39.202849 29.479132 55.065683 0
M  V30 21 C 41.807220 30.873143 63.148889 0 CFG=2
M  V30 22 C 38.838716 28.127830 51.444917 0
M  V30 23 O 37.858727 38.668030 61.008600 0 CHG=-1
M  V30 24 C 39.867314 33.039471 63.365423 0
M  V30 25 S 39.467403 29.621422 52.345326 0
M  V30 26 C 39.080265 28.839431 53.834656 0
M  V30 27 O 39.607651 30.783630 55.128437 0
M  V30 28 C 39.857117 35.465413 63.072106 0
M  V30 29 Cl 38.099739 26.341705 57.408971 0
M  V30 30 C 38.250890 36.350301 61.303565 0
M  V30 31 C 38.508773 27.348518 56.066291 0
M  V30 32 C 39.048062 28.875357 58.809273 0
M  V30 33 C 41.093924 31.981744 65.366487 0
M  V30 34 O 38.371407 31.536504 62.253544 0
M  V30 35 C 38.696561 27.540321 53.770659 0
M  V30 36 O 36.658023 37.221454 59.804930 0
M  V30 37 H 38.865522 34.051922 61.769159 0
M  V30 38 H 39.501465 30.691409 59.883525 0
M  V30 39 H 38.242851 29.673436 60.545851 0
M  V30 40 H 40.180488 27.917277 60.930195 0
M  V30 41 H 41.263980 29.257183 60.748959 0
M  V30 42 H 39.298564 30.494730 57.529213 0
M  V30 43 H 41.675219 34.609398 65.843788 0
M  V30 44 H 40.960160 36.595308 64.539118 0
M  V30 45 H 39.068828 37.451127 63.003449 0
M  V30 46 H 40.248090 37.110106 61.751680 0
M  V30 47 H 43.108849 31.540449 64.744268 0
M  V30 48 H 42.177302 30.139478 65.159429 0
M  V30 49 H 39.462836 26.208715 52.318464 0
M  V30 50 H 37.680156 26.422267 52.293898 0
M  V30 51 H 38.923009 29.158828 62.653457 0
M  V30 52 H 40.485715 28.569736 63.165216 0
M  V30 53 H 42.363084 29.995420 62.822440 0
M  V30 54 H 39.467335 27.871533 50.592273 0
M  V30 55 H 37.867403 28.413767 51.053509 0
M  V30 56 H 39.730120 31.152080 54.265211 0
M  V30 57 H 38.629289 35.730568 60.489688 0
M  V30 58 H 37.470344 35.787985 61.817320 0
M  V30 59 H 38.873465 27.842737 58.939267 0
M  V30 60 H 41.505823 32.305359 66.323184 0
M  V30 61 H 40.203013 31.402658 65.614961 0
M  V30 END ATOM
M  V30 BEGIN BOND
M  V30 1 1 4 2
M  V30 2 1 8 3
M  V30 3 1 9 6
M  V30 4 2 11 3
M  V30 5 1 12 10
M  V30 6 2 13 12
M  V30 7 1 14 5
M  V30 8 1 18 4
M  V30 9 1 18 14
M  V30 10 2 20 9
M  V30 11 1 21 3
M  V30 12 1 21 14
M  V30 13 1 21 16
M  V30 14 1 22 17
M  V30 15 1 23 19
M  V30 16 1 24 1
M  V30 17 1 24 5
M  V30 18 2 24 10
M  V30 19 1 25 22
M  V30 20 1 26 20
M  V30 21 1 26 25
M  V30 22 1 27 20
M  V30 23 2 28 1
M  V30 24 1 28 13
M  V30 25 1 28 15
M  V30 26 1 30 15
M  V30 27 1 30 19
M  V30 28 2 31 7
M  V30 29 1 31 9
M  V30 30 1 31 29
M  V30 31 1 32 2
M  V30 32 2 32 6
M  V30 33 1 33 10
M  V30 34 1 33 16
M  V30 35 2 34 5
M  V30 36 1 35 7
M  V30 37 1 35 17
M  V30 38 2 35 26
M  V30 39 2 36 19
M  V30 40 1 37 1
M  V30 41 1 38 2
M  V30 42 1 39 2
M  V30 43 1 40 4
M  V30 44 1 41 4
M  V30 45 1 42 6
M  V30 46 1 43 12
M  V30 47 1 44 13
M  V30 48 1 45 15
M  V30 49 1 46 15
M  V30 50 1 47 16
M  V30 51 1 48 16
M  V30 52 1 49 17
M  V30 53 1 50 17
M  V30 54 1 51 18
M  V30 55 1 52 18
M  V30 56 1 21 53 CFG=3
M  V30 57 1 54 22
M  V30 58 1 55 22
M  V30 59 1 56 27
M  V30 60 1 57 30
M  V30 61 1 58 30
M  V30 62 1 59 32
M  V30 63 1 60 33
M  V30 64 1 61 33
M  V30 END BOND
M  V30 END CTAB
M  END
>  <i_epik_Tot_Q>  (1) 
-2

>  <i_epik_Tot_abs_Q>  (1) 
2

>  <i_i_glide_confnum>  (1) 
658

>  <i_i_glide_lignum>  (1) 
96

>  <i_i_glide_posenum>  (1) 
236

>  <i_i_glide_rotatable_bonds>  (1) 
10

>  <i_lp_mmshare_version>  (1) 
72125

>  <i_m_source_file_index>  (1) 
40

>  <i_f3d_flags>  (1) 
0

>  <num_sample>  (1) 
100

>  <b_lp_Chiralities_Consistent>  (1) 
1

>  <r_epik_Charging_Adjusted_Penalty>  (1) 
1.1553041349672681

>  <r_epik_Ionization_Penalty>  (1) 
1.0836065631352982

>  <r_epik_Ionization_Penalty_Charging>  (1) 
0.00098582723969229671

>  <r_epik_Ionization_Penalty_Neutral>  (1) 
1.0826207358956059

>  <r_epik_State_Penalty>  (1) 
1.1543183077275758

>  <r_glide_ring_energy>  (1) 
0

>  <r_i_docking_score>  (1) 
-5.6479674326828793

>  <r_i_glide_ecoul>  (1) 
-4.8692873618875598

>  <r_i_glide_eff_state_penalty>  (1) 
1.1543183077275758

>  <r_i_glide_einternal>  (1) 
11.786843144635917

>  <r_i_glide_emodel>  (1) 
-42.733092542113866

>  <r_i_glide_emodel_strain>  (1) 
0.88373659924650383

>  <r_i_glide_energy>  (1) 
-33.923804423551729

>  <r_i_glide_erotb>  (1) 
0.51538728504810294

>  <r_i_glide_esite>  (1) 
0

>  <r_i_glide_evdw>  (1) 
-29.054517061664171

>  <r_i_glide_gscore>  (1) 
-6.8022857404104551

>  <r_i_glide_gscore_strain>  (1) 
0

>  <r_i_glide_hbond>  (1) 
-0.01198749165639266

>  <r_i_glide_ligand_efficiency>  (1) 
-0.1568879842411911

>  <r_i_glide_ligand_efficiency_ln>  (1) 
-1.2322339033653722

>  <r_i_glide_ligand_efficiency_sa>  (1) 
-0.51803271019013974

>  <r_i_glide_lipo>  (1) 
-3.9625556663047621

>  <r_i_glide_metal>  (1) 
-0

>  <r_i_glide_rewards>  (1) 
-1.1600109101310605

>  <r_lp_Energy>  (1) 
56.584314999999997

>  <s_epik_cmdline>  (1) 
J2VwaWtfcHl0aG9uJywgJy1waHQnLCAnMS4wJywgJy1waCcsICc3LjQnLCAnLXRuJywgJzgnLCAnLW1hJywgJzUwMCcsICctaW1hZScsICc8aW5maWxlLm1hZT4nLCAnLW9tYWUnLCAnPG91dGZpbGUubWFlPic=

>  <s_epik_input>  (1) 
W09IXUMoPU8pW0NIMl1bQ0gyXWMoW2NIXVtjSF0xKVtjSF1jKGMxMilDKD1PKU4oW0NAQEhdKEMoPU8pW09IXSlbQ0gyXVtDSDJdMilbQ0gyXVtDSDJdW0NIMl1cW0NIXT1bQ0hdXGMoYzNbT0hdKWMoQ2wpbmMoYzM0KVtDSDJdW0NIMl1TNA==

>  <s_glide_docking_method>  (1) 
confgen

>  <s_i_glide_gridfile>  (1) 
gpcr_5ht2c_6bqh_protein_autoprepared_prepared

>  <s_lp_Force_Field>  (1) 
S-OPLS

>  <s_lp_Variant>  (1) 
DiffSBDD_39_num_sample_100-3

>  <s_m_source_file>  (1) 
generated__ligand_DiffSBDD_2026-05-06_prepared.sdf

>  <GenAI_Model>  (1) 
DiffSBDD

>  <Protein>  (1) 
GPCR_5HT2C

$$$$
DiffSBDD_93_num_sample_100
     RDKit          3D

  0  0  0  0  0  0  0  0  0  0999 V3000
M  V30 BEGIN CTAB
M  V30 COUNTS 74 77 0 0 1
M  V30 BEGIN ATOM
M  V30 1 C 40.474356 32.355432 64.589434 0
M  V30 2 S 38.424003 32.408065 58.126392 0
M  V30 3 C 41.566145 32.925338 66.819969 0 CFG=2
M  V30 4 O 37.567277 36.998666 59.958215 0
M  V30 5 C 37.867497 27.257876 56.048225 0
M  V30 6 C 36.732131 34.365409 60.843640 0 CFG=1
M  V30 7 C 39.405822 29.833660 56.242514 0
M  V30 8 C 38.971839 29.723135 58.685603 0
M  V30 9 C 41.278629 31.490259 67.278156 0
M  V30 10 N 38.455652 31.081051 60.523894 0
M  V30 11 C 38.469595 27.629426 54.706016 0
M  V30 12 C 40.996353 33.260647 65.451635 0
M  V30 13 C 39.914525 32.834076 63.305542 0
M  V30 14 C 38.478626 32.360945 61.233763 0 CFG=2
M  V30 15 C 41.406763 30.502349 66.128902 0
M  V30 16 Cl 41.068029 29.804550 63.607031 0
M  V30 17 O 38.875470 29.220942 53.001741 0
M  V30 18 C 40.482582 30.848784 64.944407 0 CFG=2
M  V30 19 C 40.233942 34.248428 62.816193 0
M  V30 20 C 37.060292 33.569871 58.424217 0
M  V30 21 C 36.991260 35.536370 61.826237 0
M  V30 22 C 39.121361 32.010563 62.574195 0
M  V30 23 C 38.390994 30.189484 55.148471 0
M  V30 24 C 37.401506 34.641771 59.483811 0 CFG=1
M  V30 25 C 38.060948 30.914136 59.123520 0 CFG=1
M  V30 26 C 38.113876 29.029281 54.176228 0 CFG=2
M  V30 27 C 37.031007 36.066377 59.036338 0
M  V30 28 C 36.893785 36.946183 61.198080 0
M  V30 29 C 38.032988 27.953745 57.195433 0
M  V30 30 S 36.368634 30.257224 59.135179 0
M  V30 31 N 38.759335 29.139462 57.355957 0
M  V30 32 C 43.030290 33.344390 66.903874 0
M  V30 33 C 37.042674 32.951926 61.425229 0
M  V30 34 H 41.032351 33.573661 67.516790 0
M  V30 35 H 37.278017 26.352770 56.066430 0
M  V30 36 H 35.655281 34.382789 60.667458 0
M  V30 37 H 39.868360 30.753364 56.595330 0
M  V30 38 H 40.235823 29.247368 55.849433 0
M  V30 39 H 38.869285 28.911226 59.407169 0
M  V30 40 H 40.016275 30.021107 58.760941 0
M  V30 41 H 41.929420 31.206978 68.106520 0
M  V30 42 H 40.265075 31.439782 67.666661 0
M  V30 43 H 37.947321 30.396804 61.062928 0
M  V30 44 H 38.130151 26.886541 53.982217 0
M  V30 45 H 39.548072 27.486567 54.766833 0
M  V30 46 H 40.993083 34.307608 65.192105 0
M  V30 47 H 39.140672 33.015792 60.680951 0
M  V30 48 H 42.446107 30.498824 65.798253 0
M  V30 49 H 41.199913 29.489603 66.477988 0
M  V30 50 H 38.698252 30.087112 52.669077 0
M  V30 51 H 39.466766 30.532368 65.177917 0
M  V30 52 H 39.755932 34.989990 63.453657 0
M  V30 53 H 41.309276 34.418122 62.874687 0
M  V30 54 H 39.962498 34.466363 61.788421 0
M  V30 55 H 36.884331 34.021441 57.452958 0
M  V30 56 H 36.134732 33.048711 58.656682 0
M  V30 57 H 37.980862 35.439745 62.252183 0
M  V30 58 H 36.282679 35.485438 62.653640 0
M  V30 59 H 38.903538 31.023064 62.947520 0
M  V30 60 H 38.732530 31.070424 54.603094 0
M  V30 61 H 37.457224 30.499227 55.622065 0
M  V30 62 H 38.480629 34.657807 59.614866 0
M  V30 63 H 37.062050 29.050281 53.890642 0
M  V30 64 H 37.467364 36.295394 58.069749 0
M  V30 65 H 35.952091 36.192765 58.931178 0
M  V30 66 H 37.336120 37.683236 61.869168 0
M  V30 67 H 35.873139 37.277917 61.024308 0
M  V30 68 H 37.581978 27.609256 58.114839 0
M  V30 69 H 35.955388 30.897265 58.017907 0
M  V30 70 H 43.067520 34.416462 66.707896 0
M  V30 71 H 43.443790 33.168403 67.897875 0
M  V30 72 H 43.648363 32.826831 66.169103 0
M  V30 73 H 36.795078 32.950139 62.482049 0
M  V30 74 H 36.304994 32.269501 61.009182 0
M  V30 END ATOM
M  V30 BEGIN BOND
M  V30 1 1 9 3
M  V30 2 1 11 5
M  V30 3 2 12 1
M  V30 4 1 12 3
M  V30 5 1 13 1
M  V30 6 1 14 10
M  V30 7 1 15 9
M  V30 8 1 18 1
M  V30 9 1 18 15
M  V30 10 1 18 16
M  V30 11 1 19 13
M  V30 12 1 20 2
M  V30 13 1 21 6
M  V30 14 2 22 13
M  V30 15 1 22 14
M  V30 16 1 23 7
M  V30 17 1 24 6
M  V30 18 1 24 20
M  V30 19 1 25 2
M  V30 20 1 25 8
M  V30 21 1 25 10
M  V30 22 1 26 11
M  V30 23 1 26 17
M  V30 24 1 26 23
M  V30 25 1 27 4
M  V30 26 1 27 24
M  V30 27 1 28 4
M  V30 28 1 28 21
M  V30 29 2 29 5
M  V30 30 1 25 30 CFG=1
M  V30 31 1 31 7
M  V30 32 1 31 8
M  V30 33 1 31 29
M  V30 34 1 32 3
M  V30 35 1 33 6
M  V30 36 1 33 14
M  V30 37 1 3 34 CFG=1
M  V30 38 1 35 5
M  V30 39 1 6 36 CFG=3
M  V30 40 1 37 7
M  V30 41 1 38 7
M  V30 42 1 39 8
M  V30 43 1 40 8
M  V30 44 1 41 9
M  V30 45 1 42 9
M  V30 46 1 43 10
M  V30 47 1 44 11
M  V30 48 1 45 11
M  V30 49 1 46 12
M  V30 50 1 14 47 CFG=3
M  V30 51 1 48 15
M  V30 52 1 49 15
M  V30 53 1 50 17
M  V30 54 1 18 51 CFG=1
M  V30 55 1 52 19
M  V30 56 1 53 19
M  V30 57 1 54 19
M  V30 58 1 55 20
M  V30 59 1 56 20
M  V30 60 1 57 21
M  V30 61 1 58 21
M  V30 62 1 59 22
M  V30 63 1 60 23
M  V30 64 1 61 23
M  V30 65 1 24 62 CFG=1
M  V30 66 1 26 63 CFG=3
M  V30 67 1 64 27
M  V30 68 1 65 27
M  V30 69 1 66 28
M  V30 70 1 67 28
M  V30 71 1 68 29
M  V30 72 1 69 30
M  V30 73 1 70 32
M  V30 74 1 71 32
M  V30 75 1 72 32
M  V30 76 1 73 33
M  V30 77 1 74 33
M  V30 END BOND
M  V30 END CTAB
M  END
>  <i_epik_Tot_Q>  (1) 
0

>  <i_epik_Tot_abs_Q>  (1) 
0

>  <i_i_glide_confnum>  (1) 
12

>  <i_i_glide_lignum>  (1) 
251

>  <i_i_glide_posenum>  (1) 
220

>  <i_i_glide_rotatable_bonds>  (1) 
6

>  <i_lp_mmshare_version>  (1) 
72125

>  <i_m_source_file_index>  (1) 
94

>  <i_f3d_flags>  (1) 
0

>  <num_sample>  (1) 
100

>  <b_lp_Chiralities_Consistent>  (1) 
1

>  <r_epik_Charging_Adjusted_Penalty>  (1) 
0.20325292957253988

>  <r_epik_Ionization_Penalty>  (1) 
0.031936562948065232

>  <r_epik_Ionization_Penalty_Charging>  (1) 
3.6030848355623751e-07

>  <r_epik_Ionization_Penalty_Neutral>  (1) 
0.031936202639581676

>  <r_epik_State_Penalty>  (1) 
0.20325256926405633

>  <r_glide_ring_energy>  (1) 
1.2305908303780131

>  <r_i_docking_score>  (1) 
-5.6445909781554873

>  <r_i_glide_ecoul>  (1) 
-2.8236614403070437

>  <r_i_glide_eff_state_penalty>  (1) 
0.20325256926405633

>  <r_i_glide_einternal>  (1) 
10.37126867588405

>  <r_i_glide_emodel>  (1) 
-40.18582307884563

>  <r_i_glide_emodel_strain>  (1) 
2.1107096853723988

>  <r_i_glide_energy>  (1) 
-39.055079449258713

>  <r_i_glide_erotb>  (1) 
0.31140238833871409

>  <r_i_glide_esite>  (1) 
-0.099089976135123534

>  <r_i_glide_evdw>  (1) 
-36.231418008951671

>  <r_i_glide_gscore>  (1) 
-5.8478435474195436

>  <r_i_glide_gscore_strain>  (1) 
0

>  <r_i_glide_hbond>  (1) 
-0.16

>  <r_i_glide_ligand_efficiency>  (1) 
-0.17104821145925719

>  <r_i_glide_ligand_efficiency_ln>  (1) 
-1.2553278074138441

>  <r_i_glide_ligand_efficiency_sa>  (1) 
-0.548643010339953

>  <r_i_glide_lipo>  (1) 
-3.1287646599650691

>  <r_i_glide_metal>  (1) 
-0

>  <r_i_glide_rewards>  (1) 
-0.5362711831644249

>  <r_lp_Energy>  (1) 
26.376678999999999

>  <s_epik_Chemistry_Notes>  (1) 
This compound has an imine and may undergo hydrolysis.

>  <s_epik_cmdline>  (1) 
J2VwaWtfcHl0aG9uJywgJy1waHQnLCAnMS4wJywgJy1waCcsICc3LjQnLCAnLXRuJywgJzgnLCAnLW1hJywgJzUwMCcsICctaW1hZScsICc8aW5maWxlLm1hZT4nLCAnLW9tYWUnLCAnPG91dGZpbGUubWFlPic=

>  <s_epik_input>  (1) 
Q2xbQ0BIXTFbQ0gyXVtDSDJdW0NAQEhdKFtDSDNdKVtDSF09QzEvQyhbQ0gzXSk9W0NIXS9bQ0BASF0oW0NIMl0yKVtOSF1bQ0BAXShbU0hdKShTW0NIMl1bQ0BIXShbQ0BASF0yMylbQ0gyXU9bQ0gyXVtDSDJdMylbQ0gyXU4oW0NIMl1bQ0gyXTQpW0NIXT1bQ0hdW0NIMl1bQ0BASF00W09IXQ==

>  <s_glide_docking_method>  (1) 
confgen

>  <s_i_glide_gridfile>  (1) 
gpcr_5ht2c_6bqh_protein_autoprepared_prepared

>  <s_lp_Force_Field>  (1) 
S-OPLS

>  <s_lp_Variant>  (1) 
DiffSBDD_93_num_sample_100-3

>  <s_m_source_file>  (1) 
generated__ligand_DiffSBDD_2026-05-06_prepared.sdf

>  <GenAI_Model>  (1) 
DiffSBDD

>  <Protein>  (1) 
GPCR_5HT2C

$$$$
DiffSBDD_42_num_sample_100
     RDKit          3D

  0  0  0  0  0  0  0  0  0  0999 V3000
M  V30 BEGIN CTAB
M  V30 COUNTS 69 73 0 0 1
M  V30 BEGIN ATOM
M  V30 1 O 37.473965 29.004817 54.134385 0
M  V30 2 C 39.851772 26.232291 54.696578 0
M  V30 3 C 39.872645 35.177689 62.256237 0
M  V30 4 C 37.930783 30.755253 61.792406 0
M  V30 5 O 42.433544 31.763276 64.307273 0
M  V30 6 C 38.839693 27.246912 54.256365 0
M  V30 7 C 40.953034 31.552613 62.407690 0
M  V30 8 C 42.012277 28.095572 63.354307 0
M  V30 9 C 38.781056 29.012583 56.203373 0
M  V30 10 C 38.878284 29.763376 61.122619 0 CFG=2
M  V30 11 C 37.398191 28.199042 53.040436 0
M  V30 12 C 38.414668 28.378031 54.902926 0
M  V30 13 O 40.190378 29.429754 61.591721 0
M  V30 14 C 38.216130 36.905457 61.941813 0
M  V30 15 C 40.574476 30.141308 62.766843 0 CFG=1
M  V30 16 C 37.244736 37.473355 61.204526 0
M  V30 17 C 39.928768 28.797916 58.309388 0
M  V30 18 Cl 39.194553 33.627019 59.697079 0
M  V30 19 C 40.789862 34.941640 63.178122 0
M  V30 20 O 40.943515 31.948326 61.247489 0
M  V30 21 N 39.243726 28.080969 57.229070 0
M  V30 22 C 38.454562 35.072618 60.260437 0
M  V30 23 C 41.787748 29.591553 63.486554 0
M  V30 24 C 43.115626 27.547332 64.283677 0
M  V30 25 C 38.896485 35.689510 61.522588 0
M  V30 26 P 38.918951 29.972649 59.318009 0 CFG=2
M  V30 27 C 36.766832 36.920347 59.875113 0
M  V30 28 C 43.858107 29.889988 64.934391 0
M  V30 29 C 37.470190 35.630340 59.517578 0
M  V30 30 O 37.915437 30.846910 58.652027 0
M  V30 31 C 41.390782 32.435914 63.557621 0 CFG=2
M  V30 32 C 44.304988 28.513047 64.415328 0
M  V30 33 C 42.627937 30.384929 64.202049 0
M  V30 34 C 41.838521 33.834291 63.076737 0
M  V30 35 C 38.131016 27.270282 57.729864 0
M  V30 36 N 38.186100 27.126921 53.048720 0
M  V30 37 O 38.269154 28.823385 60.251675 0
M  V30 38 H 40.609554 26.670586 55.342720 0
M  V30 39 H 40.368723 25.789595 53.844073 0
M  V30 40 H 39.375117 25.421611 55.249321 0
M  V30 41 H 37.866611 30.542669 62.855168 0
M  V30 42 H 36.934548 30.698342 61.353860 0
M  V30 43 H 38.279859 31.778491 61.673344 0
M  V30 44 H 42.264557 27.911614 62.311870 0
M  V30 45 H 41.071042 27.572599 63.537675 0
M  V30 46 H 39.561097 29.748804 56.005047 0
M  V30 47 H 37.915876 29.569069 56.562959 0
M  V30 48 H 36.717720 28.431605 52.235588 0
M  V30 49 H 38.502486 37.371508 62.874417 0
M  V30 50 H 39.774748 30.122292 63.504251 0
M  V30 51 H 36.770727 38.381336 61.546280 0
M  V30 52 H 40.728827 29.383350 57.873133 0
M  V30 53 H 40.390000 28.078495 58.984787 0
M  V30 54 H 40.839405 35.552023 64.068748 0
M  V30 55 H 42.690949 27.369054 65.270932 0
M  V30 56 H 43.460237 26.579595 63.916937 0
M  V30 57 H 35.691855 36.771586 59.858580 0
M  V30 58 H 37.025254 37.640654 59.098671 0
M  V30 59 H 44.666912 30.614134 64.826321 0
M  V30 60 H 43.617110 29.837280 65.995255 0
M  V30 61 H 37.166678 35.156609 58.593996 0
M  V30 62 H 40.540356 32.543638 64.234386 0
M  V30 63 H 44.782171 28.628082 63.442153 0
M  V30 64 H 45.062899 28.091696 65.082109 0
M  V30 65 H 42.255948 33.797211 62.071046 0
M  V30 66 H 42.667326 34.148826 63.707919 0
M  V30 67 H 38.476253 26.586814 58.506526 0
M  V30 68 H 37.668632 26.672890 56.942582 0
M  V30 69 H 37.342355 27.895320 58.146520 0
M  V30 END ATOM
M  V30 BEGIN BOND
M  V30 1 1 6 2
M  V30 2 1 10 4
M  V30 3 1 11 1
M  V30 4 1 12 1
M  V30 5 2 12 6
M  V30 6 1 12 9
M  V30 7 1 10 13 CFG=1
M  V30 8 1 15 7
M  V30 9 1 15 13
M  V30 10 2 16 14
M  V30 11 2 19 3
M  V30 12 2 20 7
M  V30 13 1 21 9
M  V30 14 1 21 17
M  V30 15 1 22 18
M  V30 16 1 23 8
M  V30 17 1 23 15
M  V30 18 1 24 8
M  V30 19 2 25 3
M  V30 20 1 25 14
M  V30 21 1 25 22
M  V30 22 1 26 10
M  V30 23 1 26 17 CFG=1
M  V30 24 1 27 16
M  V30 25 2 29 22
M  V30 26 1 29 27
M  V30 27 2 30 26
M  V30 28 1 31 5
M  V30 29 1 31 7
M  V30 30 1 32 24
M  V30 31 1 32 28
M  V30 32 1 33 5
M  V30 33 2 33 23
M  V30 34 1 33 28
M  V30 35 1 34 19
M  V30 36 1 34 31
M  V30 37 1 35 21
M  V30 38 1 36 6
M  V30 39 2 36 11
M  V30 40 1 37 10
M  V30 41 1 37 26
M  V30 42 1 38 2
M  V30 43 1 39 2
M  V30 44 1 40 2
M  V30 45 1 41 4
M  V30 46 1 42 4
M  V30 47 1 43 4
M  V30 48 1 44 8
M  V30 49 1 45 8
M  V30 50 1 46 9
M  V30 51 1 47 9
M  V30 52 1 48 11
M  V30 53 1 49 14
M  V30 54 1 15 50 CFG=1
M  V30 55 1 51 16
M  V30 56 1 52 17
M  V30 57 1 53 17
M  V30 58 1 54 19
M  V30 59 1 55 24
M  V30 60 1 56 24
M  V30 61 1 57 27
M  V30 62 1 58 27
M  V30 63 1 59 28
M  V30 64 1 60 28
M  V30 65 1 61 29
M  V30 66 1 31 62 CFG=1
M  V30 67 1 63 32
M  V30 68 1 64 32
M  V30 69 1 65 34
M  V30 70 1 66 34
M  V30 71 1 67 35
M  V30 72 1 68 35
M  V30 73 1 69 35
M  V30 END BOND
M  V30 END CTAB
M  END
>  <i_epik_Tot_Q>  (1) 
0

>  <i_epik_Tot_abs_Q>  (1) 
0

>  <i_i_glide_confnum>  (1) 
116

>  <i_i_glide_lignum>  (1) 
106

>  <i_i_glide_posenum>  (1) 
243

>  <i_i_glide_rotatable_bonds>  (1) 
8

>  <i_lp_mmshare_version>  (1) 
72125

>  <i_m_source_file_index>  (1) 
43

>  <i_f3d_flags>  (1) 
0

>  <num_sample>  (1) 
100

>  <b_lp_Chiralities_Consistent>  (1) 
1

>  <r_epik_Charging_Adjusted_Penalty>  (1) 
1.0635715053523389

>  <r_epik_Ionization_Penalty>  (1) 
1.0635723392520104

>  <r_epik_Ionization_Penalty_Charging>  (1) 
0

>  <r_epik_Ionization_Penalty_Neutral>  (1) 
1.0635723392520104

>  <r_epik_State_Penalty>  (1) 
1.0635715053523389

>  <r_glide_ring_energy>  (1) 
0

>  <r_i_docking_score>  (1) 
-5.6404073926856544

>  <r_i_glide_ecoul>  (1) 
0.97327797132531657

>  <r_i_glide_eff_state_penalty>  (1) 
1.0635715053523389

>  <r_i_glide_einternal>  (1) 
10.551527823980111

>  <r_i_glide_emodel>  (1) 
-49.989133573665079

>  <r_i_glide_emodel_strain>  (1) 
4.99254981429781

>  <r_i_glide_energy>  (1) 
-42.593183473352155

>  <r_i_glide_erotb>  (1) 
0.55382833966271061

>  <r_i_glide_esite>  (1) 
0

>  <r_i_glide_evdw>  (1) 
-43.566461444677472

>  <r_i_glide_gscore>  (1) 
-6.7039788980379935

>  <r_i_glide_gscore_strain>  (1) 
0.24813745357445249

>  <r_i_glide_hbond>  (1) 
0

>  <r_i_glide_ligand_efficiency>  (1) 
-0.15244344304555824

>  <r_i_glide_ligand_efficiency_ln>  (1) 
-1.2232721335633254

>  <r_i_glide_ligand_efficiency_sa>  (1) 
-0.50797537205655452

>  <r_i_glide_lipo>  (1) 
-4.4866270516380444

>  <r_i_glide_metal>  (1) 
-0

>  <r_i_glide_rewards>  (1) 
-0.98698626310203585

>  <r_lp_Energy>  (1) 
8.4432150000000004

>  <r_lp_tautomer_probability>  (1) 
0.99995000000000001

>  <s_epik_cmdline>  (1) 
J2VwaWtfcHl0aG9uJywgJy1waHQnLCAnMS4wJywgJy1waCcsICc3LjQnLCAnLXRuJywgJzgnLCAnLW1hJywgJzUwMCcsICctaW1hZScsICc8aW5maWxlLm1hZT4nLCAnLW9tYWUnLCAnPG91dGZpbGUubWFlPic=

>  <s_epik_input>  (1) 
bjFbY0hdb2MoYzFbQ0gzXSlbQ0gyXU4oW0NIM10pW0NIMl1bUEBAXSg9TykoTzIpW0NAXTIoW0NIM10pT1tDQEBIXTNDKD1PKVtDQEBIXShPQyg9QzM0KVtDSDJdW0NIMl1bQ0gyXVtDSDJdNClbQ0gyXVtDSF09Qz1DNVtDSF09W0NIXVtDSDJdW0NIXT1DNUNs

>  <s_glide_docking_method>  (1) 
confgen

>  <s_i_glide_gridfile>  (1) 
gpcr_5ht2c_6bqh_protein_autoprepared_prepared

>  <s_lp_Force_Field>  (1) 
S-OPLS

>  <s_lp_Variant>  (1) 
DiffSBDD_42_num_sample_100-3

>  <s_m_source_file>  (1) 
generated__ligand_DiffSBDD_2026-05-06_prepared.sdf

>  <GenAI_Model>  (1) 
DiffSBDD

>  <Protein>  (1) 
GPCR_5HT2C

$$$$
DiffSBDD_72_num_sample_100
     RDKit          3D

  0  0  0  0  0  0  0  0  0  0999 V3000
M  V30 BEGIN CTAB
M  V30 COUNTS 68 72 0 0 1
M  V30 BEGIN ATOM
M  V30 1 C 41.632446 35.622966 63.722679 0
M  V30 2 C 36.713907 30.940393 59.454169 0
M  V30 3 C 38.504839 29.401897 55.654260 0 CFG=1
M  V30 4 C 38.628302 33.856897 60.806026 0
M  V30 5 C 38.217939 31.991444 57.685468 0 CFG=2
M  V30 6 O 36.022506 30.020716 59.853469 0
M  V30 7 C 39.212634 29.891618 54.369474 0
M  V30 8 C 37.334009 30.839994 58.119565 0 CFG=1
M  V30 9 N 38.325113 32.660710 60.028489 0
M  V30 10 O 39.525998 26.005287 56.727973 0
M  V30 11 O 41.253477 31.616238 67.115397 0
M  V30 12 C 38.642758 27.782484 53.119661 0
M  V30 13 C 39.586513 27.347909 56.290954 0 CFG=1
M  V30 14 C 38.292902 27.868297 55.669153 0 CFG=2
M  V30 15 C 38.823242 30.633262 57.980059 0 CFG=1
M  V30 16 C 41.695074 32.894656 64.422231 0
M  V30 17 O 40.489895 35.110331 61.677882 0
M  V30 18 C 36.551997 32.031044 61.701535 0
M  V30 19 C 39.432240 27.931851 59.808195 0
M  V30 20 C 39.384610 29.694320 56.912724 0 CFG=1
M  V30 21 C 41.061007 34.675327 62.859410 0
M  V30 22 C 42.230393 35.221164 64.928408 0
M  V30 23 C 39.795534 28.306116 57.470376 0 CFG=1
M  V30 24 C 42.267132 33.860608 65.277163 0
M  V30 25 C 37.867872 27.239238 54.323248 0
M  V30 26 C 41.748263 31.415643 64.795522 0
M  V30 27 O 38.449103 33.071920 58.625590 0
M  V30 28 C 36.929708 32.237068 60.215089 0 CFG=2
M  V30 29 C 40.880537 31.128085 66.025124 0
M  V30 30 C 41.085362 33.298655 63.214420 0
M  V30 31 O 38.880945 27.934611 58.502302 0
M  V30 32 C 40.098811 34.203324 60.659766 0
M  V30 33 O 39.866877 30.421200 65.849946 0 CHG=-1
M  V30 34 C 38.583602 29.310001 53.103317 0
M  V30 35 H 41.614523 36.668985 63.454095 0
M  V30 36 H 37.534400 29.888747 55.667093 0
M  V30 37 H 37.990126 34.693203 60.519775 0
M  V30 38 H 38.479432 33.679198 61.867022 0
M  V30 39 H 38.150647 32.334477 56.653679 0
M  V30 40 H 39.183233 30.981570 54.331750 0
M  V30 41 H 40.267332 29.622756 54.387191 0
M  V30 42 H 36.677298 30.420911 57.367921 0
M  V30 43 H 38.958067 25.986896 57.483251 0
M  V30 44 H 38.213490 27.386769 52.198211 0
M  V30 45 H 39.677364 27.445526 53.153641 0
M  V30 46 H 40.410642 27.449046 55.582687 0
M  V30 47 H 37.495823 27.652609 56.381266 0
M  V30 48 H 39.419991 30.616006 58.885410 0
M  V30 49 H 35.548152 31.619102 61.803420 0
M  V30 50 H 37.258605 31.361343 62.193788 0
M  V30 51 H 36.534735 32.969532 62.253063 0
M  V30 52 H 38.662536 27.636801 60.519143 0
M  V30 53 H 40.251891 27.222009 59.874391 0
M  V30 54 H 39.800006 28.908366 60.116174 0
M  V30 55 H 40.267404 30.197877 56.552435 0
M  V30 56 H 42.666330 35.961312 65.586117 0
M  V30 57 H 40.830894 28.292327 57.817106 0
M  V30 58 H 42.734764 33.554584 66.201425 0
M  V30 59 H 36.806911 27.440930 54.165650 0
M  V30 60 H 37.964133 26.153428 54.363018 0
M  V30 61 H 41.418691 30.794223 63.961866 0
M  V30 62 H 42.777118 31.131630 65.013181 0
M  V30 63 H 36.274460 32.999352 59.792102 0
M  V30 64 H 40.646322 32.555826 62.568410 0
M  V30 65 H 40.693388 33.294991 60.653494 0
M  V30 66 H 40.267331 34.696349 59.704210 0
M  V30 67 H 37.542837 29.618720 53.052416 0
M  V30 68 H 39.086372 29.698412 52.217672 0
M  V30 END ATOM
M  V30 BEGIN BOND
M  V30 1 2 6 2
M  V30 2 1 7 3
M  V30 3 1 8 2
M  V30 4 1 8 5
M  V30 5 1 9 4
M  V30 6 1 13 10
M  V30 7 1 14 3
M  V30 8 1 14 13
M  V30 9 1 15 5
M  V30 10 1 15 8
M  V30 11 1 20 3
M  V30 12 1 20 15
M  V30 13 2 21 1
M  V30 14 1 21 17
M  V30 15 1 22 1
M  V30 16 1 23 13
M  V30 17 1 23 20
M  V30 18 1 24 16
M  V30 19 2 24 22
M  V30 20 1 25 12
M  V30 21 1 25 14
M  V30 22 1 26 16
M  V30 23 1 27 5
M  V30 24 1 27 9
M  V30 25 1 28 2
M  V30 26 1 28 9
M  V30 27 1 28 18
M  V30 28 2 29 11
M  V30 29 1 29 26
M  V30 30 2 30 16
M  V30 31 1 30 21
M  V30 32 1 31 19
M  V30 33 1 31 23
M  V30 34 1 32 4
M  V30 35 1 32 17
M  V30 36 1 33 29
M  V30 37 1 34 7
M  V30 38 1 34 12
M  V30 39 1 35 1
M  V30 40 1 3 36 CFG=1
M  V30 41 1 37 4
M  V30 42 1 38 4
M  V30 43 1 5 39 CFG=3
M  V30 44 1 40 7
M  V30 45 1 41 7
M  V30 46 1 8 42 CFG=3
M  V30 47 1 43 10
M  V30 48 1 44 12
M  V30 49 1 45 12
M  V30 50 1 13 46 CFG=3
M  V30 51 1 14 47 CFG=1
M  V30 52 1 15 48 CFG=1
M  V30 53 1 49 18
M  V30 54 1 50 18
M  V30 55 1 51 18
M  V30 56 1 52 19
M  V30 57 1 53 19
M  V30 58 1 54 19
M  V30 59 1 20 55 CFG=3
M  V30 60 1 56 22
M  V30 61 1 23 57 CFG=1
M  V30 62 1 58 24
M  V30 63 1 59 25
M  V30 64 1 60 25
M  V30 65 1 61 26
M  V30 66 1 62 26
M  V30 67 1 28 63 CFG=3
M  V30 68 1 64 30
M  V30 69 1 65 32
M  V30 70 1 66 32
M  V30 71 1 67 34
M  V30 72 1 68 34
M  V30 END BOND
M  V30 END CTAB
M  END
>  <i_epik_Tot_Q>  (1) 
-1

>  <i_epik_Tot_abs_Q>  (1) 
1

>  <i_i_glide_confnum>  (1) 
470

>  <i_i_glide_lignum>  (1) 
181

>  <i_i_glide_posenum>  (1) 
152

>  <i_i_glide_rotatable_bonds>  (1) 
9

>  <i_lp_mmshare_version>  (1) 
72125

>  <i_m_source_file_index>  (1) 
73

>  <i_f3d_flags>  (1) 
0

>  <num_sample>  (1) 
100

>  <b_lp_Chiralities_Consistent>  (1) 
1

>  <r_epik_Charging_Adjusted_Penalty>  (1) 
0.00040534896778007237

>  <r_epik_Ionization_Penalty>  (1) 
0.00058627792093801146

>  <r_epik_Ionization_Penalty_Charging>  (1) 
0.00040534896778007237

>  <r_epik_Ionization_Penalty_Neutral>  (1) 
0.00018092895315793904

>  <r_epik_State_Penalty>  (1) 
-0

>  <r_glide_ring_energy>  (1) 
0.044211323700632445

>  <r_i_docking_score>  (1) 
-5.637122434082908

>  <r_i_glide_ecoul>  (1) 
-0.048175373791816689

>  <r_i_glide_eff_state_penalty>  (1) 
-0

>  <r_i_glide_einternal>  (1) 
7.6168806702421996

>  <r_i_glide_emodel>  (1) 
-43.918421925437642

>  <r_i_glide_emodel_strain>  (1) 
1.7444947465157554

>  <r_i_glide_energy>  (1) 
-37.690544285987031

>  <r_i_glide_erotb>  (1) 
0.54329249107916178

>  <r_i_glide_esite>  (1) 
-0.10854530633553439

>  <r_i_glide_evdw>  (1) 
-37.642368912195217

>  <r_i_glide_gscore>  (1) 
-5.637122434082908

>  <r_i_glide_gscore_strain>  (1) 
0

>  <r_i_glide_hbond>  (1) 
0

>  <r_i_glide_ligand_efficiency>  (1) 
-0.1657977186494973

>  <r_i_glide_ligand_efficiency_ln>  (1) 
-1.2453984616174469

>  <r_i_glide_ligand_efficiency_sa>  (1) 
-0.53712024596179542

>  <r_i_glide_lipo>  (1) 
-3.2746791463951395

>  <r_i_glide_metal>  (1) 
-0

>  <r_i_glide_rewards>  (1) 
-0.90784572075286285

>  <r_lp_Energy>  (1) 
56.228467999999999

>  <r_lp_tautomer_probability>  (1) 
1

>  <s_epik_Chemistry_Notes>  (1) 
This compound has a N-S or N-O group and may undergo hydrolysis at high or low pH.

>  <s_epik_cmdline>  (1) 
J2VwaWtfcHl0aG9uJywgJy1waHQnLCAnMS4wJywgJy1waCcsICc3LjQnLCAnLXRuJywgJzgnLCAnLW1hJywgJzUwMCcsICctaW1hZScsICc8aW5maWxlLm1hZT4nLCAnLW9tYWUnLCAnPG91dGZpbGUubWFlPic=

>  <s_epik_input>  (1) 
Tz1DKFtPSF0pW0NIMl1jMVtjSF1bY0hdW2NIXWMoW2NIXTEpT1tDSDJdW0NIMl1OKE8yKVtDQEhdKFtDSDNdKUMoPU8pW0NAQEhdKFtDQEBIXTIzKVtDQEhdM1tDQEhdNFtDQEBIXShPW0NIM10pW0NAQEhdKFtPSF0pW0NAQEhdKFtDQEBIXTQ1KVtDSDJdW0NIMl1bQ0gyXVtDSDJdNQ==

>  <s_glide_docking_method>  (1) 
confgen

>  <s_i_glide_gridfile>  (1) 
gpcr_5ht2c_6bqh_protein_autoprepared_prepared

>  <s_lp_Force_Field>  (1) 
S-OPLS

>  <s_lp_Variant>  (1) 
DiffSBDD_72_num_sample_100-1

>  <s_m_source_file>  (1) 
generated__ligand_DiffSBDD_2026-05-06_prepared.sdf

>  <GenAI_Model>  (1) 
DiffSBDD

>  <Protein>  (1) 
GPCR_5HT2C

$$$$
DiffSBDD_90_num_sample_100
     RDKit          3D

  0  0  0  0  0  0  0  0  0  0999 V3000
M  V30 BEGIN CTAB
M  V30 COUNTS 84 87 0 0 1
M  V30 BEGIN ATOM
M  V30 1 C 39.696747 26.521228 56.017539 0
M  V30 2 O 41.796792 26.847495 66.520229 0
M  V30 3 F 39.248378 30.041216 50.996391 0
M  V30 4 C 37.867400 31.438054 57.069453 0 CFG=1
M  V30 5 C 41.028874 29.947989 64.567939 0 CFG=2
M  V30 6 C 41.103258 28.535533 62.512823 0 CFG=1
M  V30 7 C 39.433451 31.389185 60.397628 0
M  V30 8 C 40.799175 27.819768 60.078386 0
M  V30 9 C 37.838322 31.796002 58.597358 0
M  V30 10 N 41.067775 28.062552 66.230021 0
M  V30 11 C 38.897666 28.301387 52.498702 0
M  V30 12 C 38.010022 33.321573 58.805043 0
M  V30 13 C 40.602689 29.871238 63.079881 0
M  V30 14 C 41.068174 27.619045 63.744294 0
M  V30 15 O 42.518389 31.065239 66.073819 0
M  V30 16 N 39.355163 27.830276 56.564432 0
M  V30 17 C 40.283474 28.044036 61.308849 0
M  V30 18 F 40.966714 28.950390 51.638224 0
M  V30 19 C 38.738879 31.026986 53.823360 0 CFG=1
M  V30 20 N 39.241218 28.782997 55.603225 0
M  V30 21 C 37.558784 28.840749 53.021255 0
M  V30 22 C 40.166108 28.274431 57.697002 0
M  V30 23 O 38.918151 31.043029 59.129384 0
M  V30 24 C 36.561181 31.355242 59.358963 0
M  V30 25 C 39.599735 25.474653 57.103608 0
M  V30 26 C 40.041433 30.474299 53.186474 0
M  V30 27 C 39.983852 27.333176 58.870218 0 CFG=1
M  V30 28 C 41.501553 28.511074 64.910904 0 CFG=1
M  V30 29 C 39.196378 31.741601 56.373358 0
M  V30 30 O 42.665851 31.574641 63.910196 0 CHG=-1
M  V30 31 C 37.883183 29.258035 55.491369 0 CFG=1
M  V30 32 C 40.407819 25.961766 58.302535 0
M  V30 33 O 39.867451 30.316791 65.302435 0
M  V30 34 C 37.356383 30.002133 56.750905 0
M  V30 35 C 37.670436 29.936623 54.142998 0 CFG=1
M  V30 36 C 38.969259 32.101170 54.904355 0
M  V30 37 C 39.803819 29.451625 52.050743 0
M  V30 38 C 42.169424 30.952417 64.876277 0
M  V30 39 H 39.010208 26.270743 55.207754 0
M  V30 40 H 40.701827 26.552276 55.598592 0
M  V30 41 H 41.101157 26.273317 66.804788 0
M  V30 42 H 37.231913 32.166925 56.580802 0
M  V30 43 H 42.148799 28.654798 62.231390 0
M  V30 44 H 38.731900 31.178204 61.201902 0
M  V30 45 H 40.312528 30.766685 60.524507 0
M  V30 46 H 39.767919 32.422660 60.469624 0
M  V30 47 H 41.853682 27.987562 59.908344 0
M  V30 48 H 41.392966 28.705269 66.943327 0
M  V30 49 H 38.711420 27.636632 51.653479 0
M  V30 50 H 39.394347 27.689016 53.248333 0
M  V30 51 H 37.297318 33.888058 58.202788 0
M  V30 52 H 37.842939 33.608676 59.843461 0
M  V30 53 H 39.011346 33.658358 58.546644 0
M  V30 54 H 40.964472 30.715204 62.503205 0
M  V30 55 H 39.515506 29.891754 63.006924 0
M  V30 56 H 41.747240 26.777187 63.658257 0
M  V30 57 H 40.073869 27.221525 63.921013 0
M  V30 58 H 39.229770 27.877140 61.482183 0
M  V30 59 H 38.330377 31.661853 53.053502 0
M  V30 60 H 39.542732 28.388545 54.715055 0
M  V30 61 H 37.067401 29.221425 52.136161 0
M  V30 62 H 36.930254 28.010143 53.343744 0
M  V30 63 H 39.867412 29.273925 57.992542 0
M  V30 64 H 41.212673 28.334380 57.393567 0
M  V30 65 H 35.684802 31.923534 59.053531 0
M  V30 66 H 36.331157 30.298738 59.229874 0
M  V30 67 H 36.658215 31.525615 60.430426 0
M  V30 68 H 38.556565 25.324837 57.388761 0
M  V30 69 H 39.970418 24.513872 56.745022 0
M  V30 70 H 40.630897 31.294600 52.784728 0
M  V30 71 H 40.666958 30.036816 53.960754 0
M  V30 72 H 38.927679 27.304475 59.148656 0
M  V30 73 H 42.594513 28.508391 64.914665 0
M  V30 74 H 39.656143 32.616566 56.822989 0
M  V30 75 H 39.938958 30.965297 56.509201 0
M  V30 76 H 37.283225 28.354537 55.441006 0
M  V30 77 H 41.467441 26.021285 58.063010 0
M  V30 78 H 40.267389 25.221430 59.053501 0
M  V30 79 H 39.233971 29.622452 65.174173 0
M  V30 80 H 36.271419 30.021429 56.683373 0
M  V30 81 H 37.545023 29.364637 57.611419 0
M  V30 82 H 36.702808 30.430165 54.253394 0
M  V30 83 H 38.193328 32.863396 54.815380 0
M  V30 84 H 39.867377 32.605596 54.653545 0
M  V30 END ATOM
M  V30 BEGIN BOND
M  V30 1 1 9 4
M  V30 2 1 10 2
M  V30 3 1 12 9
M  V30 4 1 13 5
M  V30 5 1 13 6
M  V30 6 1 14 6
M  V30 7 1 16 1
M  V30 8 1 17 6
M  V30 9 2 17 8
M  V30 10 1 20 16
M  V30 11 1 21 11
M  V30 12 1 22 16
M  V30 13 1 23 7
M  V30 14 1 23 9
M  V30 15 1 24 9
M  V30 16 1 25 1
M  V30 17 1 26 19
M  V30 18 1 27 8
M  V30 19 1 27 22
M  V30 20 1 28 5
M  V30 21 1 28 10
M  V30 22 1 28 14
M  V30 23 1 29 4
M  V30 24 1 31 20
M  V30 25 1 32 25
M  V30 26 1 32 27
M  V30 27 1 5 33 CFG=1
M  V30 28 1 34 4
M  V30 29 1 34 31
M  V30 30 1 35 19
M  V30 31 1 35 21
M  V30 32 1 35 31
M  V30 33 1 36 19
M  V30 34 1 36 29
M  V30 35 1 37 3
M  V30 36 1 37 11
M  V30 37 1 37 18
M  V30 38 1 37 26
M  V30 39 1 38 5
M  V30 40 2 38 15
M  V30 41 1 38 30
M  V30 42 1 39 1
M  V30 43 1 40 1
M  V30 44 1 41 2
M  V30 45 1 4 42 CFG=3
M  V30 46 1 6 43 CFG=3
M  V30 47 1 44 7
M  V30 48 1 45 7
M  V30 49 1 46 7
M  V30 50 1 47 8
M  V30 51 1 48 10
M  V30 52 1 49 11
M  V30 53 1 50 11
M  V30 54 1 51 12
M  V30 55 1 52 12
M  V30 56 1 53 12
M  V30 57 1 54 13
M  V30 58 1 55 13
M  V30 59 1 56 14
M  V30 60 1 57 14
M  V30 61 1 58 17
M  V30 62 1 19 59 CFG=3
M  V30 63 1 60 20
M  V30 64 1 61 21
M  V30 65 1 62 21
M  V30 66 1 63 22
M  V30 67 1 64 22
M  V30 68 1 65 24
M  V30 69 1 66 24
M  V30 70 1 67 24
M  V30 71 1 68 25
M  V30 72 1 69 25
M  V30 73 1 70 26
M  V30 74 1 71 26
M  V30 75 1 27 72 CFG=1
M  V30 76 1 28 73 CFG=1
M  V30 77 1 74 29
M  V30 78 1 75 29
M  V30 79 1 31 76 CFG=3
M  V30 80 1 77 32
M  V30 81 1 78 32
M  V30 82 1 79 33
M  V30 83 1 80 34
M  V30 84 1 81 34
M  V30 85 1 35 82 CFG=1
M  V30 86 1 83 36
M  V30 87 1 84 36
M  V30 END BOND
M  V30 END CTAB
M  END
>  <i_epik_Tot_Q>  (1) 
-1

>  <i_epik_Tot_abs_Q>  (1) 
1

>  <i_i_glide_confnum>  (1) 
1471

>  <i_i_glide_lignum>  (1) 
232

>  <i_i_glide_posenum>  (1) 
60

>  <i_i_glide_rotatable_bonds>  (1) 
10

>  <i_lp_mmshare_version>  (1) 
72125

>  <i_m_source_file_index>  (1) 
91

>  <i_f3d_flags>  (1) 
0

>  <num_sample>  (1) 
100

>  <b_lp_Chiralities_Consistent>  (1) 
1

>  <r_epik_Charging_Adjusted_Penalty>  (1) 
0.43821527866000726

>  <r_epik_Ionization_Penalty>  (1) 
0.52002734918543769

>  <r_epik_Ionization_Penalty_Charging>  (1) 
0.00012691742049533285

>  <r_epik_Ionization_Penalty_Neutral>  (1) 
0.51990043176494238

>  <r_epik_State_Penalty>  (1) 
0.43808836123951195

>  <r_glide_ring_energy>  (1) 
0

>  <r_i_docking_score>  (1) 
-5.635368289940101

>  <r_i_glide_ecoul>  (1) 
-3.3700399870781714

>  <r_i_glide_eff_state_penalty>  (1) 
0.43808836123951195

>  <r_i_glide_einternal>  (1) 
2.2562655732439687

>  <r_i_glide_emodel>  (1) 
-27.76268159123007

>  <r_i_glide_emodel_strain>  (1) 
0.59358781750917444

>  <r_i_glide_energy>  (1) 
-25.060357190185901

>  <r_i_glide_erotb>  (1) 
0.42146348941000378

>  <r_i_glide_esite>  (1) 
0

>  <r_i_glide_evdw>  (1) 
-21.690317203107728

>  <r_i_glide_gscore>  (1) 
-6.0734566511796126

>  <r_i_glide_gscore_strain>  (1) 
0

>  <r_i_glide_hbond>  (1) 
-0.32000000000000001

>  <r_i_glide_ligand_efficiency>  (1) 
-0.14829916552473951

>  <r_i_glide_ligand_efficiency_ln>  (1) 
-1.2151511790505654

>  <r_i_glide_ligand_efficiency_sa>  (1) 
-0.498578147342983

>  <r_i_glide_lipo>  (1) 
-3.3344805970791636

>  <r_i_glide_metal>  (1) 
-0

>  <r_i_glide_rewards>  (1) 
-1.2504176852933404

>  <r_lp_Energy>  (1) 
49.927557999999998

>  <s_epik_Chemistry_Notes>  (1) 
This compound has a N-S or N-O group and may undergo hydrolysis at high or low pH.

>  <s_epik_cmdline>  (1) 
J2VwaWtfcHl0aG9uJywgJy1waHQnLCAnMS4wJywgJy1waCcsICc3LjQnLCAnLXRuJywgJzgnLCAnLW1hJywgJzUwMCcsICctaW1hZScsICc8aW5maWxlLm1hZT4nLCAnLW9tYWUnLCAnPG91dGZpbGUubWFlPic=

>  <s_epik_input>  (1) 
RkMoRikoW0NIMl0xKVtDSDJdW0NIMl1bQ0BIXShbQ0BASF0xMilbQ0BIXShbQ0gyXVtDQEhdKFtDSDJdW0NIMl0yKUMoW0NIM10pKFtDSDNdKU9bQ0gzXSlbTkhdTjNbQ0gyXVtDSDJdW0NIMl1bQ0BIXShbQ0gyXTMpL1tDSF09W0NIXS9bQ0BASF0oW0NIMl1bQ0BdNChbT0hdKUMoPU8pW09IXSlbQ0gyXVtDQEBIXTRbTkhdW09IXQ==

>  <s_glide_docking_method>  (1) 
confgen

>  <s_i_glide_gridfile>  (1) 
gpcr_5ht2c_6bqh_protein_autoprepared_prepared

>  <s_lp_Force_Field>  (1) 
S-OPLS

>  <s_lp_Variant>  (1) 
DiffSBDD_90_num_sample_100-4

>  <s_m_source_file>  (1) 
generated__ligand_DiffSBDD_2026-05-06_prepared.sdf

>  <GenAI_Model>  (1) 
DiffSBDD

>  <Protein>  (1) 
GPCR_5HT2C

$$$$
DiffSBDD_28_num_sample_100
     RDKit          3D

  0  0  0  0  0  0  0  0  0  0999 V3000
M  V30 BEGIN CTAB
M  V30 COUNTS 37 38 0 0 1
M  V30 BEGIN ATOM
M  V30 1 C 39.117688 29.490575 53.724476 0
M  V30 2 C 38.266732 32.825968 58.561320 0
M  V30 3 C 40.062895 29.611240 50.259124 0
M  V30 4 O 40.966692 30.421528 50.070342 0
M  V30 5 S 39.054331 32.653055 61.643907 0
M  V30 6 O 41.067403 30.932438 61.986730 0
M  V30 7 C 39.130714 30.025341 61.025768 0
M  V30 8 C 37.117141 32.571945 59.529070 0
M  V30 9 C 38.041807 30.616251 57.319216 0
M  V30 10 C 37.902614 30.325528 55.817175 0
M  V30 11 C 39.913877 31.067500 61.582584 0
M  V30 12 C 37.931359 30.422364 60.649969 0
M  V30 13 C 38.667417 31.973958 57.596074 0
M  V30 14 C 37.534964 31.878346 60.841540 0 CFG=1
M  V30 15 C 38.072740 28.357539 53.319845 0
M  V30 16 C 38.529228 28.463402 51.812946 0
M  V30 17 C 39.473585 29.350197 51.577440 0
M  V30 18 C 39.238027 29.910414 55.175929 0
M  V30 19 C 39.836709 29.978982 52.724543 0
M  V30 20 H 38.785249 33.764987 58.678542 0
M  V30 21 H 39.640161 29.022640 49.445361 0
M  V30 22 H 39.505497 29.016897 60.929849 0
M  V30 23 H 36.691420 33.547516 59.764831 0
M  V30 24 H 36.301832 32.028669 59.053940 0
M  V30 25 H 37.067375 30.521791 57.786084 0
M  V30 26 H 38.664081 29.851082 57.783559 0
M  V30 27 H 37.474972 31.187906 55.302723 0
M  V30 28 H 37.181009 29.518082 55.699706 0
M  V30 29 H 37.219156 29.743040 60.205498 0
M  V30 30 H 39.495332 32.253669 56.963123 0
M  V30 31 H 36.707357 31.913847 61.550118 0
M  V30 32 H 37.033839 28.650291 53.467991 0
M  V30 33 H 38.296797 27.388650 53.766336 0
M  V30 34 H 38.084408 27.835791 51.053577 0
M  V30 35 H 39.660644 29.067795 55.723940 0
M  V30 36 H 39.961995 30.722467 55.251071 0
M  V30 37 H 40.594340 30.745275 52.809669 0
M  V30 END ATOM
M  V30 BEGIN BOND
M  V30 1 2 4 3
M  V30 2 1 8 2
M  V30 3 1 10 9
M  V30 4 1 11 5
M  V30 5 2 11 6
M  V30 6 1 11 7
M  V30 7 2 12 7
M  V30 8 2 13 2
M  V30 9 1 13 9
M  V30 10 1 14 5
M  V30 11 1 14 8
M  V30 12 1 14 12
M  V30 13 1 15 1
M  V30 14 1 16 15
M  V30 15 1 17 3
M  V30 16 2 17 16
M  V30 17 1 18 1
M  V30 18 1 18 10
M  V30 19 2 19 1
M  V30 20 1 19 17
M  V30 21 1 20 2
M  V30 22 1 21 3
M  V30 23 1 22 7
M  V30 24 1 23 8
M  V30 25 1 24 8
M  V30 26 1 25 9
M  V30 27 1 26 9
M  V30 28 1 27 10
M  V30 29 1 28 10
M  V30 30 1 29 12
M  V30 31 1 30 13
M  V30 32 1 14 31 CFG=1
M  V30 33 1 32 15
M  V30 34 1 33 15
M  V30 35 1 34 16
M  V30 36 1 35 18
M  V30 37 1 36 18
M  V30 38 1 37 19
M  V30 END BOND
M  V30 END CTAB
M  END
>  <i_epik_Tot_Q>  (1) 
0

>  <i_epik_Tot_abs_Q>  (1) 
0

>  <i_i_glide_confnum>  (1) 
62

>  <i_i_glide_lignum>  (1) 
69

>  <i_i_glide_posenum>  (1) 
262

>  <i_i_glide_rotatable_bonds>  (1) 
7

>  <i_lp_mmshare_version>  (1) 
72125

>  <i_m_source_file_index>  (1) 
29

>  <i_f3d_flags>  (1) 
0

>  <num_sample>  (1) 
100

>  <b_lp_Chiralities_Consistent>  (1) 
1

>  <r_epik_Charging_Adjusted_Penalty>  (1) 
0

>  <r_epik_Ionization_Penalty>  (1) 
0

>  <r_epik_Ionization_Penalty_Charging>  (1) 
0

>  <r_epik_Ionization_Penalty_Neutral>  (1) 
0

>  <r_epik_State_Penalty>  (1) 
-0

>  <r_glide_ring_energy>  (1) 
0

>  <r_i_docking_score>  (1) 
-5.6337811708509902

>  <r_i_glide_ecoul>  (1) 
-1.5050821089551318

>  <r_i_glide_eff_state_penalty>  (1) 
-0

>  <r_i_glide_einternal>  (1) 
5.0374340213210402

>  <r_i_glide_emodel>  (1) 
-41.581540022109294

>  <r_i_glide_emodel_strain>  (1) 
7.2464778497760562e-06

>  <r_i_glide_energy>  (1) 
-32.480115117745711

>  <r_i_glide_erotb>  (1) 
1.1924995267514154

>  <r_i_glide_esite>  (1) 
0

>  <r_i_glide_evdw>  (1) 
-30.975033008790579

>  <r_i_glide_gscore>  (1) 
-5.6337811708509902

>  <r_i_glide_gscore_strain>  (1) 
0

>  <r_i_glide_hbond>  (1) 
-0.30741455051513422

>  <r_i_glide_ligand_efficiency>  (1) 
-0.29651479846584161

>  <r_i_glide_ligand_efficiency_ln>  (1) 
-1.4282845293354116

>  <r_i_glide_ligand_efficiency_sa>  (1) 
-0.79122057709670701

>  <r_i_glide_lipo>  (1) 
-2.1378605690029904

>  <r_i_glide_metal>  (1) 
-0

>  <r_i_glide_rewards>  (1) 
-2.6064916113014824

>  <r_lp_Energy>  (1) 
-7.8212549999999998

>  <r_lp_tautomer_probability>  (1) 
1

>  <s_epik_cmdline>  (1) 
J2VwaWtfcHl0aG9uJywgJy1waHQnLCAnMS4wJywgJy1waCcsICc3LjQnLCAnLXRuJywgJzgnLCAnLW1hJywgJzUwMCcsICctaW1hZScsICc8aW5maWxlLm1hZT4nLCAnLW9tYWUnLCAnPG91dGZpbGUubWFlPic=

>  <s_epik_input>  (1) 
Tz1bQ0hdQyg9W0NIXVtDSDJdMSlbQ0hdPUMxW0NIMl1bQ0gyXVtDSDJdL1tDSF09W0NIXVxbQ0gyXVtDQEhdKFNDMj1PKVtDSF09W0NIXTI=

>  <s_glide_docking_method>  (1) 
confgen

>  <s_i_glide_gridfile>  (1) 
gpcr_5ht2c_6bqh_protein_autoprepared_prepared

>  <s_lp_Force_Field>  (1) 
S-OPLS

>  <s_lp_Variant>  (1) 
DiffSBDD_28_num_sample_100-1

>  <s_m_source_file>  (1) 
generated__ligand_DiffSBDD_2026-05-06_prepared.sdf

>  <GenAI_Model>  (1) 
DiffSBDD

>  <Protein>  (1) 
GPCR_5HT2C

$$$$
DiffSBDD_28_num_sample_100
     RDKit          3D

  0  0  0  0  0  0  0  0  0  0999 V3000
M  V30 BEGIN CTAB
M  V30 COUNTS 37 38 0 0 1
M  V30 BEGIN ATOM
M  V30 1 C 39.966363 34.168956 61.154352 0
M  V30 2 C 38.771764 30.887996 56.458475 0
M  V30 3 C 41.467421 33.390912 64.331978 0
M  V30 4 O 41.316048 32.204665 64.619000 0
M  V30 5 S 38.150385 28.821423 53.776938 0
M  V30 6 O 38.990155 27.492603 51.619539 0
M  V30 7 C 39.867457 29.651370 51.866932 0
M  V30 8 C 39.670953 30.739263 55.243701 0
M  V30 9 C 37.878023 32.108785 58.486543 0
M  V30 10 C 38.653923 32.386709 59.790184 0
M  V30 11 C 39.067403 28.545306 52.248073 0
M  V30 12 C 39.786301 30.664958 52.706977 0
M  V30 13 C 38.775016 31.961511 57.269197 0
M  V30 14 C 38.888480 30.550273 53.933015 0 CFG=1
M  V30 15 C 40.470864 35.664001 61.375580 0
M  V30 16 C 41.106107 35.258212 62.761464 0
M  V30 17 C 40.957714 33.993422 63.093131 0
M  V30 18 C 39.201293 33.825863 59.883146 0
M  V30 19 C 40.269646 33.322491 62.130589 0
M  V30 20 H 38.098247 30.067935 56.662960 0
M  V30 21 H 41.998304 34.078758 64.990763 0
M  V30 22 H 40.472311 29.637994 50.972143 0
M  V30 23 H 40.306054 31.621434 55.166841 0
M  V30 24 H 40.337794 29.892072 55.404891 0
M  V30 25 H 37.290205 31.197142 58.602643 0
M  V30 26 H 37.158213 32.905955 58.295471 0
M  V30 27 H 39.461213 31.661340 59.894663 0
M  V30 28 H 37.980679 32.216925 60.631297 0
M  V30 29 H 40.336073 31.580242 52.548255 0
M  V30 30 H 39.446282 32.782324 57.063121 0
M  V30 31 H 38.096143 31.296041 53.853534 0
M  V30 32 H 39.657348 36.383210 61.471786 0
M  V30 33 H 41.220859 35.982947 60.653497 0
M  V30 34 H 41.621045 35.988401 63.371369 0
M  V30 35 H 38.372134 34.528957 59.798318 0
M  V30 36 H 39.867400 34.021412 59.045348 0
M  V30 37 H 40.014009 32.273150 62.158207 0
M  V30 END ATOM
M  V30 BEGIN BOND
M  V30 1 2 4 3
M  V30 2 1 8 2
M  V30 3 1 10 9
M  V30 4 1 11 5
M  V30 5 2 11 6
M  V30 6 1 11 7
M  V30 7 2 12 7
M  V30 8 2 13 2
M  V30 9 1 13 9
M  V30 10 1 14 5
M  V30 11 1 14 8
M  V30 12 1 14 12
M  V30 13 1 15 1
M  V30 14 1 16 15
M  V30 15 1 17 3
M  V30 16 2 17 16
M  V30 17 1 18 1
M  V30 18 1 18 10
M  V30 19 2 19 1
M  V30 20 1 19 17
M  V30 21 1 20 2
M  V30 22 1 21 3
M  V30 23 1 22 7
M  V30 24 1 23 8
M  V30 25 1 24 8
M  V30 26 1 25 9
M  V30 27 1 26 9
M  V30 28 1 27 10
M  V30 29 1 28 10
M  V30 30 1 29 12
M  V30 31 1 30 13
M  V30 32 1 14 31 CFG=3
M  V30 33 1 32 15
M  V30 34 1 33 15
M  V30 35 1 34 16
M  V30 36 1 35 18
M  V30 37 1 36 18
M  V30 38 1 37 19
M  V30 END BOND
M  V30 END CTAB
M  END
>  <i_epik_Tot_Q>  (1) 
0

>  <i_epik_Tot_abs_Q>  (1) 
0

>  <i_i_glide_confnum>  (1) 
27

>  <i_i_glide_lignum>  (1) 
70

>  <i_i_glide_posenum>  (1) 
153

>  <i_i_glide_rotatable_bonds>  (1) 
7

>  <i_lp_mmshare_version>  (1) 
72125

>  <i_m_source_file_index>  (1) 
29

>  <i_f3d_flags>  (1) 
0

>  <num_sample>  (1) 
100

>  <b_lp_Chiralities_Consistent>  (1) 
1

>  <r_epik_Charging_Adjusted_Penalty>  (1) 
0

>  <r_epik_Ionization_Penalty>  (1) 
0

>  <r_epik_Ionization_Penalty_Charging>  (1) 
0

>  <r_epik_Ionization_Penalty_Neutral>  (1) 
0

>  <r_epik_State_Penalty>  (1) 
-0

>  <r_glide_ring_energy>  (1) 
0

>  <r_i_docking_score>  (1) 
-5.630179962586257

>  <r_i_glide_ecoul>  (1) 
-0.20958447825810889

>  <r_i_glide_eff_state_penalty>  (1) 
-0

>  <r_i_glide_einternal>  (1) 
1.6445303312247173

>  <r_i_glide_emodel>  (1) 
-42.535335535552477

>  <r_i_glide_emodel_strain>  (1) 
0

>  <r_i_glide_energy>  (1) 
-32.14455303742335

>  <r_i_glide_erotb>  (1) 
1.1924995267514154

>  <r_i_glide_esite>  (1) 
0

>  <r_i_glide_evdw>  (1) 
-31.934968559165242

>  <r_i_glide_gscore>  (1) 
-5.630179962586257

>  <r_i_glide_gscore_strain>  (1) 
0

>  <r_i_glide_hbond>  (1) 
0

>  <r_i_glide_ligand_efficiency>  (1) 
-0.29632526118875036

>  <r_i_glide_ligand_efficiency_ln>  (1) 
-1.4273715456934402

>  <r_i_glide_ligand_efficiency_sa>  (1) 
-0.79071481551402256

>  <r_i_glide_lipo>  (1) 
-2.6031871706569025

>  <r_i_glide_metal>  (1) 
-0

>  <r_i_glide_rewards>  (1) 
-2.5913062189837914

>  <r_lp_Energy>  (1) 
-7.384944

>  <r_lp_tautomer_probability>  (1) 
1

>  <s_epik_cmdline>  (1) 
J2VwaWtfcHl0aG9uJywgJy1waHQnLCAnMS4wJywgJy1waCcsICc3LjQnLCAnLXRuJywgJzgnLCAnLW1hJywgJzUwMCcsICctaW1hZScsICc8aW5maWxlLm1hZT4nLCAnLW9tYWUnLCAnPG91dGZpbGUubWFlPic=

>  <s_epik_input>  (1) 
Tz1bQ0hdQyg9W0NIXVtDSDJdMSlbQ0hdPUMxW0NIMl1bQ0gyXVtDSDJdXFtDSF09W0NIXVxbQ0gyXVtDQEhdKFNDMj1PKVtDSF09W0NIXTI=

>  <s_glide_docking_method>  (1) 
confgen

>  <s_i_glide_gridfile>  (1) 
gpcr_5ht2c_6bqh_protein_autoprepared_prepared

>  <s_lp_Force_Field>  (1) 
S-OPLS

>  <s_lp_Variant>  (1) 
DiffSBDD_28_num_sample_100-2

>  <s_m_source_file>  (1) 
generated__ligand_DiffSBDD_2026-05-06_prepared.sdf

>  <GenAI_Model>  (1) 
DiffSBDD

>  <Protein>  (1) 
GPCR_5HT2C

$$$$
DiffSBDD_1_num_sample_100
     RDKit          3D

  0  0  0  0  0  0  0  0  0  0999 V3000
M  V30 BEGIN CTAB
M  V30 COUNTS 63 66 0 0 1
M  V30 BEGIN ATOM
M  V30 1 C 40.732275 34.025837 62.139195 0
M  V30 2 C 38.187610 26.350339 56.610060 0
M  V30 3 O 41.824180 35.212080 63.696156 0
M  V30 4 C 37.939585 28.784067 57.405709 0 CFG=1
M  V30 5 C 40.312200 32.780334 61.454577 0
M  V30 6 C 38.862192 31.013202 57.310289 0
M  V30 7 C 39.397591 26.936229 53.237877 0
M  V30 8 C 37.599966 24.285478 55.781566 0
M  V30 9 N 37.666835 25.235648 54.653604 0 CHG=1
M  V30 10 C 36.213433 31.110053 59.966415 0
M  V30 11 C 39.373605 32.902604 60.239249 0
M  V30 12 C 38.524998 27.610153 54.313531 0 CFG=2
M  V30 13 C 37.709967 26.611754 55.193554 0 CFG=2
M  V30 14 C 37.992579 31.516399 58.488210 0 CFG=2
M  V30 15 C 37.435865 31.336477 60.866176 0
M  V30 16 C 41.518364 34.017549 63.167304 0
M  V30 17 N 39.164431 29.584018 57.425101 0
M  V30 18 C 38.291063 27.301147 57.574537 0
M  V30 19 O 40.689597 31.664552 61.816798 0
M  V30 20 C 37.598622 28.634184 53.632116 0
M  V30 21 C 41.067500 36.123761 62.802012 0
M  V30 22 C 37.015189 29.236251 58.572950 0
M  V30 23 C 38.495053 24.903425 56.864642 0
M  V30 24 N 36.762973 30.706294 58.653502 0 CFG=1 CHG=1
M  V30 25 O 37.467398 32.783917 58.122111 0
M  V30 26 C 40.259552 35.327969 61.660872 0
M  V30 27 C 38.616540 31.594439 59.901839 0 CFG=2
M  V30 28 O 40.281835 26.021428 53.853518 0
M  V30 29 H 37.425261 28.942885 56.463296 0
M  V30 30 H 39.774790 31.596977 57.216315 0
M  V30 31 H 38.323996 31.184069 56.376024 0
M  V30 32 H 39.949912 27.671679 52.653642 0
M  V30 33 H 38.773658 26.421427 52.509232 0
M  V30 34 H 37.867461 23.285849 55.453502 0
M  V30 35 H 36.568519 24.238273 56.134949 0
M  V30 36 H 36.916607 25.106817 53.988608 0
M  V30 37 H 35.484407 30.420826 60.383140 0
M  V30 38 H 35.679658 32.053148 59.837564 0
M  V30 39 H 39.955814 33.221466 59.378486 0
M  V30 40 H 38.648210 33.696962 60.412865 0
M  V30 41 H 39.196731 28.174172 54.960135 0
M  V30 42 H 36.667400 26.827196 55.207082 0
M  V30 43 H 37.642649 30.452710 61.471427 0
M  V30 44 H 37.260471 32.164787 61.553823 0
M  V30 45 H 41.968772 33.170806 63.665032 0
M  V30 46 H 39.758693 29.312875 56.647605 0
M  V30 47 H 38.630627 27.007828 58.558431 0
M  V30 48 H 36.902300 28.146474 52.949370 0
M  V30 49 H 37.010323 29.198337 54.353298 0
M  V30 50 H 38.174641 29.358000 53.054114 0
M  V30 51 H 40.382868 36.722673 63.404735 0
M  V30 52 H 41.769153 36.819738 62.345816 0
M  V30 53 H 36.043612 28.750740 58.491232 0
M  V30 54 H 37.466677 28.906803 59.511063 0
M  V30 55 H 39.550614 24.707071 56.670638 0
M  V30 56 H 38.242676 24.576590 57.873447 0
M  V30 57 H 36.772422 32.657377 57.475911 0
M  V30 58 H 40.605822 35.560857 60.653138 0
M  V30 59 H 39.179417 35.445351 61.752796 0
M  V30 60 H 39.297163 30.744833 59.980074 0
M  V30 61 H 40.947131 26.499408 54.328645 0
M  V30 62 H 38.561636 25.097742 54.193685 0
M  V30 63 H 36.100866 30.980850 57.917178 0
M  V30 END ATOM
M  V30 BEGIN BOND
M  V30 1 1 5 1
M  V30 2 1 9 8
M  V30 3 1 11 5
M  V30 4 1 12 7
M  V30 5 1 13 2
M  V30 6 1 13 9
M  V30 7 1 13 12
M  V30 8 1 14 6
M  V30 9 1 15 10
M  V30 10 2 16 1
M  V30 11 1 16 3
M  V30 12 1 17 4
M  V30 13 1 17 6
M  V30 14 2 18 2
M  V30 15 1 18 4
M  V30 16 2 19 5
M  V30 17 1 20 12
M  V30 18 1 21 3
M  V30 19 1 22 4
M  V30 20 1 23 2
M  V30 21 1 23 8
M  V30 22 1 24 10
M  V30 23 1 24 14
M  V30 24 1 24 22
M  V30 25 1 14 25 CFG=3
M  V30 26 1 26 1
M  V30 27 1 26 21
M  V30 28 1 27 11
M  V30 29 1 27 14
M  V30 30 1 27 15
M  V30 31 1 28 7
M  V30 32 1 4 29 CFG=3
M  V30 33 1 30 6
M  V30 34 1 31 6
M  V30 35 1 32 7
M  V30 36 1 33 7
M  V30 37 1 34 8
M  V30 38 1 35 8
M  V30 39 1 36 9
M  V30 40 1 37 10
M  V30 41 1 38 10
M  V30 42 1 39 11
M  V30 43 1 40 11
M  V30 44 1 12 41 CFG=1
M  V30 45 1 13 42 CFG=1
M  V30 46 1 43 15
M  V30 47 1 44 15
M  V30 48 1 45 16
M  V30 49 1 46 17
M  V30 50 1 47 18
M  V30 51 1 48 20
M  V30 52 1 49 20
M  V30 53 1 50 20
M  V30 54 1 51 21
M  V30 55 1 52 21
M  V30 56 1 53 22
M  V30 57 1 54 22
M  V30 58 1 55 23
M  V30 59 1 56 23
M  V30 60 1 57 25
M  V30 61 1 58 26
M  V30 62 1 59 26
M  V30 63 1 27 60 CFG=3
M  V30 64 1 61 28
M  V30 65 1 62 9
M  V30 66 1 24 63 CFG=3
M  V30 END BOND
M  V30 END CTAB
M  END
>  <i_epik_Tot_Q>  (1) 
2

>  <i_epik_Tot_abs_Q>  (1) 
2

>  <i_i_glide_confnum>  (1) 
241

>  <i_i_glide_lignum>  (1) 
18

>  <i_i_glide_posenum>  (1) 
139

>  <i_i_glide_rotatable_bonds>  (1) 
8

>  <i_lp_mmshare_version>  (1) 
72125

>  <i_m_source_file_index>  (1) 
2

>  <i_f3d_flags>  (1) 
0

>  <num_sample>  (1) 
100

>  <b_lp_Chiralities_Consistent>  (1) 
1

>  <r_epik_Charging_Adjusted_Penalty>  (1) 
2.3622130296898831

>  <r_epik_Ionization_Penalty>  (1) 
1.4312966064593899

>  <r_epik_Ionization_Penalty_Charging>  (1) 
1.1852885594971458

>  <r_epik_Ionization_Penalty_Neutral>  (1) 
0.24600804696224418

>  <r_epik_State_Penalty>  (1) 
1.176924470192737

>  <r_glide_ring_energy>  (1) 
0

>  <r_i_docking_score>  (1) 
-5.6256447976551263

>  <r_i_glide_ecoul>  (1) 
-7.7718157263344061

>  <r_i_glide_eff_state_penalty>  (1) 
1.176924470192737

>  <r_i_glide_einternal>  (1) 
11.302125463891075

>  <r_i_glide_emodel>  (1) 
-54.079708286583497

>  <r_i_glide_emodel_strain>  (1) 
3.7975439048028079

>  <r_i_glide_energy>  (1) 
-38.318150331515625

>  <r_i_glide_erotb>  (1) 
0.75687532201182384

>  <r_i_glide_esite>  (1) 
-0.17519241239706648

>  <r_i_glide_evdw>  (1) 
-30.546334605181219

>  <r_i_glide_gscore>  (1) 
-6.8025692678478631

>  <r_i_glide_gscore_strain>  (1) 
0

>  <r_i_glide_hbond>  (1) 
-0.35196207826503223

>  <r_i_glide_ligand_efficiency>  (1) 
-0.20091588563054022

>  <r_i_glide_ligand_efficiency_ln>  (1) 
-1.2985639954074126

>  <r_i_glide_ligand_efficiency_sa>  (1) 
-0.61009896258033047

>  <r_i_glide_lipo>  (1) 
-3.1327115435680803

>  <r_i_glide_metal>  (1) 
-0

>  <r_i_glide_rewards>  (1) 
-1.2064894664202865

>  <r_lp_Energy>  (1) 
23.60812

>  <s_epik_cmdline>  (1) 
J2VwaWtfcHl0aG9uJywgJy1waHQnLCAnMS4wJywgJy1waCcsICc3LjQnLCAnLXRuJywgJzgnLCAnLW1hJywgJzUwMCcsICctaW1hZScsICc8aW5maWxlLm1hZT4nLCAnLW9tYWUnLCAnPG91dGZpbGUubWFlPic=

>  <s_epik_input>  (1) 
W0NIMl0xW0NIMl1PW0NIXT1DMUMoPU8pW0NIMl1bQ0BIXTJbQ0gyXVtDSDJdTihbQ0BAXTIzW09IXSlbQ0gyXVtDQEBIXShbTkhdW0NIMl0zKS9bQ0hdPUM0XFtDQEBIXShbTkhdW0NIMl1bQ0gyXTQpW0NASF0oW0NIM10pW0NIMl1bT0hd

>  <s_glide_docking_method>  (1) 
confgen

>  <s_i_glide_gridfile>  (1) 
gpcr_5ht2c_6bqh_protein_autoprepared_prepared

>  <s_lp_Force_Field>  (1) 
S-OPLS

>  <s_lp_Variant>  (1) 
DiffSBDD_1_num_sample_100-12

>  <s_m_source_file>  (1) 
generated__ligand_DiffSBDD_2026-05-06_prepared.sdf

>  <GenAI_Model>  (1) 
DiffSBDD

>  <Protein>  (1) 
GPCR_5HT2C

$$$$
DiffSBDD_1_num_sample_100
     RDKit          3D

  0  0  0  0  0  0  0  0  0  0999 V3000
M  V30 BEGIN CTAB
M  V30 COUNTS 62 65 0 0 1
M  V30 BEGIN ATOM
M  V30 1 C 40.631381 34.735744 63.123826 0
M  V30 2 C 37.904770 29.137439 56.107326 0
M  V30 3 O 41.474375 33.995324 65.065594 0
M  V30 4 C 37.141657 29.428666 58.514285 0 CFG=1
M  V30 5 C 39.781255 34.678540 61.907166 0
M  V30 6 C 36.997536 31.667093 59.604553 0
M  V30 7 C 39.858916 30.760669 53.127560 0
M  V30 8 C 38.020739 27.216901 54.778902 0
M  V30 9 N 38.025785 28.433721 53.920449 0 CHG=1
M  V30 10 C 40.304774 30.221406 60.530414 0
M  V30 11 C 38.821506 33.492799 61.737780 0
M  V30 12 C 39.561418 30.315890 54.575324 0 CFG=2
M  V30 13 C 38.163178 29.669075 54.728707 0 CFG=2
M  V30 14 C 38.262800 31.332950 60.422081 0 CFG=2
M  V30 15 C 40.559493 31.645684 61.067733 0
M  V30 16 C 40.667404 33.791697 64.012427 0
M  V30 17 N 36.290804 30.432730 59.178667 0
M  V30 18 C 37.465394 29.916443 57.112510 0
M  V30 19 O 39.810792 35.549768 61.040384 0
M  V30 20 C 39.715021 31.528544 55.513283 0
M  V30 21 C 42.002522 35.349334 64.765466 0
M  V30 22 C 38.394023 29.119990 59.371706 0
M  V30 23 C 38.153661 27.665902 56.240231 0
M  V30 24 N 39.084820 30.339356 59.761668 0
M  V30 25 O 37.863319 30.821424 61.680690 0
M  V30 26 C 41.468410 35.910488 63.359382 0
M  V30 27 C 39.281950 32.452075 60.696557 0 CFG=2
M  V30 28 O 39.867408 29.673115 52.221052 0
M  V30 29 H 36.561562 28.517161 58.384853 0
M  V30 30 H 37.282493 32.249260 58.727888 0
M  V30 31 H 36.327164 32.305582 60.180227 0
M  V30 32 H 40.841914 31.221432 53.085893 0
M  V30 33 H 39.144974 31.516752 52.800837 0
M  V30 34 H 38.829427 26.542693 54.493218 0
M  V30 35 H 37.079212 26.687743 54.625638 0
M  V30 36 H 37.153678 28.470858 53.414075 0
M  V30 37 H 40.176625 29.519979 61.356784 0
M  V30 38 H 41.118500 29.855328 59.904972 0
M  V30 39 H 37.869716 33.909615 61.408027 0
M  V30 40 H 38.602192 33.015431 62.688602 0
M  V30 41 H 40.315270 29.587799 54.871734 0
M  V30 42 H 37.382401 30.379369 54.449095 0
M  V30 43 H 40.695541 31.593124 62.147132 0
M  V30 44 H 41.460224 32.095323 60.653548 0
M  V30 45 H 40.130863 32.855497 64.030390 0
M  V30 46 H 35.574038 30.722339 58.507000 0
M  V30 47 H 37.311438 30.965800 56.925086 0
M  V30 48 H 38.933350 32.270547 55.343123 0
M  V30 49 H 39.686566 31.243088 56.563817 0
M  V30 50 H 40.669303 32.021420 55.372812 0
M  V30 51 H 41.709363 36.021362 65.573002 0
M  V30 52 H 43.088576 35.316957 64.767956 0
M  V30 53 H 38.105019 28.554700 60.253484 0
M  V30 54 H 39.076726 28.475321 58.818640 0
M  V30 55 H 39.173279 27.510591 56.594787 0
M  V30 56 H 37.467362 27.147356 56.908165 0
M  V30 57 H 38.267427 29.974486 61.781690 0
M  V30 58 H 42.253580 36.021433 62.613576 0
M  V30 59 H 40.878199 36.821389 63.453478 0
M  V30 60 H 39.467323 32.965223 59.750652 0
M  V30 61 H 40.145664 29.993674 51.373314 0
M  V30 62 H 38.787114 28.422521 53.247601 0
M  V30 END ATOM
M  V30 BEGIN BOND
M  V30 1 1 5 1
M  V30 2 1 9 8
M  V30 3 1 11 5
M  V30 4 1 12 7
M  V30 5 1 13 2
M  V30 6 1 13 9
M  V30 7 1 13 12
M  V30 8 1 14 6
M  V30 9 1 15 10
M  V30 10 2 16 1
M  V30 11 1 16 3
M  V30 12 1 17 4
M  V30 13 1 17 6
M  V30 14 2 18 2
M  V30 15 1 18 4
M  V30 16 2 19 5
M  V30 17 1 20 12
M  V30 18 1 21 3
M  V30 19 1 22 4
M  V30 20 1 23 2
M  V30 21 1 23 8
M  V30 22 1 24 10
M  V30 23 1 24 14
M  V30 24 1 24 22
M  V30 25 1 14 25 CFG=1
M  V30 26 1 26 1
M  V30 27 1 26 21
M  V30 28 1 27 11
M  V30 29 1 27 14
M  V30 30 1 27 15
M  V30 31 1 28 7
M  V30 32 1 4 29 CFG=3
M  V30 33 1 30 6
M  V30 34 1 31 6
M  V30 35 1 32 7
M  V30 36 1 33 7
M  V30 37 1 34 8
M  V30 38 1 35 8
M  V30 39 1 36 9
M  V30 40 1 37 10
M  V30 41 1 38 10
M  V30 42 1 39 11
M  V30 43 1 40 11
M  V30 44 1 12 41 CFG=1
M  V30 45 1 13 42 CFG=3
M  V30 46 1 43 15
M  V30 47 1 44 15
M  V30 48 1 45 16
M  V30 49 1 46 17
M  V30 50 1 47 18
M  V30 51 1 48 20
M  V30 52 1 49 20
M  V30 53 1 50 20
M  V30 54 1 51 21
M  V30 55 1 52 21
M  V30 56 1 53 22
M  V30 57 1 54 22
M  V30 58 1 55 23
M  V30 59 1 56 23
M  V30 60 1 57 25
M  V30 61 1 58 26
M  V30 62 1 59 26
M  V30 63 1 27 60 CFG=3
M  V30 64 1 61 28
M  V30 65 1 62 9
M  V30 END BOND
M  V30 END CTAB
M  END
>  <i_epik_Tot_Q>  (1) 
1

>  <i_epik_Tot_abs_Q>  (1) 
1

>  <i_i_glide_confnum>  (1) 
152

>  <i_i_glide_lignum>  (1) 
9

>  <i_i_glide_posenum>  (1) 
177

>  <i_i_glide_rotatable_bonds>  (1) 
8

>  <i_lp_mmshare_version>  (1) 
72125

>  <i_m_source_file_index>  (1) 
2

>  <i_f3d_flags>  (1) 
0

>  <num_sample>  (1) 
100

>  <b_lp_Chiralities_Consistent>  (1) 
1

>  <r_epik_Charging_Adjusted_Penalty>  (1) 
0.089223518210420474

>  <r_epik_Ionization_Penalty>  (1) 
0.15303808439063821

>  <r_epik_Ionization_Penalty_Charging>  (1) 
0.0017986555257548985

>  <r_epik_Ionization_Penalty_Neutral>  (1) 
0.15123942886488331

>  <r_epik_State_Penalty>  (1) 
0.08742486268466558

>  <r_glide_ring_energy>  (1) 
0

>  <r_i_docking_score>  (1) 
-5.6243784176591367

>  <r_i_glide_ecoul>  (1) 
-6.4007383393376882

>  <r_i_glide_eff_state_penalty>  (1) 
0.08742486268466558

>  <r_i_glide_einternal>  (1) 
6.7634646730677268

>  <r_i_glide_emodel>  (1) 
-46.012013690063895

>  <r_i_glide_emodel_strain>  (1) 
0.026206641767913652

>  <r_i_glide_energy>  (1) 
-39.153754101550163

>  <r_i_glide_erotb>  (1) 
0.76037187950223806

>  <r_i_glide_esite>  (1) 
0

>  <r_i_glide_evdw>  (1) 
-32.753015762212478

>  <r_i_glide_gscore>  (1) 
-5.7118032803438021

>  <r_i_glide_gscore_strain>  (1) 
0

>  <r_i_glide_hbond>  (1) 
-0.33205403680323714

>  <r_i_glide_ligand_efficiency>  (1) 
-0.2008706577735406

>  <r_i_glide_ligand_efficiency_ln>  (1) 
-1.298271677721806

>  <r_i_glide_ligand_efficiency_sa>  (1) 
-0.60996162416854383

>  <r_i_glide_lipo>  (1) 
-2.0760979957195427

>  <r_i_glide_metal>  (1) 
-0

>  <r_i_glide_rewards>  (1) 
-1.4662615883119834

>  <r_lp_Energy>  (1) 
16.245208999999999

>  <s_epik_cmdline>  (1) 
J2VwaWtfcHl0aG9uJywgJy1waHQnLCAnMS4wJywgJy1waCcsICc3LjQnLCAnLXRuJywgJzgnLCAnLW1hJywgJzUwMCcsICctaW1hZScsICc8aW5maWxlLm1hZT4nLCAnLW9tYWUnLCAnPG91dGZpbGUubWFlPic=

>  <s_epik_input>  (1) 
W0NIMl0xW0NIMl1PW0NIXT1DMUMoPU8pW0NIMl1bQ0BIXTJbQ0gyXVtDSDJdTihbQ0BAXTIzW09IXSlbQ0gyXVtDQEBIXShbTkhdW0NIMl0zKVxbQ0hdPUM0XFtDQEBIXShbTkhdW0NIMl1bQ0gyXTQpW0NASF0oW0NIM10pW0NIMl1bT0hd

>  <s_glide_docking_method>  (1) 
confgen

>  <s_i_glide_gridfile>  (1) 
gpcr_5ht2c_6bqh_protein_autoprepared_prepared

>  <s_lp_Force_Field>  (1) 
S-OPLS

>  <s_lp_Variant>  (1) 
DiffSBDD_1_num_sample_100-3

>  <s_m_source_file>  (1) 
generated__ligand_DiffSBDD_2026-05-06_prepared.sdf

>  <GenAI_Model>  (1) 
DiffSBDD

>  <Protein>  (1) 
GPCR_5HT2C

$$$$
DiffSBDD_40_num_sample_100
     RDKit          3D

  0  0  0  0  0  0  0  0  0  0999 V3000
M  V30 BEGIN CTAB
M  V30 COUNTS 73 75 0 0 1
M  V30 BEGIN ATOM
M  V30 1 C 38.357238 31.417609 54.138936 0
M  V30 2 C 40.612355 35.960291 62.420582 0 CFG=1
M  V30 3 N 36.667402 23.498195 55.588948 0
M  V30 4 C 38.155370 35.901934 61.623829 0
M  V30 5 C 41.256088 28.623376 58.168840 0
M  V30 6 C 37.207154 31.190171 60.500184 0
M  V30 7 N 36.909951 25.738978 56.265061 0 CHG=1
M  V30 8 C 36.042008 34.477906 60.478441 0
M  V30 9 O 34.118091 33.221431 59.853489 0
M  V30 10 C 35.872160 31.903180 60.820459 0
M  V30 11 C 41.527791 35.621435 63.593908 0
M  V30 12 C 41.129244 35.322532 61.117962 0
M  V30 13 N 38.101121 24.289942 57.298057 0
M  V30 14 C 38.396104 30.961326 57.160702 0 CFG=2
M  V30 15 C 39.138954 35.611342 62.737928 0
M  V30 16 C 38.683853 28.579201 58.118687 0 CFG=1
M  V30 17 C 39.990863 28.426927 57.313491 0 CFG=1
M  V30 18 S 37.426938 37.386102 61.452799 0
M  V30 19 C 37.637192 26.445415 57.196044 0
M  V30 20 N 39.556354 30.687802 56.259080 0 CFG=2 CHG=1
M  V30 21 S 37.857141 34.554425 60.536045 0
M  V30 22 C 39.613574 31.500170 55.014414 0
M  V30 23 C 38.407139 25.506043 57.853507 0
M  V30 24 C 35.518330 33.128931 59.939534 0 CFG=2
M  V30 25 C 39.926093 29.267635 56.021498 0
M  V30 26 O 41.867322 34.284817 63.604386 0
M  V30 27 C 38.413838 32.465644 57.508552 0
M  V30 28 N 41.276134 35.068418 64.696112 0
M  V30 29 C 37.199293 24.456383 56.343225 0
M  V30 30 C 38.412842 30.074201 58.449543 0 CFG=2
M  V30 31 C 37.515983 27.923175 57.357289 0
M  V30 32 C 37.113879 30.234036 59.298061 0
M  V30 33 H 38.511580 32.021365 53.245527 0
M  V30 34 H 38.141303 30.396641 53.824784 0
M  V30 35 H 37.472231 31.817409 54.635428 0
M  V30 36 H 40.678998 37.042480 62.302001 0
M  V30 37 H 35.977403 23.690311 54.875753 0
M  V30 38 H 36.914447 22.525167 55.695089 0
M  V30 39 H 41.335421 29.621427 58.592104 0
M  V30 40 H 41.267104 27.924298 59.005867 0
M  V30 41 H 42.156931 28.423536 57.586000 0
M  V30 42 H 38.014140 31.901728 60.364825 0
M  V30 43 H 37.509625 30.606097 61.369909 0
M  V30 44 H 35.678805 35.294707 59.853445 0
M  V30 45 H 35.658456 34.635532 61.487264 0
M  V30 46 H 33.828048 32.601091 59.200879 0
M  V30 47 H 35.888488 32.234524 61.853499 0
M  V30 48 H 35.070447 31.166210 60.772574 0
M  V30 49 H 42.163531 35.605606 60.931541 0
M  V30 50 H 41.067413 34.234893 61.156805 0
M  V30 51 H 40.558023 35.651533 60.253505 0
M  V30 52 H 38.499316 23.400435 57.574376 0
M  V30 53 H 37.473044 30.739062 56.624223 0
M  V30 54 H 38.819056 36.143309 63.636067 0
M  V30 55 H 39.068858 34.549789 62.975788 0
M  V30 56 H 38.795235 28.053567 59.068846 0
M  V30 57 H 40.081790 27.395480 56.976620 0
M  V30 58 H 39.793224 32.537602 55.284250 0
M  V30 59 H 40.484612 31.208464 54.425591 0
M  V30 60 H 39.124454 25.621424 58.653498 0
M  V30 61 H 35.826526 32.987088 58.911847 0
M  V30 62 H 40.894247 29.221433 55.524154 0
M  V30 63 H 39.233987 28.829858 55.304020 0
M  V30 64 H 37.734318 32.705040 58.305988 0
M  V30 65 H 39.398385 32.804261 57.832631 0
M  V30 66 H 38.101824 33.084596 56.667068 0
M  V30 67 H 39.243465 30.406161 59.072199 0
M  V30 68 H 36.569609 28.120816 57.853502 0
M  V30 69 H 37.467403 28.363457 56.366269 0
M  V30 70 H 36.808487 29.273645 59.712861 0
M  V30 71 H 36.286713 30.530339 58.653473 0
M  V30 72 H 40.339739 31.034430 56.793868 0
M  V30 73 H 36.243183 26.141119 55.618168 0
M  V30 END ATOM
M  V30 BEGIN BOND
M  V30 1 1 10 6
M  V30 2 1 11 2
M  V30 3 1 12 2
M  V30 4 1 15 2
M  V30 5 1 15 4
M  V30 6 1 17 5
M  V30 7 1 17 16
M  V30 8 2 18 4
M  V30 9 1 19 7
M  V30 10 1 20 14
M  V30 11 1 21 4
M  V30 12 1 21 8
M  V30 13 1 22 1
M  V30 14 1 22 20
M  V30 15 1 23 13
M  V30 16 2 23 19
M  V30 17 1 24 8
M  V30 18 1 24 9
M  V30 19 1 24 10
M  V30 20 1 25 17
M  V30 21 1 25 20
M  V30 22 1 26 11
M  V30 23 1 27 14
M  V30 24 2 28 11
M  V30 25 1 28 26
M  V30 26 1 29 3
M  V30 27 2 29 7
M  V30 28 1 29 13
M  V30 29 1 30 14
M  V30 30 1 30 16
M  V30 31 1 31 16
M  V30 32 1 31 19
M  V30 33 1 32 6
M  V30 34 1 32 30
M  V30 35 1 33 1
M  V30 36 1 34 1
M  V30 37 1 35 1
M  V30 38 1 2 36 CFG=3
M  V30 39 1 37 3
M  V30 40 1 38 3
M  V30 41 1 39 5
M  V30 42 1 40 5
M  V30 43 1 41 5
M  V30 44 1 42 6
M  V30 45 1 43 6
M  V30 46 1 44 8
M  V30 47 1 45 8
M  V30 48 1 46 9
M  V30 49 1 47 10
M  V30 50 1 48 10
M  V30 51 1 49 12
M  V30 52 1 50 12
M  V30 53 1 51 12
M  V30 54 1 52 13
M  V30 55 1 14 53 CFG=3
M  V30 56 1 54 15
M  V30 57 1 55 15
M  V30 58 1 16 56 CFG=1
M  V30 59 1 17 57 CFG=3
M  V30 60 1 58 22
M  V30 61 1 59 22
M  V30 62 1 60 23
M  V30 63 1 24 61 CFG=3
M  V30 64 1 62 25
M  V30 65 1 63 25
M  V30 66 1 64 27
M  V30 67 1 65 27
M  V30 68 1 66 27
M  V30 69 1 30 67 CFG=1
M  V30 70 1 68 31
M  V30 71 1 69 31
M  V30 72 1 70 32
M  V30 73 1 71 32
M  V30 74 1 20 72 CFG=1
M  V30 75 1 73 7
M  V30 END BOND
M  V30 END CTAB
M  END
>  <i_epik_Tot_Q>  (1) 
2

>  <i_epik_Tot_abs_Q>  (1) 
2

>  <i_i_glide_confnum>  (1) 
647

>  <i_i_glide_lignum>  (1) 
101

>  <i_i_glide_posenum>  (1) 
381

>  <i_i_glide_rotatable_bonds>  (1) 
14

>  <i_lp_mmshare_version>  (1) 
72125

>  <i_m_source_file_index>  (1) 
41

>  <i_f3d_flags>  (1) 
0

>  <num_sample>  (1) 
100

>  <b_lp_Chiralities_Consistent>  (1) 
1

>  <r_epik_Charging_Adjusted_Penalty>  (1) 
0.0037096170623772918

>  <r_epik_Ionization_Penalty>  (1) 
0.054330814931534903

>  <r_epik_Ionization_Penalty_Charging>  (1) 
0.0037096170623772918

>  <r_epik_Ionization_Penalty_Neutral>  (1) 
0.050621197869157614

>  <r_epik_State_Penalty>  (1) 
-0

>  <r_glide_ring_energy>  (1) 
0

>  <r_i_docking_score>  (1) 
-5.6178924389382994

>  <r_i_glide_ecoul>  (1) 
-1.2668234174662354

>  <r_i_glide_eff_state_penalty>  (1) 
-0

>  <r_i_glide_einternal>  (1) 
16.755855116974335

>  <r_i_glide_emodel>  (1) 
-53.041393097285543

>  <r_i_glide_emodel_strain>  (1) 
1.5793271891608356

>  <r_i_glide_energy>  (1) 
-47.253920073310098

>  <r_i_glide_erotb>  (1) 
0.95438045441749597

>  <r_i_glide_esite>  (1) 
0

>  <r_i_glide_evdw>  (1) 
-45.987096655843864

>  <r_i_glide_gscore>  (1) 
-5.6178924389382994

>  <r_i_glide_gscore_strain>  (1) 
0

>  <r_i_glide_hbond>  (1) 
0

>  <r_i_glide_ligand_efficiency>  (1) 
-0.17555913871682186

>  <r_i_glide_ligand_efficiency_ln>  (1) 
-1.2579992550424322

>  <r_i_glide_ligand_efficiency_sa>  (1) 
-0.55736552296342823

>  <r_i_glide_lipo>  (1) 
-2.3316570762355555

>  <r_i_glide_metal>  (1) 
-0

>  <r_i_glide_rewards>  (1) 
-1.7512374717081123

>  <r_lp_Energy>  (1) 
35.776657

>  <r_lp_tautomer_probability>  (1) 
1

>  <s_epik_Chemistry_Notes>  (1) 
This compound has an imine and may undergo hydrolysis.

>  <s_epik_cmdline>  (1) 
J2VwaWtfcHl0aG9uJywgJy1waHQnLCAnMS4wJywgJy1waCcsICc3LjQnLCAnLXRuJywgJzgnLCAnLW1hJywgJzUwMCcsICctaW1hZScsICc8aW5maWxlLm1hZT4nLCAnLW9tYWUnLCAnPG91dGZpbGUubWFlPic=

>  <s_epik_input>  (1) 
W2NIXTFbbkhdYyhbTkgyXSluYzFbQ0gyXVtDQEBIXShbQ0BIXShbQ0gzXSlbQ0gyXU4oW0NAQEhdMltDSDNdKVtDSDJdW0NIM10pW0NAQEhdMltDSDJdW0NIMl1bQ0gyXVtDQEBIXShbT0hdKVtDSDJdU0MoPVMpW0NIMl1bQ0BIXShbQ0gzXSlDMz1OTzM=

>  <s_glide_docking_method>  (1) 
confgen

>  <s_i_glide_gridfile>  (1) 
gpcr_5ht2c_6bqh_protein_autoprepared_prepared

>  <s_lp_Force_Field>  (1) 
S-OPLS

>  <s_lp_Variant>  (1) 
DiffSBDD_40_num_sample_100-2

>  <s_m_source_file>  (1) 
generated__ligand_DiffSBDD_2026-05-06_prepared.sdf

>  <GenAI_Model>  (1) 
DiffSBDD

>  <Protein>  (1) 
GPCR_5HT2C

$$$$
DiffSBDD_93_num_sample_100
     RDKit          3D

  0  0  0  0  0  0  0  0  0  0999 V3000
M  V30 BEGIN CTAB
M  V30 COUNTS 74 77 0 0 1
M  V30 BEGIN ATOM
M  V30 1 C 41.080692 32.647594 64.386882 0
M  V30 2 S 38.266998 32.835015 58.291904 0
M  V30 3 C 41.569372 30.843772 66.127001 0 CFG=2
M  V30 4 O 37.467624 37.362698 60.277316 0
M  V30 5 C 39.445256 30.414399 54.872516 0
M  V30 6 C 36.782186 34.685899 61.181589 0 CFG=1
M  V30 7 C 37.610955 28.998970 56.764570 0
M  V30 8 C 38.815368 30.145323 58.595158 0
M  V30 9 C 42.848868 31.616602 66.467684 0
M  V30 10 N 38.555151 31.413166 60.600018 0
M  V30 11 C 38.540072 29.447317 54.127491 0
M  V30 12 C 40.872580 31.398050 64.892901 0
M  V30 13 C 40.380928 33.087069 63.138537 0
M  V30 14 C 38.585160 32.681486 61.341662 0 CFG=2
M  V30 15 C 42.572778 33.112688 66.466120 0
M  V30 16 Cl 41.366123 35.226693 65.403488 0
M  V30 17 O 37.879553 27.176237 53.753561 0
M  V30 18 C 42.057463 33.607474 65.101176 0 CFG=2
M  V30 19 C 40.825520 34.370002 62.435502 0
M  V30 20 C 36.906949 33.939586 58.763943 0
M  V30 21 C 37.110289 35.836166 62.166364 0
M  V30 22 C 39.357150 32.345673 62.619762 0
M  V30 23 C 38.194450 27.756014 56.073455 0
M  V30 24 C 37.329189 35.010516 59.787931 0 CFG=1
M  V30 25 C 37.995007 31.297193 59.248767 0 CFG=1
M  V30 26 C 38.645511 27.989976 54.618139 0 CFG=2
M  V30 27 C 36.910120 36.428099 59.365199 0
M  V30 28 C 36.915833 37.256933 61.580026 0
M  V30 29 C 39.458826 30.593026 56.212157 0
M  V30 30 S 36.309563 30.633560 59.453308 0
M  V30 31 N 38.648217 29.939873 57.149306 0
M  V30 32 C 40.606166 30.721142 67.313254 0
M  V30 33 C 37.147649 33.232110 61.628458 0
M  V30 34 H 41.877497 29.830730 65.863812 0
M  V30 35 H 40.124584 30.992027 54.261967 0
M  V30 36 H 35.695701 34.696805 61.096270 0
M  V30 37 H 37.069020 28.662180 57.647452 0
M  V30 38 H 36.875692 29.530929 56.160610 0
M  V30 39 H 38.606202 29.204729 59.107607 0
M  V30 40 H 39.867351 30.311090 58.780000 0
M  V30 41 H 43.246355 31.303713 67.434331 0
M  V30 42 H 43.622530 31.395112 65.730281 0
M  V30 43 H 38.137922 30.689209 61.164910 0
M  V30 44 H 38.847160 29.482000 53.081801 0
M  V30 45 H 37.514946 29.819553 54.136070 0
M  V30 46 H 40.206069 30.715676 64.405466 0
M  V30 47 H 39.159496 33.378930 60.750750 0
M  V30 48 H 41.839392 33.338976 67.241131 0
M  V30 49 H 43.475851 33.652123 66.746074 0
M  V30 50 H 36.973769 27.437309 53.812943 0
M  V30 51 H 42.913576 33.757213 64.447716 0
M  V30 52 H 41.842876 34.643190 62.700262 0
M  V30 53 H 40.852742 34.277550 61.354001 0
M  V30 54 H 40.187439 35.205750 62.704142 0
M  V30 55 H 36.608998 34.421466 57.853041 0
M  V30 56 H 36.013965 33.392043 59.060814 0
M  V30 57 H 38.137958 35.744018 62.503139 0
M  V30 58 H 36.469104 35.763905 63.045725 0
M  V30 59 H 39.038405 31.451064 63.113111 0
M  V30 60 H 37.467329 26.946533 56.117176 0
M  V30 61 H 39.040093 27.391617 56.658299 0
M  V30 62 H 38.414764 35.051528 59.852610 0
M  V30 63 H 39.679309 27.655904 54.521913 0
M  V30 64 H 37.305554 36.657502 58.376735 0
M  V30 65 H 35.825988 36.531018 59.309742 0
M  V30 66 H 37.425264 37.977408 62.219007 0
M  V30 67 H 35.873912 37.584292 61.560059 0
M  V30 68 H 40.137141 31.298073 56.659617 0
M  V30 69 H 35.901302 30.944959 58.204656 0
M  V30 70 H 39.724202 30.140094 67.043296 0
M  V30 71 H 41.080201 30.222075 68.159433 0
M  V30 72 H 40.267656 31.698622 67.652174 0
M  V30 73 H 36.887521 33.058911 62.653442 0
M  V30 74 H 36.407379 32.600910 61.156063 0
M  V30 END ATOM
M  V30 BEGIN BOND
M  V30 1 1 9 3
M  V30 2 1 11 5
M  V30 3 2 12 1
M  V30 4 1 12 3
M  V30 5 1 13 1
M  V30 6 1 14 10
M  V30 7 1 15 9
M  V30 8 1 18 1
M  V30 9 1 18 15
M  V30 10 1 18 16
M  V30 11 1 19 13
M  V30 12 1 20 2
M  V30 13 1 21 6
M  V30 14 2 22 13
M  V30 15 1 22 14
M  V30 16 1 23 7
M  V30 17 1 24 6
M  V30 18 1 24 20
M  V30 19 1 25 2
M  V30 20 1 25 8
M  V30 21 1 25 10
M  V30 22 1 26 11
M  V30 23 1 26 17
M  V30 24 1 26 23
M  V30 25 1 27 4
M  V30 26 1 27 24
M  V30 27 1 28 4
M  V30 28 1 28 21
M  V30 29 2 29 5
M  V30 30 1 25 30 CFG=1
M  V30 31 1 31 7
M  V30 32 1 31 8
M  V30 33 1 31 29
M  V30 34 1 32 3
M  V30 35 1 33 6
M  V30 36 1 33 14
M  V30 37 1 3 34 CFG=3
M  V30 38 1 35 5
M  V30 39 1 6 36 CFG=3
M  V30 40 1 37 7
M  V30 41 1 38 7
M  V30 42 1 39 8
M  V30 43 1 40 8
M  V30 44 1 41 9
M  V30 45 1 42 9
M  V30 46 1 43 10
M  V30 47 1 44 11
M  V30 48 1 45 11
M  V30 49 1 46 12
M  V30 50 1 14 47 CFG=3
M  V30 51 1 48 15
M  V30 52 1 49 15
M  V30 53 1 50 17
M  V30 54 1 18 51 CFG=3
M  V30 55 1 52 19
M  V30 56 1 53 19
M  V30 57 1 54 19
M  V30 58 1 55 20
M  V30 59 1 56 20
M  V30 60 1 57 21
M  V30 61 1 58 21
M  V30 62 1 59 22
M  V30 63 1 60 23
M  V30 64 1 61 23
M  V30 65 1 24 62 CFG=1
M  V30 66 1 26 63 CFG=1
M  V30 67 1 64 27
M  V30 68 1 65 27
M  V30 69 1 66 28
M  V30 70 1 67 28
M  V30 71 1 68 29
M  V30 72 1 69 30
M  V30 73 1 70 32
M  V30 74 1 71 32
M  V30 75 1 72 32
M  V30 76 1 73 33
M  V30 77 1 74 33
M  V30 END BOND
M  V30 END CTAB
M  END
>  <i_epik_Tot_Q>  (1) 
0

>  <i_epik_Tot_abs_Q>  (1) 
0

>  <i_i_glide_confnum>  (1) 
15

>  <i_i_glide_lignum>  (1) 
251

>  <i_i_glide_posenum>  (1) 
348

>  <i_i_glide_rotatable_bonds>  (1) 
6

>  <i_lp_mmshare_version>  (1) 
72125

>  <i_m_source_file_index>  (1) 
94

>  <i_f3d_flags>  (1) 
0

>  <num_sample>  (1) 
100

>  <b_lp_Chiralities_Consistent>  (1) 
1

>  <r_epik_Charging_Adjusted_Penalty>  (1) 
0.20325292957253988

>  <r_epik_Ionization_Penalty>  (1) 
0.031936562948065232

>  <r_epik_Ionization_Penalty_Charging>  (1) 
3.6030848355623751e-07

>  <r_epik_Ionization_Penalty_Neutral>  (1) 
0.031936202639581676

>  <r_epik_State_Penalty>  (1) 
0.20325256926405633

>  <r_glide_ring_energy>  (1) 
1.2305908303780131

>  <r_i_docking_score>  (1) 
-5.6134022116696398

>  <r_i_glide_ecoul>  (1) 
-1.0951491468130303

>  <r_i_glide_eff_state_penalty>  (1) 
0.20325256926405633

>  <r_i_glide_einternal>  (1) 
15.81729133139395

>  <r_i_glide_emodel>  (1) 
-37.991948142868431

>  <r_i_glide_emodel_strain>  (1) 
0.64797045514856677

>  <r_i_glide_energy>  (1) 
-38.166421463873561

>  <r_i_glide_erotb>  (1) 
0.31140238833871409

>  <r_i_glide_esite>  (1) 
-0.125932367635257

>  <r_i_glide_evdw>  (1) 
-37.071272317060533

>  <r_i_glide_gscore>  (1) 
-5.8166547809336961

>  <r_i_glide_gscore_strain>  (1) 
0

>  <r_i_glide_hbond>  (1) 
-0.16

>  <r_i_glide_ligand_efficiency>  (1) 
-0.17010309732332241

>  <r_i_glide_ligand_efficiency_ln>  (1) 
-1.248391587234182

>  <r_i_glide_ligand_efficiency_sa>  (1) 
-0.54561152430317783

>  <r_i_glide_lipo>  (1) 
-3.3578030022656846

>  <r_i_glide_metal>  (1) 
-0

>  <r_i_glide_rewards>  (1) 
-0.46648581149648749

>  <r_lp_Energy>  (1) 
26.376678999999999

>  <s_epik_Chemistry_Notes>  (1) 
This compound has an imine and may undergo hydrolysis.

>  <s_epik_cmdline>  (1) 
J2VwaWtfcHl0aG9uJywgJy1waHQnLCAnMS4wJywgJy1waCcsICc3LjQnLCAnLXRuJywgJzgnLCAnLW1hJywgJzUwMCcsICctaW1hZScsICc8aW5maWxlLm1hZT4nLCAnLW9tYWUnLCAnPG91dGZpbGUubWFlPic=

>  <s_epik_input>  (1) 
Q2xbQ0BIXTFbQ0gyXVtDSDJdW0NAQEhdKFtDSDNdKVtDSF09QzEvQyhbQ0gzXSk9W0NIXS9bQ0BASF0oW0NIMl0yKVtOSF1bQ0BAXShbU0hdKShTW0NIMl1bQ0BIXShbQ0BASF0yMylbQ0gyXU9bQ0gyXVtDSDJdMylbQ0gyXU4oW0NIMl1bQ0gyXTQpW0NIXT1bQ0hdW0NIMl1bQ0BASF00W09IXQ==

>  <s_glide_docking_method>  (1) 
confgen

>  <s_i_glide_gridfile>  (1) 
gpcr_5ht2c_6bqh_protein_autoprepared_prepared

>  <s_lp_Force_Field>  (1) 
S-OPLS

>  <s_lp_Variant>  (1) 
DiffSBDD_93_num_sample_100-3

>  <s_m_source_file>  (1) 
generated__ligand_DiffSBDD_2026-05-06_prepared.sdf

>  <GenAI_Model>  (1) 
DiffSBDD

>  <Protein>  (1) 
GPCR_5HT2C

$$$$
DiffSBDD_2_num_sample_100
     RDKit          3D

  0  0  0  0  0  0  0  0  0  0999 V3000
M  V30 BEGIN CTAB
M  V30 COUNTS 51 51 0 0 1
M  V30 BEGIN ATOM
M  V30 1 C 37.053491 31.166222 60.628505 0
M  V30 2 C 38.170788 26.594559 54.369888 0
M  V30 3 O 39.867402 24.821430 57.218244 0
M  V30 4 O 36.973242 24.020856 55.825584 0
M  V30 5 C 39.137808 25.647385 55.109107 0
M  V30 6 F 39.330649 36.421502 61.718345 0
M  V30 7 C 38.563405 35.528976 61.049457 0
M  V30 8 C 38.267389 31.576786 55.384942 0
M  V30 9 O 37.867594 31.280716 54.259437 0
M  V30 10 C 37.962071 30.529642 57.756519 0
M  V30 11 C 37.552721 33.549164 59.980797 0
M  V30 12 S 39.010210 33.876443 60.912753 0
M  V30 13 C 39.467400 28.772232 54.909811 0
M  V30 14 O 36.591339 25.621429 57.453499 0
M  V30 15 O 36.000328 31.621431 61.453501 0
M  V30 16 N 38.264685 31.747077 58.525059 0
M  V30 17 C 38.802043 25.494624 56.603376 0 CFG=1
M  V30 18 C 38.359778 33.033368 55.828078 0
M  V30 19 C 38.704440 30.488242 56.398841 0 CFG=1
M  V30 20 O 38.477968 29.196447 55.838747 0
M  V30 21 C 37.509486 24.701972 56.939634 0
M  V30 22 C 37.395029 35.847380 60.432345 0
M  V30 23 C 38.831117 27.874081 53.833708 0
M  V30 24 C 36.802138 34.701757 59.808638 0
M  V30 25 C 37.239472 32.171214 59.478570 0 CFG=1
M  V30 26 H 36.798053 30.174522 60.253500 0
M  V30 27 H 37.965090 31.068141 61.219017 0
M  V30 28 H 37.722983 26.057420 53.532974 0
M  V30 29 H 37.333387 26.866127 55.013450 0
M  V30 30 H 40.678904 25.240570 56.964405 0
M  V30 31 H 36.296114 23.434140 56.124021 0
M  V30 32 H 40.162901 25.999540 54.990264 0
M  V30 33 H 39.133209 24.659466 54.653502 0
M  V30 34 H 36.892303 30.421441 57.575046 0
M  V30 35 H 38.240321 29.654705 58.343854 0
M  V30 36 H 40.261971 28.260879 55.453501 0
M  V30 37 H 39.938472 29.620106 54.409368 0
M  V30 38 H 36.151353 25.232856 58.192645 0
M  V30 39 H 36.082962 32.561783 61.529930 0
M  V30 40 H 38.411343 32.514774 57.877659 0
M  V30 41 H 38.779834 26.485472 57.062248 0
M  V30 42 H 39.312309 33.222943 56.321648 0
M  V30 43 H 38.267689 33.695113 54.969348 0
M  V30 44 H 37.540172 33.273730 56.505741 0
M  V30 45 H 39.772387 30.603986 56.588882 0
M  V30 46 H 37.699474 23.968755 57.726558 0
M  V30 47 H 36.948898 36.830501 60.402659 0
M  V30 48 H 39.582873 27.601221 53.093110 0
M  V30 49 H 38.081679 28.454565 53.294268 0
M  V30 50 H 35.867108 34.755694 59.268730 0
M  V30 51 H 36.286385 32.231976 58.951838 0
M  V30 END ATOM
M  V30 BEGIN BOND
M  V30 1 1 5 2
M  V30 2 1 7 6
M  V30 3 2 9 8
M  V30 4 1 12 7
M  V30 5 1 12 11
M  V30 6 1 15 1
M  V30 7 1 16 10
M  V30 8 1 17 3
M  V30 9 1 17 5
M  V30 10 1 18 8
M  V30 11 1 19 8
M  V30 12 1 19 10
M  V30 13 1 20 13
M  V30 14 1 20 19
M  V30 15 1 21 4
M  V30 16 1 21 14
M  V30 17 1 21 17
M  V30 18 2 22 7
M  V30 19 1 23 2
M  V30 20 1 23 13
M  V30 21 2 24 11
M  V30 22 1 24 22
M  V30 23 1 25 1
M  V30 24 1 25 11
M  V30 25 1 25 16
M  V30 26 1 26 1
M  V30 27 1 27 1
M  V30 28 1 28 2
M  V30 29 1 29 2
M  V30 30 1 30 3
M  V30 31 1 31 4
M  V30 32 1 32 5
M  V30 33 1 33 5
M  V30 34 1 34 10
M  V30 35 1 35 10
M  V30 36 1 36 13
M  V30 37 1 37 13
M  V30 38 1 38 14
M  V30 39 1 39 15
M  V30 40 1 40 16
M  V30 41 1 17 41 CFG=1
M  V30 42 1 42 18
M  V30 43 1 43 18
M  V30 44 1 44 18
M  V30 45 1 19 45 CFG=1
M  V30 46 1 46 21
M  V30 47 1 47 22
M  V30 48 1 48 23
M  V30 49 1 49 23
M  V30 50 1 50 24
M  V30 51 1 25 51 CFG=3
M  V30 END BOND
M  V30 END CTAB
M  END
>  <i_epik_Tot_Q>  (1) 
0

>  <i_epik_Tot_abs_Q>  (1) 
0

>  <i_i_glide_confnum>  (1) 
1757

>  <i_i_glide_lignum>  (1) 
19

>  <i_i_glide_posenum>  (1) 
248

>  <i_i_glide_rotatable_bonds>  (1) 
17

>  <i_lp_mmshare_version>  (1) 
72125

>  <i_m_source_file_index>  (1) 
3

>  <i_f3d_flags>  (1) 
0

>  <num_sample>  (1) 
100

>  <b_lp_Chiralities_Consistent>  (1) 
1

>  <r_epik_Charging_Adjusted_Penalty>  (1) 
0.24690330696891949

>  <r_epik_Ionization_Penalty>  (1) 
0.24690406667086767

>  <r_epik_Ionization_Penalty_Charging>  (1) 
0

>  <r_epik_Ionization_Penalty_Neutral>  (1) 
0.24690406667086767

>  <r_epik_State_Penalty>  (1) 
0.24690330696891949

>  <r_glide_ring_energy>  (1) 
0

>  <r_i_docking_score>  (1) 
-5.6127580143012503

>  <r_i_glide_ecoul>  (1) 
-6.1913230307613336

>  <r_i_glide_eff_state_penalty>  (1) 
0.24690330696891949

>  <r_i_glide_einternal>  (1) 
19.803099335515082

>  <r_i_glide_emodel>  (1) 
-48.29502838623317

>  <r_i_glide_emodel_strain>  (1) 
2.4757444591694373

>  <r_i_glide_energy>  (1) 
-44.673768978602915

>  <r_i_glide_erotb>  (1) 
1.4813531079748476

>  <r_i_glide_esite>  (1) 
-0.054988981483600367

>  <r_i_glide_evdw>  (1) 
-38.482445947841583

>  <r_i_glide_gscore>  (1) 
-5.8596613212701696

>  <r_i_glide_gscore_strain>  (1) 
0

>  <r_i_glide_hbond>  (1) 
-0.5061359854942854

>  <r_i_glide_ligand_efficiency>  (1) 
-0.22451032057205

>  <r_i_glide_ligand_efficiency_ln>  (1) 
-1.3303918501741148

>  <r_i_glide_ligand_efficiency_sa>  (1) 
-0.65647215976453122

>  <r_i_glide_lipo>  (1) 
-1.9017974580867738

>  <r_i_glide_metal>  (1) 
-0

>  <r_i_glide_rewards>  (1) 
-2.0252712521740772

>  <r_lp_Energy>  (1) 
16.825317999999999

>  <r_lp_tautomer_probability>  (1) 
0.9999999700000004

>  <s_epik_Chemistry_Notes>  (1) 
This compound contains an acetal/aminal-like group ( X-CH(R)-Y where X, Y are N, S, or O) that may be acid/base labile, releasing an aldehyde.

>  <s_epik_cmdline>  (1) 
J2VwaWtfcHl0aG9uJywgJy1waHQnLCAnMS4wJywgJy1waCcsICc3LjQnLCAnLXRuJywgJzgnLCAnLW1hJywgJzUwMCcsICctaW1hZScsICc8aW5maWxlLm1hZT4nLCAnLW9tYWUnLCAnPG91dGZpbGUubWFlPic=

>  <s_epik_input>  (1) 
RmMxc2MoW2NIXVtjSF0xKVtDQEhdKFtDSDJdW09IXSlbTkhdW0NIMl1bQ0BIXShDKD1PKVtDSDNdKU9bQ0gyXVtDSDJdW0NIMl1bQ0gyXVtDQEhdKFtPSF0pW0NIXShbT0hdKVtPSF0=

>  <s_glide_docking_method>  (1) 
confgen

>  <s_i_glide_gridfile>  (1) 
gpcr_5ht2c_6bqh_protein_autoprepared_prepared

>  <s_lp_Force_Field>  (1) 
S-OPLS

>  <s_lp_Variant>  (1) 
DiffSBDD_2_num_sample_100-1

>  <s_m_source_file>  (1) 
generated__ligand_DiffSBDD_2026-05-06_prepared.sdf

>  <GenAI_Model>  (1) 
DiffSBDD

>  <Protein>  (1) 
GPCR_5HT2C

$$$$
DiffSBDD_18_num_sample_100
     RDKit          3D

  0  0  0  0  0  0  0  0  0  0999 V3000
M  V30 BEGIN CTAB
M  V30 COUNTS 71 73 0 0 1
M  V30 BEGIN ATOM
M  V30 1 O 39.738695 32.493198 62.317549 0
M  V30 2 C 38.486581 28.262671 52.401385 0
M  V30 3 C 39.125042 28.645513 58.277576 0
M  V30 4 C 39.155412 28.400433 51.263201 0
M  V30 5 O 39.269379 29.251172 61.006285 0
M  V30 6 C 38.133396 29.394837 54.555134 0 CFG=2
M  V30 7 C 41.467384 32.387749 67.702930 0
M  V30 8 N 38.750810 29.224492 53.218865 0 CHG=1
M  V30 9 N 37.549998 30.734784 54.654733 0
M  V30 10 C 40.755398 30.716065 63.664847 0
M  V30 11 C 41.293904 29.962914 67.251656 0
M  V30 12 O 40.866510 32.898126 68.647381 0
M  V30 13 O 40.677184 30.022533 50.448709 0
M  V30 14 C 44.241573 29.542649 67.816284 0
M  V30 15 C 38.515944 26.924300 56.539732 0
M  V30 16 C 39.866912 29.489748 51.369713 0
M  V30 17 C 44.546843 32.005135 68.025167 0
M  V30 18 C 40.844764 29.947913 65.982550 0
M  V30 19 C 38.710536 30.047116 60.253512 0
M  V30 20 N 41.643594 32.952926 66.470941 0
M  V30 21 C 38.492842 28.426645 56.885964 0 CFG=2
M  V30 22 C 40.882326 31.659862 62.458703 0 CFG=2
M  V30 23 C 39.128311 29.246834 55.724376 0 CFG=2
M  V30 24 C 39.440314 30.719484 56.020260 0
M  V30 25 O 45.467409 32.421426 67.288670 0 CHG=-1
M  V30 26 C 39.778172 30.295205 52.695896 0
M  V30 27 C 41.495827 32.435988 65.306472 0
M  V30 28 C 38.106739 31.345755 60.806292 0
M  V30 29 C 39.121106 32.494912 61.029813 0
M  V30 30 C 42.221533 32.374033 62.174605 0
M  V30 31 C 41.032405 31.012733 64.965268 0
M  V30 32 C 42.126597 31.038240 67.861899 0 CFG=1
M  V30 33 C 43.633834 30.911281 67.444275 0 CFG=2
M  V30 34 N 38.588982 29.837731 58.934499 0
M  V30 35 N 38.267355 31.482380 55.626291 0
M  V30 36 O 44.308702 32.390925 69.191908 0
M  V30 37 H 37.791118 27.470258 52.659630 0
M  V30 38 H 38.912608 27.780834 58.909965 0
M  V30 39 H 40.211634 28.713834 58.204392 0
M  V30 40 H 39.078346 27.715847 50.430020 0
M  V30 41 H 37.323511 28.666780 54.621326 0
M  V30 42 H 37.565663 31.224220 53.762799 0
M  V30 43 H 40.415209 29.716763 63.430168 0
M  V30 44 H 41.083107 29.114123 67.887252 0
M  V30 45 H 40.667402 30.270854 53.317808 0
M  V30 46 H 45.304203 29.498711 67.569809 0
M  V30 47 H 44.141404 29.341446 68.883494 0
M  V30 48 H 43.757137 28.730521 67.274690 0
M  V30 49 H 39.537281 26.543566 56.493891 0
M  V30 50 H 37.980544 26.339759 57.288916 0
M  V30 51 H 38.042927 26.716244 55.580607 0
M  V30 52 H 40.295683 29.069323 65.673479 0
M  V30 53 H 37.446717 28.719052 56.973955 0
M  V30 54 H 40.877127 30.934550 61.652053 0
M  V30 55 H 40.046937 28.746324 55.415028 0
M  V30 56 H 40.268378 31.046713 55.393240 0
M  V30 57 H 39.732851 30.945177 57.041797 0
M  V30 58 H 39.311644 31.277900 52.634212 0
M  V30 59 H 41.674295 33.051245 64.437703 0
M  V30 60 H 37.339176 31.684129 60.108344 0
M  V30 61 H 37.585286 31.128351 61.738315 0
M  V30 62 H 39.867880 32.535679 60.237006 0
M  V30 63 H 38.575120 33.436105 60.960666 0
M  V30 64 H 43.056877 31.837976 62.624281 0
M  V30 65 H 42.404920 32.421452 61.101300 0
M  V30 66 H 42.239284 33.407417 62.516162 0
M  V30 67 H 42.089527 30.836238 68.934122 0
M  V30 68 H 43.705053 30.999816 66.359962 0
M  V30 69 H 38.110394 30.522538 58.363742 0
M  V30 70 H 38.507872 32.405986 55.269803 0
M  V30 71 H 40.616157 29.492932 49.668578 0
M  V30 END ATOM
M  V30 BEGIN BOND
M  V30 1 1 4 2
M  V30 2 2 8 2
M  V30 3 1 8 6
M  V30 4 1 9 6
M  V30 5 2 12 7
M  V30 6 2 16 4
M  V30 7 1 16 13
M  V30 8 2 18 11
M  V30 9 2 19 5
M  V30 10 1 20 7
M  V30 11 1 21 3
M  V30 12 1 21 15
M  V30 13 1 22 1
M  V30 14 1 22 10
M  V30 15 1 23 6
M  V30 16 1 23 21
M  V30 17 1 24 23
M  V30 18 1 25 17
M  V30 19 1 26 8
M  V30 20 1 26 16
M  V30 21 2 27 20
M  V30 22 1 28 19
M  V30 23 1 29 1
M  V30 24 1 29 28
M  V30 25 1 30 22
M  V30 26 2 31 10
M  V30 27 1 31 18
M  V30 28 1 31 27
M  V30 29 1 32 7
M  V30 30 1 32 11
M  V30 31 1 33 14
M  V30 32 1 33 17
M  V30 33 1 33 32
M  V30 34 1 34 3
M  V30 35 1 34 19
M  V30 36 1 35 9
M  V30 37 1 35 24
M  V30 38 2 36 17
M  V30 39 1 37 2
M  V30 40 1 38 3
M  V30 41 1 39 3
M  V30 42 1 40 4
M  V30 43 1 6 41 CFG=1
M  V30 44 1 42 9
M  V30 45 1 43 10
M  V30 46 1 44 11
M  V30 47 1 45 26
M  V30 48 1 46 14
M  V30 49 1 47 14
M  V30 50 1 48 14
M  V30 51 1 49 15
M  V30 52 1 50 15
M  V30 53 1 51 15
M  V30 54 1 52 18
M  V30 55 1 21 53 CFG=1
M  V30 56 1 22 54 CFG=3
M  V30 57 1 23 55 CFG=3
M  V30 58 1 56 24
M  V30 59 1 57 24
M  V30 60 1 58 26
M  V30 61 1 59 27
M  V30 62 1 60 28
M  V30 63 1 61 28
M  V30 64 1 62 29
M  V30 65 1 63 29
M  V30 66 1 64 30
M  V30 67 1 65 30
M  V30 68 1 66 30
M  V30 69 1 32 67 CFG=1
M  V30 70 1 33 68 CFG=3
M  V30 71 1 69 34
M  V30 72 1 70 35
M  V30 73 1 71 13
M  V30 END BOND
M  V30 END CTAB
M  END
>  <i_epik_Tot_Q>  (1) 
0

>  <i_epik_Tot_abs_Q>  (1) 
2

>  <i_i_glide_confnum>  (1) 
2944

>  <i_i_glide_lignum>  (1) 
48

>  <i_i_glide_posenum>  (1) 
144

>  <i_i_glide_rotatable_bonds>  (1) 
13

>  <i_lp_mmshare_version>  (1) 
72125

>  <i_m_source_file_index>  (1) 
19

>  <i_f3d_flags>  (1) 
0

>  <num_sample>  (1) 
100

>  <b_lp_Chiralities_Consistent>  (1) 
1

>  <r_epik_Charging_Adjusted_Penalty>  (1) 
0.76693695219889413

>  <r_epik_Ionization_Penalty>  (1) 
0.76778133156762796

>  <r_epik_Ionization_Penalty_Charging>  (1) 
0.00011398914501928687

>  <r_epik_Ionization_Penalty_Neutral>  (1) 
0.7676673424226087

>  <r_epik_State_Penalty>  (1) 
0.76682296305387487

>  <r_glide_ring_energy>  (1) 
1.7561163794185919

>  <r_i_docking_score>  (1) 
-5.6110108513169221

>  <r_i_glide_ecoul>  (1) 
-0.68562608719937668

>  <r_i_glide_eff_state_penalty>  (1) 
0.76682296305387487

>  <r_i_glide_einternal>  (1) 
15.816128779184094

>  <r_i_glide_emodel>  (1) 
-64.259735744480906

>  <r_i_glide_emodel_strain>  (1) 
3.5037890804342737

>  <r_i_glide_energy>  (1) 
-53.92199204764573

>  <r_i_glide_erotb>  (1) 
0.89312676016186854

>  <r_i_glide_esite>  (1) 
-0.11750013911518205

>  <r_i_glide_evdw>  (1) 
-53.236365960446356

>  <r_i_glide_gscore>  (1) 
-6.3778338143707973

>  <r_i_glide_gscore_strain>  (1) 
0

>  <r_i_glide_hbond>  (1) 
0

>  <r_i_glide_ligand_efficiency>  (1) 
-0.15586141253658117

>  <r_i_glide_ligand_efficiency_ln>  (1) 
-1.2241709757627635

>  <r_i_glide_ligand_efficiency_sa>  (1) 
-0.51464304510574399

>  <r_i_glide_lipo>  (1) 
-2.492869243263478

>  <r_i_glide_metal>  (1) 
-0

>  <r_i_glide_rewards>  (1) 
-1.895928981051781

>  <r_lp_Energy>  (1) 
32.790411999999996

>  <r_lp_tautomer_probability>  (1) 
0.99929914239148299

>  <s_epik_Chemistry_Notes>  (1) 
This compound has an imine and may undergo hydrolysis. This compound contains an acetal/aminal-like group ( X-CH(R)-Y where X, Y are N, S, or O) that may be acid/base labile, releasing an aldehyde.

>  <s_epik_cmdline>  (1) 
J2VwaWtfcHl0aG9uJywgJy1waHQnLCAnMS4wJywgJy1waCcsICc3LjQnLCAnLXRuJywgJzgnLCAnLW1hJywgJzUwMCcsICctaW1hZScsICc8aW5maWxlLm1hZT4nLCAnLW9tYWUnLCAnPG91dGZpbGUubWFlPic=

>  <s_epik_input>  (1) 
W09IXUMoPU8pW0NASF0oW0NIM10pW0NAQEhdMVtDSF09W0NIXVxDKFtDSF09TkMxPU8pPVtDSF1cW0NASF0oW0NIM10pT1tDSDJdW0NIMl1DKD1PKVtOSF1bQ0gyXVtDQEhdKFtDSDNdKVtDQEBIXTJbQ0gyXVtOSF1bTkhdW0NASF0ybjNbY0hdW2NIXWMoW09IXSlbY0hdMw==

>  <s_glide_docking_method>  (1) 
confgen

>  <s_i_glide_gridfile>  (1) 
gpcr_5ht2c_6bqh_protein_autoprepared_prepared

>  <s_lp_Force_Field>  (1) 
S-OPLS

>  <s_lp_Variant>  (1) 
DiffSBDD_18_num_sample_100-8

>  <s_m_source_file>  (1) 
generated__ligand_DiffSBDD_2026-05-06_prepared.sdf

>  <GenAI_Model>  (1) 
DiffSBDD

>  <Protein>  (1) 
GPCR_5HT2C

$$$$
DiffSBDD_1_num_sample_100
     RDKit          3D

  0  0  0  0  0  0  0  0  0  0999 V3000
M  V30 BEGIN CTAB
M  V30 COUNTS 62 65 0 0 1
M  V30 BEGIN ATOM
M  V30 1 C 39.556154 29.141632 51.563447 0
M  V30 2 C 36.177918 32.142860 59.817509 0
M  V30 3 O 40.845352 30.647987 50.520698 0
M  V30 4 C 38.102904 30.702043 59.064798 0 CFG=1
M  V30 5 C 38.836481 28.559193 52.714294 0
M  V30 6 C 38.275981 30.970450 56.602751 0
M  V30 7 C 37.464636 35.611094 60.054267 0
M  V30 8 C 34.711165 32.989766 61.290893 0
M  V30 9 N 35.980138 33.727366 61.453619 0 CHG=1
M  V30 10 C 38.057895 27.319629 57.212067 0
M  V30 11 C 38.977893 29.261386 54.059664 0
M  V30 12 C 37.911049 34.133010 59.886336 0 CFG=2
M  V30 13 C 37.042012 33.076987 60.652733 0 CFG=2
M  V30 14 C 38.526469 29.464508 56.522618 0 CFG=2
M  V30 15 C 38.098029 27.289942 55.660579 0
M  V30 16 C 40.267513 30.221284 51.652681 0
M  V30 17 N 38.667458 31.451589 57.933052 0
M  V30 18 C 36.652546 31.085787 59.136659 0
M  V30 19 O 38.142695 27.548770 52.625621 0
M  V30 20 C 39.381987 34.010035 60.321491 0
M  V30 21 C 40.266376 29.696015 49.544494 0
M  V30 22 C 38.283783 29.166083 58.899923 0
M  V30 23 C 34.731126 32.471273 59.866849 0
M  V30 24 N 37.867553 28.719203 57.566514 0
M  V30 25 O 39.913301 29.279378 56.710596 0
M  V30 26 C 39.468851 28.502723 50.260068 0
M  V30 27 C 38.095898 28.781569 55.232117 0 CFG=2
M  V30 28 O 36.204930 35.810270 59.453531 0
M  V30 29 H 38.599615 31.004549 59.984168 0
M  V30 30 H 37.227917 31.169817 56.399163 0
M  V30 31 H 38.840096 31.501695 55.836349 0
M  V30 32 H 38.161020 36.316977 59.604186 0
M  V30 33 H 37.420889 35.892628 61.107459 0
M  V30 34 H 33.867395 33.621420 61.475725 0
M  V30 35 H 34.668440 32.159718 61.996624 0
M  V30 36 H 36.237763 33.860163 62.420227 0
M  V30 37 H 39.003550 26.949195 57.612271 0
M  V30 38 H 37.257252 26.700641 57.618192 0
M  V30 39 H 38.762307 30.317007 53.895835 0
M  V30 40 H 40.026977 29.221421 54.337320 0
M  V30 41 H 37.869894 33.914143 58.818236 0
M  V30 42 H 37.646011 32.476773 61.335201 0
M  V30 43 H 39.003750 26.786308 55.322567 0
M  V30 44 H 37.245178 26.759046 55.236955 0
M  V30 45 H 40.452386 30.841779 52.517820 0
M  V30 46 H 38.414780 32.430558 58.011769 0
M  V30 47 H 35.964426 30.456403 58.588484 0
M  V30 48 H 39.488159 34.131084 61.400531 0
M  V30 49 H 39.799828 33.039183 60.058624 0
M  V30 50 H 40.006173 34.769966 59.853535 0
M  V30 51 H 39.531576 30.272526 48.984458 0
M  V30 52 H 41.006030 29.346163 48.826198 0
M  V30 53 H 39.327238 28.902934 59.077746 0
M  V30 54 H 37.722838 28.646214 59.671196 0
M  V30 55 H 34.506772 33.261204 59.147771 0
M  V30 56 H 34.081508 31.621689 59.673331 0
M  V30 57 H 40.200881 30.046947 57.185351 0
M  V30 58 H 39.984858 27.541407 50.253488 0
M  V30 59 H 38.445186 28.421436 49.925949 0
M  V30 60 H 37.067425 29.074119 55.021878 0
M  V30 61 H 36.291978 35.783549 58.505033 0
M  V30 62 H 35.836991 34.631437 61.012084 0
M  V30 END ATOM
M  V30 BEGIN BOND
M  V30 1 1 5 1
M  V30 2 1 9 8
M  V30 3 1 11 5
M  V30 4 1 12 7
M  V30 5 1 13 2
M  V30 6 1 13 9
M  V30 7 1 13 12
M  V30 8 1 14 6
M  V30 9 1 15 10
M  V30 10 2 16 1
M  V30 11 1 16 3
M  V30 12 1 17 4
M  V30 13 1 17 6
M  V30 14 2 18 2
M  V30 15 1 18 4
M  V30 16 2 19 5
M  V30 17 1 20 12
M  V30 18 1 21 3
M  V30 19 1 22 4
M  V30 20 1 23 2
M  V30 21 1 23 8
M  V30 22 1 24 10
M  V30 23 1 24 14
M  V30 24 1 24 22
M  V30 25 1 14 25 CFG=1
M  V30 26 1 26 1
M  V30 27 1 26 21
M  V30 28 1 27 11
M  V30 29 1 27 14
M  V30 30 1 27 15
M  V30 31 1 28 7
M  V30 32 1 4 29 CFG=1
M  V30 33 1 30 6
M  V30 34 1 31 6
M  V30 35 1 32 7
M  V30 36 1 33 7
M  V30 37 1 34 8
M  V30 38 1 35 8
M  V30 39 1 36 9
M  V30 40 1 37 10
M  V30 41 1 38 10
M  V30 42 1 39 11
M  V30 43 1 40 11
M  V30 44 1 12 41 CFG=3
M  V30 45 1 13 42 CFG=1
M  V30 46 1 43 15
M  V30 47 1 44 15
M  V30 48 1 45 16
M  V30 49 1 46 17
M  V30 50 1 47 18
M  V30 51 1 48 20
M  V30 52 1 49 20
M  V30 53 1 50 20
M  V30 54 1 51 21
M  V30 55 1 52 21
M  V30 56 1 53 22
M  V30 57 1 54 22
M  V30 58 1 55 23
M  V30 59 1 56 23
M  V30 60 1 57 25
M  V30 61 1 58 26
M  V30 62 1 59 26
M  V30 63 1 27 60 CFG=3
M  V30 64 1 61 28
M  V30 65 1 62 9
M  V30 END BOND
M  V30 END CTAB
M  END
>  <i_epik_Tot_Q>  (1) 
1

>  <i_epik_Tot_abs_Q>  (1) 
1

>  <i_i_glide_confnum>  (1) 
12

>  <i_i_glide_lignum>  (1) 
10

>  <i_i_glide_posenum>  (1) 
106

>  <i_i_glide_rotatable_bonds>  (1) 
8

>  <i_lp_mmshare_version>  (1) 
72125

>  <i_m_source_file_index>  (1) 
2

>  <i_f3d_flags>  (1) 
0

>  <num_sample>  (1) 
100

>  <b_lp_Chiralities_Consistent>  (1) 
1

>  <r_epik_Charging_Adjusted_Penalty>  (1) 
0.089223518210420474

>  <r_epik_Ionization_Penalty>  (1) 
0.15303808439063821

>  <r_epik_Ionization_Penalty_Charging>  (1) 
0.0017986555257548985

>  <r_epik_Ionization_Penalty_Neutral>  (1) 
0.15123942886488331

>  <r_epik_State_Penalty>  (1) 
0.08742486268466558

>  <r_glide_ring_energy>  (1) 
0

>  <r_i_docking_score>  (1) 
-5.6057793037571368

>  <r_i_glide_ecoul>  (1) 
-1.2908033400521246

>  <r_i_glide_eff_state_penalty>  (1) 
0.08742486268466558

>  <r_i_glide_einternal>  (1) 
3.0683927574565573

>  <r_i_glide_emodel>  (1) 
-39.413021627083836

>  <r_i_glide_emodel_strain>  (1) 
3.7929891810616425

>  <r_i_glide_energy>  (1) 
-33.211327956884517

>  <r_i_glide_erotb>  (1) 
0.76037187950223806

>  <r_i_glide_esite>  (1) 
-0.0077806532465884426

>  <r_i_glide_evdw>  (1) 
-31.920524616832395

>  <r_i_glide_gscore>  (1) 
-5.6932041664418023

>  <r_i_glide_gscore_strain>  (1) 
0

>  <r_i_glide_hbond>  (1) 
-0.30888439102427695

>  <r_i_glide_ligand_efficiency>  (1) 
-0.20020640370561202

>  <r_i_glide_ligand_efficiency_ln>  (1) 
-1.2939784561395109

>  <r_i_glide_ligand_efficiency_sa>  (1) 
-0.60794455759134836

>  <r_i_glide_lipo>  (1) 
-2.5013361471215463

>  <r_i_glide_metal>  (1) 
-0

>  <r_i_glide_rewards>  (1) 
-1.8459281227021904

>  <r_lp_Energy>  (1) 
14.952356

>  <s_epik_cmdline>  (1) 
J2VwaWtfcHl0aG9uJywgJy1waHQnLCAnMS4wJywgJy1waCcsICc3LjQnLCAnLXRuJywgJzgnLCAnLW1hJywgJzUwMCcsICctaW1hZScsICc8aW5maWxlLm1hZT4nLCAnLW9tYWUnLCAnPG91dGZpbGUubWFlPic=

>  <s_epik_input>  (1) 
W0NIMl0xW0NIMl1PW0NIXT1DMUMoPU8pW0NIMl1bQ0BIXTJbQ0gyXVtDSDJdTihbQ0BAXTIzW09IXSlbQ0gyXVtDQEBIXShbTkhdW0NIMl0zKS9bQ0hdPUM0XFtDQEBIXShbTkhdW0NIMl1bQ0gyXTQpW0NASF0oW0NIM10pW0NIMl1bT0hd

>  <s_glide_docking_method>  (1) 
confgen

>  <s_i_glide_gridfile>  (1) 
gpcr_5ht2c_6bqh_protein_autoprepared_prepared

>  <s_lp_Force_Field>  (1) 
S-OPLS

>  <s_lp_Variant>  (1) 
DiffSBDD_1_num_sample_100-4

>  <s_m_source_file>  (1) 
generated__ligand_DiffSBDD_2026-05-06_prepared.sdf

>  <GenAI_Model>  (1) 
DiffSBDD

>  <Protein>  (1) 
GPCR_5HT2C

$$$$
DiffSBDD_81_num_sample_100
     RDKit          3D

  0  0  0  0  0  0  0  0  0  0999 V3000
M  V30 BEGIN CTAB
M  V30 COUNTS 55 56 0 0 1
M  V30 BEGIN ATOM
M  V30 1 N 37.467412 33.539440 57.448991 0 CHG=1
M  V30 2 C 40.145311 27.880650 59.414410 0
M  V30 3 C 38.959465 31.661454 56.628517 0
M  V30 4 C 38.522335 30.788225 54.198799 0
M  V30 5 S 38.291044 28.423956 52.749462 0
M  V30 6 C 40.017362 30.310333 52.239614 0
M  V30 7 C 39.507782 29.244211 56.005411 0
M  V30 8 C 39.047752 29.948816 53.053317 0
M  V30 9 C 39.388101 26.591015 57.536577 0 CFG=2
M  V30 10 O 38.667375 33.733587 55.660575 0 CHG=-1
M  V30 11 O 39.467377 27.221658 50.653390 0
M  V30 12 C 39.602239 25.078191 57.433283 0
M  V30 13 C 39.375934 30.695146 55.483380 0 CFG=2
M  V30 14 C 40.432159 29.404214 51.124223 0
M  V30 15 C 38.328100 24.220988 57.476060 0
M  V30 16 O 39.244392 26.899663 58.919793 0
M  V30 17 O 37.815724 24.034010 56.165042 0
M  V30 18 C 37.997797 32.812123 56.281265 0 CFG=2
M  V30 19 C 39.453441 28.219793 51.356739 0
M  V30 20 C 38.209488 28.665346 56.616760 0
M  V30 21 C 38.151038 27.135144 56.787360 0 CFG=1
M  V30 22 C 37.832057 26.407642 55.465025 0
M  V30 23 C 38.195905 33.472822 58.733232 0
M  V30 24 C 37.041745 25.101477 55.650022 0
M  V30 25 H 37.404703 34.497803 57.132773 0
M  V30 26 H 40.038325 27.957903 60.496311 0
M  V30 27 H 41.183790 27.622241 59.201397 0
M  V30 28 H 39.939169 28.863831 58.994088 0
M  V30 29 H 38.496476 31.108475 57.437925 0
M  V30 30 H 39.867401 32.074373 57.053506 0
M  V30 31 H 38.499924 31.816373 53.837267 0
M  V30 32 H 37.483805 30.521529 54.392391 0
M  V30 33 H 40.527563 31.256001 52.353537 0
M  V30 34 H 39.862238 28.593038 55.207781 0
M  V30 35 H 40.295452 29.225816 56.755553 0
M  V30 36 H 40.303465 27.028515 57.137391 0
M  V30 37 H 40.267555 24.821457 58.253029 0
M  V30 38 H 40.155118 24.836099 56.525069 0
M  V30 39 H 40.372930 31.012869 55.175567 0
M  V30 40 H 40.281962 29.868239 50.149607 0
M  V30 41 H 41.467432 29.091634 51.240463 0
M  V30 42 H 37.577686 24.616247 58.161537 0
M  V30 43 H 38.589026 23.232755 57.853271 0
M  V30 44 H 37.124979 32.353896 55.827558 0
M  V30 45 H 38.043928 29.088080 57.605796 0
M  V30 46 H 37.362544 29.000854 56.025322 0
M  V30 47 H 37.288908 26.959398 57.432283 0
M  V30 48 H 37.185977 27.048377 54.867832 0
M  V30 49 H 38.732182 26.240871 54.873550 0
M  V30 50 H 37.794590 34.216430 59.421712 0
M  V30 51 H 38.073392 32.493023 59.193713 0
M  V30 52 H 39.260503 33.665643 58.603317 0
M  V30 53 H 36.161874 25.259856 56.274755 0
M  V30 54 H 36.666039 24.779879 54.678022 0
M  V30 55 H 36.532544 33.154996 57.560505 0
M  V30 END ATOM
M  V30 BEGIN BOND
M  V30 1 1 8 4
M  V30 2 1 8 5
M  V30 3 2 8 6
M  V30 4 1 12 9
M  V30 5 1 13 3
M  V30 6 1 13 4
M  V30 7 1 13 7
M  V30 8 1 14 6
M  V30 9 1 15 12
M  V30 10 1 16 2
M  V30 11 1 16 9
M  V30 12 1 17 15
M  V30 13 1 18 1
M  V30 14 1 18 3
M  V30 15 1 18 10
M  V30 16 1 19 5
M  V30 17 2 19 11
M  V30 18 1 19 14
M  V30 19 1 20 7
M  V30 20 1 21 9
M  V30 21 1 21 20
M  V30 22 1 22 21
M  V30 23 1 23 1
M  V30 24 1 24 17
M  V30 25 1 24 22
M  V30 26 1 25 1
M  V30 27 1 26 2
M  V30 28 1 27 2
M  V30 29 1 28 2
M  V30 30 1 29 3
M  V30 31 1 30 3
M  V30 32 1 31 4
M  V30 33 1 32 4
M  V30 34 1 33 6
M  V30 35 1 34 7
M  V30 36 1 35 7
M  V30 37 1 9 36 CFG=3
M  V30 38 1 37 12
M  V30 39 1 38 12
M  V30 40 1 13 39 CFG=3
M  V30 41 1 40 14
M  V30 42 1 41 14
M  V30 43 1 42 15
M  V30 44 1 43 15
M  V30 45 1 18 44 CFG=3
M  V30 46 1 45 20
M  V30 47 1 46 20
M  V30 48 1 21 47 CFG=1
M  V30 49 1 48 22
M  V30 50 1 49 22
M  V30 51 1 50 23
M  V30 52 1 51 23
M  V30 53 1 52 23
M  V30 54 1 53 24
M  V30 55 1 54 24
M  V30 56 1 55 1
M  V30 END BOND
M  V30 END CTAB
M  END
>  <i_epik_Tot_Q>  (1) 
0

>  <i_epik_Tot_abs_Q>  (1) 
2

>  <i_i_glide_confnum>  (1) 
966

>  <i_i_glide_lignum>  (1) 
214

>  <i_i_glide_posenum>  (1) 
155

>  <i_i_glide_rotatable_bonds>  (1) 
9

>  <i_lp_mmshare_version>  (1) 
72125

>  <i_m_source_file_index>  (1) 
82

>  <i_f3d_flags>  (1) 
0

>  <num_sample>  (1) 
100

>  <b_lp_Chiralities_Consistent>  (1) 
1

>  <r_epik_Charging_Adjusted_Penalty>  (1) 
2.6824970044638059

>  <r_epik_Ionization_Penalty>  (1) 
1.3267145025925604

>  <r_epik_Ionization_Penalty_Charging>  (1) 
1.3267145025735321

>  <r_epik_Ionization_Penalty_Neutral>  (1) 
1.9028324776712985e-11

>  <r_epik_State_Penalty>  (1) 
1.3557825018902738

>  <r_glide_ring_energy>  (1) 
0.093239952567163886

>  <r_i_docking_score>  (1) 
-5.5933409339619358

>  <r_i_glide_ecoul>  (1) 
-3.9659009605150954

>  <r_i_glide_eff_state_penalty>  (1) 
1.3557825018902738

>  <r_i_glide_einternal>  (1) 
12.68892866217729

>  <r_i_glide_emodel>  (1) 
-46.029469008472596

>  <r_i_glide_emodel_strain>  (1) 
5.0997498297405102

>  <r_i_glide_energy>  (1) 
-39.303138650385243

>  <r_i_glide_erotb>  (1) 
0.89870139130029003

>  <r_i_glide_esite>  (1) 
-0.16918915593430822

>  <r_i_glide_evdw>  (1) 
-35.33723768987015

>  <r_i_glide_gscore>  (1) 
-6.9491234358522096

>  <r_i_glide_gscore_strain>  (1) 
0.27493745743512754

>  <r_i_glide_hbond>  (1) 
-0.17764547117508234

>  <r_i_glide_ligand_efficiency>  (1) 
-0.23305587224841398

>  <r_i_glide_ligand_efficiency_ln>  (1) 
-1.3387431471882512

>  <r_i_glide_ligand_efficiency_sa>  (1) 
-0.67224946321578671

>  <r_i_glide_lipo>  (1) 
-3.4958030919057217

>  <r_i_glide_metal>  (1) 
-0

>  <r_i_glide_rewards>  (1) 
-1.9183775370017426

>  <r_lp_Energy>  (1) 
7.9027319999999994

>  <s_epik_Chemistry_Notes>  (1) 
This compound contains an acetal/aminal-like group ( X-CH(R)-Y where X, Y are N, S, or O) that may be acid/base labile, releasing an aldehyde.

>  <s_epik_cmdline>  (1) 
J2VwaWtfcHl0aG9uJywgJy1waHQnLCAnMS4wJywgJy1waCcsICc3LjQnLCAnLXRuJywgJzgnLCAnLW1hJywgJzUwMCcsICctaW1hZScsICc8aW5maWxlLm1hZT4nLCAnLW9tYWUnLCAnPG91dGZpbGUubWFlPic=

>  <s_epik_input>  (1) 
UzFDKD1PKVtDSDJdW0NIXT1DMVtDSDJdW0NAQEhdKFtDSDJdW0NASF0oW09IXSlbTkhdW0NIM10pW0NIMl1bQ0gyXVtDQEhdMltDSDJdW0NIMl1PW0NIMl1bQ0gyXVtDQEBIXTJPW0NIM10=

>  <s_glide_docking_method>  (1) 
confgen

>  <s_i_glide_gridfile>  (1) 
gpcr_5ht2c_6bqh_protein_autoprepared_prepared

>  <s_lp_Force_Field>  (1) 
S-OPLS

>  <s_lp_Variant>  (1) 
DiffSBDD_81_num_sample_100-2

>  <s_m_source_file>  (1) 
generated__ligand_DiffSBDD_2026-05-06_prepared.sdf

>  <GenAI_Model>  (1) 
DiffSBDD

>  <Protein>  (1) 
GPCR_5HT2C

$$$$
DiffSBDD_93_num_sample_100
     RDKit          3D

  0  0  0  0  0  0  0  0  0  0999 V3000
M  V30 BEGIN CTAB
M  V30 COUNTS 74 77 0 0 1
M  V30 BEGIN ATOM
M  V30 1 C 41.996919 31.842718 66.240340 0
M  V30 2 S 39.066315 32.900311 59.817079 0
M  V30 3 C 41.351967 32.796477 68.507933 0 CFG=2
M  V30 4 O 39.134164 37.795199 61.852761 0
M  V30 5 C 39.917804 29.025343 57.344335 0
M  V30 6 C 39.976052 35.069400 62.307806 0 CFG=1
M  V30 7 C 37.624311 29.305225 59.223928 0
M  V30 8 C 39.224639 30.273278 60.844483 0
M  V30 9 C 42.823884 32.618080 68.896552 0
M  V30 10 N 39.139959 32.207297 62.425416 0 CHG=1
M  V30 11 C 38.601173 28.773461 56.615300 0
M  V30 12 C 41.201235 32.641058 67.006884 0
M  V30 13 C 41.811056 31.775003 64.754537 0
M  V30 14 C 40.573960 32.525631 62.640087 0 CFG=2
M  V30 15 C 43.272353 31.230959 68.436903 0
M  V30 16 Cl 42.922112 29.259162 66.653496 0
M  V30 17 O 37.982553 31.104379 56.166535 0
M  V30 18 C 43.114409 31.019951 66.913549 0 CFG=1
M  V30 19 C 42.725681 30.885097 63.911908 0
M  V30 20 C 38.263550 34.419099 60.422358 0
M  V30 21 C 40.705137 36.302482 62.873525 0
M  V30 22 C 40.837691 32.507843 64.142710 0
M  V30 23 C 36.984357 30.147917 58.136735 0
M  V30 24 C 39.210172 35.484557 61.017714 0 CFG=1
M  V30 25 C 38.650755 31.705566 61.123205 0 CFG=1
M  V30 26 C 37.534227 29.890647 56.724727 0 CFG=2
M  V30 27 C 38.353208 36.738039 61.316876 0
M  V30 28 C 39.734652 37.464757 63.092849 0
M  V30 29 C 40.035571 29.452649 58.624048 0
M  V30 30 S 36.877631 31.621819 61.449962 0 CHG=-1
M  V30 31 N 38.987515 29.712470 59.508639 0
M  V30 32 C 40.751884 34.126870 68.985617 0
M  V30 33 C 40.989010 33.914440 62.102475 0
M  V30 34 H 40.766735 32.008174 68.978343 0
M  V30 35 H 40.814125 28.845934 56.768615 0
M  V30 36 H 39.240744 34.777399 63.053499 0
M  V30 37 H 37.641258 28.258127 58.941164 0
M  V30 38 H 37.009216 29.356744 60.117797 0
M  V30 39 H 38.824522 29.577753 61.583034 0
M  V30 40 H 40.300401 30.263831 60.999177 0
M  V30 41 H 43.442563 33.386425 68.429013 0
M  V30 42 H 42.957685 32.718216 69.974118 0
M  V30 43 H 38.598121 33.031754 62.634707 0
M  V30 44 H 38.199167 27.806088 56.916407 0
M  V30 45 H 38.851804 28.657864 55.560627 0
M  V30 46 H 40.422242 33.225254 66.568008 0
M  V30 47 H 41.170292 31.777346 62.131243 0
M  V30 48 H 44.304982 31.042162 68.735389 0
M  V30 49 H 42.668703 30.492354 68.966740 0
M  V30 50 H 37.251033 31.710036 56.249807 0
M  V30 51 H 44.056904 31.315090 66.448820 0
M  V30 52 H 43.643725 30.593369 64.412279 0
M  V30 53 H 42.205576 29.973498 63.619085 0
M  V30 54 H 43.052127 31.401132 63.011846 0
M  V30 55 H 37.752583 34.837848 59.554023 0
M  V30 56 H 37.476490 34.195612 61.138165 0
M  V30 57 H 41.482835 36.620765 62.179731 0
M  V30 58 H 41.201168 36.059766 63.814764 0
M  V30 59 H 40.194161 33.133831 64.716461 0
M  V30 60 H 37.066184 31.202110 58.404675 0
M  V30 61 H 35.915741 29.931229 58.135054 0
M  V30 62 H 39.942754 35.745326 60.253269 0
M  V30 63 H 36.688315 29.624917 56.093736 0
M  V30 64 H 37.879466 37.104721 60.404889 0
M  V30 65 H 37.549010 36.495550 62.014047 0
M  V30 66 H 40.267501 38.341959 63.454505 0
M  V30 67 H 38.979113 37.219403 63.842732 0
M  V30 68 H 41.009268 29.620936 59.059094 0
M  V30 69 H 39.665972 34.105593 68.885813 0
M  V30 70 H 40.981801 34.321196 70.034616 0
M  V30 71 H 41.105689 34.971074 68.396559 0
M  V30 72 H 41.268538 33.850029 61.057609 0
M  V30 73 H 41.925992 34.168537 62.595767 0
M  V30 74 H 38.881268 31.493965 63.091272 0
M  V30 END ATOM
M  V30 BEGIN BOND
M  V30 1 1 9 3
M  V30 2 1 11 5
M  V30 3 2 12 1
M  V30 4 1 12 3
M  V30 5 1 13 1
M  V30 6 1 14 10
M  V30 7 1 15 9
M  V30 8 1 18 1
M  V30 9 1 18 15
M  V30 10 1 18 16
M  V30 11 1 19 13
M  V30 12 1 20 2
M  V30 13 1 21 6
M  V30 14 2 22 13
M  V30 15 1 22 14
M  V30 16 1 23 7
M  V30 17 1 24 6
M  V30 18 1 24 20
M  V30 19 1 25 2
M  V30 20 1 25 8
M  V30 21 1 25 10
M  V30 22 1 26 11
M  V30 23 1 26 17
M  V30 24 1 26 23
M  V30 25 1 27 4
M  V30 26 1 27 24
M  V30 27 1 28 4
M  V30 28 1 28 21
M  V30 29 2 29 5
M  V30 30 1 25 30 CFG=1
M  V30 31 1 31 7
M  V30 32 1 31 8
M  V30 33 1 31 29
M  V30 34 1 32 3
M  V30 35 1 33 6
M  V30 36 1 33 14
M  V30 37 1 3 34 CFG=1
M  V30 38 1 35 5
M  V30 39 1 6 36 CFG=1
M  V30 40 1 37 7
M  V30 41 1 38 7
M  V30 42 1 39 8
M  V30 43 1 40 8
M  V30 44 1 41 9
M  V30 45 1 42 9
M  V30 46 1 43 10
M  V30 47 1 44 11
M  V30 48 1 45 11
M  V30 49 1 46 12
M  V30 50 1 14 47 CFG=3
M  V30 51 1 48 15
M  V30 52 1 49 15
M  V30 53 1 50 17
M  V30 54 1 18 51 CFG=3
M  V30 55 1 52 19
M  V30 56 1 53 19
M  V30 57 1 54 19
M  V30 58 1 55 20
M  V30 59 1 56 20
M  V30 60 1 57 21
M  V30 61 1 58 21
M  V30 62 1 59 22
M  V30 63 1 60 23
M  V30 64 1 61 23
M  V30 65 1 24 62 CFG=3
M  V30 66 1 26 63 CFG=3
M  V30 67 1 64 27
M  V30 68 1 65 27
M  V30 69 1 66 28
M  V30 70 1 67 28
M  V30 71 1 68 29
M  V30 72 1 69 32
M  V30 73 1 70 32
M  V30 74 1 71 32
M  V30 75 1 72 33
M  V30 76 1 73 33
M  V30 77 1 74 10
M  V30 END BOND
M  V30 END CTAB
M  END
>  <i_epik_Tot_Q>  (1) 
0

>  <i_epik_Tot_abs_Q>  (1) 
2

>  <i_i_glide_confnum>  (1) 
85

>  <i_i_glide_lignum>  (1) 
263

>  <i_i_glide_posenum>  (1) 
249

>  <i_i_glide_rotatable_bonds>  (1) 
5

>  <i_lp_mmshare_version>  (1) 
72125

>  <i_m_source_file_index>  (1) 
94

>  <i_f3d_flags>  (1) 
0

>  <num_sample>  (1) 
100

>  <b_lp_Chiralities_Consistent>  (1) 
1

>  <r_epik_Charging_Adjusted_Penalty>  (1) 
0.80501984278308969

>  <r_epik_Ionization_Penalty>  (1) 
0.072421558423421364

>  <r_epik_Ionization_Penalty_Charging>  (1) 
0.072408791886815996

>  <r_epik_Ionization_Penalty_Neutral>  (1) 
1.2766536605372598e-05

>  <r_epik_State_Penalty>  (1) 
0.73261105089627365

>  <r_glide_ring_energy>  (1) 
0

>  <r_i_docking_score>  (1) 
-5.5925776680909864

>  <r_i_glide_ecoul>  (1) 
-4.9323523234939692

>  <r_i_glide_eff_state_penalty>  (1) 
0.73261105089627365

>  <r_i_glide_einternal>  (1) 
9.1164962059052037

>  <r_i_glide_emodel>  (1) 
-37.30420040052411

>  <r_i_glide_emodel_strain>  (1) 
0.12235230443268108

>  <r_i_glide_energy>  (1) 
-36.118972316171721

>  <r_i_glide_erotb>  (1) 
0.31140238833871409

>  <r_i_glide_esite>  (1) 
0

>  <r_i_glide_evdw>  (1) 
-31.186619992677752

>  <r_i_glide_gscore>  (1) 
-6.3251887189872598

>  <r_i_glide_gscore_strain>  (1) 
0

>  <r_i_glide_hbond>  (1) 
-0.29761644634047946

>  <r_i_glide_ligand_efficiency>  (1) 
-0.16947205054821171

>  <r_i_glide_ligand_efficiency_ln>  (1) 
-1.2437603165660056

>  <r_i_glide_ligand_efficiency_sa>  (1) 
-0.54358742010817718

>  <r_i_glide_lipo>  (1) 
-3.5388188794647126

>  <r_i_glide_metal>  (1) 
-0

>  <r_i_glide_rewards>  (1) 
-0.50097193336279844

>  <r_lp_Energy>  (1) 
38.618955

>  <s_epik_Chemistry_Notes>  (1) 
This compound has an imine and may undergo hydrolysis.

>  <s_epik_cmdline>  (1) 
J2VwaWtfcHl0aG9uJywgJy1waHQnLCAnMS4wJywgJy1waCcsICc3LjQnLCAnLXRuJywgJzgnLCAnLW1hJywgJzUwMCcsICctaW1hZScsICc8aW5maWxlLm1hZT4nLCAnLW9tYWUnLCAnPG91dGZpbGUubWFlPic=

>  <s_epik_input>  (1) 
Q2xbQ0BIXTFbQ0gyXVtDSDJdW0NAQEhdKFtDSDNdKVtDSF09QzEvQyhbQ0gzXSk9W0NIXS9bQ0BASF0oW0NIMl0yKVtOSF1bQ0BAXShbU0hdKShTW0NIMl1bQ0BIXShbQ0BASF0yMylbQ0gyXU9bQ0gyXVtDSDJdMylbQ0gyXU4oW0NIMl1bQ0gyXTQpW0NIXT1bQ0hdW0NIMl1bQ0BASF00W09IXQ==

>  <s_glide_docking_method>  (1) 
confgen

>  <s_i_glide_gridfile>  (1) 
gpcr_5ht2c_6bqh_protein_autoprepared_prepared

>  <s_lp_Force_Field>  (1) 
S-OPLS

>  <s_lp_Variant>  (1) 
DiffSBDD_93_num_sample_100-15

>  <s_m_source_file>  (1) 
generated__ligand_DiffSBDD_2026-05-06_prepared.sdf

>  <GenAI_Model>  (1) 
DiffSBDD

>  <Protein>  (1) 
GPCR_5HT2C

$$$$
DiffSBDD_18_num_sample_100
     RDKit          3D

  0  0  0  0  0  0  0  0  0  0999 V3000
M  V30 BEGIN CTAB
M  V30 COUNTS 71 73 0 0 1
M  V30 BEGIN ATOM
M  V30 1 O 39.510348 32.567751 60.966686 0
M  V30 2 C 38.514968 28.442201 52.695396 0
M  V30 3 C 37.520820 29.565424 57.862979 0
M  V30 4 C 39.171389 28.473247 51.540745 0
M  V30 5 O 36.336400 30.460451 60.253500 0
M  V30 6 C 38.181805 29.774623 54.739952 0 CFG=2
M  V30 7 C 43.086802 30.415692 64.754657 0
M  V30 8 N 38.772281 29.486471 53.408709 0 CHG=1
M  V30 9 N 37.544824 31.090352 54.694591 0
M  V30 10 C 40.546293 33.460094 63.026868 0
M  V30 11 C 41.538077 31.740156 66.176683 0
M  V30 12 O 44.295553 30.421603 64.985361 0
M  V30 13 O 40.667524 30.021447 50.548396 0
M  V30 14 C 40.086849 29.286585 67.052392 0
M  V30 15 C 39.971879 28.920911 58.154268 0
M  V30 16 C 39.867406 29.578036 51.527649 0
M  V30 17 C 41.606900 27.848482 65.687420 0
M  V30 18 C 41.113071 32.639790 65.263081 0
M  V30 19 C 37.053934 31.230199 59.619808 0
M  V30 20 N 42.508486 30.402631 63.522604 0
M  V30 21 C 38.808450 29.063411 57.157614 0 CFG=2
M  V30 22 C 40.478138 33.469827 61.498931 0 CFG=2
M  V30 23 C 39.232045 29.822315 55.864700 0 CFG=2
M  V30 24 C 39.467357 31.328410 56.017910 0
M  V30 25 O 42.586642 27.574032 66.416073 0 CHG=-1
M  V30 26 C 39.776060 30.514422 52.766245 0
M  V30 27 C 41.701446 31.275510 63.053517 0
M  V30 28 C 37.268022 32.663920 60.110845 0
M  V30 29 C 38.155480 32.749376 61.363547 0
M  V30 30 C 40.285711 34.891420 60.942420 0
M  V30 31 C 41.112110 32.484510 63.783800 0
M  V30 32 C 42.094304 30.382743 65.886647 0 CFG=1
M  V30 33 C 41.005801 29.263967 65.820175 0 CFG=2
M  V30 34 N 37.672851 30.883644 58.480795 0
M  V30 35 N 38.272853 31.995842 55.514122 0
M  V30 36 O 41.067429 27.075394 64.865187 0
M  V30 37 H 37.836884 27.669614 53.040993 0
M  V30 38 H 36.689962 29.621443 57.158697 0
M  V30 39 H 37.229341 28.822223 58.607090 0
M  V30 40 H 39.100590 27.704875 50.783728 0
M  V30 41 H 37.420621 29.016156 54.930361 0
M  V30 42 H 37.481750 31.452537 53.745984 0
M  V30 43 H 40.116208 34.319316 63.519606 0
M  V30 44 H 41.467951 31.998053 67.223095 0
M  V30 45 H 40.667554 30.568450 53.382782 0
M  V30 46 H 39.429962 28.421433 67.053456 0
M  V30 47 H 40.657437 29.265560 67.981576 0
M  V30 48 H 39.455046 30.173626 67.058002 0
M  V30 49 H 40.264326 29.881880 58.569792 0
M  V30 50 H 39.692261 28.280016 58.991276 0
M  V30 51 H 40.851185 28.478645 57.685319 0
M  V30 52 H 40.724228 33.569619 65.652162 0
M  V30 53 H 38.583739 28.046045 56.834323 0
M  V30 54 H 41.442668 33.143707 61.114120 0
M  V30 55 H 40.156789 29.357165 55.517709 0
M  V30 56 H 40.309580 31.634949 55.398879 0
M  V30 57 H 39.689538 31.647229 57.034410 0
M  V30 58 H 39.288392 31.476286 52.611817 0
M  V30 59 H 41.395793 31.208404 62.009558 0
M  V30 60 H 37.671670 33.290025 59.313794 0
M  V30 61 H 36.283723 33.070770 60.346483 0
M  V30 62 H 37.990379 33.708099 61.853291 0
M  V30 63 H 37.889869 31.987637 62.098277 0
M  V30 64 H 41.115852 35.536990 61.233955 0
M  V30 65 H 40.249066 34.876096 59.853618 0
M  V30 66 H 39.369421 35.361987 61.296658 0
M  V30 67 H 42.698655 30.164089 66.769343 0
M  V30 68 H 40.372745 29.425467 64.946438 0
M  V30 69 H 38.233070 31.569130 57.997897 0
M  V30 70 H 38.490219 32.852364 55.008202 0
M  V30 71 H 40.970659 30.887983 50.778210 0
M  V30 END ATOM
M  V30 BEGIN BOND
M  V30 1 1 4 2
M  V30 2 2 8 2
M  V30 3 1 8 6
M  V30 4 1 9 6
M  V30 5 2 12 7
M  V30 6 2 16 4
M  V30 7 1 16 13
M  V30 8 2 18 11
M  V30 9 2 19 5
M  V30 10 1 20 7
M  V30 11 1 21 3
M  V30 12 1 21 15
M  V30 13 1 22 1
M  V30 14 1 22 10
M  V30 15 1 23 6
M  V30 16 1 23 21
M  V30 17 1 24 23
M  V30 18 1 25 17
M  V30 19 1 26 8
M  V30 20 1 26 16
M  V30 21 2 27 20
M  V30 22 1 28 19
M  V30 23 1 29 1
M  V30 24 1 29 28
M  V30 25 1 30 22
M  V30 26 2 31 10
M  V30 27 1 31 18
M  V30 28 1 31 27
M  V30 29 1 32 7
M  V30 30 1 32 11
M  V30 31 1 33 14
M  V30 32 1 33 17
M  V30 33 1 33 32
M  V30 34 1 34 3
M  V30 35 1 34 19
M  V30 36 1 35 9
M  V30 37 1 35 24
M  V30 38 2 36 17
M  V30 39 1 37 2
M  V30 40 1 38 3
M  V30 41 1 39 3
M  V30 42 1 40 4
M  V30 43 1 6 41 CFG=1
M  V30 44 1 42 9
M  V30 45 1 43 10
M  V30 46 1 44 11
M  V30 47 1 45 26
M  V30 48 1 46 14
M  V30 49 1 47 14
M  V30 50 1 48 14
M  V30 51 1 49 15
M  V30 52 1 50 15
M  V30 53 1 51 15
M  V30 54 1 52 18
M  V30 55 1 21 53 CFG=3
M  V30 56 1 22 54 CFG=3
M  V30 57 1 23 55 CFG=3
M  V30 58 1 56 24
M  V30 59 1 57 24
M  V30 60 1 58 26
M  V30 61 1 59 27
M  V30 62 1 60 28
M  V30 63 1 61 28
M  V30 64 1 62 29
M  V30 65 1 63 29
M  V30 66 1 64 30
M  V30 67 1 65 30
M  V30 68 1 66 30
M  V30 69 1 32 67 CFG=1
M  V30 70 1 33 68 CFG=3
M  V30 71 1 69 34
M  V30 72 1 70 35
M  V30 73 1 71 13
M  V30 END BOND
M  V30 END CTAB
M  END
>  <i_epik_Tot_Q>  (1) 
0

>  <i_epik_Tot_abs_Q>  (1) 
2

>  <i_i_glide_confnum>  (1) 
3055

>  <i_i_glide_lignum>  (1) 
48

>  <i_i_glide_posenum>  (1) 
370

>  <i_i_glide_rotatable_bonds>  (1) 
13

>  <i_lp_mmshare_version>  (1) 
72125

>  <i_m_source_file_index>  (1) 
19

>  <i_f3d_flags>  (1) 
0

>  <num_sample>  (1) 
100

>  <b_lp_Chiralities_Consistent>  (1) 
1

>  <r_epik_Charging_Adjusted_Penalty>  (1) 
0.76693695219889413

>  <r_epik_Ionization_Penalty>  (1) 
0.76778133156762796

>  <r_epik_Ionization_Penalty_Charging>  (1) 
0.00011398914501928687

>  <r_epik_Ionization_Penalty_Neutral>  (1) 
0.7676673424226087

>  <r_epik_State_Penalty>  (1) 
0.76682296305387487

>  <r_glide_ring_energy>  (1) 
1.7561163794185919

>  <r_i_docking_score>  (1) 
-5.5915111194521545

>  <r_i_glide_ecoul>  (1) 
-0.34579992908404406

>  <r_i_glide_eff_state_penalty>  (1) 
0.76682296305387487

>  <r_i_glide_einternal>  (1) 
11.65429001581489

>  <r_i_glide_emodel>  (1) 
-67.37471275214638

>  <r_i_glide_emodel_strain>  (1) 
0.38539433257074052

>  <r_i_glide_energy>  (1) 
-51.90415263098155

>  <r_i_glide_erotb>  (1) 
0.89312676016186854

>  <r_i_glide_esite>  (1) 
-0.29388542687902375

>  <r_i_glide_evdw>  (1) 
-51.558352701897505

>  <r_i_glide_gscore>  (1) 
-6.3583340825060297

>  <r_i_glide_gscore_strain>  (1) 
0

>  <r_i_glide_hbond>  (1) 
-0.049925017910454339

>  <r_i_glide_ligand_efficiency>  (1) 
-0.1553197533181154

>  <r_i_glide_ligand_efficiency_ln>  (1) 
-1.2199166610917445

>  <r_i_glide_ligand_efficiency_sa>  (1) 
-0.51285452577267698

>  <r_i_glide_lipo>  (1) 
-2.8538107243359963

>  <r_i_glide_metal>  (1) 
-0

>  <r_i_glide_rewards>  (1) 
-1.4240520490849407

>  <r_lp_Energy>  (1) 
32.790411999999996

>  <r_lp_tautomer_probability>  (1) 
0.99929914239148299

>  <s_epik_Chemistry_Notes>  (1) 
This compound has an imine and may undergo hydrolysis. This compound contains an acetal/aminal-like group ( X-CH(R)-Y where X, Y are N, S, or O) that may be acid/base labile, releasing an aldehyde.

>  <s_epik_cmdline>  (1) 
J2VwaWtfcHl0aG9uJywgJy1waHQnLCAnMS4wJywgJy1waCcsICc3LjQnLCAnLXRuJywgJzgnLCAnLW1hJywgJzUwMCcsICctaW1hZScsICc8aW5maWxlLm1hZT4nLCAnLW9tYWUnLCAnPG91dGZpbGUubWFlPic=

>  <s_epik_input>  (1) 
W09IXUMoPU8pW0NASF0oW0NIM10pW0NAQEhdMVtDSF09W0NIXVxDKFtDSF09TkMxPU8pPVtDSF1cW0NASF0oW0NIM10pT1tDSDJdW0NIMl1DKD1PKVtOSF1bQ0gyXVtDQEhdKFtDSDNdKVtDQEBIXTJbQ0gyXVtOSF1bTkhdW0NASF0ybjNbY0hdW2NIXWMoW09IXSlbY0hdMw==

>  <s_glide_docking_method>  (1) 
confgen

>  <s_i_glide_gridfile>  (1) 
gpcr_5ht2c_6bqh_protein_autoprepared_prepared

>  <s_lp_Force_Field>  (1) 
S-OPLS

>  <s_lp_Variant>  (1) 
DiffSBDD_18_num_sample_100-8

>  <s_m_source_file>  (1) 
generated__ligand_DiffSBDD_2026-05-06_prepared.sdf

>  <GenAI_Model>  (1) 
DiffSBDD

>  <Protein>  (1) 
GPCR_5HT2C

$$$$
DiffSBDD_44_num_sample_100
     RDKit          3D

  0  0  0  0  0  0  0  0  0  0999 V3000
M  V30 BEGIN CTAB
M  V30 COUNTS 58 59 0 0 1
M  V30 BEGIN ATOM
M  V30 1 C 37.963608 33.686995 61.513847 0
M  V30 2 O 38.497995 31.076081 59.736293 0 CHG=-1
M  V30 3 C 38.960072 27.622878 53.057118 0
M  V30 4 C 36.614721 33.361296 59.542965 0 CFG=1
M  V30 5 N 38.047512 33.219576 59.166078 0 CFG=1 CHG=1
M  V30 6 C 38.808456 29.995371 53.696683 0
M  V30 7 N 37.593818 29.221550 56.135873 0
M  V30 8 C 38.652572 28.497047 53.979492 0
M  V30 9 O 38.814797 27.161400 56.109276 0
M  V30 10 C 36.580880 33.970588 60.943323 0 CFG=1
M  V30 11 C 35.365680 33.474973 61.715862 0
M  V30 12 C 37.843925 31.270986 57.469012 0 CFG=1
M  V30 13 C 38.348729 29.956266 56.860792 0
M  V30 14 C 38.851452 33.785969 60.277862 0
M  V30 15 C 38.900110 25.813762 55.660614 0
M  V30 16 C 39.988333 28.292166 50.923459 0
M  V30 17 C 38.556750 31.885479 58.703074 0 CFG=2
M  V30 18 C 38.030753 28.077368 55.333143 0 CFG=1
M  V30 19 F 39.867396 30.465107 50.133602 0
M  V30 20 C 39.369447 29.692397 51.099861 0 CFG=2
M  V30 21 C 39.447119 27.267620 51.899937 0
M  V30 22 C 37.867431 32.283230 56.290918 0
M  V30 23 C 39.797134 29.643658 57.122244 0
M  V30 24 C 35.867694 34.347750 58.649268 0
M  V30 25 C 39.637067 30.396408 52.451475 0
M  V30 26 H 38.015817 32.687669 61.951859 0
M  V30 27 H 38.267556 34.420908 62.253420 0
M  V30 28 H 36.127446 32.386394 59.524965 0
M  V30 29 H 37.816397 30.437709 53.641420 0
M  V30 30 H 39.328706 30.473695 54.519719 0
M  V30 31 H 36.501692 35.056547 60.880010 0
M  V30 32 H 35.436248 32.396291 61.853499 0
M  V30 33 H 35.262432 34.021432 62.653568 0
M  V30 34 H 34.448615 33.635656 61.148274 0
M  V30 35 H 36.866226 31.003638 57.853482 0
M  V30 36 H 39.817515 33.296115 60.418952 0
M  V30 37 H 39.050597 34.834209 60.058100 0
M  V30 38 H 39.286827 25.198845 56.472904 0
M  V30 39 H 37.930193 25.409971 55.369121 0
M  V30 40 H 39.593575 25.707191 54.827806 0
M  V30 41 H 41.066935 28.366854 51.053822 0
M  V30 42 H 39.799671 27.950804 49.908085 0
M  V30 43 H 39.467403 32.251005 58.275655 0
M  V30 44 H 37.123851 27.539019 55.053814 0
M  V30 45 H 38.299619 29.621223 50.936150 0
M  V30 46 H 39.513074 26.231250 51.609876 0
M  V30 47 H 37.244980 31.954955 55.456405 0
M  V30 48 H 37.515617 33.270389 56.560914 0
M  V30 49 H 38.878133 32.416906 55.902937 0
M  V30 50 H 40.267401 30.606441 57.053809 0
M  V30 51 H 39.946575 29.208773 58.109920 0
M  V30 52 H 40.269796 29.031021 56.358070 0
M  V30 53 H 34.825852 34.458051 58.954263 0
M  V30 54 H 36.328545 35.335525 58.657532 0
M  V30 55 H 35.867264 34.021438 57.623120 0
M  V30 56 H 39.533293 31.475190 52.320253 0
M  V30 57 H 40.667395 30.242025 52.707262 0
M  V30 58 H 38.177715 33.820935 58.366508 0
M  V30 END ATOM
M  V30 BEGIN BOND
M  V30 1 1 5 4
M  V30 2 2 8 3
M  V30 3 1 8 6
M  V30 4 1 10 1
M  V30 5 1 10 4
M  V30 6 1 11 10
M  V30 7 2 13 7
M  V30 8 1 13 12
M  V30 9 1 14 1
M  V30 10 1 14 5
M  V30 11 1 15 9
M  V30 12 1 17 2
M  V30 13 1 17 5
M  V30 14 1 17 12
M  V30 15 1 18 7
M  V30 16 1 18 8
M  V30 17 1 18 9
M  V30 18 1 20 16
M  V30 19 1 20 19
M  V30 20 2 21 3
M  V30 21 1 21 16
M  V30 22 1 22 12
M  V30 23 1 23 13
M  V30 24 1 24 4
M  V30 25 1 25 6
M  V30 26 1 25 20
M  V30 27 1 26 1
M  V30 28 1 27 1
M  V30 29 1 4 28 CFG=1
M  V30 30 1 29 6
M  V30 31 1 30 6
M  V30 32 1 10 31 CFG=3
M  V30 33 1 32 11
M  V30 34 1 33 11
M  V30 35 1 34 11
M  V30 36 1 12 35 CFG=1
M  V30 37 1 36 14
M  V30 38 1 37 14
M  V30 39 1 38 15
M  V30 40 1 39 15
M  V30 41 1 40 15
M  V30 42 1 41 16
M  V30 43 1 42 16
M  V30 44 1 17 43 CFG=3
M  V30 45 1 18 44 CFG=3
M  V30 46 1 20 45 CFG=3
M  V30 47 1 46 21
M  V30 48 1 47 22
M  V30 49 1 48 22
M  V30 50 1 49 22
M  V30 51 1 50 23
M  V30 52 1 51 23
M  V30 53 1 52 23
M  V30 54 1 53 24
M  V30 55 1 54 24
M  V30 56 1 55 24
M  V30 57 1 56 25
M  V30 58 1 57 25
M  V30 59 1 5 58 CFG=3
M  V30 END BOND
M  V30 END CTAB
M  END
>  <i_epik_Tot_Q>  (1) 
0

>  <i_epik_Tot_abs_Q>  (1) 
2

>  <i_i_glide_confnum>  (1) 
45

>  <i_i_glide_lignum>  (1) 
120

>  <i_i_glide_posenum>  (1) 
174

>  <i_i_glide_rotatable_bonds>  (1) 
6

>  <i_lp_mmshare_version>  (1) 
72125

>  <i_m_source_file_index>  (1) 
45

>  <i_f3d_flags>  (1) 
0

>  <num_sample>  (1) 
100

>  <b_lp_Chiralities_Consistent>  (1) 
1

>  <r_epik_Charging_Adjusted_Penalty>  (1) 
0.41733257654759531

>  <r_epik_Ionization_Penalty>  (1) 
0.0069177268181324029

>  <r_epik_Ionization_Penalty_Charging>  (1) 
0.0066527375949913311

>  <r_epik_Ionization_Penalty_Neutral>  (1) 
0.00026498922314107146

>  <r_epik_State_Penalty>  (1) 
0.41067983895260396

>  <r_glide_ring_energy>  (1) 
0

>  <r_i_docking_score>  (1) 
-5.5911778849889595

>  <r_i_glide_ecoul>  (1) 
-0.59938444973680749

>  <r_i_glide_eff_state_penalty>  (1) 
0.41067983895260396

>  <r_i_glide_einternal>  (1) 
7.5581573110118967

>  <r_i_glide_emodel>  (1) 
-31.659490202655739

>  <r_i_glide_emodel_strain>  (1) 
1.3842810542078965

>  <r_i_glide_energy>  (1) 
-22.487259870220889

>  <r_i_glide_erotb>  (1) 
0.61440649929112812

>  <r_i_glide_esite>  (1) 
-0.11335080128596027

>  <r_i_glide_evdw>  (1) 
-21.887875420484082

>  <r_i_glide_gscore>  (1) 
-6.0018577239415638

>  <r_i_glide_gscore_strain>  (1) 
0

>  <r_i_glide_hbond>  (1) 
0

>  <r_i_glide_ligand_efficiency>  (1) 
-0.22364711539955839

>  <r_i_glide_ligand_efficiency_ln>  (1) 
-1.3252767128228122

>  <r_i_glide_ligand_efficiency_sa>  (1) 
-0.65394813252844863

>  <r_i_glide_lipo>  (1) 
-2.7762231027301625

>  <r_i_glide_metal>  (1) 
-0

>  <r_i_glide_rewards>  (1) 
-2.5423888807318433

>  <r_lp_Energy>  (1) 
10.956301

>  <r_lp_tautomer_probability>  (1) 
0.49999399997599986

>  <s_epik_Chemistry_Notes>  (1) 
This compound has an imine and may undergo hydrolysis. This compound contains an acetal/aminal-like group ( X-CH(R)-Y where X, Y are N, S, or O) that may be acid/base labile, releasing an aldehyde.

>  <s_epik_cmdline>  (1) 
J2VwaWtfcHl0aG9uJywgJy1waHQnLCAnMS4wJywgJy1waCcsICc3LjQnLCAnLXRuJywgJzgnLCAnLW1hJywgJzUwMCcsICctaW1hZScsICc8aW5maWxlLm1hZT4nLCAnLW9tYWUnLCAnPG91dGZpbGUubWFlPic=

>  <s_epik_input>  (1) 
W0NIM11bQ0BIXTFbQ0gyXVtDSDJdTihbQ0BASF0xW0NIM10pW0NAQEhdKFtPSF0pW0NAQEhdKFtDSDNdKVxDKFtDSDNdKT1OXFtDQEBIXShPW0NIM10pQzI9Qz1bQ0hdW0NIMl1bQ0BASF0oRilbQ0gyXVtDSDJdMg==

>  <s_glide_docking_method>  (1) 
confgen

>  <s_i_glide_gridfile>  (1) 
gpcr_5ht2c_6bqh_protein_autoprepared_prepared

>  <s_lp_Force_Field>  (1) 
S-OPLS

>  <s_lp_Variant>  (1) 
DiffSBDD_44_num_sample_100-13

>  <s_m_source_file>  (1) 
generated__ligand_DiffSBDD_2026-05-06_prepared.sdf

>  <GenAI_Model>  (1) 
DiffSBDD

>  <Protein>  (1) 
GPCR_5HT2C

$$$$
DiffSBDD_44_num_sample_100
     RDKit          3D

  0  0  0  0  0  0  0  0  0  0999 V3000
M  V30 BEGIN CTAB
M  V30 COUNTS 58 59 0 0 1
M  V30 BEGIN ATOM
M  V30 1 C 38.140328 31.413231 54.018780 0
M  V30 2 O 38.783483 32.630962 57.860243 0 CHG=-1
M  V30 3 C 37.403494 35.791328 60.588888 0
M  V30 4 C 38.227629 29.737104 55.751705 0 CFG=1
M  V30 5 N 38.081736 31.096905 56.383202 0 CFG=2 CHG=1
M  V30 6 C 38.910937 34.624403 62.139690 0
M  V30 7 N 38.006242 32.185183 61.044883 0
M  V30 8 C 37.784060 34.654648 61.105013 0
M  V30 9 O 35.865154 33.143113 61.127015 0
M  V30 10 C 38.543734 29.970107 54.260847 0 CFG=1
M  V30 11 C 37.878874 28.957158 53.316350 0
M  V30 12 C 37.597536 30.967332 58.902630 0 CFG=1
M  V30 13 C 38.238096 31.171880 60.304025 0
M  V30 14 C 38.458811 32.083762 55.336043 0
M  V30 15 C 34.849853 33.437683 60.176470 0
M  V30 16 C 38.242035 37.967890 61.377172 0
M  V30 17 C 38.615013 31.332245 57.768054 0 CFG=2
M  V30 18 C 37.192475 33.319977 60.636239 0 CFG=2
M  V30 19 F 40.439922 36.975819 61.453509 0
M  V30 20 C 39.374259 37.257643 62.203380 0 CFG=2
M  V30 21 C 37.393796 37.088928 60.478494 0
M  V30 22 C 36.932011 29.579296 58.813727 0
M  V30 23 C 39.192736 30.074163 60.746276 0
M  V30 24 C 39.288708 28.778315 56.342215 0
M  V30 25 C 39.033595 35.944050 62.973467 0
M  V30 26 H 37.067545 31.480366 53.853879 0
M  V30 27 H 38.667339 31.875733 53.183309 0
M  V30 28 H 37.251047 29.263250 55.828902 0
M  V30 29 H 38.780151 33.784537 62.819304 0
M  V30 30 H 39.844414 34.420808 61.613810 0
M  V30 31 H 39.623882 29.918040 54.111521 0
M  V30 32 H 36.798048 28.931535 53.453595 0
M  V30 33 H 38.079181 29.203303 52.273047 0
M  V30 34 H 38.256321 27.950058 53.496163 0
M  V30 35 H 36.731313 31.610088 58.782891 0
M  V30 36 H 37.908702 33.019697 55.450830 0
M  V30 37 H 39.527015 32.302814 55.390352 0
M  V30 38 H 33.871885 33.390639 60.652400 0
M  V30 39 H 34.968526 34.433703 59.752393 0
M  V30 40 H 34.851024 32.715273 59.360116 0
M  V30 41 H 38.667024 38.782063 60.790168 0
M  V30 42 H 37.512200 38.421415 62.046717 0
M  V30 43 H 39.469765 30.687272 57.900546 0
M  V30 44 H 37.163512 33.441951 59.556842 0
M  V30 45 H 39.731770 38.020580 62.907172 0
M  V30 46 H 36.734130 37.588168 59.785847 0
M  V30 47 H 36.187737 29.469754 59.603098 0
M  V30 48 H 36.391499 29.447941 57.877494 0
M  V30 49 H 37.637543 28.760489 58.923947 0
M  V30 50 H 39.705117 29.617369 59.901327 0
M  V30 51 H 39.954784 30.490394 61.405274 0
M  V30 52 H 38.667411 29.295560 61.293538 0
M  V30 53 H 39.335521 27.853392 55.767348 0
M  V30 54 H 40.284999 29.219435 56.317967 0
M  V30 55 H 39.080123 28.485761 57.366597 0
M  V30 56 H 38.114765 36.073816 63.540386 0
M  V30 57 H 39.812840 35.786635 63.719618 0
M  V30 58 H 37.085350 31.264507 56.495720 0
M  V30 END ATOM
M  V30 BEGIN BOND
M  V30 1 1 5 4
M  V30 2 2 8 3
M  V30 3 1 8 6
M  V30 4 1 10 1
M  V30 5 1 10 4
M  V30 6 1 11 10
M  V30 7 2 13 7
M  V30 8 1 13 12
M  V30 9 1 14 1
M  V30 10 1 14 5
M  V30 11 1 15 9
M  V30 12 1 17 2
M  V30 13 1 17 5
M  V30 14 1 17 12
M  V30 15 1 18 7
M  V30 16 1 18 8
M  V30 17 1 18 9
M  V30 18 1 20 16
M  V30 19 1 20 19
M  V30 20 2 21 3
M  V30 21 1 21 16
M  V30 22 1 22 12
M  V30 23 1 23 13
M  V30 24 1 24 4
M  V30 25 1 25 6
M  V30 26 1 25 20
M  V30 27 1 26 1
M  V30 28 1 27 1
M  V30 29 1 4 28 CFG=3
M  V30 30 1 29 6
M  V30 31 1 30 6
M  V30 32 1 10 31 CFG=1
M  V30 33 1 32 11
M  V30 34 1 33 11
M  V30 35 1 34 11
M  V30 36 1 12 35 CFG=1
M  V30 37 1 36 14
M  V30 38 1 37 14
M  V30 39 1 38 15
M  V30 40 1 39 15
M  V30 41 1 40 15
M  V30 42 1 41 16
M  V30 43 1 42 16
M  V30 44 1 17 43 CFG=1
M  V30 45 1 18 44 CFG=3
M  V30 46 1 20 45 CFG=1
M  V30 47 1 46 21
M  V30 48 1 47 22
M  V30 49 1 48 22
M  V30 50 1 49 22
M  V30 51 1 50 23
M  V30 52 1 51 23
M  V30 53 1 52 23
M  V30 54 1 53 24
M  V30 55 1 54 24
M  V30 56 1 55 24
M  V30 57 1 56 25
M  V30 58 1 57 25
M  V30 59 1 5 58 CFG=1
M  V30 END BOND
M  V30 END CTAB
M  END
>  <i_epik_Tot_Q>  (1) 
0

>  <i_epik_Tot_abs_Q>  (1) 
2

>  <i_i_glide_confnum>  (1) 
10

>  <i_i_glide_lignum>  (1) 
119

>  <i_i_glide_posenum>  (1) 
134

>  <i_i_glide_rotatable_bonds>  (1) 
6

>  <i_lp_mmshare_version>  (1) 
72125

>  <i_m_source_file_index>  (1) 
45

>  <i_f3d_flags>  (1) 
0

>  <num_sample>  (1) 
100

>  <b_lp_Chiralities_Consistent>  (1) 
1

>  <r_epik_Charging_Adjusted_Penalty>  (1) 
0.41733257654759531

>  <r_epik_Ionization_Penalty>  (1) 
0.0069177268181324029

>  <r_epik_Ionization_Penalty_Charging>  (1) 
0.0066527375949913311

>  <r_epik_Ionization_Penalty_Neutral>  (1) 
0.00026498922314107146

>  <r_epik_State_Penalty>  (1) 
0.41067983895260396

>  <r_glide_ring_energy>  (1) 
0

>  <r_i_docking_score>  (1) 
-5.5899927645067642

>  <r_i_glide_ecoul>  (1) 
-2.8591730521239933

>  <r_i_glide_eff_state_penalty>  (1) 
0.41067983895260396

>  <r_i_glide_einternal>  (1) 
32.238834216418439

>  <r_i_glide_emodel>  (1) 
-30.945168583047597

>  <r_i_glide_emodel_strain>  (1) 
1.8389654539913067

>  <r_i_glide_energy>  (1) 
-31.579542077862595

>  <r_i_glide_erotb>  (1) 
0.61440649929112812

>  <r_i_glide_esite>  (1) 
-0.15912973551234258

>  <r_i_glide_evdw>  (1) 
-28.720369025738602

>  <r_i_glide_gscore>  (1) 
-6.0006726034593685

>  <r_i_glide_gscore_strain>  (1) 
0

>  <r_i_glide_hbond>  (1) 
-0.20000000000000001

>  <r_i_glide_ligand_efficiency>  (1) 
-0.22359971058027056

>  <r_i_glide_ligand_efficiency_ln>  (1) 
-1.3249958037533369

>  <r_i_glide_ligand_efficiency_sa>  (1) 
-0.65380951999597425

>  <r_i_glide_lipo>  (1) 
-2.1242520615172271

>  <r_i_glide_metal>  (1) 
-0

>  <r_i_glide_rewards>  (1) 
-2.2668028966153972

>  <r_lp_Energy>  (1) 
16.849003

>  <r_lp_tautomer_probability>  (1) 
0.49999399997599986

>  <s_epik_Chemistry_Notes>  (1) 
This compound has an imine and may undergo hydrolysis. This compound contains an acetal/aminal-like group ( X-CH(R)-Y where X, Y are N, S, or O) that may be acid/base labile, releasing an aldehyde.

>  <s_epik_cmdline>  (1) 
J2VwaWtfcHl0aG9uJywgJy1waHQnLCAnMS4wJywgJy1waCcsICc3LjQnLCAnLXRuJywgJzgnLCAnLW1hJywgJzUwMCcsICctaW1hZScsICc8aW5maWxlLm1hZT4nLCAnLW9tYWUnLCAnPG91dGZpbGUubWFlPic=

>  <s_epik_input>  (1) 
W0NIM11bQ0BIXTFbQ0gyXVtDSDJdTihbQ0BASF0xW0NIM10pW0NAQEhdKFtPSF0pW0NAQEhdKFtDSDNdKS9DKFtDSDNdKT1OXFtDQEBIXShPW0NIM10pQzI9Qz1bQ0hdW0NIMl1bQ0BASF0oRilbQ0gyXVtDSDJdMg==

>  <s_glide_docking_method>  (1) 
confgen

>  <s_i_glide_gridfile>  (1) 
gpcr_5ht2c_6bqh_protein_autoprepared_prepared

>  <s_lp_Force_Field>  (1) 
S-OPLS

>  <s_lp_Variant>  (1) 
DiffSBDD_44_num_sample_100-12

>  <s_m_source_file>  (1) 
generated__ligand_DiffSBDD_2026-05-06_prepared.sdf

>  <GenAI_Model>  (1) 
DiffSBDD

>  <Protein>  (1) 
GPCR_5HT2C

$$$$
DiffSBDD_17_num_sample_100
     RDKit          3D

  0  0  0  0  0  0  0  0  0  0999 V3000
M  V30 BEGIN CTAB
M  V30 COUNTS 106 113 0 0 1
M  V30 BEGIN ATOM
M  V30 1 C 39.391422 25.676290 54.495199 0
M  V30 2 O 39.291389 29.193660 52.930361 0
M  V30 3 C 38.086345 33.570927 57.826006 0
M  V30 4 C 35.098722 32.898165 60.281131 0
M  V30 5 C 35.232575 33.522636 61.463026 0
M  V30 6 C 39.356529 28.677552 59.897284 0 CFG=1
M  V30 7 C 39.048275 27.166730 54.414771 0 CFG=1
M  V30 8 O 40.279426 28.322857 58.925451 0
M  V30 9 C 44.129085 31.293446 68.106437 0
M  V30 10 O 38.648281 26.670597 59.055232 0
M  V30 11 C 38.087156 36.006405 60.477321 0 CFG=1
M  V30 12 O 37.469636 33.619278 56.784291 0
M  V30 13 C 40.937659 31.838005 63.412565 0
M  V30 14 C 36.287373 34.549639 61.808573 0
M  V30 15 C 37.401958 33.633385 59.197084 0 CFG=2
M  V30 16 C 42.655867 33.183874 67.814183 0 CFG=2
M  V30 17 C 38.943222 27.799560 52.993466 0 CFG=1
M  V30 18 N 45.185886 30.657855 67.656414 0
M  V30 19 C 37.326418 35.124623 59.492326 0 CFG=1
M  V30 20 C 38.625934 30.687085 58.938496 0 CFG=2
M  V30 21 C 39.252072 31.325020 61.539343 0
M  V30 22 C 45.458791 31.515560 66.595967 0
M  V30 23 S 41.973329 32.252714 69.321135 0
M  V30 24 N 41.284143 32.728333 64.517723 0
M  V30 25 C 38.998948 31.783282 60.073814 0 CFG=2
M  V30 26 C 39.372826 29.989262 55.161838 0 CFG=2
M  V30 27 C 37.588122 27.583960 52.317965 0
M  V30 28 C 43.292843 31.014563 69.221489 0
M  V30 29 C 40.667026 29.327279 58.062872 0
M  V30 30 N 44.600466 32.551168 66.439243 0
M  V30 31 N 41.489187 35.896754 66.024704 0
M  V30 32 C 39.526458 33.469056 57.809024 0
M  V30 33 O 38.309673 29.508818 59.557338 0
M  V30 34 C 38.621922 30.041334 53.859508 0 CFG=1
M  V30 35 O 40.182009 36.026535 65.429210 0
M  V30 36 C 38.243639 28.207832 56.588499 0
M  V30 37 C 38.628946 29.695888 56.465202 0 CFG=1
M  V30 38 C 39.330803 31.273861 54.375798 0
M  V30 39 O 38.668818 27.620497 60.211452 0
M  V30 40 C 36.661348 35.556692 60.744292 0 CFG=2
M  V30 41 C 37.830841 27.494670 55.306964 0
M  V30 42 C 39.467309 30.226276 57.664323 0 CFG=1
M  V30 43 O 38.096390 32.898939 60.235831 0
M  V30 44 O 41.850058 34.605948 63.297341 0
M  V30 45 C 39.284519 35.598711 61.315038 0
M  V30 46 C 41.712137 33.976134 64.344083 0
M  V30 47 C 35.971870 33.101087 59.068555 0
M  V30 48 C 41.585971 33.443292 66.720328 0 CFG=1
M  V30 49 C 42.006172 34.552101 65.717971 0 CFG=2
M  V30 50 C 39.847735 32.398844 62.472467 0
M  V30 51 C 41.234793 32.202960 65.861499 0
M  V30 52 N 43.774948 32.327544 67.469507 0
M  V30 53 O 43.451953 30.073126 69.996548 0
M  V30 54 H 38.536856 25.048589 54.264595 0
M  V30 55 H 40.248876 25.429166 53.866330 0
M  V30 56 H 39.676730 25.409197 55.512359 0
M  V30 57 H 34.306771 32.179984 60.161865 0
M  V30 58 H 34.544363 33.279859 62.251959 0
M  V30 59 H 39.928581 28.874845 60.792172 0
M  V30 60 H 39.954038 27.567788 54.853838 0
M  V30 61 H 39.573303 26.504512 58.950881 0
M  V30 62 H 38.182055 37.033396 60.126308 0
M  V30 63 H 39.845620 32.518987 57.998089 0
M  V30 64 H 40.619224 30.878375 63.818392 0
M  V30 65 H 41.846524 31.636980 62.845910 0
M  V30 66 H 35.884343 35.107423 62.654136 0
M  V30 67 H 37.152201 33.992327 62.144498 0
M  V30 68 H 43.086740 34.104738 68.173227 0
M  V30 69 H 39.681255 27.295840 52.367370 0
M  V30 70 H 36.988088 35.693924 58.634169 0
M  V30 71 H 37.671150 30.965934 58.530364 0
M  V30 72 H 38.359059 30.878344 61.988331 0
M  V30 73 H 40.050968 30.605005 61.559678 0
M  V30 74 H 46.302634 31.377129 65.936278 0
M  V30 75 H 39.942250 32.246235 59.880685 0
M  V30 76 H 40.378457 29.575898 55.153971 0
M  V30 77 H 37.159017 26.639394 52.653320 0
M  V30 78 H 36.850429 28.358912 52.519584 0
M  V30 79 H 37.732109 27.549864 51.241619 0
M  V30 80 H 41.454209 29.834560 58.604999 0
M  V30 81 H 41.127956 28.821975 57.209156 0
M  V30 82 H 41.997055 36.652948 65.570483 0
M  V30 83 H 39.855674 33.621414 56.779189 0
M  V30 84 H 40.016031 34.031388 58.584645 0
M  V30 85 H 37.534823 30.065888 53.834557 0
M  V30 86 H 40.383330 36.072482 64.504313 0
M  V30 87 H 39.081184 27.627952 56.947633 0
M  V30 88 H 37.449465 28.107758 57.326011 0
M  V30 89 H 37.692137 30.249956 56.420176 0
M  V30 90 H 40.254700 31.569424 53.886299 0
M  V30 91 H 38.713028 32.085490 54.758175 0
M  V30 92 H 35.877389 36.273484 60.526287 0
M  V30 93 H 37.312213 26.575832 55.573788 0
M  V30 94 H 37.071324 28.070622 54.776692 0
M  V30 95 H 39.925616 31.009082 57.092021 0
M  V30 96 H 39.015893 34.986824 62.170408 0
M  V30 97 H 40.027390 35.081941 60.708130 0
M  V30 98 H 39.748198 36.497628 61.719885 0
M  V30 99 H 35.405008 33.671750 58.337802 0
M  V30 100 H 36.039274 32.098264 58.689677 0
M  V30 101 H 40.668424 33.775675 67.209884 0
M  V30 102 H 43.068134 34.641132 65.736247 0
M  V30 103 H 40.337040 33.147946 61.858024 0
M  V30 104 H 39.066626 32.901874 63.041815 0
M  V30 105 H 40.254942 31.799274 66.111761 0
M  V30 106 H 41.957968 31.394236 65.946765 0
M  V30 END ATOM
M  V30 BEGIN BOND
M  V30 1 2 5 4
M  V30 2 1 7 1
M  V30 3 1 8 6
M  V30 4 2 12 3
M  V30 5 1 14 5
M  V30 6 1 15 3
M  V30 7 1 17 2
M  V30 8 1 17 7
M  V30 9 2 18 9
M  V30 10 1 19 11
M  V30 11 1 19 15
M  V30 12 1 22 18
M  V30 13 1 23 16
M  V30 14 1 24 13
M  V30 15 1 25 20
M  V30 16 1 25 21
M  V30 17 1 27 17
M  V30 18 1 28 9
M  V30 19 1 28 23
M  V30 20 1 29 8
M  V30 21 2 30 22
M  V30 22 1 32 3
M  V30 23 1 33 6
M  V30 24 1 33 20
M  V30 25 1 34 2
M  V30 26 1 34 26
M  V30 27 1 35 31
M  V30 28 1 37 26
M  V30 29 1 37 36
M  V30 30 1 38 26
M  V30 31 1 38 34
M  V30 32 1 39 6
M  V30 33 1 39 10
M  V30 34 1 40 11
M  V30 35 1 40 14
M  V30 36 1 40 19
M  V30 37 1 41 7
M  V30 38 1 41 36
M  V30 39 1 42 20
M  V30 40 1 42 29
M  V30 41 1 42 37
M  V30 42 1 15 43 CFG=1
M  V30 43 1 43 25
M  V30 44 1 45 11
M  V30 45 1 46 24
M  V30 46 2 46 44
M  V30 47 1 47 4
M  V30 48 1 47 15
M  V30 49 1 48 16
M  V30 50 1 49 31
M  V30 51 1 49 46
M  V30 52 1 49 48
M  V30 53 1 50 13
M  V30 54 1 50 21
M  V30 55 1 51 24
M  V30 56 1 51 48
M  V30 57 1 52 9
M  V30 58 1 52 16
M  V30 59 1 52 30
M  V30 60 2 53 28
M  V30 61 1 54 1
M  V30 62 1 55 1
M  V30 63 1 56 1
M  V30 64 1 57 4
M  V30 65 1 58 5
M  V30 66 1 6 59 CFG=1
M  V30 67 1 7 60 CFG=1
M  V30 68 1 61 10
M  V30 69 1 11 62 CFG=3
M  V30 70 1 63 32
M  V30 71 1 64 13
M  V30 72 1 65 13
M  V30 73 1 66 14
M  V30 74 1 67 14
M  V30 75 1 16 68 CFG=1
M  V30 76 1 17 69 CFG=3
M  V30 77 1 19 70 CFG=3
M  V30 78 1 20 71 CFG=3
M  V30 79 1 72 21
M  V30 80 1 73 21
M  V30 81 1 74 22
M  V30 82 1 25 75 CFG=3
M  V30 83 1 26 76 CFG=3
M  V30 84 1 77 27
M  V30 85 1 78 27
M  V30 86 1 79 27
M  V30 87 1 80 29
M  V30 88 1 81 29
M  V30 89 1 82 31
M  V30 90 1 83 32
M  V30 91 1 84 32
M  V30 92 1 34 85 CFG=1
M  V30 93 1 86 35
M  V30 94 1 87 36
M  V30 95 1 88 36
M  V30 96 1 37 89 CFG=3
M  V30 97 1 90 38
M  V30 98 1 91 38
M  V30 99 1 40 92 CFG=3
M  V30 100 1 93 41
M  V30 101 1 94 41
M  V30 102 1 42 95 CFG=3
M  V30 103 1 96 45
M  V30 104 1 97 45
M  V30 105 1 98 45
M  V30 106 1 99 47
M  V30 107 1 100 47
M  V30 108 1 48 101 CFG=1
M  V30 109 1 49 102 CFG=3
M  V30 110 1 103 50
M  V30 111 1 104 50
M  V30 112 1 105 51
M  V30 113 1 106 51
M  V30 END BOND
M  V30 END CTAB
M  END
>  <i_epik_Tot_Q>  (1) 
0

>  <i_epik_Tot_abs_Q>  (1) 
0

>  <i_i_glide_confnum>  (1) 
730

>  <i_i_glide_lignum>  (1) 
39

>  <i_i_glide_posenum>  (1) 
96

>  <i_i_glide_rotatable_bonds>  (1) 
14

>  <i_lp_mmshare_version>  (1) 
72125

>  <i_m_source_file_index>  (1) 
18

>  <i_f3d_flags>  (1) 
0

>  <num_sample>  (1) 
100

>  <b_lp_Chiralities_Consistent>  (1) 
1

>  <r_epik_Charging_Adjusted_Penalty>  (1) 
0

>  <r_epik_Ionization_Penalty>  (1) 
0.00082092263498994861

>  <r_epik_Ionization_Penalty_Charging>  (1) 
0

>  <r_epik_Ionization_Penalty_Neutral>  (1) 
0.00082092263498994861

>  <r_epik_State_Penalty>  (1) 
-0

>  <r_glide_ring_energy>  (1) 
2.4013288792846437

>  <r_i_docking_score>  (1) 
-5.585434558053171

>  <r_i_glide_ecoul>  (1) 
-3.297090554942459

>  <r_i_glide_eff_state_penalty>  (1) 
-0

>  <r_i_glide_einternal>  (1) 
22.928434187963795

>  <r_i_glide_emodel>  (1) 
0.85362329270174087

>  <r_i_glide_emodel_strain>  (1) 
13.818582653785597

>  <r_i_glide_energy>  (1) 
-17.118152928627023

>  <r_i_glide_erotb>  (1) 
0.21750603727348183

>  <r_i_glide_esite>  (1) 
-0.10497116998643602

>  <r_i_glide_evdw>  (1) 
-13.821062373684564

>  <r_i_glide_gscore>  (1) 
-5.585434558053171

>  <r_i_glide_gscore_strain>  (1) 
2.4546456634463993

>  <r_i_glide_hbond>  (1) 
-0.3309979343902188

>  <r_i_glide_ligand_efficiency>  (1) 
-0.10538555769911644

>  <r_i_glide_ligand_efficiency_ln>  (1) 
-1.1237638865483504

>  <r_i_glide_ligand_efficiency_sa>  (1) 
-0.39585826908583394

>  <r_i_glide_lipo>  (1) 
-4.1157124372418794

>  <r_i_glide_metal>  (1) 
-0

>  <r_i_glide_rewards>  (1) 
-2.5202880152289215

>  <r_lp_Energy>  (1) 
36.857391

>  <r_lp_tautomer_probability>  (1) 
1

>  <s_epik_Chemistry_Notes>  (1) 
This compound contains an acetal/aminal-like group ( X-CH(R)-Y where X, Y are N, S, or O) that may be acid/base labile, releasing an aldehyde. This compound has a N-S or N-O group and may undergo hydrolysis at high or low pH.

>  <s_epik_cmdline>  (1) 
J2VwaWtfcHl0aG9uJywgJy1waHQnLCAnMS4wJywgJy1waCcsICc3LjQnLCAnLXRuJywgJzgnLCAnLW1hJywgJzUwMCcsICctaW1hZScsICc8aW5maWxlLm1hZT4nLCAnLW9tYWUnLCAnPG91dGZpbGUubWFlPic=

>  <s_epik_input>  (1) 
W0NAQEhdMTJbQ0BASF0oW0NIMl0yKU9bQ0BIXShbQ0gzXSlbQ0BIXShbQ0gzXSlbQ0gyXVtDSDJdW0NASF0xW0NASF0oW0NIMl1PW0NAQEhdM09bT0hdKVtDQEBIXShPMylbQ0BASF0oT1tDQEBdNChDKFtPSF0pPVtDSDJdKVtDSDJdW0NIXT1bQ0hdW0NIMl1bQ0BIXShbQ0BIXTQ1KVtDSF01W0NIM10pW0NIMl1bQ0gyXVtDSDJdTjZDKD1PKVtDQEBIXShbTkhdW09IXSlbQ0BASF0oW0NIMl02KVtDQEBIXShTQzc9TyluKGM3OCluW2NIXW44

>  <s_glide_docking_method>  (1) 
confgen

>  <s_i_glide_gridfile>  (1) 
gpcr_5ht2c_6bqh_protein_autoprepared_prepared

>  <s_lp_Force_Field>  (1) 
S-OPLS

>  <s_lp_Variant>  (1) 
DiffSBDD_17_num_sample_100-1

>  <s_m_source_file>  (1) 
generated__ligand_DiffSBDD_2026-05-06_prepared.sdf

>  <GenAI_Model>  (1) 
DiffSBDD

>  <Protein>  (1) 
GPCR_5HT2C

$$$$
DiffSBDD_57_num_sample_100
     RDKit          3D

  0  0  0  0  0  0  0  0  0  0999 V3000
M  V30 BEGIN CTAB
M  V30 COUNTS 38 40 0 0 1
M  V30 BEGIN ATOM
M  V30 1 C 38.403697 27.584707 56.701440 0
M  V30 2 C 38.780324 29.959809 56.361008 0
M  V30 3 N 38.705153 24.021461 57.453492 0
M  V30 4 O 39.153502 30.060089 60.619142 0
M  V30 5 C 39.867404 30.652266 53.042295 0
M  V30 6 C 39.242822 28.209678 52.213636 0
M  V30 7 C 37.354380 24.068780 56.918016 0 CFG=2
M  V30 8 C 38.908250 30.131400 59.397418 0
M  V30 9 N 38.186428 27.369518 55.379534 0
M  V30 10 C 38.689626 28.857720 57.249294 0
M  V30 11 C 38.255124 28.427649 54.551648 0
M  V30 12 C 38.679992 30.863198 53.995031 0
M  V30 13 C 38.565749 29.730555 54.986583 0
M  V30 14 C 38.304758 26.357397 57.589258 0 CFG=1
M  V30 15 C 39.722186 29.635816 51.878810 0
M  V30 16 C 37.983156 28.140742 53.082391 0
M  V30 17 Cl 37.428886 24.021410 55.137980 0
M  V30 18 S 36.671505 25.621430 57.441555 0
M  V30 19 N 38.897101 28.982022 58.683179 0
M  V30 20 C 39.341848 25.301040 57.207525 0
M  V30 21 O 38.667424 31.222887 58.846648 0 CHG=-1
M  V30 22 H 39.021642 30.946347 56.702697 0
M  V30 23 H 39.241033 23.279823 57.029467 0
M  V30 24 H 40.100108 31.613581 52.586022 0
M  V30 25 H 40.729427 30.409860 53.656184 0
M  V30 26 H 39.024876 27.717491 51.265160 0
M  V30 27 H 40.034210 27.609831 52.653713 0
M  V30 28 H 36.756219 23.224592 57.255646 0
M  V30 29 H 37.751641 30.972703 53.454000 0
M  V30 30 H 38.818094 31.798373 54.540595 0
M  V30 31 H 38.420849 26.580905 58.647410 0
M  V30 32 H 39.067424 30.050146 51.116258 0
M  V30 33 H 40.689148 29.556607 51.381677 0
M  V30 34 H 37.561368 27.137005 53.002358 0
M  V30 35 H 37.212129 28.813201 52.707386 0
M  V30 36 H 39.023887 28.125866 59.196243 0
M  V30 37 H 39.609894 25.359997 56.151672 0
M  V30 38 H 40.264597 25.408732 57.779168 0
M  V30 END ATOM
M  V30 BEGIN BOND
M  V30 1 1 7 3
M  V30 2 2 8 4
M  V30 3 1 9 1
M  V30 4 2 10 1
M  V30 5 1 10 2
M  V30 6 2 11 9
M  V30 7 1 12 5
M  V30 8 2 13 2
M  V30 9 1 13 11
M  V30 10 1 13 12
M  V30 11 1 14 1
M  V30 12 1 15 5
M  V30 13 1 15 6
M  V30 14 1 16 6
M  V30 15 1 16 11
M  V30 16 1 17 7
M  V30 17 1 18 7
M  V30 18 1 18 14
M  V30 19 1 19 8
M  V30 20 1 19 10
M  V30 21 1 20 3
M  V30 22 1 20 14
M  V30 23 1 21 8
M  V30 24 1 22 2
M  V30 25 1 23 3
M  V30 26 1 24 5
M  V30 27 1 25 5
M  V30 28 1 26 6
M  V30 29 1 27 6
M  V30 30 1 7 28 CFG=1
M  V30 31 1 29 12
M  V30 32 1 30 12
M  V30 33 1 14 31 CFG=1
M  V30 34 1 32 15
M  V30 35 1 33 15
M  V30 36 1 34 16
M  V30 37 1 35 16
M  V30 38 1 36 19
M  V30 39 1 37 20
M  V30 40 1 38 20
M  V30 END BOND
M  V30 END CTAB
M  END
>  <i_epik_Tot_Q>  (1) 
-1

>  <i_epik_Tot_abs_Q>  (1) 
1

>  <i_i_glide_confnum>  (1) 
10

>  <i_i_glide_lignum>  (1) 
146

>  <i_i_glide_posenum>  (1) 
384

>  <i_i_glide_rotatable_bonds>  (1) 
3

>  <i_lp_mmshare_version>  (1) 
72125

>  <i_m_source_file_index>  (1) 
58

>  <i_f3d_flags>  (1) 
0

>  <num_sample>  (1) 
100

>  <b_lp_Chiralities_Consistent>  (1) 
1

>  <r_epik_Charging_Adjusted_Penalty>  (1) 
0.030249611806120975

>  <r_epik_Ionization_Penalty>  (1) 
0.0034756844334769034

>  <r_epik_Ionization_Penalty_Charging>  (1) 
0.00037093854589671571

>  <r_epik_Ionization_Penalty_Neutral>  (1) 
0.0031047458875801876

>  <r_epik_State_Penalty>  (1) 
0.02987867326022426

>  <r_glide_ring_energy>  (1) 
0.0018678153634142304

>  <r_i_docking_score>  (1) 
-5.5798616506699839

>  <r_i_glide_ecoul>  (1) 
0.57233286023268315

>  <r_i_glide_eff_state_penalty>  (1) 
0.02987867326022426

>  <r_i_glide_einternal>  (1) 
2.7657392111942976

>  <r_i_glide_emodel>  (1) 
-34.579264322079311

>  <r_i_glide_emodel_strain>  (1) 
0.37713410766676247

>  <r_i_glide_energy>  (1) 
-27.520137946744374

>  <r_i_glide_erotb>  (1) 
0.35125710597842541

>  <r_i_glide_esite>  (1) 
0

>  <r_i_glide_evdw>  (1) 
-28.092470806977058

>  <r_i_glide_gscore>  (1) 
-5.6097403239302084

>  <r_i_glide_gscore_strain>  (1) 
0

>  <r_i_glide_hbond>  (1) 
0

>  <r_i_glide_ligand_efficiency>  (1) 
-0.26570769765095159

>  <r_i_glide_ligand_efficiency_ln>  (1) 
-1.3796095179560364

>  <r_i_glide_ligand_efficiency_sa>  (1) 
-0.73306739089977557

>  <r_i_glide_lipo>  (1) 
-3.5690865659850095

>  <r_i_glide_metal>  (1) 
-0

>  <r_i_glide_rewards>  (1) 
-1.0731372526096723

>  <r_lp_Energy>  (1) 
18.504829000000001

>  <s_epik_Chemistry_Notes>  (1) 
This compound contains an acetal/aminal-like group ( X-CH(R)-Y where X, Y are N, S, or O) that may be acid/base labile, releasing an aldehyde.

>  <s_epik_cmdline>  (1) 
J2VwaWtfcHl0aG9uJywgJy1waHQnLCAnMS4wJywgJy1waCcsICc3LjQnLCAnLXRuJywgJzgnLCAnLW1hJywgJzUwMCcsICctaW1hZScsICc8aW5maWxlLm1hZT4nLCAnLW9tYWUnLCAnPG91dGZpbGUubWFlPic=

>  <s_epik_input>  (1) 
Q2xbQ0BIXTFbTkhdW0NIMl1bQ0BIXShTMSljKG4yKWMoW05IXUMoPU8pW09IXSlbY0hdYyhjMjMpW0NIMl1bQ0gyXVtDSDJdW0NIMl1bQ0gyXTM=

>  <s_glide_docking_method>  (1) 
confgen

>  <s_i_glide_gridfile>  (1) 
gpcr_5ht2c_6bqh_protein_autoprepared_prepared

>  <s_lp_Force_Field>  (1) 
S-OPLS

>  <s_lp_Variant>  (1) 
DiffSBDD_57_num_sample_100-1

>  <s_m_source_file>  (1) 
generated__ligand_DiffSBDD_2026-05-06_prepared.sdf

>  <GenAI_Model>  (1) 
DiffSBDD

>  <Protein>  (1) 
GPCR_5HT2C

$$$$
DiffSBDD_44_num_sample_100
     RDKit          3D

  0  0  0  0  0  0  0  0  0  0999 V3000
M  V30 BEGIN CTAB
M  V30 COUNTS 58 59 0 0 1
M  V30 BEGIN ATOM
M  V30 1 C 37.712569 26.506377 54.742774 0
M  V30 2 O 40.661954 28.421343 56.879263 0 CHG=-1
M  V30 3 C 40.737714 32.605949 61.453613 0
M  V30 4 C 38.532452 26.009716 56.995966 0 CFG=1
M  V30 5 N 38.614472 27.473403 56.711534 0 CFG=2 CHG=1
M  V30 6 C 38.615737 32.908314 60.240966 0
M  V30 7 N 38.271493 30.083448 60.250868 0
M  V30 8 C 39.733490 32.047375 60.823705 0
M  V30 9 O 39.859205 29.944034 62.018284 0
M  V30 10 C 38.013885 25.349738 55.693819 0 CFG=1
M  V30 11 C 36.820838 24.410018 55.907177 0
M  V30 12 C 39.004580 29.742132 57.882620 0 CFG=1
M  V30 13 C 37.978214 29.755543 59.044214 0
M  V30 14 C 38.646885 27.604134 55.231500 0
M  V30 15 C 39.066650 30.421235 63.103190 0
M  V30 16 C 40.849498 35.029810 61.893706 0
M  V30 17 C 39.544110 28.306530 57.551577 0 CFG=2
M  V30 18 C 39.582606 30.519302 60.742709 0 CFG=1
M  V30 19 F 39.050688 36.421474 61.393729 0
M  V30 20 C 39.346380 35.126143 61.487157 0 CFG=1
M  V30 21 C 41.366940 33.606158 62.009419 0
M  V30 22 C 38.518195 30.569480 56.671727 0
M  V30 23 C 36.568042 29.344088 58.659154 0
M  V30 24 C 39.867406 25.363427 57.414134 0
M  V30 25 C 38.957177 34.420947 60.159830 0
M  V30 26 H 36.676350 26.821503 54.847081 0
M  V30 27 H 37.874553 26.249573 53.695027 0
M  V30 28 H 37.812843 25.876762 57.804795 0
M  V30 29 H 38.388914 32.568247 59.231234 0
M  V30 30 H 37.715097 32.762993 60.838514 0
M  V30 31 H 38.821887 24.771072 55.240807 0
M  V30 32 H 35.962924 24.944665 56.314274 0
M  V30 33 H 36.512504 23.950948 54.967326 0
M  V30 34 H 37.076677 23.610084 56.601400 0
M  V30 35 H 39.867365 30.315492 58.189687 0
M  V30 36 H 38.344019 28.583672 54.870892 0
M  V30 37 H 39.647227 27.404100 54.845561 0
M  V30 38 H 39.467533 30.021420 64.033292 0
M  V30 39 H 39.067821 31.501238 63.225232 0
M  V30 40 H 38.035042 30.105107 62.982725 0
M  V30 41 H 40.990086 35.520070 62.857540 0
M  V30 42 H 41.472763 35.567075 61.177573 0
M  V30 43 H 39.561832 27.820337 58.527708 0
M  V30 44 H 40.396736 30.121798 60.140030 0
M  V30 45 H 38.704982 34.743713 62.278199 0
M  V30 46 H 42.269956 33.456167 62.582559 0
M  V30 47 H 38.312562 31.600222 56.961591 0
M  V30 48 H 39.281255 30.603752 55.893768 0
M  V30 49 H 37.605058 30.179647 56.223862 0
M  V30 50 H 36.145468 30.021416 57.922773 0
M  V30 51 H 36.552980 28.339314 58.249617 0
M  V30 52 H 35.909623 29.364998 59.526947 0
M  V30 53 H 39.778008 24.277712 57.453172 0
M  V30 54 H 40.654805 25.607428 56.699315 0
M  V30 55 H 40.203643 25.691703 58.395464 0
M  V30 56 H 39.778469 34.533409 59.453537 0
M  V30 57 H 38.091490 34.927463 59.731579 0
M  V30 58 H 37.700117 27.816908 56.958771 0
M  V30 END ATOM
M  V30 BEGIN BOND
M  V30 1 1 5 4
M  V30 2 2 8 3
M  V30 3 1 8 6
M  V30 4 1 10 1
M  V30 5 1 10 4
M  V30 6 1 11 10
M  V30 7 2 13 7
M  V30 8 1 13 12
M  V30 9 1 14 1
M  V30 10 1 14 5
M  V30 11 1 15 9
M  V30 12 1 17 2
M  V30 13 1 17 5
M  V30 14 1 17 12
M  V30 15 1 18 7
M  V30 16 1 18 8
M  V30 17 1 18 9
M  V30 18 1 20 16
M  V30 19 1 20 19
M  V30 20 2 21 3
M  V30 21 1 21 16
M  V30 22 1 22 12
M  V30 23 1 23 13
M  V30 24 1 24 4
M  V30 25 1 25 6
M  V30 26 1 25 20
M  V30 27 1 26 1
M  V30 28 1 27 1
M  V30 29 1 4 28 CFG=1
M  V30 30 1 29 6
M  V30 31 1 30 6
M  V30 32 1 10 31 CFG=3
M  V30 33 1 32 11
M  V30 34 1 33 11
M  V30 35 1 34 11
M  V30 36 1 12 35 CFG=1
M  V30 37 1 36 14
M  V30 38 1 37 14
M  V30 39 1 38 15
M  V30 40 1 39 15
M  V30 41 1 40 15
M  V30 42 1 41 16
M  V30 43 1 42 16
M  V30 44 1 17 43 CFG=1
M  V30 45 1 18 44 CFG=3
M  V30 46 1 20 45 CFG=1
M  V30 47 1 46 21
M  V30 48 1 47 22
M  V30 49 1 48 22
M  V30 50 1 49 22
M  V30 51 1 50 23
M  V30 52 1 51 23
M  V30 53 1 52 23
M  V30 54 1 53 24
M  V30 55 1 54 24
M  V30 56 1 55 24
M  V30 57 1 56 25
M  V30 58 1 57 25
M  V30 59 1 5 58 CFG=1
M  V30 END BOND
M  V30 END CTAB
M  END
>  <i_epik_Tot_Q>  (1) 
0

>  <i_epik_Tot_abs_Q>  (1) 
2

>  <i_i_glide_confnum>  (1) 
34

>  <i_i_glide_lignum>  (1) 
115

>  <i_i_glide_posenum>  (1) 
387

>  <i_i_glide_rotatable_bonds>  (1) 
6

>  <i_lp_mmshare_version>  (1) 
72125

>  <i_m_source_file_index>  (1) 
45

>  <i_f3d_flags>  (1) 
0

>  <num_sample>  (1) 
100

>  <b_lp_Chiralities_Consistent>  (1) 
1

>  <r_epik_Charging_Adjusted_Penalty>  (1) 
0.41733257654759531

>  <r_epik_Ionization_Penalty>  (1) 
0.0069177268181324029

>  <r_epik_Ionization_Penalty_Charging>  (1) 
0.0066527375949913311

>  <r_epik_Ionization_Penalty_Neutral>  (1) 
0.00026498922314107146

>  <r_epik_State_Penalty>  (1) 
0.41067983895260396

>  <r_glide_ring_energy>  (1) 
0

>  <r_i_docking_score>  (1) 
-5.5737180202260079

>  <r_i_glide_ecoul>  (1) 
-0.67054770964104105

>  <r_i_glide_eff_state_penalty>  (1) 
0.41067983895260396

>  <r_i_glide_einternal>  (1) 
12.585493736163862

>  <r_i_glide_emodel>  (1) 
-35.595744251524962

>  <r_i_glide_emodel_strain>  (1) 
0.73301253153107382

>  <r_i_glide_energy>  (1) 
-29.276498812285961

>  <r_i_glide_erotb>  (1) 
0.61440649929112812

>  <r_i_glide_esite>  (1) 
-0.0043165091164091172

>  <r_i_glide_evdw>  (1) 
-28.605951102644919

>  <r_i_glide_gscore>  (1) 
-5.9843978591786122

>  <r_i_glide_gscore_strain>  (1) 
0

>  <r_i_glide_hbond>  (1) 
0

>  <r_i_glide_ligand_efficiency>  (1) 
-0.22294872080904032

>  <r_i_glide_ligand_efficiency_ln>  (1) 
-1.3211382016440678

>  <r_i_glide_ligand_efficiency_sa>  (1) 
-0.65190601435750184

>  <r_i_glide_lipo>  (1) 
-2.8877733150277818

>  <r_i_glide_metal>  (1) 
-0

>  <r_i_glide_rewards>  (1) 
-2.1758348227471473

>  <r_lp_Energy>  (1) 
18.158839

>  <r_lp_tautomer_probability>  (1) 
0.49999399997599986

>  <s_epik_Chemistry_Notes>  (1) 
This compound has an imine and may undergo hydrolysis. This compound contains an acetal/aminal-like group ( X-CH(R)-Y where X, Y are N, S, or O) that may be acid/base labile, releasing an aldehyde.

>  <s_epik_cmdline>  (1) 
J2VwaWtfcHl0aG9uJywgJy1waHQnLCAnMS4wJywgJy1waCcsICc3LjQnLCAnLXRuJywgJzgnLCAnLW1hJywgJzUwMCcsICctaW1hZScsICc8aW5maWxlLm1hZT4nLCAnLW9tYWUnLCAnPG91dGZpbGUubWFlPic=

>  <s_epik_input>  (1) 
W0NIM11bQ0BIXTFbQ0gyXVtDSDJdTihbQ0BASF0xW0NIM10pW0NAQEhdKFtPSF0pW0NAQEhdKFtDSDNdKS9DKFtDSDNdKT1OXFtDQEBIXShPW0NIM10pQzI9Qz1bQ0hdW0NIMl1bQ0BASF0oRilbQ0gyXVtDSDJdMg==

>  <s_glide_docking_method>  (1) 
confgen

>  <s_i_glide_gridfile>  (1) 
gpcr_5ht2c_6bqh_protein_autoprepared_prepared

>  <s_lp_Force_Field>  (1) 
S-OPLS

>  <s_lp_Variant>  (1) 
DiffSBDD_44_num_sample_100-8

>  <s_m_source_file>  (1) 
generated__ligand_DiffSBDD_2026-05-06_prepared.sdf

>  <GenAI_Model>  (1) 
DiffSBDD

>  <Protein>  (1) 
GPCR_5HT2C

$$$$
DiffSBDD_66_num_sample_100
     RDKit          3D

  0  0  0  0  0  0  0  0  0  0999 V3000
M  V30 BEGIN CTAB
M  V30 COUNTS 111 115 0 0 1
M  V30 BEGIN ATOM
M  V30 1 C 36.238792 33.729194 60.735291 0
M  V30 2 C 39.730018 30.421440 63.839240 0
M  V30 3 C 39.402239 26.111824 56.560420 0
M  V30 4 C 45.137670 27.686971 64.058631 0
M  V30 5 C 39.859900 37.502163 66.431909 0
M  V30 6 C 37.880760 36.986440 64.917041 0
M  V30 7 C 41.005804 27.615382 57.623143 0
M  V30 8 S 41.085797 27.737516 63.790848 0
M  V30 9 C 39.858316 29.854544 62.463949 0 CFG=1
M  V30 10 C 35.862711 32.322963 60.562937 0
M  V30 11 C 37.993504 32.838576 58.412226 0
M  V30 12 C 37.715182 31.643004 58.965008 0
M  V30 13 C 41.760337 35.649645 66.653649 0
M  V30 14 C 36.667216 35.594194 61.645048 0
M  V30 15 C 41.973321 30.779627 66.747899 0 CFG=2
M  V30 16 C 37.117395 34.024751 58.471735 0
M  V30 17 C 38.677581 30.503706 58.745247 0
M  V30 18 O 40.370332 34.631833 68.414491 0
M  V30 19 C 40.426667 28.874798 59.758631 0 CFG=1
M  V30 20 N 35.999940 34.381665 61.853602 0
M  V30 21 C 40.666861 26.720482 56.592172 0
M  V30 22 C 40.073535 27.898235 58.633826 0
M  V30 23 C 41.146396 36.994549 67.125484 0
M  V30 24 C 37.867958 36.731533 59.695712 0
M  V30 25 C 36.505297 31.408382 59.782478 0
M  V30 26 C 42.563867 29.371084 66.423760 0
M  V30 27 C 39.216510 36.518139 65.468826 0 CFG=1
M  V30 28 C 42.986232 31.941379 66.507030 0
M  V30 29 C 39.256527 29.868531 60.049463 0 CFG=1
M  V30 30 C 39.556874 30.792372 61.274520 0 CFG=2
M  V30 31 C 43.857284 26.777648 65.994145 0
M  V30 32 C 43.318840 32.738521 67.754200 0
M  V30 33 N 36.850003 34.435662 59.799752 0
M  V30 34 C 38.808962 27.276537 58.607629 0
M  V30 35 C 37.152482 35.657318 60.376724 0
M  V30 36 C 41.536428 30.681646 68.237495 0
M  V30 37 O 40.017364 36.344502 64.320828 0
M  V30 38 C 40.672361 31.069849 65.951469 0
M  V30 39 C 43.496165 29.188307 65.196510 0
M  V30 40 C 43.775366 27.715146 64.767868 0
M  V30 41 C 41.044345 28.879022 62.331865 0 CFG=2
M  V30 42 N 40.746597 30.834606 64.508888 0 CHG=1
M  V30 43 C 42.626659 33.811334 68.187648 0
M  V30 44 C 42.773140 27.121516 63.742813 0
M  V30 45 C 38.471425 26.390211 57.569624 0
M  V30 46 C 40.606466 31.890724 61.049871 0
M  V30 47 C 42.561213 35.563170 65.574893 0
M  V30 48 C 41.407916 34.410123 67.485081 0 CFG=2
M  V30 49 C 40.918616 28.087644 61.005967 0
M  V30 50 H 38.767573 30.421443 64.335171 0
M  V30 51 H 39.148278 25.427577 55.763293 0
M  V30 52 H 45.289842 28.562721 63.428587 0
M  V30 53 H 45.223639 26.822331 63.404658 0
M  V30 54 H 45.951765 27.634139 64.777530 0
M  V30 55 H 39.132319 37.729772 67.210149 0
M  V30 56 H 40.028497 38.453635 65.928979 0
M  V30 57 H 37.182678 37.221040 65.717140 0
M  V30 58 H 37.416501 36.259879 64.275142 0
M  V30 59 H 38.014242 37.834760 64.253454 0
M  V30 60 H 41.980692 28.078338 57.638536 0
M  V30 61 H 35.038536 31.981606 61.167784 0
M  V30 62 H 38.896454 32.953171 57.831693 0
M  V30 63 H 36.696967 36.345281 62.411767 0
M  V30 64 H 37.513969 34.821841 57.858352 0
M  V30 65 H 36.164489 33.781514 58.005423 0
M  V30 66 H 38.124692 29.764509 58.167559 0
M  V30 67 H 39.466994 30.819877 58.071997 0
M  V30 68 H 40.060010 35.514907 68.289037 0
M  V30 69 H 41.268595 29.472172 59.405701 0
M  V30 70 H 41.381939 26.493671 55.838241 0
M  V30 71 H 41.867384 37.791732 67.027399 0
M  V30 72 H 41.001826 36.987097 68.207497 0
M  V30 73 H 37.696070 37.694111 60.180776 0
M  V30 74 H 37.598309 36.829167 58.645175 0
M  V30 75 H 38.899615 36.421390 59.853465 0
M  V30 76 H 36.134015 30.394610 59.825527 0
M  V30 77 H 43.147327 29.047589 67.288179 0
M  V30 78 H 41.734799 28.666219 66.373361 0
M  V30 79 H 39.110436 35.621537 66.074165 0
M  V30 80 H 43.944012 31.584660 66.139867 0
M  V30 81 H 42.629062 32.590846 65.712988 0
M  V30 82 H 38.417186 29.271220 60.399039 0
M  V30 83 H 38.633687 31.310394 61.530887 0
M  V30 84 H 42.894742 26.655460 66.489797 0
M  V30 85 H 44.567562 27.146033 66.731644 0
M  V30 86 H 44.179010 25.779015 65.706681 0
M  V30 87 H 44.171906 32.396416 68.323512 0
M  V30 88 H 38.101924 27.486313 59.376790 0
M  V30 89 H 40.848699 29.850532 68.402080 0
M  V30 90 H 41.030706 31.583230 68.582325 0
M  V30 91 H 42.384435 30.510378 68.903297 0
M  V30 92 H 40.806838 36.856407 64.441834 0
M  V30 93 H 39.891574 30.401235 66.323079 0
M  V30 94 H 40.269330 32.065116 66.077295 0
M  V30 95 H 43.149611 29.760980 64.341244 0
M  V30 96 H 44.457189 29.629360 65.460845 0
M  V30 97 H 41.967910 29.448926 62.331226 0
M  V30 98 H 42.938773 34.299024 69.100867 0
M  V30 99 H 43.097378 27.258349 62.720252 0
M  V30 100 H 42.730522 26.038679 63.859969 0
M  V30 101 H 37.498341 25.923211 57.551453 0
M  V30 102 H 41.559793 31.493674 60.717515 0
M  V30 103 H 40.780133 32.458755 61.961376 0
M  V30 104 H 40.267115 32.601094 60.295456 0
M  V30 105 H 42.981513 34.619013 65.269259 0
M  V30 106 H 42.802909 36.421607 64.990397 0
M  V30 107 H 41.005448 33.721164 66.767685 0
M  V30 108 H 41.867772 27.623245 60.761736 0
M  V30 109 H 40.244434 27.257028 61.181112 0
M  V30 110 H 39.010948 29.173588 62.459600 0
M  V30 111 H 41.664924 30.846715 64.075574 0
M  V30 END ATOM
M  V30 BEGIN BOND
M  V30 1 1 9 2
M  V30 2 1 10 1
M  V30 3 2 12 11
M  V30 4 1 16 11
M  V30 5 1 17 12
M  V30 6 2 20 1
M  V30 7 1 20 14
M  V30 8 2 21 3
M  V30 9 1 21 7
M  V30 10 2 22 7
M  V30 11 1 22 19
M  V30 12 1 23 5
M  V30 13 1 23 13
M  V30 14 2 25 10
M  V30 15 1 25 12
M  V30 16 1 26 15
M  V30 17 1 27 5
M  V30 18 1 27 6
M  V30 19 1 15 28 CFG=1
M  V30 20 1 29 17
M  V30 21 1 29 19
M  V30 22 1 30 9
M  V30 23 1 30 29
M  V30 24 1 32 28
M  V30 25 1 33 1
M  V30 26 1 33 16
M  V30 27 1 34 22
M  V30 28 2 35 14
M  V30 29 1 35 24
M  V30 30 1 35 33
M  V30 31 1 36 15
M  V30 32 1 37 27
M  V30 33 1 38 15
M  V30 34 1 39 26
M  V30 35 1 40 4
M  V30 36 1 40 31
M  V30 37 1 40 39
M  V30 38 1 41 8
M  V30 39 1 41 9
M  V30 40 2 42 2
M  V30 41 1 42 38
M  V30 42 2 43 32
M  V30 43 1 44 8
M  V30 44 1 44 40
M  V30 45 1 45 3
M  V30 46 2 45 34
M  V30 47 1 46 30
M  V30 48 2 47 13
M  V30 49 1 48 13
M  V30 50 1 48 18
M  V30 51 1 48 43
M  V30 52 1 49 19
M  V30 53 1 49 41
M  V30 54 1 50 2
M  V30 55 1 51 3
M  V30 56 1 52 4
M  V30 57 1 53 4
M  V30 58 1 54 4
M  V30 59 1 55 5
M  V30 60 1 56 5
M  V30 61 1 57 6
M  V30 62 1 58 6
M  V30 63 1 59 6
M  V30 64 1 60 7
M  V30 65 1 61 10
M  V30 66 1 62 11
M  V30 67 1 63 14
M  V30 68 1 64 16
M  V30 69 1 65 16
M  V30 70 1 66 17
M  V30 71 1 67 17
M  V30 72 1 68 18
M  V30 73 1 19 69 CFG=3
M  V30 74 1 70 21
M  V30 75 1 71 23
M  V30 76 1 72 23
M  V30 77 1 73 24
M  V30 78 1 74 24
M  V30 79 1 75 24
M  V30 80 1 76 25
M  V30 81 1 77 26
M  V30 82 1 78 26
M  V30 83 1 27 79 CFG=1
M  V30 84 1 80 28
M  V30 85 1 81 28
M  V30 86 1 29 82 CFG=1
M  V30 87 1 30 83 CFG=1
M  V30 88 1 84 31
M  V30 89 1 85 31
M  V30 90 1 86 31
M  V30 91 1 87 32
M  V30 92 1 88 34
M  V30 93 1 89 36
M  V30 94 1 90 36
M  V30 95 1 91 36
M  V30 96 1 92 37
M  V30 97 1 93 38
M  V30 98 1 94 38
M  V30 99 1 95 39
M  V30 100 1 96 39
M  V30 101 1 41 97 CFG=3
M  V30 102 1 98 43
M  V30 103 1 99 44
M  V30 104 1 100 44
M  V30 105 1 101 45
M  V30 106 1 102 46
M  V30 107 1 103 46
M  V30 108 1 104 46
M  V30 109 1 105 47
M  V30 110 1 106 47
M  V30 111 1 48 107 CFG=3
M  V30 112 1 108 49
M  V30 113 1 109 49
M  V30 114 1 9 110 CFG=1
M  V30 115 1 111 42
M  V30 END BOND
M  V30 END CTAB
M  END
>  <i_epik_Tot_Q>  (1) 
1

>  <i_epik_Tot_abs_Q>  (1) 
1

>  <i_i_glide_confnum>  (1) 
734

>  <i_i_glide_lignum>  (1) 
171

>  <i_i_glide_posenum>  (1) 
325

>  <i_i_glide_rotatable_bonds>  (1) 
12

>  <i_lp_mmshare_version>  (1) 
72125

>  <i_m_source_file_index>  (1) 
67

>  <i_f3d_flags>  (1) 
0

>  <num_sample>  (1) 
100

>  <b_lp_Chiralities_Consistent>  (1) 
1

>  <r_epik_Charging_Adjusted_Penalty>  (1) 
1.5687136755604401

>  <r_epik_Ionization_Penalty>  (1) 
3.7043048325211916

>  <r_epik_Ionization_Penalty_Charging>  (1) 
0.78327048387713172

>  <r_epik_Ionization_Penalty_Neutral>  (1) 
2.92103434864406

>  <r_epik_State_Penalty>  (1) 
0.78544319168330834

>  <r_glide_ring_energy>  (1) 
0

>  <r_i_docking_score>  (1) 
-5.5638812492222671

>  <r_i_glide_ecoul>  (1) 
-4.4823920131232242

>  <r_i_glide_eff_state_penalty>  (1) 
0.78544319168330834

>  <r_i_glide_einternal>  (1) 
26.77230847879563

>  <r_i_glide_emodel>  (1) 
-33.150050220113286

>  <r_i_glide_emodel_strain>  (1) 
5.8735469796272923

>  <r_i_glide_energy>  (1) 
-27.18733247592683

>  <r_i_glide_erotb>  (1) 
0.28694684240539414

>  <r_i_glide_esite>  (1) 
-0.026148801088462736

>  <r_i_glide_evdw>  (1) 
-22.704940462803606

>  <r_i_glide_gscore>  (1) 
-6.3493244409055754

>  <r_i_glide_gscore_strain>  (1) 
0.46838674490682308

>  <r_i_glide_hbond>  (1) 
-0.32000000000000001

>  <r_i_glide_ligand_efficiency>  (1) 
-0.11354859692290341

>  <r_i_glide_ligand_efficiency_ln>  (1) 
-1.1373846360160063

>  <r_i_glide_ligand_efficiency_sa>  (1) 
-0.41550902908507731

>  <r_i_glide_lipo>  (1) 
-4.2316900887740925

>  <r_i_glide_metal>  (1) 
-0

>  <r_i_glide_rewards>  (1) 
-0.719213313246573

>  <r_lp_Energy>  (1) 
62.958435999999999

>  <s_epik_Chemistry_Notes>  (1) 
This compound has an imine and may undergo hydrolysis.

>  <s_epik_cmdline>  (1) 
J2VwaWtfcHl0aG9uJywgJy1waHQnLCAnMS4wJywgJy1waCcsICc3LjQnLCAnLXRuJywgJzgnLCAnLW1hJywgJzUwMCcsICctaW1hZScsICc8aW5maWxlLm1hZT4nLCAnLW9tYWUnLCAnPG91dGZpbGUubWFlPic=

>  <s_epik_input>  (1) 
bjFbY0hdYyhbQ0gzXSluKGMxMilbQ0gyXVtDSF09QyhbQ0hdPVtDSF0yKVtDSDJdW0NASF0oW0NAQEhdM1tDSDNdKVtDQEhdKGM0W2NIXVtjSF1bY0hdW2NIXVtjSF00KVtDSDJdW0NAQEhdKFtDQEhdMzUpU1tDSDJdQyhbQ0gzXSkoW0NIM10pW0NIMl1bQ0gyXVtDQF0oW0NIM10pKFtDSDJdXE49W0NIXVw1KVtDSDJdL1tDSF09W0NIXVxbQ0BASF0oW09IXSlDKD1bQ0gyXSlbQ0gyXVtDSDJdW0NAQEhdKFtDSDNdKVtPSF0=

>  <s_glide_docking_method>  (1) 
confgen

>  <s_i_glide_gridfile>  (1) 
gpcr_5ht2c_6bqh_protein_autoprepared_prepared

>  <s_lp_Force_Field>  (1) 
S-OPLS

>  <s_lp_Variant>  (1) 
DiffSBDD_66_num_sample_100-8

>  <s_m_source_file>  (1) 
generated__ligand_DiffSBDD_2026-05-06_prepared.sdf

>  <GenAI_Model>  (1) 
DiffSBDD

>  <Protein>  (1) 
GPCR_5HT2C

$$$$
DiffSBDD_18_num_sample_100
     RDKit          3D

  0  0  0  0  0  0  0  0  0  0999 V3000
M  V30 BEGIN CTAB
M  V30 COUNTS 71 73 0 0 1
M  V30 BEGIN ATOM
M  V30 1 O 38.359603 31.362686 59.401585 0
M  V30 2 C 45.064123 28.103024 66.877212 0
M  V30 3 C 40.351673 31.275995 64.612730 0
M  V30 4 C 45.340339 26.832797 67.139553 0
M  V30 5 O 39.154590 32.103285 62.206551 0
M  V30 6 C 43.191078 29.695831 66.910284 0 CFG=2
M  V30 7 C 38.430888 27.629459 53.952795 0
M  V30 8 N 43.810999 28.354949 67.047750 0 CHG=1
M  V30 9 N 42.874653 30.187683 68.250369 0
M  V30 10 C 39.237173 30.015317 57.613024 0
M  V30 11 C 40.132327 27.031530 55.642127 0
M  V30 12 O 38.670693 27.547307 52.748494 0
M  V30 13 O 44.033320 24.987244 67.850185 0
M  V30 14 C 37.092362 24.757934 54.995551 0
M  V30 15 C 42.831716 31.091496 64.132550 0
M  V30 16 C 44.219021 26.263744 67.489407 0
M  V30 17 C 38.338904 25.312679 57.108983 0
M  V30 18 C 40.199624 28.141390 56.394119 0
M  V30 19 C 39.473292 30.921554 62.334084 0
M  V30 20 N 37.693874 28.618607 54.557735 0
M  V30 21 C 41.749992 31.017960 65.231482 0 CFG=2
M  V30 22 C 38.221240 31.087196 58.007193 0 CFG=2
M  V30 23 C 41.877630 29.724551 66.092555 0 CFG=2
M  V30 24 C 40.844734 29.622566 67.229976 0
M  V30 25 O 37.867406 25.805307 58.155168 0 CHG=-1
M  V30 26 C 42.932400 27.132804 67.507561 0
M  V30 27 C 37.882758 29.222076 55.681287 0
M  V30 28 C 39.222375 29.923575 61.196376 0
M  V30 29 C 38.025110 30.287992 60.285472 0
M  V30 30 C 38.462464 32.405866 57.261946 0
M  V30 31 C 39.119490 29.131531 56.588862 0
M  V30 32 C 38.927542 26.562534 54.900258 0 CFG=1
M  V30 33 C 37.816204 25.874889 55.773473 0 CFG=1
M  V30 34 N 40.050120 30.434987 63.449685 0
M  V30 35 N 41.469120 30.165795 68.431807 0
M  V30 36 O 39.201204 24.413730 57.051804 0
M  V30 37 H 45.763512 28.873451 66.565703 0
M  V30 38 H 39.553686 31.155624 65.340346 0
M  V30 39 H 40.317864 32.332827 64.340961 0
M  V30 40 H 46.329510 26.403114 67.067562 0
M  V30 41 H 43.955757 30.344931 66.486383 0
M  V30 42 H 43.328217 29.621724 68.966033 0
M  V30 43 H 40.112019 29.957749 58.240804 0
M  V30 44 H 40.995352 26.383382 55.592173 0
M  V30 45 H 42.203380 26.882872 66.735536 0
M  V30 46 H 36.261231 24.345666 55.569995 0
M  V30 47 H 36.695936 25.131313 54.051510 0
M  V30 48 H 37.775387 23.940719 54.758700 0
M  V30 49 H 42.838477 30.192356 63.515472 0
M  V30 50 H 42.662283 31.941650 63.470365 0
M  V30 51 H 43.830785 31.216586 64.546347 0
M  V30 52 H 41.128958 28.319004 56.915732 0
M  V30 53 H 41.926411 31.857200 65.907264 0
M  V30 54 H 37.189949 30.766278 57.870444 0
M  V30 55 H 41.804725 28.860696 65.430334 0
M  V30 56 H 40.611793 28.574937 67.421965 0
M  V30 57 H 39.890964 30.112995 67.054228 0
M  V30 58 H 42.512658 27.319682 68.496280 0
M  V30 59 H 37.122307 29.908658 56.046451 0
M  V30 60 H 40.129718 29.835518 60.600150 0
M  V30 61 H 39.064378 28.938090 61.636081 0
M  V30 62 H 37.703464 29.399096 59.739779 0
M  V30 63 H 37.164494 30.583668 60.887165 0
M  V30 64 H 38.335074 32.277777 56.186881 0
M  V30 65 H 37.746033 33.161257 57.586502 0
M  V30 66 H 39.464920 32.798029 57.440023 0
M  V30 67 H 39.326110 25.777319 54.254481 0
M  V30 68 H 37.066240 26.607315 56.052778 0
M  V30 69 H 40.275882 29.451630 63.502407 0
M  V30 70 H 41.222395 29.615060 69.252942 0
M  V30 71 H 44.871676 24.551837 67.820748 0
M  V30 END ATOM
M  V30 BEGIN BOND
M  V30 1 1 4 2
M  V30 2 2 8 2
M  V30 3 1 8 6
M  V30 4 1 9 6
M  V30 5 2 12 7
M  V30 6 2 16 4
M  V30 7 1 16 13
M  V30 8 2 18 11
M  V30 9 2 19 5
M  V30 10 1 20 7
M  V30 11 1 21 3
M  V30 12 1 21 15
M  V30 13 1 22 1
M  V30 14 1 22 10
M  V30 15 1 23 6
M  V30 16 1 23 21
M  V30 17 1 24 23
M  V30 18 1 25 17
M  V30 19 1 26 8
M  V30 20 1 26 16
M  V30 21 2 27 20
M  V30 22 1 28 19
M  V30 23 1 29 1
M  V30 24 1 29 28
M  V30 25 1 30 22
M  V30 26 2 31 10
M  V30 27 1 31 18
M  V30 28 1 31 27
M  V30 29 1 32 7
M  V30 30 1 32 11
M  V30 31 1 33 14
M  V30 32 1 33 17
M  V30 33 1 33 32
M  V30 34 1 34 3
M  V30 35 1 34 19
M  V30 36 1 35 9
M  V30 37 1 35 24
M  V30 38 2 36 17
M  V30 39 1 37 2
M  V30 40 1 38 3
M  V30 41 1 39 3
M  V30 42 1 40 4
M  V30 43 1 6 41 CFG=3
M  V30 44 1 42 9
M  V30 45 1 43 10
M  V30 46 1 44 11
M  V30 47 1 45 26
M  V30 48 1 46 14
M  V30 49 1 47 14
M  V30 50 1 48 14
M  V30 51 1 49 15
M  V30 52 1 50 15
M  V30 53 1 51 15
M  V30 54 1 52 18
M  V30 55 1 21 53 CFG=1
M  V30 56 1 22 54 CFG=1
M  V30 57 1 23 55 CFG=3
M  V30 58 1 56 24
M  V30 59 1 57 24
M  V30 60 1 58 26
M  V30 61 1 59 27
M  V30 62 1 60 28
M  V30 63 1 61 28
M  V30 64 1 62 29
M  V30 65 1 63 29
M  V30 66 1 64 30
M  V30 67 1 65 30
M  V30 68 1 66 30
M  V30 69 1 32 67 CFG=3
M  V30 70 1 33 68 CFG=1
M  V30 71 1 69 34
M  V30 72 1 70 35
M  V30 73 1 71 13
M  V30 END BOND
M  V30 END CTAB
M  END
>  <i_epik_Tot_Q>  (1) 
0

>  <i_epik_Tot_abs_Q>  (1) 
2

>  <i_i_glide_confnum>  (1) 
1469

>  <i_i_glide_lignum>  (1) 
46

>  <i_i_glide_posenum>  (1) 
208

>  <i_i_glide_rotatable_bonds>  (1) 
13

>  <i_lp_mmshare_version>  (1) 
72125

>  <i_m_source_file_index>  (1) 
19

>  <i_f3d_flags>  (1) 
0

>  <num_sample>  (1) 
100

>  <b_lp_Chiralities_Consistent>  (1) 
1

>  <r_epik_Charging_Adjusted_Penalty>  (1) 
0.76693695219889413

>  <r_epik_Ionization_Penalty>  (1) 
0.76778133156762796

>  <r_epik_Ionization_Penalty_Charging>  (1) 
0.00011398914501928687

>  <r_epik_Ionization_Penalty_Neutral>  (1) 
0.7676673424226087

>  <r_epik_State_Penalty>  (1) 
0.76682296305387487

>  <r_glide_ring_energy>  (1) 
1.7561163794185886

>  <r_i_docking_score>  (1) 
-5.5631536499430982

>  <r_i_glide_ecoul>  (1) 
-7.5120592415414142

>  <r_i_glide_eff_state_penalty>  (1) 
0.76682296305387487

>  <r_i_glide_einternal>  (1) 
8.874422570008571

>  <r_i_glide_emodel>  (1) 
-67.097864995333424

>  <r_i_glide_emodel_strain>  (1) 
2.53044886949084

>  <r_i_glide_energy>  (1) 
-52.797900518537396

>  <r_i_glide_erotb>  (1) 
0.89312676016186854

>  <r_i_glide_esite>  (1) 
-0.031294206766772539

>  <r_i_glide_evdw>  (1) 
-45.285841276995981

>  <r_i_glide_gscore>  (1) 
-6.3299766129969735

>  <r_i_glide_gscore_strain>  (1) 
0

>  <r_i_glide_hbond>  (1) 
0

>  <r_i_glide_ligand_efficiency>  (1) 
-0.15453204583175273

>  <r_i_glide_ligand_efficiency_ln>  (1) 
-1.2137298273751573

>  <r_i_glide_ligand_efficiency_sa>  (1) 
-0.51025357295929774

>  <r_i_glide_lipo>  (1) 
-2.2724164562544953

>  <r_i_glide_metal>  (1) 
-0

>  <r_i_glide_rewards>  (1) 
-1.5282917600565624

>  <r_lp_Energy>  (1) 
32.160671999999998

>  <r_lp_tautomer_probability>  (1) 
0.99929914239148299

>  <s_epik_Chemistry_Notes>  (1) 
This compound has an imine and may undergo hydrolysis. This compound contains an acetal/aminal-like group ( X-CH(R)-Y where X, Y are N, S, or O) that may be acid/base labile, releasing an aldehyde.

>  <s_epik_cmdline>  (1) 
J2VwaWtfcHl0aG9uJywgJy1waHQnLCAnMS4wJywgJy1waCcsICc3LjQnLCAnLXRuJywgJzgnLCAnLW1hJywgJzUwMCcsICctaW1hZScsICc8aW5maWxlLm1hZT4nLCAnLW9tYWUnLCAnPG91dGZpbGUubWFlPic=

>  <s_epik_input>  (1) 
W09IXUMoPU8pW0NASF0oW0NIM10pW0NAQEhdMVtDSF09W0NIXVxDKFtDSF09TkMxPU8pPVtDSF1cW0NASF0oW0NIM10pT1tDSDJdW0NIMl1DKD1PKVtOSF1bQ0gyXVtDQEhdKFtDSDNdKVtDQEBIXTJbQ0gyXVtOSF1bTkhdW0NASF0ybjNbY0hdW2NIXWMoW09IXSlbY0hdMw==

>  <s_glide_docking_method>  (1) 
confgen

>  <s_i_glide_gridfile>  (1) 
gpcr_5ht2c_6bqh_protein_autoprepared_prepared

>  <s_lp_Force_Field>  (1) 
S-OPLS

>  <s_lp_Variant>  (1) 
DiffSBDD_18_num_sample_100-6

>  <s_m_source_file>  (1) 
generated__ligand_DiffSBDD_2026-05-06_prepared.sdf

>  <GenAI_Model>  (1) 
DiffSBDD

>  <Protein>  (1) 
GPCR_5HT2C

$$$$
DiffSBDD_46_num_sample_100
     RDKit          3D

  0  0  0  0  0  0  0  0  0  0999 V3000
M  V30 BEGIN CTAB
M  V30 COUNTS 67 70 0 0 1
M  V30 BEGIN ATOM
M  V30 1 N 39.479415 33.601948 61.395751 0 CHG=-1
M  V30 2 N 38.274126 29.342537 57.060247 0
M  V30 3 C 35.912229 33.756229 58.737264 0
M  V30 4 C 43.132882 26.206188 66.406512 0
M  V30 5 C 37.894552 32.062159 58.107985 0
M  V30 6 O 42.267477 32.421826 62.035644 0
M  V30 7 O 41.867383 35.433721 63.535605 0
M  V30 8 C 42.829836 28.290357 65.205710 0
M  V30 9 N 43.461704 27.166156 65.730495 0
M  V30 10 F 44.870087 28.942734 64.116853 0
M  V30 11 C 37.327225 33.474106 58.257093 0 CFG=2
M  V30 12 N 40.812727 31.641245 63.654277 0
M  V30 13 C 38.628852 31.799292 56.769528 0 CFG=2
M  V30 14 C 42.920176 30.303371 63.853502 0
M  V30 15 C 41.137352 35.088779 62.372330 0
M  V30 16 C 38.967980 30.365128 54.153656 0
M  V30 17 C 39.800253 25.456628 57.707785 0
M  V30 18 C 38.791694 28.051620 57.296067 0
M  V30 19 C 43.562195 29.176605 64.386712 0
M  V30 20 C 38.327288 32.917458 61.502829 0
M  V30 21 C 40.907459 29.579407 64.991926 0
M  V30 22 C 41.555346 30.510466 64.158385 0
M  V30 23 N 41.519440 28.488445 65.509023 0
M  V30 24 C 39.904245 30.087499 55.326116 0
M  V30 25 C 40.667408 26.561476 57.751532 0
M  V30 26 C 40.355623 33.765363 62.545259 0 CFG=2
M  V30 27 C 37.789358 32.092430 55.518695 0
M  V30 28 C 40.173340 27.850368 57.546789 0
M  V30 29 C 37.167544 32.956054 60.775386 0
M  V30 30 C 38.428778 25.645793 57.477968 0
M  V30 31 C 38.566032 31.828393 54.248834 0
M  V30 32 C 41.279201 32.546413 62.758522 0
M  V30 33 C 37.923680 26.940527 57.276671 0
M  V30 34 O 42.950849 25.221605 67.024779 0
M  V30 35 C 39.244930 30.381209 56.707149 0 CFG=2
M  V30 36 N 37.039826 33.887612 59.629277 0 CFG=2 CHG=1
M  V30 37 H 37.321240 29.442002 56.736846 0
M  V30 38 H 35.260212 32.943052 59.053477 0
M  V30 39 H 35.459244 34.733957 58.590653 0
M  V30 40 H 38.619385 31.878495 58.900547 0
M  V30 41 H 37.081290 31.349981 58.253643 0
M  V30 42 H 41.272844 35.793363 64.177003 0
M  V30 43 H 37.867403 34.274263 57.758855 0
M  V30 44 H 39.871181 31.758954 63.996612 0
M  V30 45 H 39.465754 32.499297 56.738035 0
M  V30 46 H 43.467402 30.981639 63.235722 0
M  V30 47 H 40.454993 35.911313 62.152774 0
M  V30 48 H 41.820146 35.025782 61.523608 0
M  V30 49 H 38.093911 29.713097 54.183722 0
M  V30 50 H 39.479261 30.174885 53.209786 0
M  V30 51 H 40.187299 24.461898 57.853536 0
M  V30 52 H 38.322305 32.185530 62.339621 0
M  V30 53 H 39.867436 29.709005 65.249215 0
M  V30 54 H 40.269613 29.066508 55.248438 0
M  V30 55 H 40.773175 30.726714 55.189523 0
M  V30 56 H 41.721302 26.421229 57.935656 0
M  V30 57 H 39.765424 33.882152 63.453416 0
M  V30 58 H 36.907947 31.459047 55.453506 0
M  V30 59 H 37.467451 33.132179 55.525395 0
M  V30 60 H 40.857200 28.678484 57.576086 0
M  V30 61 H 36.299760 32.343220 60.968065 0
M  V30 62 H 37.762435 24.796070 57.453002 0
M  V30 63 H 37.962381 32.146270 53.416776 0
M  V30 64 H 39.467390 32.421479 54.253505 0
M  V30 65 H 36.874602 27.078629 57.099259 0
M  V30 66 H 40.006525 30.419030 57.477016 0
M  V30 67 H 37.337851 34.834868 59.814302 0
M  V30 END ATOM
M  V30 BEGIN BOND
M  V30 1 2 9 4
M  V30 2 1 9 8
M  V30 3 1 11 3
M  V30 4 1 11 5
M  V30 5 1 13 5
M  V30 6 1 15 7
M  V30 7 1 18 2
M  V30 8 2 19 8
M  V30 9 1 19 10
M  V30 10 1 19 14
M  V30 11 1 20 1
M  V30 12 1 22 12
M  V30 13 2 22 14
M  V30 14 1 22 21
M  V30 15 1 23 8
M  V30 16 2 23 21
M  V30 17 1 24 16
M  V30 18 2 25 17
M  V30 19 1 26 1
M  V30 20 1 26 15
M  V30 21 1 27 13
M  V30 22 2 28 18
M  V30 23 1 28 25
M  V30 24 2 29 20
M  V30 25 1 30 17
M  V30 26 1 31 16
M  V30 27 1 31 27
M  V30 28 2 32 6
M  V30 29 1 32 12
M  V30 30 1 32 26
M  V30 31 1 33 18
M  V30 32 2 33 30
M  V30 33 2 34 4
M  V30 34 1 35 2
M  V30 35 1 35 13
M  V30 36 1 35 24
M  V30 37 1 36 3
M  V30 38 1 36 11
M  V30 39 1 36 29
M  V30 40 1 37 2
M  V30 41 1 38 3
M  V30 42 1 39 3
M  V30 43 1 40 5
M  V30 44 1 41 5
M  V30 45 1 42 7
M  V30 46 1 11 43 CFG=3
M  V30 47 1 44 12
M  V30 48 1 13 45 CFG=3
M  V30 49 1 46 14
M  V30 50 1 47 15
M  V30 51 1 48 15
M  V30 52 1 49 16
M  V30 53 1 50 16
M  V30 54 1 51 17
M  V30 55 1 52 20
M  V30 56 1 53 21
M  V30 57 1 54 24
M  V30 58 1 55 24
M  V30 59 1 56 25
M  V30 60 1 26 57 CFG=1
M  V30 61 1 58 27
M  V30 62 1 59 27
M  V30 63 1 60 28
M  V30 64 1 61 29
M  V30 65 1 62 30
M  V30 66 1 63 31
M  V30 67 1 64 31
M  V30 68 1 65 33
M  V30 69 1 35 66 CFG=1
M  V30 70 1 36 67 CFG=1
M  V30 END BOND
M  V30 END CTAB
M  END
>  <i_epik_Tot_Q>  (1) 
0

>  <i_epik_Tot_abs_Q>  (1) 
2

>  <i_i_glide_confnum>  (1) 
178

>  <i_i_glide_lignum>  (1) 
125

>  <i_i_glide_posenum>  (1) 
113

>  <i_i_glide_rotatable_bonds>  (1) 
13

>  <i_lp_mmshare_version>  (1) 
72125

>  <i_m_source_file_index>  (1) 
47

>  <i_f3d_flags>  (1) 
0

>  <num_sample>  (1) 
100

>  <b_lp_Chiralities_Consistent>  (1) 
1

>  <r_epik_Charging_Adjusted_Penalty>  (1) 
0.33342598172051213

>  <r_epik_Ionization_Penalty>  (1) 
0.027696632267336825

>  <r_epik_Ionization_Penalty_Charging>  (1) 
0.022930597766060493

>  <r_epik_Ionization_Penalty_Neutral>  (1) 
0.0047660345012763301

>  <r_epik_State_Penalty>  (1) 
0.31049538395445164

>  <r_glide_ring_energy>  (1) 
0.011219957445994763

>  <r_i_docking_score>  (1) 
-5.5548652678677204

>  <r_i_glide_ecoul>  (1) 
-2.6774139681685356

>  <r_i_glide_eff_state_penalty>  (1) 
0.31049538395445164

>  <r_i_glide_einternal>  (1) 
3.173090870288604

>  <r_i_glide_emodel>  (1) 
-63.88102138648857

>  <r_i_glide_emodel_strain>  (1) 
0.13345122167645229

>  <r_i_glide_energy>  (1) 
-45.906129197609538

>  <r_i_glide_erotb>  (1) 
0.99979395072351473

>  <r_i_glide_esite>  (1) 
-0.045247716365324923

>  <r_i_glide_evdw>  (1) 
-43.228715229441001

>  <r_i_glide_gscore>  (1) 
-5.8653606518221721

>  <r_i_glide_gscore_strain>  (1) 
0

>  <r_i_glide_hbond>  (1) 
0

>  <r_i_glide_ligand_efficiency>  (1) 
-0.15430181299632556

>  <r_i_glide_ligand_efficiency_ln>  (1) 
-1.2119215263325156

>  <r_i_glide_ligand_efficiency_sa>  (1) 
-0.50949336088641051

>  <r_i_glide_lipo>  (1) 
-2.9703048153814007

>  <r_i_glide_metal>  (1) 
-0

>  <r_i_glide_rewards>  (1) 
-1.28655421410163

>  <r_lp_Energy>  (1) 
58.099483999999997

>  <s_epik_Chemistry_Notes>  (1) 
This compound has an imine and may undergo hydrolysis.

>  <s_epik_cmdline>  (1) 
J2VwaWtfcHl0aG9uJywgJy1waHQnLCAnMS4wJywgJy1waCcsICc3LjQnLCAnLXRuJywgJzgnLCAnLW1hJywgJzUwMCcsICctaW1hZScsICc8aW5maWxlLm1hZT4nLCAnLW9tYWUnLCAnPG91dGZpbGUubWFlPic=

>  <s_epik_input>  (1) 
Tz1DPU5jMWMoRilbY0hdYyhbY0hdbjEpW05IXUMoPU8pW0NAQEhdKFtDSDJdW09IXSkvTj1bQ0hdL1tDSDJdTjJbQ0gyXVtDQEBIXTJbQ0gyXVtDQEBIXTNbQ0gyXVtDSDJdW0NIMl1bQ0gyXVtDQEBIXTNbTkhdYzRbY0hdW2NIXVtjSF1bY0hdW2NIXTQ=

>  <s_glide_docking_method>  (1) 
confgen

>  <s_i_glide_gridfile>  (1) 
gpcr_5ht2c_6bqh_protein_autoprepared_prepared

>  <s_lp_Force_Field>  (1) 
S-OPLS

>  <s_lp_Variant>  (1) 
DiffSBDD_46_num_sample_100-1

>  <s_m_source_file>  (1) 
generated__ligand_DiffSBDD_2026-05-06_prepared.sdf

>  <GenAI_Model>  (1) 
DiffSBDD

>  <Protein>  (1) 
GPCR_5HT2C

$$$$
DiffSBDD_18_num_sample_100
     RDKit          3D

  0  0  0  0  0  0  0  0  0  0999 V3000
M  V30 BEGIN CTAB
M  V30 COUNTS 71 73 0 0 1
M  V30 BEGIN ATOM
M  V30 1 O 39.925743 33.477150 61.053964 0
M  V30 2 C 38.331114 27.739912 53.617321 0
M  V30 3 C 37.615422 29.431313 58.612661 0
M  V30 4 C 38.832090 27.638684 52.392677 0
M  V30 5 O 38.276029 30.682588 61.057911 0
M  V30 6 C 38.162828 29.326822 55.485809 0 CFG=2
M  V30 7 C 43.066617 30.677468 64.754089 0
M  V30 8 N 38.632013 28.872253 54.155928 0 CHG=1
M  V30 9 N 37.460813 30.583354 55.299245 0
M  V30 10 C 40.802514 34.090706 63.300865 0
M  V30 11 C 41.514407 31.930919 66.243560 0
M  V30 12 O 44.251420 30.537349 65.055982 0
M  V30 13 O 40.123681 29.084637 51.031661 0
M  V30 14 C 39.897778 29.497977 66.789744 0
M  V30 15 C 40.136242 29.019032 58.892130 0
M  V30 16 C 39.466401 28.752759 52.149243 0
M  V30 17 C 41.358387 28.159153 65.203757 0
M  V30 18 C 41.198407 32.963494 65.434069 0
M  V30 19 C 37.855333 31.371116 60.130625 0
M  V30 20 N 42.580659 30.884280 63.497324 0
M  V30 21 C 38.939126 28.976187 57.925729 0 CFG=2
M  V30 22 C 40.830861 34.305836 61.789185 0 CFG=2
M  V30 23 C 39.263011 29.587327 56.524976 0 CFG=2
M  V30 24 C 39.407368 31.114723 56.472210 0
M  V30 25 O 41.475280 27.887634 63.988076 0 CHG=-1
M  V30 26 C 39.492204 29.840387 53.262258 0
M  V30 27 C 41.862384 31.864711 63.099241 0
M  V30 28 C 37.687081 32.884455 60.306597 0
M  V30 29 C 38.551696 33.495716 61.432891 0
M  V30 30 C 40.639770 35.787326 61.431192 0
M  V30 31 C 41.278392 32.997526 63.950443 0
M  V30 32 C 41.996853 30.585290 65.809492 0 CFG=1
M  V30 33 C 40.836457 29.570987 65.563623 0 CFG=2
M  V30 34 N 37.517816 30.860400 58.930008 0
M  V30 35 N 38.251840 31.655441 55.776792 0
M  V30 36 O 41.627978 27.389738 66.153344 0
M  V30 37 H 37.734672 27.002125 54.142429 0
M  V30 38 H 36.767989 29.192228 57.969770 0
M  V30 39 H 37.466122 28.836943 59.515288 0
M  V30 40 H 38.705125 26.773228 51.756706 0
M  V30 41 H 37.467305 28.571856 55.842729 0
M  V30 42 H 37.182356 30.738363 54.333636 0
M  V30 43 H 40.380015 34.898929 63.880327 0
M  V30 44 H 41.396085 32.058741 67.308808 0
M  V30 45 H 40.460203 30.022325 53.729363 0
M  V30 46 H 39.067324 28.821397 66.616418 0
M  V30 47 H 40.422986 29.156663 67.682635 0
M  V30 48 H 39.461895 30.467795 67.018608 0
M  V30 49 H 40.317222 30.018519 59.276320 0
M  V30 50 H 39.951463 28.386039 59.761169 0
M  V30 51 H 41.053216 28.660405 58.422212 0
M  V30 52 H 40.842044 33.860967 65.919809 0
M  V30 53 H 38.796344 27.911599 57.733522 0
M  V30 54 H 41.836516 34.056882 61.452960 0
M  V30 55 H 40.193923 29.133042 56.182897 0
M  V30 56 H 40.282041 31.398718 55.893460 0
M  V30 57 H 39.477192 31.579285 57.452466 0
M  V30 58 H 38.939979 30.753040 53.049804 0
M  V30 59 H 41.640421 31.962596 62.036387 0
M  V30 60 H 37.897458 33.389280 59.363370 0
M  V30 61 H 36.634942 33.062554 60.530168 0
M  V30 62 H 38.213599 34.516095 61.610192 0
M  V30 63 H 38.415658 32.953402 62.370214 0
M  V30 64 H 41.437980 36.396321 61.857106 0
M  V30 65 H 40.660853 35.926226 60.352184 0
M  V30 66 H 39.694330 36.184098 61.800808 0
M  V30 67 H 42.526020 30.210693 66.687382 0
M  V30 68 H 40.236674 29.911086 64.718094 0
M  V30 69 H 37.159807 31.479953 58.209876 0
M  V30 70 H 38.522914 32.268610 55.009754 0
M  V30 71 H 40.051986 28.361197 50.427489 0
M  V30 END ATOM
M  V30 BEGIN BOND
M  V30 1 1 4 2
M  V30 2 2 8 2
M  V30 3 1 8 6
M  V30 4 1 9 6
M  V30 5 2 12 7
M  V30 6 2 16 4
M  V30 7 1 16 13
M  V30 8 2 18 11
M  V30 9 2 19 5
M  V30 10 1 20 7
M  V30 11 1 21 3
M  V30 12 1 21 15
M  V30 13 1 22 1
M  V30 14 1 22 10
M  V30 15 1 23 6
M  V30 16 1 23 21
M  V30 17 1 24 23
M  V30 18 1 25 17
M  V30 19 1 26 8
M  V30 20 1 26 16
M  V30 21 2 27 20
M  V30 22 1 28 19
M  V30 23 1 29 1
M  V30 24 1 29 28
M  V30 25 1 30 22
M  V30 26 2 31 10
M  V30 27 1 31 18
M  V30 28 1 31 27
M  V30 29 1 32 7
M  V30 30 1 32 11
M  V30 31 1 33 14
M  V30 32 1 33 17
M  V30 33 1 33 32
M  V30 34 1 34 3
M  V30 35 1 34 19
M  V30 36 1 35 9
M  V30 37 1 35 24
M  V30 38 2 36 17
M  V30 39 1 37 2
M  V30 40 1 38 3
M  V30 41 1 39 3
M  V30 42 1 40 4
M  V30 43 1 6 41 CFG=1
M  V30 44 1 42 9
M  V30 45 1 43 10
M  V30 46 1 44 11
M  V30 47 1 45 26
M  V30 48 1 46 14
M  V30 49 1 47 14
M  V30 50 1 48 14
M  V30 51 1 49 15
M  V30 52 1 50 15
M  V30 53 1 51 15
M  V30 54 1 52 18
M  V30 55 1 21 53 CFG=3
M  V30 56 1 22 54 CFG=3
M  V30 57 1 23 55 CFG=3
M  V30 58 1 56 24
M  V30 59 1 57 24
M  V30 60 1 58 26
M  V30 61 1 59 27
M  V30 62 1 60 28
M  V30 63 1 61 28
M  V30 64 1 62 29
M  V30 65 1 63 29
M  V30 66 1 64 30
M  V30 67 1 65 30
M  V30 68 1 66 30
M  V30 69 1 32 67 CFG=1
M  V30 70 1 33 68 CFG=3
M  V30 71 1 69 34
M  V30 72 1 70 35
M  V30 73 1 71 13
M  V30 END BOND
M  V30 END CTAB
M  END
>  <i_epik_Tot_Q>  (1) 
0

>  <i_epik_Tot_abs_Q>  (1) 
2

>  <i_i_glide_confnum>  (1) 
3055

>  <i_i_glide_lignum>  (1) 
48

>  <i_i_glide_posenum>  (1) 
190

>  <i_i_glide_rotatable_bonds>  (1) 
13

>  <i_lp_mmshare_version>  (1) 
72125

>  <i_m_source_file_index>  (1) 
19

>  <i_f3d_flags>  (1) 
0

>  <num_sample>  (1) 
100

>  <b_lp_Chiralities_Consistent>  (1) 
1

>  <r_epik_Charging_Adjusted_Penalty>  (1) 
0.76693695219889413

>  <r_epik_Ionization_Penalty>  (1) 
0.76778133156762796

>  <r_epik_Ionization_Penalty_Charging>  (1) 
0.00011398914501928687

>  <r_epik_Ionization_Penalty_Neutral>  (1) 
0.7676673424226087

>  <r_epik_State_Penalty>  (1) 
0.76682296305387487

>  <r_glide_ring_energy>  (1) 
1.7561163794185919

>  <r_i_docking_score>  (1) 
-5.5542894118829889

>  <r_i_glide_ecoul>  (1) 
-0.25319709379591937

>  <r_i_glide_eff_state_penalty>  (1) 
0.76682296305387487

>  <r_i_glide_einternal>  (1) 
8.2466929439186742

>  <r_i_glide_emodel>  (1) 
-67.975564167382089

>  <r_i_glide_emodel_strain>  (1) 
0.33953804658952436

>  <r_i_glide_energy>  (1) 
-50.882282156229181

>  <r_i_glide_erotb>  (1) 
0.89312676016186854

>  <r_i_glide_esite>  (1) 
-0.24063570634490797

>  <r_i_glide_evdw>  (1) 
-50.629085062433262

>  <r_i_glide_gscore>  (1) 
-6.3211123749368641

>  <r_i_glide_gscore_strain>  (1) 
0

>  <r_i_glide_hbond>  (1) 
-0.055392579839937367

>  <r_i_glide_ligand_efficiency>  (1) 
-0.1542858169967497

>  <r_i_glide_ligand_efficiency_ln>  (1) 
-1.2117958901144779

>  <r_i_glide_ligand_efficiency_sa>  (1) 
-0.50944054325953769

>  <r_i_glide_lipo>  (1) 
-3.0258610636215937

>  <r_i_glide_metal>  (1) 
-0

>  <r_i_glide_rewards>  (1) 
-1.3229159681012419

>  <r_lp_Energy>  (1) 
32.790411999999996

>  <r_lp_tautomer_probability>  (1) 
0.99929914239148299

>  <s_epik_Chemistry_Notes>  (1) 
This compound has an imine and may undergo hydrolysis. This compound contains an acetal/aminal-like group ( X-CH(R)-Y where X, Y are N, S, or O) that may be acid/base labile, releasing an aldehyde.

>  <s_epik_cmdline>  (1) 
J2VwaWtfcHl0aG9uJywgJy1waHQnLCAnMS4wJywgJy1waCcsICc3LjQnLCAnLXRuJywgJzgnLCAnLW1hJywgJzUwMCcsICctaW1hZScsICc8aW5maWxlLm1hZT4nLCAnLW9tYWUnLCAnPG91dGZpbGUubWFlPic=

>  <s_epik_input>  (1) 
W09IXUMoPU8pW0NASF0oW0NIM10pW0NAQEhdMVtDSF09W0NIXVxDKFtDSF09TkMxPU8pPVtDSF1cW0NASF0oW0NIM10pT1tDSDJdW0NIMl1DKD1PKVtOSF1bQ0gyXVtDQEhdKFtDSDNdKVtDQEBIXTJbQ0gyXVtOSF1bTkhdW0NASF0ybjNbY0hdW2NIXWMoW09IXSlbY0hdMw==

>  <s_glide_docking_method>  (1) 
confgen

>  <s_i_glide_gridfile>  (1) 
gpcr_5ht2c_6bqh_protein_autoprepared_prepared

>  <s_lp_Force_Field>  (1) 
S-OPLS

>  <s_lp_Variant>  (1) 
DiffSBDD_18_num_sample_100-8

>  <s_m_source_file>  (1) 
generated__ligand_DiffSBDD_2026-05-06_prepared.sdf

>  <GenAI_Model>  (1) 
DiffSBDD

>  <Protein>  (1) 
GPCR_5HT2C

$$$$
DiffSBDD_44_num_sample_100
     RDKit          3D

  0  0  0  0  0  0  0  0  0  0999 V3000
M  V30 BEGIN CTAB
M  V30 COUNTS 58 59 0 0 1
M  V30 BEGIN ATOM
M  V30 1 C 37.669111 27.967351 52.777079 0
M  V30 2 O 37.504060 29.564492 56.528426 0 CHG=-1
M  V30 3 C 37.480243 30.082069 59.728854 0
M  V30 4 C 39.201291 29.581047 53.794243 0 CFG=1
M  V30 5 N 38.717118 28.654620 54.849961 0 CFG=2 CHG=1
M  V30 6 C 39.181603 31.720527 60.367881 0
M  V30 7 N 40.710452 28.994383 59.063520 0
M  V30 8 C 38.731596 30.305891 60.018639 0
M  V30 9 O 40.547453 29.330398 61.322047 0
M  V30 10 C 38.857626 28.881567 52.456684 0 CFG=1
M  V30 11 C 40.005624 28.063164 51.853405 0
M  V30 12 C 39.116591 28.109808 57.366623 0 CFG=1
M  V30 13 C 40.512158 28.421354 57.938269 0
M  V30 14 C 37.476663 28.061423 54.289206 0
M  V30 15 C 39.867486 29.061216 62.532367 0
M  V30 16 C 35.749035 31.837567 59.853604 0
M  V30 17 C 38.719266 29.171040 56.268111 0 CFG=2
M  V30 18 C 39.758350 29.158407 60.149849 0 CFG=2
M  V30 19 F 36.273833 34.036821 60.395798 0
M  V30 20 C 36.866530 32.916883 59.979187 0 CFG=1
M  V30 21 C 36.232148 30.421452 59.576221 0
M  V30 22 C 38.982928 26.629746 56.948849 0
M  V30 23 C 41.663701 28.016653 57.051129 0
M  V30 24 C 38.591531 30.997517 53.879263 0
M  V30 25 C 38.049077 32.618221 60.951683 0
M  V30 26 H 37.863401 26.935228 52.481711 0
M  V30 27 H 36.767236 28.287701 52.253880 0
M  V30 28 H 40.267410 29.706003 53.905630 0
M  V30 29 H 40.043872 31.717579 61.033949 0
M  V30 30 H 39.467403 32.195137 59.435272 0
M  V30 31 H 38.588125 29.621388 51.704992 0
M  V30 32 H 40.267381 27.224851 52.501762 0
M  V30 33 H 39.715482 27.646863 50.887557 0
M  V30 34 H 40.890743 28.677605 51.686297 0
M  V30 35 H 38.406021 28.174391 58.183564 0
M  V30 36 H 37.203356 27.110167 54.740375 0
M  V30 37 H 36.667403 28.761888 54.437603 0
M  V30 38 H 40.533776 29.228195 63.378588 0
M  V30 39 H 38.995395 29.703919 62.653427 0
M  V30 40 H 39.544775 28.021387 62.561338 0
M  V30 41 H 35.056787 32.128113 59.061901 0
M  V30 42 H 35.163489 31.806736 60.772468 0
M  V30 43 H 39.515418 29.917883 56.272718 0
M  V30 44 H 39.211884 28.217212 60.264330 0
M  V30 45 H 37.258197 33.146468 58.986724 0
M  V30 46 H 35.481884 29.692734 59.311231 0
M  V30 47 H 39.293581 25.968643 57.758891 0
M  V30 48 H 37.944375 26.383723 56.730447 0
M  V30 49 H 39.584424 26.378991 56.074835 0
M  V30 50 H 41.467446 28.336791 56.029978 0
M  V30 51 H 42.601621 28.457558 57.390125 0
M  V30 52 H 41.787340 26.933869 57.063961 0
M  V30 53 H 38.946370 31.621252 53.058147 0
M  V30 54 H 37.502030 30.975606 53.853531 0
M  V30 55 H 38.873693 31.513483 54.796190 0
M  V30 56 H 37.672927 32.201242 61.887206 0
M  V30 57 H 38.506650 33.570488 61.223620 0
M  V30 58 H 39.386651 27.901376 54.852199 0
M  V30 END ATOM
M  V30 BEGIN BOND
M  V30 1 1 5 4
M  V30 2 2 8 3
M  V30 3 1 8 6
M  V30 4 1 10 1
M  V30 5 1 10 4
M  V30 6 1 11 10
M  V30 7 2 13 7
M  V30 8 1 13 12
M  V30 9 1 14 1
M  V30 10 1 14 5
M  V30 11 1 15 9
M  V30 12 1 17 2
M  V30 13 1 17 5
M  V30 14 1 17 12
M  V30 15 1 18 7
M  V30 16 1 18 8
M  V30 17 1 18 9
M  V30 18 1 20 16
M  V30 19 1 20 19
M  V30 20 2 21 3
M  V30 21 1 21 16
M  V30 22 1 22 12
M  V30 23 1 23 13
M  V30 24 1 24 4
M  V30 25 1 25 6
M  V30 26 1 25 20
M  V30 27 1 26 1
M  V30 28 1 27 1
M  V30 29 1 4 28 CFG=1
M  V30 30 1 29 6
M  V30 31 1 30 6
M  V30 32 1 10 31 CFG=3
M  V30 33 1 32 11
M  V30 34 1 33 11
M  V30 35 1 34 11
M  V30 36 1 12 35 CFG=1
M  V30 37 1 36 14
M  V30 38 1 37 14
M  V30 39 1 38 15
M  V30 40 1 39 15
M  V30 41 1 40 15
M  V30 42 1 41 16
M  V30 43 1 42 16
M  V30 44 1 17 43 CFG=3
M  V30 45 1 18 44 CFG=1
M  V30 46 1 20 45 CFG=3
M  V30 47 1 46 21
M  V30 48 1 47 22
M  V30 49 1 48 22
M  V30 50 1 49 22
M  V30 51 1 50 23
M  V30 52 1 51 23
M  V30 53 1 52 23
M  V30 54 1 53 24
M  V30 55 1 54 24
M  V30 56 1 55 24
M  V30 57 1 56 25
M  V30 58 1 57 25
M  V30 59 1 5 58 CFG=1
M  V30 END BOND
M  V30 END CTAB
M  END
>  <i_epik_Tot_Q>  (1) 
0

>  <i_epik_Tot_abs_Q>  (1) 
2

>  <i_i_glide_confnum>  (1) 
40

>  <i_i_glide_lignum>  (1) 
111

>  <i_i_glide_posenum>  (1) 
196

>  <i_i_glide_rotatable_bonds>  (1) 
6

>  <i_lp_mmshare_version>  (1) 
72125

>  <i_m_source_file_index>  (1) 
45

>  <i_f3d_flags>  (1) 
0

>  <num_sample>  (1) 
100

>  <b_lp_Chiralities_Consistent>  (1) 
1

>  <r_epik_Charging_Adjusted_Penalty>  (1) 
0.41733257654759531

>  <r_epik_Ionization_Penalty>  (1) 
0.0069177268181324029

>  <r_epik_Ionization_Penalty_Charging>  (1) 
0.0066527375949913311

>  <r_epik_Ionization_Penalty_Neutral>  (1) 
0.00026498922314107146

>  <r_epik_State_Penalty>  (1) 
0.41067983895260396

>  <r_glide_ring_energy>  (1) 
0

>  <r_i_docking_score>  (1) 
-5.553626787723684

>  <r_i_glide_ecoul>  (1) 
-0.68539587034876726

>  <r_i_glide_eff_state_penalty>  (1) 
0.41067983895260396

>  <r_i_glide_einternal>  (1) 
23.201214010792938

>  <r_i_glide_emodel>  (1) 
-31.68790673397865

>  <r_i_glide_emodel_strain>  (1) 
3.0444637921358577

>  <r_i_glide_energy>  (1) 
-31.351723668387507

>  <r_i_glide_erotb>  (1) 
0.61440649929112812

>  <r_i_glide_esite>  (1) 
0

>  <r_i_glide_evdw>  (1) 
-30.66632779803874

>  <r_i_glide_gscore>  (1) 
-5.9643066266762883

>  <r_i_glide_gscore_strain>  (1) 
0

>  <r_i_glide_hbond>  (1) 
-0.157183283471758

>  <r_i_glide_ligand_efficiency>  (1) 
-0.22214507150894736

>  <r_i_glide_ligand_efficiency_ln>  (1) 
-1.3163759774553643

>  <r_i_glide_ligand_efficiency_sa>  (1) 
-0.64955612954872766

>  <r_i_glide_lipo>  (1) 
-2.4357829503784667

>  <r_i_glide_metal>  (1) 
-0

>  <r_i_glide_rewards>  (1) 
-2.3496211216629401

>  <r_lp_Energy>  (1) 
15.952547999999998

>  <r_lp_tautomer_probability>  (1) 
0.49999399997599986

>  <s_epik_Chemistry_Notes>  (1) 
This compound has an imine and may undergo hydrolysis. This compound contains an acetal/aminal-like group ( X-CH(R)-Y where X, Y are N, S, or O) that may be acid/base labile, releasing an aldehyde.

>  <s_epik_cmdline>  (1) 
J2VwaWtfcHl0aG9uJywgJy1waHQnLCAnMS4wJywgJy1waCcsICc3LjQnLCAnLXRuJywgJzgnLCAnLW1hJywgJzUwMCcsICctaW1hZScsICc8aW5maWxlLm1hZT4nLCAnLW9tYWUnLCAnPG91dGZpbGUubWFlPic=

>  <s_epik_input>  (1) 
W0NIM11bQ0BIXTFbQ0gyXVtDSDJdTihbQ0BASF0xW0NIM10pW0NAQEhdKFtPSF0pW0NAQEhdKFtDSDNdKS9DKFtDSDNdKT1OXFtDQEBIXShPW0NIM10pQzI9Qz1bQ0hdW0NIMl1bQ0BASF0oRilbQ0gyXVtDSDJdMg==

>  <s_glide_docking_method>  (1) 
confgen

>  <s_i_glide_gridfile>  (1) 
gpcr_5ht2c_6bqh_protein_autoprepared_prepared

>  <s_lp_Force_Field>  (1) 
S-OPLS

>  <s_lp_Variant>  (1) 
DiffSBDD_44_num_sample_100-4

>  <s_m_source_file>  (1) 
generated__ligand_DiffSBDD_2026-05-06_prepared.sdf

>  <GenAI_Model>  (1) 
DiffSBDD

>  <Protein>  (1) 
GPCR_5HT2C

$$$$
DiffSBDD_90_num_sample_100
     RDKit          3D

  0  0  0  0  0  0  0  0  0  0999 V3000
M  V30 BEGIN CTAB
M  V30 COUNTS 85 88 0 0 1
M  V30 BEGIN ATOM
M  V30 1 C 38.060065 29.791886 59.054523 0
M  V30 2 O 42.074220 25.523496 68.286263 0
M  V30 3 F 37.803533 23.621487 56.268165 0
M  V30 4 C 38.507258 29.303383 54.275208 0 CFG=1
M  V30 5 C 42.581409 27.832158 66.527971 0 CFG=2
M  V30 6 C 41.850927 27.867126 64.170835 0 CFG=1
M  V30 7 C 38.354063 32.699881 55.053318 0
M  V30 8 C 41.187990 28.483902 61.799708 0
M  V30 9 C 39.294229 30.630906 54.003583 0
M  V30 10 N 41.134047 25.841842 67.227397 0
M  V30 11 C 37.940558 25.138685 57.934553 0
M  V30 12 C 40.474297 30.825866 54.980108 0
M  V30 13 C 42.318707 28.765397 65.323420 0
M  V30 14 C 41.080043 26.754373 64.891920 0
M  V30 15 O 44.473345 27.715460 67.987408 0
M  V30 16 N 39.257519 29.061850 58.534337 0 CFG=2 CHG=1
M  V30 17 C 41.065084 28.655517 63.131889 0
M  V30 18 F 39.588635 23.566718 57.453460 0
M  V30 19 C 38.318292 25.981088 55.090664 0 CFG=1
M  V30 20 N 39.142907 28.162975 57.325151 0
M  V30 21 C 36.858963 25.918608 57.199863 0
M  V30 22 C 39.927702 28.334161 59.636188 0
M  V30 23 O 38.377217 31.735378 53.996269 0
M  V30 24 C 39.828887 30.628421 52.555690 0
M  V30 25 C 38.472507 30.802477 60.143799 0
M  V30 26 C 39.406773 25.204030 55.805059 0
M  V30 27 C 40.425272 29.281836 60.741884 0 CFG=1
M  V30 28 C 41.907275 26.476911 66.158534 0 CFG=1
M  V30 29 C 39.381179 28.043771 54.047460 0
M  V30 30 O 44.815223 27.373891 65.811712 0 CHG=-1
M  V30 31 C 37.868080 28.171272 56.605549 0 CFG=1
M  V30 32 C 39.282128 30.158186 61.285163 0
M  V30 33 O 41.983013 28.423603 67.668540 0
M  V30 34 C 37.775043 29.359695 55.631728 0
M  V30 35 C 37.461402 26.765251 56.068078 0 CFG=1
M  V30 36 C 38.679707 26.723181 53.820921 0
M  V30 37 C 38.712564 24.362390 56.880903 0
M  V30 38 C 44.089301 27.623783 66.798110 0
M  V30 39 H 37.336065 29.085975 59.460939 0
M  V30 40 H 37.550816 30.349885 58.271197 0
M  V30 41 H 41.953552 24.593108 68.388919 0
M  V30 42 H 37.721074 29.250232 53.519885 0
M  V30 43 H 42.727089 27.422659 63.694439 0
M  V30 44 H 37.935992 32.310726 55.981292 0
M  V30 45 H 39.331581 33.127439 55.274028 0
M  V30 46 H 37.723839 33.529906 54.742598 0
M  V30 47 H 41.867714 27.737194 61.424576 0
M  V30 48 H 40.516280 26.498228 67.698631 0
M  V30 49 H 37.477301 24.451217 58.645617 0
M  V30 50 H 38.610590 25.786796 58.496880 0
M  V30 51 H 41.077373 29.930642 55.053479 0
M  V30 52 H 41.143882 31.620849 54.655873 0
M  V30 53 H 40.156479 31.056043 55.994804 0
M  V30 54 H 43.195116 29.355920 65.047556 0
M  V30 55 H 41.526346 29.474878 65.573646 0
M  V30 56 H 40.990937 25.858859 64.279893 0
M  V30 57 H 40.076993 27.094250 65.143513 0
M  V30 58 H 40.383079 29.394076 63.515661 0
M  V30 59 H 37.666971 25.206190 54.676581 0
M  V30 60 H 39.267008 27.268169 57.779625 0
M  V30 61 H 36.138202 25.220594 56.773462 0
M  V30 62 H 36.270403 26.524116 57.875398 0
M  V30 63 H 40.780328 27.783352 59.230030 0
M  V30 64 H 39.231818 27.604951 60.050779 0
M  V30 65 H 40.667328 29.958834 52.426621 0
M  V30 66 H 39.069420 30.277589 51.855032 0
M  V30 67 H 40.165715 31.616009 52.243066 0
M  V30 68 H 37.584277 31.287298 60.550799 0
M  V30 69 H 39.057902 31.601875 59.688722 0
M  V30 70 H 39.867431 24.542349 55.075463 0
M  V30 71 H 40.179345 25.851859 56.219568 0
M  V30 72 H 41.143557 29.955321 60.273171 0
M  V30 73 H 42.680826 25.764164 65.868867 0
M  V30 74 H 39.867412 28.157207 53.089384 0
M  V30 75 H 40.128585 27.913010 54.830890 0
M  V30 76 H 37.098055 28.382923 57.340140 0
M  V30 77 H 38.641902 29.567868 61.934865 0
M  V30 78 H 39.683063 30.948582 61.916672 0
M  V30 79 H 42.404451 27.990918 68.402127 0
M  V30 80 H 36.731782 29.619968 55.438868 0
M  V30 81 H 38.127672 30.218886 56.184486 0
M  V30 82 H 36.667273 26.826611 55.354878 0
M  V30 83 H 37.793464 26.881860 53.205829 0
M  V30 84 H 39.335639 26.076845 53.239132 0
M  V30 85 H 39.897631 29.780839 58.230365 0
M  V30 END ATOM
M  V30 BEGIN BOND
M  V30 1 1 9 4
M  V30 2 1 10 2
M  V30 3 1 12 9
M  V30 4 1 13 5
M  V30 5 1 13 6
M  V30 6 1 14 6
M  V30 7 1 16 1
M  V30 8 1 17 6
M  V30 9 2 17 8
M  V30 10 1 20 16
M  V30 11 1 21 11
M  V30 12 1 22 16
M  V30 13 1 23 7
M  V30 14 1 23 9
M  V30 15 1 24 9
M  V30 16 1 25 1
M  V30 17 1 26 19
M  V30 18 1 27 8
M  V30 19 1 27 22
M  V30 20 1 28 5
M  V30 21 1 28 10
M  V30 22 1 28 14
M  V30 23 1 29 4
M  V30 24 1 31 20
M  V30 25 1 32 25
M  V30 26 1 32 27
M  V30 27 1 5 33 CFG=1
M  V30 28 1 34 4
M  V30 29 1 34 31
M  V30 30 1 35 19
M  V30 31 1 35 21
M  V30 32 1 35 31
M  V30 33 1 36 19
M  V30 34 1 36 29
M  V30 35 1 37 3
M  V30 36 1 37 11
M  V30 37 1 37 18
M  V30 38 1 37 26
M  V30 39 1 38 5
M  V30 40 2 38 15
M  V30 41 1 38 30
M  V30 42 1 39 1
M  V30 43 1 40 1
M  V30 44 1 41 2
M  V30 45 1 4 42 CFG=3
M  V30 46 1 6 43 CFG=3
M  V30 47 1 44 7
M  V30 48 1 45 7
M  V30 49 1 46 7
M  V30 50 1 47 8
M  V30 51 1 48 10
M  V30 52 1 49 11
M  V30 53 1 50 11
M  V30 54 1 51 12
M  V30 55 1 52 12
M  V30 56 1 53 12
M  V30 57 1 54 13
M  V30 58 1 55 13
M  V30 59 1 56 14
M  V30 60 1 57 14
M  V30 61 1 58 17
M  V30 62 1 19 59 CFG=3
M  V30 63 1 60 20
M  V30 64 1 61 21
M  V30 65 1 62 21
M  V30 66 1 63 22
M  V30 67 1 64 22
M  V30 68 1 65 24
M  V30 69 1 66 24
M  V30 70 1 67 24
M  V30 71 1 68 25
M  V30 72 1 69 25
M  V30 73 1 70 26
M  V30 74 1 71 26
M  V30 75 1 27 72 CFG=3
M  V30 76 1 28 73 CFG=3
M  V30 77 1 74 29
M  V30 78 1 75 29
M  V30 79 1 31 76 CFG=1
M  V30 80 1 77 32
M  V30 81 1 78 32
M  V30 82 1 79 33
M  V30 83 1 80 34
M  V30 84 1 81 34
M  V30 85 1 35 82 CFG=3
M  V30 86 1 83 36
M  V30 87 1 84 36
M  V30 88 1 16 85 CFG=3
M  V30 END BOND
M  V30 END CTAB
M  END
>  <i_epik_Tot_Q>  (1) 
0

>  <i_epik_Tot_abs_Q>  (1) 
2

>  <i_i_glide_confnum>  (1) 
315

>  <i_i_glide_lignum>  (1) 
244

>  <i_i_glide_posenum>  (1) 
288

>  <i_i_glide_rotatable_bonds>  (1) 
10

>  <i_lp_mmshare_version>  (1) 
72125

>  <i_m_source_file_index>  (1) 
91

>  <i_f3d_flags>  (1) 
0

>  <num_sample>  (1) 
100

>  <b_lp_Chiralities_Consistent>  (1) 
1

>  <r_epik_Charging_Adjusted_Penalty>  (1) 
1.5083745474312953

>  <r_epik_Ionization_Penalty>  (1) 
0.65750586125956467

>  <r_epik_Ionization_Penalty_Charging>  (1) 
0.6544614066189578

>  <r_epik_Ionization_Penalty_Neutral>  (1) 
0.0030444546406068235

>  <r_epik_State_Penalty>  (1) 
0.8539131408123376

>  <r_glide_ring_energy>  (1) 
0.35261698705859396

>  <r_i_docking_score>  (1) 
-5.5504680692710195

>  <r_i_glide_ecoul>  (1) 
-0.22568585397430541

>  <r_i_glide_eff_state_penalty>  (1) 
0.8539131408123376

>  <r_i_glide_einternal>  (1) 
28.604059181742873

>  <r_i_glide_emodel>  (1) 
-91.633652461476586

>  <r_i_glide_emodel_strain>  (1) 
2.6865328911816277

>  <r_i_glide_energy>  (1) 
-31.300366539625195

>  <r_i_glide_erotb>  (1) 
0.42002339013477186

>  <r_i_glide_esite>  (1) 
-0.00809059599924003

>  <r_i_glide_evdw>  (1) 
-31.07468068565089

>  <r_i_glide_gscore>  (1) 
-6.4043812100833568

>  <r_i_glide_gscore_strain>  (1) 
0

>  <r_i_glide_hbond>  (1) 
-0.28400211988118512

>  <r_i_glide_ligand_efficiency>  (1) 
-0.14606494919134261

>  <r_i_glide_ligand_efficiency_ln>  (1) 
-1.1968441939628554

>  <r_i_glide_ligand_efficiency_sa>  (1) 
-0.49106676697663409

>  <r_i_glide_lipo>  (1) 
-4.2093831505403445

>  <r_i_glide_metal>  (1) 
-0

>  <r_i_glide_rewards>  (1) 
-0.73534182141866922

>  <r_lp_Energy>  (1) 
53.976785999999997

>  <s_epik_Chemistry_Notes>  (1) 
This compound has a N-S or N-O group and may undergo hydrolysis at high or low pH.

>  <s_epik_cmdline>  (1) 
J2VwaWtfcHl0aG9uJywgJy1waHQnLCAnMS4wJywgJy1waCcsICc3LjQnLCAnLXRuJywgJzgnLCAnLW1hJywgJzUwMCcsICctaW1hZScsICc8aW5maWxlLm1hZT4nLCAnLW9tYWUnLCAnPG91dGZpbGUubWFlPic=

>  <s_epik_input>  (1) 
RkMoRikoW0NIMl0xKVtDSDJdW0NIMl1bQ0BIXShbQ0BASF0xMilbQ0BIXShbQ0gyXVtDQEhdKFtDSDJdW0NIMl0yKUMoW0NIM10pKFtDSDNdKU9bQ0gzXSlbTkhdTjNbQ0gyXVtDSDJdW0NIMl1bQ0BIXShbQ0gyXTMpL1tDSF09W0NIXS9bQ0BASF0oW0NIMl1bQ0BdNChbT0hdKUMoPU8pW09IXSlbQ0gyXVtDQEBIXTRbTkhdW09IXQ==

>  <s_glide_docking_method>  (1) 
confgen

>  <s_i_glide_gridfile>  (1) 
gpcr_5ht2c_6bqh_protein_autoprepared_prepared

>  <s_lp_Force_Field>  (1) 
S-OPLS

>  <s_lp_Variant>  (1) 
DiffSBDD_90_num_sample_100-16

>  <s_m_source_file>  (1) 
generated__ligand_DiffSBDD_2026-05-06_prepared.sdf

>  <GenAI_Model>  (1) 
DiffSBDD

>  <Protein>  (1) 
GPCR_5HT2C

$$$$
DiffSBDD_90_num_sample_100
     RDKit          3D

  0  0  0  0  0  0  0  0  0  0999 V3000
M  V30 BEGIN CTAB
M  V30 COUNTS 85 88 0 0 1
M  V30 BEGIN ATOM
M  V30 1 C 40.176681 28.123222 60.273936 0
M  V30 2 O 42.271482 34.821913 64.192298 0
M  V30 3 F 39.326661 31.857660 52.602075 0
M  V30 4 C 38.692870 26.049344 56.147308 0 CFG=1
M  V30 5 C 39.195746 36.252736 62.767538 0 CFG=2
M  V30 6 C 39.478371 34.510269 61.071039 0 CFG=1
M  V30 7 C 36.425612 23.614640 55.144643 0
M  V30 8 C 38.618035 32.090752 61.187121 0
M  V30 9 C 37.658952 25.049582 56.717013 0
M  V30 10 N 40.871490 35.011560 63.981028 0
M  V30 11 C 39.755486 31.549430 54.873322 0
M  V30 12 C 38.161230 24.342731 57.962588 0
M  V30 13 C 38.566890 34.949296 62.214897 0
M  V30 14 C 40.886148 34.981528 61.511487 0
M  V30 15 O 39.744978 38.383775 61.853513 0
M  V30 16 N 39.686119 28.925645 59.138571 0 CFG=2 CHG=1
M  V30 17 C 39.428724 33.039176 60.644577 0
M  V30 18 F 37.716958 31.153818 53.853429 0
M  V30 19 C 39.215036 28.695853 54.411094 0 CFG=2
M  V30 20 N 40.642352 28.771537 58.014906 0
M  V30 21 C 39.535557 30.578300 56.029153 0
M  V30 22 C 39.468530 30.337306 59.528745 0
M  V30 23 O 37.628198 23.983820 55.785707 0
M  V30 24 C 36.323930 25.746841 57.007653 0
M  V30 25 C 39.196377 28.204943 61.421323 0
M  V30 26 C 39.391289 29.648657 53.221359 0
M  V30 27 C 38.582200 30.607854 60.743370 0 CFG=1
M  V30 28 C 40.688646 35.841024 62.787739 0 CFG=1
M  V30 29 C 38.376787 26.350687 54.668200 0
M  V30 30 O 37.852473 37.429246 61.183152 0 CHG=-1
M  V30 31 C 40.088723 28.143753 56.811815 0 CFG=1
M  V30 32 C 39.016464 29.670694 61.878646 0
M  V30 33 O 38.770129 36.670630 64.053134 0
M  V30 34 C 38.808136 27.319968 57.028879 0
M  V30 35 C 40.026367 29.166911 55.649385 0 CFG=1
M  V30 36 C 39.419278 27.226610 53.996364 0
M  V30 37 C 39.026540 31.073340 53.624055 0
M  V30 38 C 38.908417 37.456462 61.853465 0
M  V30 39 H 41.170640 28.447199 60.587847 0
M  V30 40 H 40.267417 27.096106 59.940222 0
M  V30 41 H 42.340654 33.878203 64.195547 0
M  V30 42 H 39.660087 25.543166 56.159717 0
M  V30 43 H 39.195040 35.090773 60.193857 0
M  V30 44 H 36.667331 22.756050 54.520353 0
M  V30 45 H 35.655290 23.315434 55.853586 0
M  V30 46 H 36.048644 24.406864 54.499587 0
M  V30 47 H 37.942940 32.362467 61.984172 0
M  V30 48 H 40.575824 35.503345 64.815680 0
M  V30 49 H 40.822987 31.621320 54.670181 0
M  V30 50 H 39.410746 32.546082 55.145962 0
M  V30 51 H 38.266784 25.021788 58.805088 0
M  V30 52 H 37.468410 23.553051 58.253350 0
M  V30 53 H 39.128338 23.871479 57.781910 0
M  V30 54 H 37.521161 35.031120 61.914818 0
M  V30 55 H 38.667471 34.169124 62.959261 0
M  V30 56 H 41.328714 35.595716 60.724552 0
M  V30 57 H 41.570962 34.149108 61.679907 0
M  V30 58 H 40.098392 32.773631 59.853714 0
M  V30 59 H 38.162425 28.807711 54.676006 0
M  V30 60 H 41.293035 28.128977 58.445438 0
M  V30 61 H 40.099162 30.979833 56.858177 0
M  V30 62 H 38.487835 30.562156 56.330226 0
M  V30 63 H 39.111286 30.939324 58.698026 0
M  V30 64 H 40.451392 30.625109 59.863566 0
M  V30 65 H 36.457738 26.639194 57.611578 0
M  V30 66 H 35.867482 26.021420 56.068791 0
M  V30 67 H 35.591968 25.221434 57.591382 0
M  V30 68 H 39.559695 27.621620 62.262978 0
M  V30 69 H 38.292716 27.707940 61.053492 0
M  V30 70 H 40.403754 29.622487 52.824673 0
M  V30 71 H 38.741333 29.344824 52.400261 0
M  V30 72 H 37.551627 30.377837 60.471540 0
M  V30 73 H 41.362486 36.699896 62.826702 0
M  V30 74 H 38.350955 25.425841 54.102131 0
M  V30 75 H 37.378177 26.772492 54.549640 0
M  V30 76 H 40.866071 27.431039 56.534712 0
M  V30 77 H 39.948266 30.029375 62.320324 0
M  V30 78 H 38.267380 29.727162 62.653423 0
M  V30 79 H 39.206307 37.496786 64.212801 0
M  V30 80 H 38.776470 26.958337 58.050582 0
M  V30 81 H 37.947076 27.976751 56.902950 0
M  V30 82 H 41.067484 29.298119 55.374105 0
M  V30 83 H 40.410251 26.821496 54.216593 0
M  V30 84 H 39.285551 27.127396 52.917068 0
M  V30 85 H 38.805868 28.548562 58.814495 0
M  V30 END ATOM
M  V30 BEGIN BOND
M  V30 1 1 9 4
M  V30 2 1 10 2
M  V30 3 1 12 9
M  V30 4 1 13 5
M  V30 5 1 13 6
M  V30 6 1 14 6
M  V30 7 1 16 1
M  V30 8 1 17 6
M  V30 9 2 17 8
M  V30 10 1 20 16
M  V30 11 1 21 11
M  V30 12 1 22 16
M  V30 13 1 23 7
M  V30 14 1 23 9
M  V30 15 1 24 9
M  V30 16 1 25 1
M  V30 17 1 26 19
M  V30 18 1 27 8
M  V30 19 1 27 22
M  V30 20 1 28 5
M  V30 21 1 28 10
M  V30 22 1 28 14
M  V30 23 1 29 4
M  V30 24 1 31 20
M  V30 25 1 32 25
M  V30 26 1 32 27
M  V30 27 1 5 33 CFG=1
M  V30 28 1 34 4
M  V30 29 1 34 31
M  V30 30 1 35 19
M  V30 31 1 35 21
M  V30 32 1 35 31
M  V30 33 1 36 19
M  V30 34 1 36 29
M  V30 35 1 37 3
M  V30 36 1 37 11
M  V30 37 1 37 18
M  V30 38 1 37 26
M  V30 39 1 38 5
M  V30 40 2 38 15
M  V30 41 1 38 30
M  V30 42 1 39 1
M  V30 43 1 40 1
M  V30 44 1 41 2
M  V30 45 1 4 42 CFG=3
M  V30 46 1 6 43 CFG=3
M  V30 47 1 44 7
M  V30 48 1 45 7
M  V30 49 1 46 7
M  V30 50 1 47 8
M  V30 51 1 48 10
M  V30 52 1 49 11
M  V30 53 1 50 11
M  V30 54 1 51 12
M  V30 55 1 52 12
M  V30 56 1 53 12
M  V30 57 1 54 13
M  V30 58 1 55 13
M  V30 59 1 56 14
M  V30 60 1 57 14
M  V30 61 1 58 17
M  V30 62 1 19 59 CFG=1
M  V30 63 1 60 20
M  V30 64 1 61 21
M  V30 65 1 62 21
M  V30 66 1 63 22
M  V30 67 1 64 22
M  V30 68 1 65 24
M  V30 69 1 66 24
M  V30 70 1 67 24
M  V30 71 1 68 25
M  V30 72 1 69 25
M  V30 73 1 70 26
M  V30 74 1 71 26
M  V30 75 1 27 72 CFG=3
M  V30 76 1 28 73 CFG=1
M  V30 77 1 74 29
M  V30 78 1 75 29
M  V30 79 1 31 76 CFG=3
M  V30 80 1 77 32
M  V30 81 1 78 32
M  V30 82 1 79 33
M  V30 83 1 80 34
M  V30 84 1 81 34
M  V30 85 1 35 82 CFG=3
M  V30 86 1 83 36
M  V30 87 1 84 36
M  V30 88 1 16 85 CFG=3
M  V30 END BOND
M  V30 END CTAB
M  END
>  <i_epik_Tot_Q>  (1) 
0

>  <i_epik_Tot_abs_Q>  (1) 
2

>  <i_i_glide_confnum>  (1) 
951

>  <i_i_glide_lignum>  (1) 
240

>  <i_i_glide_posenum>  (1) 
359

>  <i_i_glide_rotatable_bonds>  (1) 
10

>  <i_lp_mmshare_version>  (1) 
72125

>  <i_m_source_file_index>  (1) 
91

>  <i_f3d_flags>  (1) 
0

>  <num_sample>  (1) 
100

>  <b_lp_Chiralities_Consistent>  (1) 
1

>  <r_epik_Charging_Adjusted_Penalty>  (1) 
1.5083745474312953

>  <r_epik_Ionization_Penalty>  (1) 
0.65750586125956467

>  <r_epik_Ionization_Penalty_Charging>  (1) 
0.6544614066189578

>  <r_epik_Ionization_Penalty_Neutral>  (1) 
0.0030444546406068235

>  <r_epik_State_Penalty>  (1) 
0.8539131408123376

>  <r_glide_ring_energy>  (1) 
0.69230642483631666

>  <r_i_docking_score>  (1) 
-5.5449045879042913

>  <r_i_glide_ecoul>  (1) 
-1.0191835482334861

>  <r_i_glide_eff_state_penalty>  (1) 
0.8539131408123376

>  <r_i_glide_einternal>  (1) 
19.720814813662138

>  <r_i_glide_emodel>  (1) 
-49.115416957299203

>  <r_i_glide_emodel_strain>  (1) 
0.15512073794822356

>  <r_i_glide_energy>  (1) 
-17.423692753161273

>  <r_i_glide_erotb>  (1) 
0.42002339013477186

>  <r_i_glide_esite>  (1) 
-0.01579298733283915

>  <r_i_glide_evdw>  (1) 
-16.404509204927788

>  <r_i_glide_gscore>  (1) 
-6.3988177287166286

>  <r_i_glide_gscore_strain>  (1) 
0

>  <r_i_glide_hbond>  (1) 
0

>  <r_i_glide_ligand_efficiency>  (1) 
-0.14591854178695504

>  <r_i_glide_ligand_efficiency_ln>  (1) 
-1.1956445437191483

>  <r_i_glide_ligand_efficiency_sa>  (1) 
-0.49057454888370977

>  <r_i_glide_lipo>  (1) 
-4.9648601612309164

>  <r_i_glide_metal>  (1) 
-0

>  <r_i_glide_rewards>  (1) 
-0.86508497780623328

>  <r_lp_Energy>  (1) 
52.906404999999999

>  <s_epik_Chemistry_Notes>  (1) 
This compound has a N-S or N-O group and may undergo hydrolysis at high or low pH.

>  <s_epik_cmdline>  (1) 
J2VwaWtfcHl0aG9uJywgJy1waHQnLCAnMS4wJywgJy1waCcsICc3LjQnLCAnLXRuJywgJzgnLCAnLW1hJywgJzUwMCcsICctaW1hZScsICc8aW5maWxlLm1hZT4nLCAnLW9tYWUnLCAnPG91dGZpbGUubWFlPic=

>  <s_epik_input>  (1) 
RkMoRikoW0NIMl0xKVtDSDJdW0NIMl1bQ0BIXShbQ0BASF0xMilbQ0BIXShbQ0gyXVtDQEhdKFtDSDJdW0NIMl0yKUMoW0NIM10pKFtDSDNdKU9bQ0gzXSlbTkhdTjNbQ0gyXVtDSDJdW0NIMl1bQ0BIXShbQ0gyXTMpL1tDSF09W0NIXS9bQ0BASF0oW0NIMl1bQ0BdNChbT0hdKUMoPU8pW09IXSlbQ0gyXVtDQEBIXTRbTkhdW09IXQ==

>  <s_glide_docking_method>  (1) 
confgen

>  <s_i_glide_gridfile>  (1) 
gpcr_5ht2c_6bqh_protein_autoprepared_prepared

>  <s_lp_Force_Field>  (1) 
S-OPLS

>  <s_lp_Variant>  (1) 
DiffSBDD_90_num_sample_100-12

>  <s_m_source_file>  (1) 
generated__ligand_DiffSBDD_2026-05-06_prepared.sdf

>  <GenAI_Model>  (1) 
DiffSBDD

>  <Protein>  (1) 
GPCR_5HT2C

$$$$
DiffSBDD_18_num_sample_100
     RDKit          3D

  0  0  0  0  0  0  0  0  0  0999 V3000
M  V30 BEGIN CTAB
M  V30 COUNTS 71 73 0 0 1
M  V30 BEGIN ATOM
M  V30 1 O 39.934349 30.488121 60.428122 0
M  V30 2 C 42.946428 27.360853 65.172294 0
M  V30 3 C 40.813865 32.364290 64.349327 0
M  V30 4 C 42.281190 26.240820 65.429162 0
M  V30 5 O 39.867388 33.589924 61.076460 0
M  V30 6 C 43.204718 29.664253 66.002525 0 CFG=2
M  V30 7 C 38.742207 27.719176 54.253359 0
M  V30 8 N 42.618409 28.299436 65.993706 0 CHG=1
M  V30 9 N 43.889501 29.888139 67.278665 0
M  V30 10 C 39.032445 29.568247 58.307286 0
M  V30 11 C 40.201016 26.856746 56.084688 0
M  V30 12 O 39.067416 27.708902 53.066729 0
M  V30 13 O 40.667415 25.631452 67.053490 0
M  V30 14 C 37.185669 24.821433 54.821705 0
M  V30 15 C 41.782746 30.196174 63.357981 0
M  V30 16 C 41.507719 26.483127 66.452210 0
M  V30 17 C 38.174160 25.132031 57.117598 0
M  V30 18 C 40.191953 27.843146 56.990847 0
M  V30 19 C 39.889938 32.895331 62.089906 0
M  V30 20 N 38.036428 28.720075 54.880725 0
M  V30 21 C 41.974225 31.332664 64.380312 0 CFG=2
M  V30 22 C 39.957615 29.396593 59.513998 0 CFG=2
M  V30 23 C 42.178210 30.800901 65.823795 0 CFG=2
M  V30 24 C 42.755942 31.858024 66.768222 0
M  V30 25 O 37.867424 25.733981 58.166950 0 CHG=-1
M  V30 26 C 41.539454 27.907228 67.073096 0
M  V30 27 C 38.079534 29.163533 56.090663 0
M  V30 28 C 38.915131 31.703263 62.228518 0
M  V30 29 C 38.680967 30.986644 60.887611 0
M  V30 30 C 39.691429 28.096530 60.289921 0
M  V30 31 C 39.119170 28.850521 57.161969 0
M  V30 32 C 39.084160 26.545898 55.142205 0 CFG=1
M  V30 33 C 37.837711 25.831889 55.786814 0 CFG=1
M  V30 34 N 40.751894 33.137828 63.103769 0
M  V30 35 N 43.499068 31.149487 67.802583 0
M  V30 36 O 38.737401 24.021435 57.053490 0
M  V30 37 H 43.681679 27.520389 64.390180 0
M  V30 38 H 39.867720 31.921305 64.654572 0
M  V30 39 H 40.999714 33.114705 65.117534 0
M  V30 40 H 42.399668 25.324877 64.868289 0
M  V30 41 H 43.961644 29.715094 65.217489 0
M  V30 42 H 43.656695 29.160056 67.950733 0
M  V30 43 H 38.247590 30.302865 58.408451 0
M  V30 44 H 41.044740 26.182143 56.056162 0
M  V30 45 H 40.623679 28.480576 66.928246 0
M  V30 46 H 36.254957 24.429563 55.233008 0
M  V30 47 H 36.960110 25.277007 53.857578 0
M  V30 48 H 37.842929 23.970131 54.643495 0
M  V30 49 H 40.946214 29.548911 63.623634 0
M  V30 50 H 41.599966 30.590658 62.361367 0
M  V30 51 H 42.673159 29.575430 63.272524 0
M  V30 52 H 41.042702 27.901007 57.649012 0
M  V30 53 H 42.886418 31.853145 64.087392 0
M  V30 54 H 40.988139 29.373045 59.161925 0
M  V30 55 H 41.215116 30.487403 66.225669 0
M  V30 56 H 41.993428 32.496058 67.215667 0
M  V30 57 H 43.456710 32.503409 66.236696 0
M  V30 58 H 41.965395 27.967137 68.075146 0
M  V30 59 H 37.318397 29.872333 56.429366 0
M  V30 60 H 39.240199 30.937966 62.925053 0
M  V30 61 H 37.967543 32.086787 62.606705 0
M  V30 62 H 37.963963 30.179742 61.033792 0
M  V30 63 H 38.250434 31.668955 60.153559 0
M  V30 64 H 39.858404 27.221309 59.663986 0
M  V30 65 H 40.357456 28.014049 61.148986 0
M  V30 66 H 38.667458 28.037457 60.653764 0
M  V30 67 H 39.533632 25.808149 54.475107 0
M  V30 68 H 37.067461 26.561137 56.028918 0
M  V30 69 H 41.389715 33.915006 63.011193 0
M  V30 70 H 42.908110 30.994527 68.618039 0
M  V30 71 H 40.238960 26.095696 67.762187 0
M  V30 END ATOM
M  V30 BEGIN BOND
M  V30 1 1 4 2
M  V30 2 2 8 2
M  V30 3 1 8 6
M  V30 4 1 9 6
M  V30 5 2 12 7
M  V30 6 2 16 4
M  V30 7 1 16 13
M  V30 8 2 18 11
M  V30 9 2 19 5
M  V30 10 1 20 7
M  V30 11 1 21 3
M  V30 12 1 21 15
M  V30 13 1 22 1
M  V30 14 1 22 10
M  V30 15 1 23 6
M  V30 16 1 23 21
M  V30 17 1 24 23
M  V30 18 1 25 17
M  V30 19 1 26 8
M  V30 20 1 26 16
M  V30 21 2 27 20
M  V30 22 1 28 19
M  V30 23 1 29 1
M  V30 24 1 29 28
M  V30 25 1 30 22
M  V30 26 2 31 10
M  V30 27 1 31 18
M  V30 28 1 31 27
M  V30 29 1 32 7
M  V30 30 1 32 11
M  V30 31 1 33 14
M  V30 32 1 33 17
M  V30 33 1 33 32
M  V30 34 1 34 3
M  V30 35 1 34 19
M  V30 36 1 35 9
M  V30 37 1 35 24
M  V30 38 2 36 17
M  V30 39 1 37 2
M  V30 40 1 38 3
M  V30 41 1 39 3
M  V30 42 1 40 4
M  V30 43 1 6 41 CFG=3
M  V30 44 1 42 9
M  V30 45 1 43 10
M  V30 46 1 44 11
M  V30 47 1 45 26
M  V30 48 1 46 14
M  V30 49 1 47 14
M  V30 50 1 48 14
M  V30 51 1 49 15
M  V30 52 1 50 15
M  V30 53 1 51 15
M  V30 54 1 52 18
M  V30 55 1 21 53 CFG=3
M  V30 56 1 22 54 CFG=3
M  V30 57 1 23 55 CFG=1
M  V30 58 1 56 24
M  V30 59 1 57 24
M  V30 60 1 58 26
M  V30 61 1 59 27
M  V30 62 1 60 28
M  V30 63 1 61 28
M  V30 64 1 62 29
M  V30 65 1 63 29
M  V30 66 1 64 30
M  V30 67 1 65 30
M  V30 68 1 66 30
M  V30 69 1 32 67 CFG=3
M  V30 70 1 33 68 CFG=1
M  V30 71 1 69 34
M  V30 72 1 70 35
M  V30 73 1 71 13
M  V30 END BOND
M  V30 END CTAB
M  END
>  <i_epik_Tot_Q>  (1) 
0

>  <i_epik_Tot_abs_Q>  (1) 
2

>  <i_i_glide_confnum>  (1) 
959

>  <i_i_glide_lignum>  (1) 
45

>  <i_i_glide_posenum>  (1) 
386

>  <i_i_glide_rotatable_bonds>  (1) 
13

>  <i_lp_mmshare_version>  (1) 
72125

>  <i_m_source_file_index>  (1) 
19

>  <i_f3d_flags>  (1) 
0

>  <num_sample>  (1) 
100

>  <b_lp_Chiralities_Consistent>  (1) 
1

>  <r_epik_Charging_Adjusted_Penalty>  (1) 
0.76693695219889413

>  <r_epik_Ionization_Penalty>  (1) 
0.76778133156762796

>  <r_epik_Ionization_Penalty_Charging>  (1) 
0.00011398914501928687

>  <r_epik_Ionization_Penalty_Neutral>  (1) 
0.7676673424226087

>  <r_epik_State_Penalty>  (1) 
0.76682296305387487

>  <r_glide_ring_energy>  (1) 
1.7561163794185919

>  <r_i_docking_score>  (1) 
-5.528901724717775

>  <r_i_glide_ecoul>  (1) 
-7.849982428698163

>  <r_i_glide_eff_state_penalty>  (1) 
0.76682296305387487

>  <r_i_glide_einternal>  (1) 
16.849818349011066

>  <r_i_glide_emodel>  (1) 
-65.618704434738618

>  <r_i_glide_emodel_strain>  (1) 
2.5073490308109569

>  <r_i_glide_energy>  (1) 
-56.23815443028937

>  <r_i_glide_erotb>  (1) 
0.89312676016186854

>  <r_i_glide_esite>  (1) 
-0.015855083626623641

>  <r_i_glide_evdw>  (1) 
-48.388172001591208

>  <r_i_glide_gscore>  (1) 
-6.2957246877716502

>  <r_i_glide_gscore_strain>  (1) 
0

>  <r_i_glide_hbond>  (1) 
-0.28337096876714235

>  <r_i_glide_ligand_efficiency>  (1) 
-0.15358060346438263

>  <r_i_glide_ligand_efficiency_ln>  (1) 
-1.2062569826710705

>  <r_i_glide_ligand_efficiency_sa>  (1) 
-0.50711197948072562

>  <r_i_glide_lipo>  (1) 
-3.0210779153456313

>  <r_i_glide_metal>  (1) 
-0

>  <r_i_glide_rewards>  (1) 
-0.27164151580983598

>  <r_lp_Energy>  (1) 
33.335281999999999

>  <r_lp_tautomer_probability>  (1) 
0.99929914239148299

>  <s_epik_Chemistry_Notes>  (1) 
This compound has an imine and may undergo hydrolysis. This compound contains an acetal/aminal-like group ( X-CH(R)-Y where X, Y are N, S, or O) that may be acid/base labile, releasing an aldehyde.

>  <s_epik_cmdline>  (1) 
J2VwaWtfcHl0aG9uJywgJy1waHQnLCAnMS4wJywgJy1waCcsICc3LjQnLCAnLXRuJywgJzgnLCAnLW1hJywgJzUwMCcsICctaW1hZScsICc8aW5maWxlLm1hZT4nLCAnLW9tYWUnLCAnPG91dGZpbGUubWFlPic=

>  <s_epik_input>  (1) 
W09IXUMoPU8pW0NASF0oW0NIM10pW0NAQEhdMVtDSF09W0NIXS9DKFtDSF09TkMxPU8pPVtDSF1cW0NASF0oW0NIM10pT1tDSDJdW0NIMl1DKD1PKVtOSF1bQ0gyXVtDQEhdKFtDSDNdKVtDQEBIXTJbQ0gyXVtOSF1bTkhdW0NASF0ybjNbY0hdW2NIXWMoW09IXSlbY0hdMw==

>  <s_glide_docking_method>  (1) 
confgen

>  <s_i_glide_gridfile>  (1) 
gpcr_5ht2c_6bqh_protein_autoprepared_prepared

>  <s_lp_Force_Field>  (1) 
S-OPLS

>  <s_lp_Variant>  (1) 
DiffSBDD_18_num_sample_100-5

>  <s_m_source_file>  (1) 
generated__ligand_DiffSBDD_2026-05-06_prepared.sdf

>  <GenAI_Model>  (1) 
DiffSBDD

>  <Protein>  (1) 
GPCR_5HT2C

$$$$
DiffSBDD_98_num_sample_100
     RDKit          3D

  0  0  0  0  0  0  0  0  0  0999 V3000
M  V30 BEGIN CTAB
M  V30 COUNTS 63 64 0 0 1
M  V30 BEGIN ATOM
M  V30 1 C 40.762980 34.843052 61.995501 0
M  V30 2 C 40.326318 26.142388 57.840494 0
M  V30 3 C 37.319292 37.502714 61.072400 0
M  V30 4 O 38.267408 32.461283 56.906670 0
M  V30 5 C 38.190557 31.236752 56.199545 0
M  V30 6 O 38.666998 37.843977 61.453510 0
M  V30 7 C 37.239334 35.955200 60.975631 0 CFG=2
M  V30 8 C 37.840606 26.670031 57.654181 0
M  V30 9 N 38.759193 29.658760 58.078756 0
M  V30 10 C 38.313904 33.580366 56.042352 0
M  V30 11 C 39.223350 36.700454 62.078118 0 CFG=2
M  V30 12 C 39.629108 28.558250 57.634326 0
M  V30 13 C 38.746053 36.689130 63.548685 0
M  V30 14 C 39.220769 27.162312 58.154671 0 CFG=2
M  V30 15 O 39.787372 29.880904 60.112359 0
M  V30 16 C 40.720063 36.397796 62.006510 0
M  V30 17 C 38.212819 32.155241 60.696172 0
M  V30 18 C 38.712243 35.633988 61.131821 0 CFG=1
M  V30 19 C 37.724332 30.099061 57.122947 0
M  V30 20 C 36.624471 35.478062 59.646382 0
M  V30 21 N 38.130013 31.308726 59.503326 0
M  V30 22 C 39.362140 33.182267 60.569136 0
M  V30 23 C 37.766854 26.296577 56.162778 0
M  V30 24 C 39.341751 34.323241 61.618040 0 CFG=1
M  V30 25 C 38.941681 30.252942 59.295978 0
M  V30 26 H 41.046022 34.459786 62.976403 0
M  V30 27 H 41.527489 34.506930 61.297238 0
M  V30 28 H 40.478113 26.026304 56.767210 0
M  V30 29 H 41.284637 26.455362 58.253470 0
M  V30 30 H 40.089882 25.164381 58.253452 0
M  V30 31 H 36.612873 37.878627 61.813326 0
M  V30 32 H 37.087358 37.992105 60.126346 0
M  V30 33 H 39.153751 31.004789 55.743493 0
M  V30 34 H 37.465756 31.325659 55.388233 0
M  V30 35 H 36.675713 35.548392 61.815982 0
M  V30 36 H 37.548745 25.800419 58.244801 0
M  V30 37 H 37.081267 27.424674 57.853477 0
M  V30 38 H 38.267362 34.485373 56.641337 0
M  V30 39 H 39.235906 33.591273 55.461162 0
M  V30 40 H 37.467517 33.601410 55.355537 0
M  V30 41 H 39.676692 28.547596 56.544832 0
M  V30 42 H 40.651870 28.777047 57.947668 0
M  V30 43 H 39.228047 35.897928 64.114841 0
M  V30 44 H 39.026188 37.621324 64.039642 0
M  V30 45 H 37.667926 36.577414 63.656090 0
M  V30 46 H 39.158208 27.232083 59.241684 0
M  V30 47 H 41.289373 36.822982 62.833656 0
M  V30 48 H 41.139994 36.790420 61.079279 0
M  V30 49 H 37.257325 32.664780 60.810926 0
M  V30 50 H 38.340060 31.548025 61.594024 0
M  V30 51 H 39.161798 35.839502 60.161433 0
M  V30 52 H 37.467318 29.257099 56.482665 0
M  V30 53 H 36.784976 30.342801 57.620077 0
M  V30 54 H 37.139029 35.907892 58.787184 0
M  V30 55 H 36.667818 34.396365 59.540948 0
M  V30 56 H 35.577780 35.768732 59.566099 0
M  V30 57 H 37.469078 31.569454 58.781202 0
M  V30 58 H 40.298962 32.631753 60.658915 0
M  V30 59 H 39.373617 33.608636 59.564549 0
M  V30 60 H 36.748096 26.021260 55.887437 0
M  V30 61 H 38.064971 27.125937 55.521619 0
M  V30 62 H 38.402989 25.443267 55.927010 0
M  V30 63 H 38.846354 33.980064 62.526053 0
M  V30 END ATOM
M  V30 BEGIN BOND
M  V30 1 1 5 4
M  V30 2 1 6 3
M  V30 3 1 7 3
M  V30 4 1 10 4
M  V30 5 1 11 6
M  V30 6 1 12 9
M  V30 7 1 11 13 CFG=1
M  V30 8 1 14 2
M  V30 9 1 14 8
M  V30 10 1 14 12
M  V30 11 1 16 1
M  V30 12 1 16 11
M  V30 13 1 18 7
M  V30 14 1 18 11
M  V30 15 1 19 5
M  V30 16 1 19 9
M  V30 17 1 20 7
M  V30 18 1 21 17
M  V30 19 1 22 17
M  V30 20 1 23 8
M  V30 21 1 24 1
M  V30 22 1 24 18
M  V30 23 1 24 22
M  V30 24 1 25 9
M  V30 25 2 25 15
M  V30 26 1 25 21
M  V30 27 1 26 1
M  V30 28 1 27 1
M  V30 29 1 28 2
M  V30 30 1 29 2
M  V30 31 1 30 2
M  V30 32 1 31 3
M  V30 33 1 32 3
M  V30 34 1 33 5
M  V30 35 1 34 5
M  V30 36 1 7 35 CFG=1
M  V30 37 1 36 8
M  V30 38 1 37 8
M  V30 39 1 38 10
M  V30 40 1 39 10
M  V30 41 1 40 10
M  V30 42 1 41 12
M  V30 43 1 42 12
M  V30 44 1 43 13
M  V30 45 1 44 13
M  V30 46 1 45 13
M  V30 47 1 14 46 CFG=1
M  V30 48 1 47 16
M  V30 49 1 48 16
M  V30 50 1 49 17
M  V30 51 1 50 17
M  V30 52 1 18 51 CFG=3
M  V30 53 1 52 19
M  V30 54 1 53 19
M  V30 55 1 54 20
M  V30 56 1 55 20
M  V30 57 1 56 20
M  V30 58 1 57 21
M  V30 59 1 58 22
M  V30 60 1 59 22
M  V30 61 1 60 23
M  V30 62 1 61 23
M  V30 63 1 62 23
M  V30 64 1 24 63 CFG=1
M  V30 END BOND
M  V30 END CTAB
M  END
>  <i_epik_Tot_Q>  (1) 
0

>  <i_epik_Tot_abs_Q>  (1) 
0

>  <i_i_glide_confnum>  (1) 
607

>  <i_i_glide_lignum>  (1) 
270

>  <i_i_glide_posenum>  (1) 
268

>  <i_i_glide_rotatable_bonds>  (1) 
11

>  <i_lp_mmshare_version>  (1) 
72125

>  <i_m_source_file_index>  (1) 
99

>  <i_f3d_flags>  (1) 
0

>  <num_sample>  (1) 
100

>  <b_lp_Chiralities_Consistent>  (1) 
1

>  <r_epik_Charging_Adjusted_Penalty>  (1) 
0

>  <r_epik_Ionization_Penalty>  (1) 
2.6949826091905801e-05

>  <r_epik_Ionization_Penalty_Charging>  (1) 
0

>  <r_epik_Ionization_Penalty_Neutral>  (1) 
2.6949826091905801e-05

>  <r_epik_State_Penalty>  (1) 
-0

>  <r_glide_ring_energy>  (1) 
0

>  <r_i_docking_score>  (1) 
-5.5189668297880967

>  <r_i_glide_ecoul>  (1) 
-2.0299293173902981

>  <r_i_glide_eff_state_penalty>  (1) 
-0

>  <r_i_glide_einternal>  (1) 
7.8976282322457116

>  <r_i_glide_emodel>  (1) 
-45.375809062043132

>  <r_i_glide_emodel_strain>  (1) 
0.041448038976184876

>  <r_i_glide_energy>  (1) 
-36.06855434709702

>  <r_i_glide_erotb>  (1) 
1.3682856871848257

>  <r_i_glide_esite>  (1) 
-0.031877080527722555

>  <r_i_glide_evdw>  (1) 
-34.038625029706722

>  <r_i_glide_gscore>  (1) 
-5.5189668297880967

>  <r_i_glide_gscore_strain>  (1) 
0

>  <r_i_glide_hbond>  (1) 
0

>  <r_i_glide_ligand_efficiency>  (1) 
-0.22075867319152387

>  <r_i_glide_ligand_efficiency_ln>  (1) 
-1.3081605287495066

>  <r_i_glide_ligand_efficiency_sa>  (1) 
-0.64550227627635293

>  <r_i_glide_lipo>  (1) 
-3.351150592456527

>  <r_i_glide_metal>  (1) 
-0

>  <r_i_glide_rewards>  (1) 
-1.4978041948947927

>  <r_lp_Energy>  (1) 
41.975189

>  <r_lp_tautomer_probability>  (1) 
1

>  <s_epik_cmdline>  (1) 
J2VwaWtfcHl0aG9uJywgJy1waHQnLCAnMS4wJywgJy1waCcsICc3LjQnLCAnLXRuJywgJzgnLCAnLW1hJywgJzUwMCcsICctaW1hZScsICc8aW5maWxlLm1hZT4nLCAnLW9tYWUnLCAnPG91dGZpbGUubWFlPic=

>  <s_epik_input>  (1) 
TzFbQ0gyXVtDQEBIXShbQ0gzXSlbQ0BASF0oW0NAXTEyW0NIM10pW0NASF0oW0NIMl1bQ0gyXTIpW0NIMl1bQ0gyXVtOSF1DKD1PKU4oW0NIMl1bQ0BIXShbQ0gzXSlbQ0gyXVtDSDNdKVtDSDJdW0NIMl1PW0NIM10=

>  <s_glide_docking_method>  (1) 
confgen

>  <s_i_glide_gridfile>  (1) 
gpcr_5ht2c_6bqh_protein_autoprepared_prepared

>  <s_lp_Force_Field>  (1) 
S-OPLS

>  <s_lp_Variant>  (1) 
DiffSBDD_98_num_sample_100-1

>  <s_m_source_file>  (1) 
generated__ligand_DiffSBDD_2026-05-06_prepared.sdf

>  <GenAI_Model>  (1) 
DiffSBDD

>  <Protein>  (1) 
GPCR_5HT2C

$$$$
DiffSBDD_40_num_sample_100
     RDKit          3D

  0  0  0  0  0  0  0  0  0  0999 V3000
M  V30 BEGIN CTAB
M  V30 COUNTS 73 75 0 0 1
M  V30 BEGIN ATOM
M  V30 1 C 36.476084 36.921528 60.219490 0
M  V30 2 C 39.226748 28.164493 52.690204 0 CFG=1
M  V30 3 N 40.348847 30.021716 65.448710 0
M  V30 4 C 39.191728 26.509629 54.665254 0
M  V30 5 C 35.480720 32.714054 61.554080 0
M  V30 6 C 37.153350 29.613147 58.457046 0
M  V30 7 N 39.697102 30.490423 63.223688 0 CHG=1
M  V30 8 C 39.709595 26.770953 57.521463 0
M  V30 9 O 39.071973 27.744142 59.616140 0
M  V30 10 C 37.779632 28.433993 57.702479 0
M  V30 11 C 40.058266 28.482936 51.453506 0
M  V30 12 C 37.727190 28.254269 52.385499 0
M  V30 13 N 40.670638 32.066670 64.312382 0
M  V30 14 C 37.826051 33.529271 58.876142 0 CFG=2
M  V30 15 C 39.595705 26.761557 53.222696 0
M  V30 16 C 37.713232 31.730081 60.724987 0 CFG=1
M  V30 17 C 37.027864 32.784462 61.617018 0 CFG=1
M  V30 18 S 37.849651 25.612159 55.064113 0
M  V30 19 C 39.762786 31.561437 62.356203 0
M  V30 20 N 37.205564 34.514730 59.834357 0 CFG=2 CHG=1
M  V30 21 S 40.267408 27.235913 55.854772 0
M  V30 22 C 37.467405 35.960173 59.558017 0
M  V30 23 C 40.392274 32.573766 63.067962 0
M  V30 24 C 39.160151 28.009413 58.236402 0 CFG=2
M  V30 25 C 37.515614 34.186488 61.247031 0
M  V30 26 O 40.390776 29.818295 51.401071 0
M  V30 27 C 37.407888 33.875293 57.443118 0
M  V30 28 N 39.735668 29.015058 50.361477 0
M  V30 29 C 40.247210 30.817007 64.386301 0
M  V30 30 C 37.397544 32.058837 59.233477 0 CFG=2
M  V30 31 C 39.243299 31.504011 60.953346 0
M  V30 32 C 37.918140 30.941080 58.287619 0
M  V30 33 H 36.731799 37.949848 59.966816 0
M  V30 34 H 35.467764 36.734926 59.853516 0
M  V30 35 H 36.478848 36.872965 61.307108 0
M  V30 36 H 39.467324 28.914693 53.445904 0
M  V30 37 H 39.990899 29.073759 65.450949 0
M  V30 38 H 40.772659 30.323570 66.314775 0
M  V30 39 H 35.068437 32.923969 60.568917 0
M  V30 40 H 35.114540 31.731493 61.853534 0
M  V30 41 H 35.029552 33.450077 62.222873 0
M  V30 42 H 36.133790 29.753789 58.096584 0
M  V30 43 H 37.050143 29.333016 59.501137 0
M  V30 44 H 40.605033 26.434141 58.044514 0
M  V30 45 H 39.024334 25.928433 57.568703 0
M  V30 46 H 38.446930 27.046832 59.745829 0
M  V30 47 H 37.850954 28.688124 56.644107 0
M  V30 48 H 37.098537 27.584205 57.762411 0
M  V30 49 H 37.467409 29.221431 51.977468 0
M  V30 50 H 37.467372 27.516232 51.633928 0
M  V30 51 H 37.107591 28.092288 53.267126 0
M  V30 52 H 41.130913 32.568928 65.061692 0
M  V30 53 H 38.910688 33.619785 58.932724 0
M  V30 54 H 40.667393 26.584907 53.151099 0
M  V30 55 H 39.155488 26.021458 52.565909 0
M  V30 56 H 37.235733 30.793841 61.006694 0
M  V30 57 H 37.305937 32.587295 62.652596 0
M  V30 58 H 38.478619 36.209935 59.877994 0
M  V30 59 H 37.417093 36.199846 58.501362 0
M  V30 60 H 40.656580 33.583114 62.783738 0
M  V30 61 H 39.878613 28.819543 58.116236 0
M  V30 62 H 37.032395 34.898874 61.908866 0
M  V30 63 H 38.588542 34.282619 61.418804 0
M  V30 64 H 37.636722 33.126662 56.692768 0
M  V30 65 H 36.329372 34.021428 57.453514 0
M  V30 66 H 37.867415 34.778284 57.053398 0
M  V30 67 H 36.317764 32.023670 59.094802 0
M  V30 68 H 39.527681 30.533773 60.545671 0
M  V30 69 H 39.819170 32.233628 60.386954 0
M  V30 70 H 38.991137 30.815231 58.406347 0
M  V30 71 H 37.792061 31.192769 57.239965 0
M  V30 72 H 36.208371 34.394820 59.721403 0
M  V30 73 H 39.289644 29.584871 63.011720 0
M  V30 END ATOM
M  V30 BEGIN BOND
M  V30 1 1 10 6
M  V30 2 1 11 2
M  V30 3 1 12 2
M  V30 4 1 15 2
M  V30 5 1 15 4
M  V30 6 1 17 5
M  V30 7 1 17 16
M  V30 8 2 18 4
M  V30 9 1 19 7
M  V30 10 1 20 14
M  V30 11 1 21 4
M  V30 12 1 21 8
M  V30 13 1 22 1
M  V30 14 1 22 20
M  V30 15 1 23 13
M  V30 16 2 23 19
M  V30 17 1 24 8
M  V30 18 1 24 9
M  V30 19 1 24 10
M  V30 20 1 25 17
M  V30 21 1 25 20
M  V30 22 1 26 11
M  V30 23 1 27 14
M  V30 24 2 28 11
M  V30 25 1 28 26
M  V30 26 1 29 3
M  V30 27 2 29 7
M  V30 28 1 29 13
M  V30 29 1 30 14
M  V30 30 1 30 16
M  V30 31 1 31 16
M  V30 32 1 31 19
M  V30 33 1 32 6
M  V30 34 1 32 30
M  V30 35 1 33 1
M  V30 36 1 34 1
M  V30 37 1 35 1
M  V30 38 1 2 36 CFG=1
M  V30 39 1 37 3
M  V30 40 1 38 3
M  V30 41 1 39 5
M  V30 42 1 40 5
M  V30 43 1 41 5
M  V30 44 1 42 6
M  V30 45 1 43 6
M  V30 46 1 44 8
M  V30 47 1 45 8
M  V30 48 1 46 9
M  V30 49 1 47 10
M  V30 50 1 48 10
M  V30 51 1 49 12
M  V30 52 1 50 12
M  V30 53 1 51 12
M  V30 54 1 52 13
M  V30 55 1 14 53 CFG=3
M  V30 56 1 54 15
M  V30 57 1 55 15
M  V30 58 1 16 56 CFG=1
M  V30 59 1 17 57 CFG=1
M  V30 60 1 58 22
M  V30 61 1 59 22
M  V30 62 1 60 23
M  V30 63 1 24 61 CFG=1
M  V30 64 1 62 25
M  V30 65 1 63 25
M  V30 66 1 64 27
M  V30 67 1 65 27
M  V30 68 1 66 27
M  V30 69 1 30 67 CFG=1
M  V30 70 1 68 31
M  V30 71 1 69 31
M  V30 72 1 70 32
M  V30 73 1 71 32
M  V30 74 1 20 72 CFG=1
M  V30 75 1 73 7
M  V30 END BOND
M  V30 END CTAB
M  END
>  <i_epik_Tot_Q>  (1) 
2

>  <i_epik_Tot_abs_Q>  (1) 
2

>  <i_i_glide_confnum>  (1) 
1199

>  <i_i_glide_lignum>  (1) 
101

>  <i_i_glide_posenum>  (1) 
375

>  <i_i_glide_rotatable_bonds>  (1) 
14

>  <i_lp_mmshare_version>  (1) 
72125

>  <i_m_source_file_index>  (1) 
41

>  <i_f3d_flags>  (1) 
0

>  <num_sample>  (1) 
100

>  <b_lp_Chiralities_Consistent>  (1) 
1

>  <r_epik_Charging_Adjusted_Penalty>  (1) 
0.0037096170623772918

>  <r_epik_Ionization_Penalty>  (1) 
0.054330814931534903

>  <r_epik_Ionization_Penalty_Charging>  (1) 
0.0037096170623772918

>  <r_epik_Ionization_Penalty_Neutral>  (1) 
0.050621197869157614

>  <r_epik_State_Penalty>  (1) 
-0

>  <r_glide_ring_energy>  (1) 
0

>  <r_i_docking_score>  (1) 
-5.5182052407388023

>  <r_i_glide_ecoul>  (1) 
-0.66616405448078542

>  <r_i_glide_eff_state_penalty>  (1) 
-0

>  <r_i_glide_einternal>  (1) 
10.394834311805369

>  <r_i_glide_emodel>  (1) 
-48.981945622809143

>  <r_i_glide_emodel_strain>  (1) 
0.35197849333562203

>  <r_i_glide_energy>  (1) 
-39.065997239971637

>  <r_i_glide_erotb>  (1) 
0.95438045441749597

>  <r_i_glide_esite>  (1) 
-0.011410750752085108

>  <r_i_glide_evdw>  (1) 
-38.399833185490849

>  <r_i_glide_gscore>  (1) 
-5.5182052407388023

>  <r_i_glide_gscore_strain>  (1) 
0

>  <r_i_glide_hbond>  (1) 
0

>  <r_i_glide_ligand_efficiency>  (1) 
-0.17244391377308757

>  <r_i_glide_ligand_efficiency_ln>  (1) 
-1.2356765739951718

>  <r_i_glide_ligand_efficiency_sa>  (1) 
-0.54747530025782543

>  <r_i_glide_lipo>  (1) 
-2.3069046863990086

>  <r_i_glide_metal>  (1) 
-0

>  <r_i_glide_rewards>  (1) 
-2.1343539905585449

>  <r_lp_Energy>  (1) 
35.776657

>  <r_lp_tautomer_probability>  (1) 
1

>  <s_epik_Chemistry_Notes>  (1) 
This compound has an imine and may undergo hydrolysis.

>  <s_epik_cmdline>  (1) 
J2VwaWtfcHl0aG9uJywgJy1waHQnLCAnMS4wJywgJy1waCcsICc3LjQnLCAnLXRuJywgJzgnLCAnLW1hJywgJzUwMCcsICctaW1hZScsICc8aW5maWxlLm1hZT4nLCAnLW9tYWUnLCAnPG91dGZpbGUubWFlPic=

>  <s_epik_input>  (1) 
W2NIXTFbbkhdYyhbTkgyXSluYzFbQ0gyXVtDQEBIXShbQ0BIXShbQ0gzXSlbQ0gyXU4oW0NAQEhdMltDSDNdKVtDSDJdW0NIM10pW0NAQEhdMltDSDJdW0NIMl1bQ0gyXVtDQEBIXShbT0hdKVtDSDJdU0MoPVMpW0NIMl1bQ0BIXShbQ0gzXSlDMz1OTzM=

>  <s_glide_docking_method>  (1) 
confgen

>  <s_i_glide_gridfile>  (1) 
gpcr_5ht2c_6bqh_protein_autoprepared_prepared

>  <s_lp_Force_Field>  (1) 
S-OPLS

>  <s_lp_Variant>  (1) 
DiffSBDD_40_num_sample_100-2

>  <s_m_source_file>  (1) 
generated__ligand_DiffSBDD_2026-05-06_prepared.sdf

>  <GenAI_Model>  (1) 
DiffSBDD

>  <Protein>  (1) 
GPCR_5HT2C

$$$$
DiffSBDD_44_num_sample_100
     RDKit          3D

  0  0  0  0  0  0  0  0  0  0999 V3000
M  V30 BEGIN CTAB
M  V30 COUNTS 58 59 0 0 1
M  V30 BEGIN ATOM
M  V30 1 C 36.929637 33.952365 58.379242 0
M  V30 2 O 36.645411 30.844089 61.059872 0 CHG=-1
M  V30 3 C 38.759100 28.465125 58.435215 0
M  V30 4 C 35.906668 33.955427 60.587576 0 CFG=1
M  V30 5 N 37.050130 33.011566 60.547133 0 CFG=2 CHG=1
M  V30 6 C 41.215174 28.415253 58.582972 0
M  V30 7 N 39.867398 30.935896 60.253531 0
M  V30 8 C 39.832820 28.813581 59.093305 0
M  V30 9 O 40.828874 29.195682 61.297818 0
M  V30 10 C 36.075372 34.813671 59.318573 0 CFG=1
M  V30 11 C 36.723931 36.180169 59.587095 0
M  V30 12 C 38.552608 31.706966 62.195199 0 CFG=1
M  V30 13 C 39.596769 31.850366 61.096201 0
M  V30 14 C 37.207980 32.654071 59.113597 0
M  V30 15 C 40.657583 27.994255 61.988037 0
M  V30 16 C 38.820217 27.111719 56.376604 0
M  V30 17 C 37.124266 31.936735 61.601559 0 CFG=2
M  V30 18 C 39.749972 29.529678 60.437698 0 CFG=1
M  V30 19 F 40.267424 25.796786 57.692124 0
M  V30 20 C 40.285482 26.722393 56.730375 0 CFG=2
M  V30 21 C 38.103006 27.867201 57.480565 0
M  V30 22 C 38.740787 30.467017 63.102116 0
M  V30 23 C 40.267537 33.211055 61.028240 0
M  V30 24 C 34.554906 33.221380 60.585304 0
M  V30 25 C 41.248130 27.890113 57.112249 0
M  V30 26 H 37.867493 34.426496 58.114904 0
M  V30 27 H 36.416126 33.752742 57.453356 0
M  V30 28 H 35.966566 34.575376 61.482868 0
M  V30 29 H 41.876678 29.275884 58.667379 0
M  V30 30 H 41.625599 27.649604 59.241885 0
M  V30 31 H 35.105535 34.996951 58.852515 0
M  V30 32 H 37.708387 36.073754 60.042196 0
M  V30 33 H 36.845699 36.737362 58.657383 0
M  V30 34 H 36.113081 36.788516 60.253631 0
M  V30 35 H 38.729814 32.534979 62.881571 0
M  V30 36 H 38.185665 32.269243 58.842493 0
M  V30 37 H 36.485100 31.898335 58.813169 0
M  V30 38 H 41.546093 27.773894 62.579723 0
M  V30 39 H 39.799513 28.014811 62.653114 0
M  V30 40 H 40.498554 27.221410 61.250258 0
M  V30 41 H 38.254243 26.206795 56.154254 0
M  V30 42 H 38.798955 27.719707 55.472310 0
M  V30 43 H 36.667408 32.394438 62.458859 0
M  V30 44 H 38.771756 29.258268 60.810490 0
M  V30 45 H 40.705081 26.211268 55.863469 0
M  V30 46 H 37.028491 27.872464 57.453580 0
M  V30 47 H 39.793220 30.266695 63.296457 0
M  V30 48 H 38.267357 30.421423 64.072168 0
M  V30 49 H 38.267814 29.620681 62.653466 0
M  V30 50 H 41.348993 33.081314 61.054139 0
M  V30 51 H 39.988463 33.714446 60.102219 0
M  V30 52 H 39.997049 33.867838 61.854590 0
M  V30 53 H 33.739722 33.860975 60.253320 0
M  V30 54 H 34.552464 32.365525 59.909233 0
M  V30 55 H 34.323392 32.859200 61.586433 0
M  V30 56 H 41.066757 28.719976 56.429319 0
M  V30 57 H 42.272410 27.573915 56.919320 0
M  V30 58 H 37.844017 33.600596 60.741126 0
M  V30 END ATOM
M  V30 BEGIN BOND
M  V30 1 1 5 4
M  V30 2 2 8 3
M  V30 3 1 8 6
M  V30 4 1 10 1
M  V30 5 1 10 4
M  V30 6 1 11 10
M  V30 7 2 13 7
M  V30 8 1 13 12
M  V30 9 1 14 1
M  V30 10 1 14 5
M  V30 11 1 15 9
M  V30 12 1 17 2
M  V30 13 1 17 5
M  V30 14 1 17 12
M  V30 15 1 18 7
M  V30 16 1 18 8
M  V30 17 1 18 9
M  V30 18 1 20 16
M  V30 19 1 20 19
M  V30 20 2 21 3
M  V30 21 1 21 16
M  V30 22 1 22 12
M  V30 23 1 23 13
M  V30 24 1 24 4
M  V30 25 1 25 6
M  V30 26 1 25 20
M  V30 27 1 26 1
M  V30 28 1 27 1
M  V30 29 1 4 28 CFG=1
M  V30 30 1 29 6
M  V30 31 1 30 6
M  V30 32 1 10 31 CFG=3
M  V30 33 1 32 11
M  V30 34 1 33 11
M  V30 35 1 34 11
M  V30 36 1 12 35 CFG=1
M  V30 37 1 36 14
M  V30 38 1 37 14
M  V30 39 1 38 15
M  V30 40 1 39 15
M  V30 41 1 40 15
M  V30 42 1 41 16
M  V30 43 1 42 16
M  V30 44 1 17 43 CFG=1
M  V30 45 1 18 44 CFG=1
M  V30 46 1 20 45 CFG=3
M  V30 47 1 46 21
M  V30 48 1 47 22
M  V30 49 1 48 22
M  V30 50 1 49 22
M  V30 51 1 50 23
M  V30 52 1 51 23
M  V30 53 1 52 23
M  V30 54 1 53 24
M  V30 55 1 54 24
M  V30 56 1 55 24
M  V30 57 1 56 25
M  V30 58 1 57 25
M  V30 59 1 5 58 CFG=1
M  V30 END BOND
M  V30 END CTAB
M  END
>  <i_epik_Tot_Q>  (1) 
0

>  <i_epik_Tot_abs_Q>  (1) 
2

>  <i_i_glide_confnum>  (1) 
39

>  <i_i_glide_lignum>  (1) 
123

>  <i_i_glide_posenum>  (1) 
393

>  <i_i_glide_rotatable_bonds>  (1) 
6

>  <i_lp_mmshare_version>  (1) 
72125

>  <i_m_source_file_index>  (1) 
45

>  <i_f3d_flags>  (1) 
0

>  <num_sample>  (1) 
100

>  <b_lp_Chiralities_Consistent>  (1) 
1

>  <r_epik_Charging_Adjusted_Penalty>  (1) 
0.41733257654759531

>  <r_epik_Ionization_Penalty>  (1) 
0.0069177268181324029

>  <r_epik_Ionization_Penalty_Charging>  (1) 
0.0066527375949913311

>  <r_epik_Ionization_Penalty_Neutral>  (1) 
0.00026498922314107146

>  <r_epik_State_Penalty>  (1) 
0.41067983895260396

>  <r_glide_ring_energy>  (1) 
0

>  <r_i_docking_score>  (1) 
-5.5124983043954918

>  <r_i_glide_ecoul>  (1) 
-5.4228596527175412

>  <r_i_glide_eff_state_penalty>  (1) 
0.41067983895260396

>  <r_i_glide_einternal>  (1) 
5.062779462972852

>  <r_i_glide_emodel>  (1) 
-33.472500326106122

>  <r_i_glide_emodel_strain>  (1) 
1.7499461655027275

>  <r_i_glide_energy>  (1) 
-22.34714488148213

>  <r_i_glide_erotb>  (1) 
0.61440649929112812

>  <r_i_glide_esite>  (1) 
-0.029105454647368047

>  <r_i_glide_evdw>  (1) 
-16.924285228764589

>  <r_i_glide_gscore>  (1) 
-5.9231781433480961

>  <r_i_glide_gscore_strain>  (1) 
0

>  <r_i_glide_hbond>  (1) 
-0.47999999999999998

>  <r_i_glide_ligand_efficiency>  (1) 
-0.22049993217581967

>  <r_i_glide_ligand_efficiency_ln>  (1) 
-1.3066272943853956

>  <r_i_glide_ligand_efficiency_sa>  (1) 
-0.6447457129568307

>  <r_i_glide_lipo>  (1) 
-2.1230387505113133

>  <r_i_glide_metal>  (1) 
-0

>  <r_i_glide_rewards>  (1) 
-2.2457972281346814

>  <r_lp_Energy>  (1) 
19.622211999999998

>  <r_lp_tautomer_probability>  (1) 
0.49999399997599986

>  <s_epik_Chemistry_Notes>  (1) 
This compound has an imine and may undergo hydrolysis. This compound contains an acetal/aminal-like group ( X-CH(R)-Y where X, Y are N, S, or O) that may be acid/base labile, releasing an aldehyde.

>  <s_epik_cmdline>  (1) 
J2VwaWtfcHl0aG9uJywgJy1waHQnLCAnMS4wJywgJy1waCcsICc3LjQnLCAnLXRuJywgJzgnLCAnLW1hJywgJzUwMCcsICctaW1hZScsICc8aW5maWxlLm1hZT4nLCAnLW9tYWUnLCAnPG91dGZpbGUubWFlPic=

>  <s_epik_input>  (1) 
W0NIM11bQ0BIXTFbQ0gyXVtDSDJdTihbQ0BASF0xW0NIM10pW0NAQEhdKFtPSF0pW0NAQEhdKFtDSDNdKS9DKFtDSDNdKT1OXFtDQEBIXShPW0NIM10pQzI9Qz1bQ0hdW0NIMl1bQ0BASF0oRilbQ0gyXVtDSDJdMg==

>  <s_glide_docking_method>  (1) 
confgen

>  <s_i_glide_gridfile>  (1) 
gpcr_5ht2c_6bqh_protein_autoprepared_prepared

>  <s_lp_Force_Field>  (1) 
S-OPLS

>  <s_lp_Variant>  (1) 
DiffSBDD_44_num_sample_100-16

>  <s_m_source_file>  (1) 
generated__ligand_DiffSBDD_2026-05-06_prepared.sdf

>  <GenAI_Model>  (1) 
DiffSBDD

>  <Protein>  (1) 
GPCR_5HT2C

$$$$
DiffSBDD_20_num_sample_100
     RDKit          3D

  0  0  0  0  0  0  0  0  0  0999 V3000
M  V30 BEGIN CTAB
M  V30 COUNTS 55 55 0 0 1
M  V30 BEGIN ATOM
M  V30 1 C 38.527938 26.878784 56.846708 0 CFG=1
M  V30 2 C 38.576071 28.506141 54.734063 0 CFG=2
M  V30 3 C 38.415430 30.122321 58.543926 0
M  V30 4 C 39.059147 24.335870 56.955091 0
M  V30 5 N 39.041143 28.535325 53.372328 0
M  V30 6 C 39.430535 30.978158 53.452726 0
M  V30 7 O 37.067498 35.886142 61.846840 0
M  V30 8 C 37.534492 34.712981 59.838710 0
M  V30 9 C 37.524911 32.119363 59.662605 0
M  V30 10 C 40.277255 30.884615 50.676182 0
M  V30 11 N 37.470478 31.067759 58.653716 0
M  V30 12 O 39.377848 30.021419 59.306018 0
M  V30 13 C 37.410276 26.604211 57.853071 0
M  V30 14 C 39.606080 25.772038 56.978138 0
M  V30 15 C 39.467404 29.592906 52.795702 0
M  V30 16 C 36.777449 34.883181 61.158364 0
M  V30 17 O 39.467406 27.221451 50.869402 0
M  V30 18 N 38.211110 29.316872 57.496480 0
M  V30 19 C 39.722577 28.719308 55.738391 0
M  V30 20 S 37.876683 26.889685 55.141551 0
M  V30 21 C 39.321918 28.568124 50.478924 0
M  V30 22 O 35.926981 34.014045 61.453523 0 CHG=-1
M  V30 23 C 39.169299 28.276237 57.087533 0 CFG=2
M  V30 24 C 40.091424 29.535664 51.390260 0 CFG=1
M  V30 25 C 37.149592 33.466430 59.014738 0
M  V30 26 H 37.767698 29.222441 54.885728 0
M  V30 27 H 39.867380 23.621442 57.053492 0
M  V30 28 H 38.388395 24.126352 57.787533 0
M  V30 29 H 38.529877 24.119256 56.026934 0
M  V30 30 H 39.069353 31.744636 52.770590 0
M  V30 31 H 38.602748 34.702335 60.056193 0
M  V30 32 H 37.348745 35.606540 59.241457 0
M  V30 33 H 36.834815 31.862050 60.465571 0
M  V30 34 H 38.516884 32.202986 60.110035 0
M  V30 35 H 40.844705 31.580515 51.288514 0
M  V30 36 H 40.837929 30.757840 49.749847 0
M  V30 37 H 39.329095 31.352687 50.415123 0
M  V30 38 H 36.708618 31.099757 57.979956 0
M  V30 39 H 37.867407 26.523253 58.839722 0
M  V30 40 H 36.664674 27.394471 57.853505 0
M  V30 41 H 36.863467 25.687207 57.638677 0
M  V30 42 H 40.349089 25.876933 56.186389 0
M  V30 43 H 40.151653 25.902301 57.913785 0
M  V30 44 H 39.180375 27.160047 51.772605 0
M  V30 45 H 37.392601 29.456976 56.922564 0
M  V30 46 H 40.582492 28.105821 55.470601 0
M  V30 47 H 40.074997 29.749477 55.776264 0
M  V30 48 H 39.657226 28.677874 49.453510 0
M  V30 49 H 38.267414 28.809478 50.512019 0
M  V30 50 H 39.986389 28.194230 57.806432 0
M  V30 51 H 41.093369 29.125004 51.512441 0
M  V30 52 H 37.653113 33.549436 58.050706 0
M  V30 53 H 36.082051 33.482354 58.787877 0
M  V30 54 H 38.771585 31.037202 54.315725 0
M  V30 55 H 40.435289 31.241708 53.780378 0
M  V30 END ATOM
M  V30 BEGIN BOND
M  V30 1 1 5 2
M  V30 2 1 11 3
M  V30 3 1 11 9
M  V30 4 2 12 3
M  V30 5 1 1 13 CFG=1
M  V30 6 1 14 1
M  V30 7 1 14 4
M  V30 8 2 15 5
M  V30 9 1 15 6
M  V30 10 2 16 7
M  V30 11 1 16 8
M  V30 12 1 18 3
M  V30 13 1 19 2
M  V30 14 1 20 1
M  V30 15 1 20 2
M  V30 16 1 21 17
M  V30 17 1 22 16
M  V30 18 1 23 1
M  V30 19 1 23 18
M  V30 20 1 23 19
M  V30 21 1 24 10
M  V30 22 1 24 15
M  V30 23 1 24 21
M  V30 24 1 25 8
M  V30 25 1 25 9
M  V30 26 1 2 26 CFG=3
M  V30 27 1 27 4
M  V30 28 1 28 4
M  V30 29 1 29 4
M  V30 30 1 30 6
M  V30 31 1 31 8
M  V30 32 1 32 8
M  V30 33 1 33 9
M  V30 34 1 34 9
M  V30 35 1 35 10
M  V30 36 1 36 10
M  V30 37 1 37 10
M  V30 38 1 38 11
M  V30 39 1 39 13
M  V30 40 1 40 13
M  V30 41 1 41 13
M  V30 42 1 42 14
M  V30 43 1 43 14
M  V30 44 1 44 17
M  V30 45 1 45 18
M  V30 46 1 46 19
M  V30 47 1 47 19
M  V30 48 1 48 21
M  V30 49 1 49 21
M  V30 50 1 23 50 CFG=1
M  V30 51 1 24 51 CFG=1
M  V30 52 1 52 25
M  V30 53 1 53 25
M  V30 54 1 54 6
M  V30 55 1 55 6
M  V30 END BOND
M  V30 END CTAB
M  END
>  <i_epik_Tot_Q>  (1) 
-1

>  <i_epik_Tot_abs_Q>  (1) 
1

>  <i_i_glide_confnum>  (1) 
957

>  <i_i_glide_lignum>  (1) 
55

>  <i_i_glide_posenum>  (1) 
387

>  <i_i_glide_rotatable_bonds>  (1) 
12

>  <i_lp_mmshare_version>  (1) 
72125

>  <i_m_source_file_index>  (1) 
21

>  <i_f3d_flags>  (1) 
0

>  <num_sample>  (1) 
100

>  <b_lp_Chiralities_Consistent>  (1) 
1

>  <r_epik_Charging_Adjusted_Penalty>  (1) 
0.43743025276339681

>  <r_epik_Ionization_Penalty>  (1) 
0.026773266926762091

>  <r_epik_Ionization_Penalty_Charging>  (1) 
0.0015534882308521432

>  <r_epik_Ionization_Penalty_Neutral>  (1) 
0.025219778695909949

>  <r_epik_State_Penalty>  (1) 
0.43587676453254465

>  <r_glide_ring_energy>  (1) 
0

>  <r_i_docking_score>  (1) 
-5.5080062610040628

>  <r_i_glide_ecoul>  (1) 
-3.2256702440412934

>  <r_i_glide_eff_state_penalty>  (1) 
0.43587676453254465

>  <r_i_glide_einternal>  (1) 
10.693714385448891

>  <r_i_glide_emodel>  (1) 
-44.271453595149303

>  <r_i_glide_emodel_strain>  (1) 
1.2802359576265374

>  <r_i_glide_energy>  (1) 
-37.724402123886094

>  <r_i_glide_erotb>  (1) 
1.2527341714622291

>  <r_i_glide_esite>  (1) 
-0.12970920538437189

>  <r_i_glide_evdw>  (1) 
-34.498731879844797

>  <r_i_glide_gscore>  (1) 
-5.9438830255366071

>  <r_i_glide_gscore_strain>  (1) 
0

>  <r_i_glide_hbond>  (1) 
-0.16

>  <r_i_glide_ligand_efficiency>  (1) 
-0.22032025044016251

>  <r_i_glide_ligand_efficiency_ln>  (1) 
-1.3055625454859494

>  <r_i_glide_ligand_efficiency_sa>  (1) 
-0.64422032037453625

>  <r_i_glide_lipo>  (1) 
-3.0323280462098117

>  <r_i_glide_metal>  (1) 
-0

>  <r_i_glide_rewards>  (1) 
-1.6657928148062184

>  <r_lp_Energy>  (1) 
19.180076

>  <r_lp_tautomer_probability>  (1) 
0.49999399997599986

>  <s_epik_Chemistry_Notes>  (1) 
This compound has an imine and may undergo hydrolysis. This compound contains an acetal/aminal-like group ( X-CH(R)-Y where X, Y are N, S, or O) that may be acid/base labile, releasing an aldehyde.

>  <s_epik_cmdline>  (1) 
J2VwaWtfcHl0aG9uJywgJy1waHQnLCAnMS4wJywgJy1waCcsICc3LjQnLCAnLXRuJywgJzgnLCAnLW1hJywgJzUwMCcsICctaW1hZScsICc8aW5maWxlLm1hZT4nLCAnLW9tYWUnLCAnPG91dGZpbGUubWFlPic=

>  <s_epik_input>  (1) 
W09IXVtDSDJdW0NAQEhdKFtDSDNdKUMoPVtDSDJdKVtOSF1bQ0BASF0oU1tDQEBdMShbQ0gzXSlbQ0gyXVtDSDNdKVtDSDJdW0NASF0xW05IXUMoPU8pW05IXVtDSDJdW0NIMl1bQ0gyXUMoPU8pW09IXQ==

>  <s_glide_docking_method>  (1) 
confgen

>  <s_i_glide_gridfile>  (1) 
gpcr_5ht2c_6bqh_protein_autoprepared_prepared

>  <s_lp_Force_Field>  (1) 
S-OPLS

>  <s_lp_Variant>  (1) 
DiffSBDD_20_num_sample_100-3

>  <s_m_source_file>  (1) 
generated__ligand_DiffSBDD_2026-05-06_prepared.sdf

>  <GenAI_Model>  (1) 
DiffSBDD

>  <Protein>  (1) 
GPCR_5HT2C

$$$$
DiffSBDD_1_num_sample_100
     RDKit          3D

  0  0  0  0  0  0  0  0  0  0999 V3000
M  V30 BEGIN CTAB
M  V30 COUNTS 62 65 0 0 1
M  V30 BEGIN ATOM
M  V30 1 C 36.650808 37.311752 61.914738 0
M  V30 2 C 38.749960 28.932207 57.155016 0
M  V30 3 O 35.867398 39.270926 62.653507 0
M  V30 4 C 37.921438 29.865258 59.368057 0 CFG=1
M  V30 5 C 37.291025 36.412278 60.938183 0
M  V30 6 C 36.783448 32.075615 59.398284 0
M  V30 7 C 39.466842 30.408743 53.564052 0
M  V30 8 C 39.037791 26.756748 56.323502 0
M  V30 9 N 39.036746 27.736998 55.210962 0 CHG=1
M  V30 10 C 39.980625 32.515447 61.216835 0
M  V30 11 C 37.187303 34.908567 61.191098 0
M  V30 12 C 38.715173 30.225928 54.898592 0 CFG=2
M  V30 13 C 39.312496 29.082745 55.761849 0 CFG=1
M  V30 14 C 37.800795 32.531302 60.455297 0 CFG=2
M  V30 15 C 39.607990 34.005693 61.091002 0
M  V30 16 C 36.531631 38.582036 61.713944 0
M  V30 17 N 36.643116 30.606709 59.453511 0
M  V30 18 C 38.495962 29.980836 57.964250 0
M  V30 19 O 37.867389 36.821424 59.932675 0
M  V30 20 C 37.187409 30.131205 54.711530 0
M  V30 21 C 35.366686 38.159607 63.504359 0
M  V30 22 C 38.943125 30.392343 60.409294 0
M  V30 23 C 38.489021 27.503337 57.545986 0
M  V30 24 N 39.067405 31.843929 60.318377 0
M  V30 25 O 37.232318 32.156161 61.699308 0
M  V30 26 C 36.080548 36.769071 63.152129 0
M  V30 27 C 38.194981 34.014499 60.456925 0 CFG=2
M  V30 28 O 39.298108 29.290466 52.711327 0
M  V30 29 H 37.728458 28.821200 59.593643 0
M  V30 30 H 37.111781 32.388280 58.406594 0
M  V30 31 H 35.816274 32.553830 59.557384 0
M  V30 32 H 40.532079 30.549855 53.751738 0
M  V30 33 H 39.123607 31.309356 53.053475 0
M  V30 34 H 40.067507 26.446595 56.509140 0
M  V30 35 H 38.458526 25.865890 56.078378 0
M  V30 36 H 38.106749 27.763980 54.819239 0
M  V30 37 H 39.820392 32.175732 62.241476 0
M  V30 38 H 41.020587 32.319045 60.956641 0
M  V30 39 H 36.176902 34.613034 60.908234 0
M  V30 40 H 37.276768 34.722638 62.253481 0
M  V30 41 H 38.893762 31.155294 55.439684 0
M  V30 42 H 40.393422 29.199411 55.853654 0
M  V30 43 H 39.630889 34.486913 62.069568 0
M  V30 44 H 40.295102 34.546514 60.443722 0
M  V30 45 H 36.866041 39.166906 60.870124 0
M  V30 46 H 36.028771 30.325097 58.692008 0
M  V30 47 H 38.707607 30.981336 57.618161 0
M  V30 48 H 36.905997 29.287749 54.082399 0
M  V30 49 H 36.667363 30.022676 55.663768 0
M  V30 50 H 36.797822 31.040152 54.253499 0
M  V30 51 H 35.442409 38.387595 64.562785 0
M  V30 52 H 34.298398 38.063207 63.302915 0
M  V30 53 H 38.637331 30.097669 61.414129 0
M  V30 54 H 39.915649 29.927921 60.243351 0
M  V30 55 H 38.995972 27.216456 58.468447 0
M  V30 56 H 37.415990 27.342699 57.657483 0
M  V30 57 H 36.562446 31.534128 61.453487 0
M  V30 58 H 35.399597 35.926696 63.053501 0
M  V30 59 H 36.874046 36.526108 63.859104 0
M  V30 60 H 38.285164 34.327969 59.415879 0
M  V30 61 H 38.463050 29.362775 52.272989 0
M  V30 62 H 39.689727 27.500358 54.477071 0
M  V30 END ATOM
M  V30 BEGIN BOND
M  V30 1 1 5 1
M  V30 2 1 9 8
M  V30 3 1 11 5
M  V30 4 1 12 7
M  V30 5 1 13 2
M  V30 6 1 13 9
M  V30 7 1 13 12
M  V30 8 1 14 6
M  V30 9 1 15 10
M  V30 10 2 16 1
M  V30 11 1 16 3
M  V30 12 1 17 4
M  V30 13 1 17 6
M  V30 14 2 18 2
M  V30 15 1 18 4
M  V30 16 2 19 5
M  V30 17 1 20 12
M  V30 18 1 21 3
M  V30 19 1 22 4
M  V30 20 1 23 2
M  V30 21 1 23 8
M  V30 22 1 24 10
M  V30 23 1 24 14
M  V30 24 1 24 22
M  V30 25 1 14 25 CFG=1
M  V30 26 1 26 1
M  V30 27 1 26 21
M  V30 28 1 27 11
M  V30 29 1 27 14
M  V30 30 1 27 15
M  V30 31 1 28 7
M  V30 32 1 4 29 CFG=1
M  V30 33 1 30 6
M  V30 34 1 31 6
M  V30 35 1 32 7
M  V30 36 1 33 7
M  V30 37 1 34 8
M  V30 38 1 35 8
M  V30 39 1 36 9
M  V30 40 1 37 10
M  V30 41 1 38 10
M  V30 42 1 39 11
M  V30 43 1 40 11
M  V30 44 1 12 41 CFG=1
M  V30 45 1 13 42 CFG=1
M  V30 46 1 43 15
M  V30 47 1 44 15
M  V30 48 1 45 16
M  V30 49 1 46 17
M  V30 50 1 47 18
M  V30 51 1 48 20
M  V30 52 1 49 20
M  V30 53 1 50 20
M  V30 54 1 51 21
M  V30 55 1 52 21
M  V30 56 1 53 22
M  V30 57 1 54 22
M  V30 58 1 55 23
M  V30 59 1 56 23
M  V30 60 1 57 25
M  V30 61 1 58 26
M  V30 62 1 59 26
M  V30 63 1 27 60 CFG=3
M  V30 64 1 61 28
M  V30 65 1 62 9
M  V30 END BOND
M  V30 END CTAB
M  END
>  <i_epik_Tot_Q>  (1) 
1

>  <i_epik_Tot_abs_Q>  (1) 
1

>  <i_i_glide_confnum>  (1) 
14

>  <i_i_glide_lignum>  (1) 
7

>  <i_i_glide_posenum>  (1) 
240

>  <i_i_glide_rotatable_bonds>  (1) 
8

>  <i_lp_mmshare_version>  (1) 
72125

>  <i_m_source_file_index>  (1) 
2

>  <i_f3d_flags>  (1) 
0

>  <num_sample>  (1) 
100

>  <b_lp_Chiralities_Consistent>  (1) 
1

>  <r_epik_Charging_Adjusted_Penalty>  (1) 
0.089223518210420474

>  <r_epik_Ionization_Penalty>  (1) 
0.15303808439063821

>  <r_epik_Ionization_Penalty_Charging>  (1) 
0.0017986555257548985

>  <r_epik_Ionization_Penalty_Neutral>  (1) 
0.15123942886488331

>  <r_epik_State_Penalty>  (1) 
0.08742486268466558

>  <r_glide_ring_energy>  (1) 
0

>  <r_i_docking_score>  (1) 
-5.5060124809915472

>  <r_i_glide_ecoul>  (1) 
-2.1046467443688281

>  <r_i_glide_eff_state_penalty>  (1) 
0.08742486268466558

>  <r_i_glide_einternal>  (1) 
5.0108944658562162

>  <r_i_glide_emodel>  (1) 
-45.782538602276937

>  <r_i_glide_emodel_strain>  (1) 
1.0959678614919994

>  <r_i_glide_energy>  (1) 
-35.704926381126214

>  <r_i_glide_erotb>  (1) 
0.76037187950223806

>  <r_i_glide_esite>  (1) 
0

>  <r_i_glide_evdw>  (1) 
-33.600279636757385

>  <r_i_glide_gscore>  (1) 
-5.5934373436762126

>  <r_i_glide_gscore_strain>  (1) 
0

>  <r_i_glide_hbond>  (1) 
-0.12680073140036655

>  <r_i_glide_ligand_efficiency>  (1) 
-0.19664330289255524

>  <r_i_glide_ligand_efficiency_ln>  (1) 
-1.2709493441640112

>  <r_i_glide_ligand_efficiency_sa>  (1) 
-0.59712488495673899

>  <r_i_glide_lipo>  (1) 
-2.3846945322860198

>  <r_i_glide_metal>  (1) 
-0

>  <r_i_glide_rewards>  (1) 
-1.8466029659988712

>  <r_lp_Energy>  (1) 
13.724687999999999

>  <s_epik_cmdline>  (1) 
J2VwaWtfcHl0aG9uJywgJy1waHQnLCAnMS4wJywgJy1waCcsICc3LjQnLCAnLXRuJywgJzgnLCAnLW1hJywgJzUwMCcsICctaW1hZScsICc8aW5maWxlLm1hZT4nLCAnLW9tYWUnLCAnPG91dGZpbGUubWFlPic=

>  <s_epik_input>  (1) 
W0NIMl0xW0NIMl1PW0NIXT1DMUMoPU8pW0NIMl1bQ0BIXTJbQ0gyXVtDSDJdTihbQ0BAXTIzW09IXSlbQ0gyXVtDQEBIXShbTkhdW0NIMl0zKVxbQ0hdPUM0XFtDQEBIXShbTkhdW0NIMl1bQ0gyXTQpW0NASF0oW0NIM10pW0NIMl1bT0hd

>  <s_glide_docking_method>  (1) 
confgen

>  <s_i_glide_gridfile>  (1) 
gpcr_5ht2c_6bqh_protein_autoprepared_prepared

>  <s_lp_Force_Field>  (1) 
S-OPLS

>  <s_lp_Variant>  (1) 
DiffSBDD_1_num_sample_100-1

>  <s_m_source_file>  (1) 
generated__ligand_DiffSBDD_2026-05-06_prepared.sdf

>  <GenAI_Model>  (1) 
DiffSBDD

>  <Protein>  (1) 
GPCR_5HT2C

$$$$
DiffSBDD_85_num_sample_100
     RDKit          3D

  0  0  0  0  0  0  0  0  0  0999 V3000
M  V30 BEGIN CTAB
M  V30 COUNTS 83 87 0 0 1
M  V30 BEGIN ATOM
M  V30 1 C 40.233931 36.145127 65.699344 0
M  V30 2 N 37.985229 28.256205 53.959933 0 CHG=1
M  V30 3 C 39.118647 29.184545 51.050849 0
M  V30 4 Cl 38.858506 36.288602 61.822278 0
M  V30 5 C 41.149479 34.057650 64.488608 0 CFG=1
M  V30 6 C 38.272807 26.433652 58.379981 0
M  V30 7 C 39.351006 28.520767 53.485369 0
M  V30 8 C 39.807882 30.522051 51.366679 0
M  V30 9 O 42.616490 32.421656 61.453557 0
M  V30 10 S 39.539923 30.308596 60.523547 0
M  V30 11 C 39.575932 30.986889 52.821032 0
M  V30 12 O 41.183628 31.462027 62.855693 0 CHG=-1
M  V30 13 C 39.597015 28.122696 52.019448 0
M  V30 14 C 38.605906 31.826389 60.894602 0 CFG=1
M  V30 15 C 36.984203 30.300457 59.736768 0 CFG=2
M  V30 16 C 38.626949 28.963183 58.176222 0 CFG=1
M  V30 17 C 40.667394 34.676732 65.819203 0
M  V30 18 N 37.867465 28.494413 55.397740 0
M  V30 19 C 40.181774 34.269028 63.241942 0 CFG=2
M  V30 20 C 39.626601 26.229197 57.721562 0 CFG=1
M  V30 21 C 39.867412 29.944887 53.874571 0
M  V30 22 C 42.596019 34.537022 64.277984 0
M  V30 23 C 37.992643 27.296873 56.221482 0 CFG=2
M  V30 24 C 40.143663 28.720061 57.912933 0
M  V30 25 C 37.789406 27.707993 57.689574 0 CFG=1
M  V30 26 C 39.467849 36.493884 64.406757 0
M  V30 27 C 41.540234 32.376130 62.080945 0
M  V30 28 C 40.575386 33.548050 61.882064 0 CFG=1
M  V30 29 C 39.309392 26.460617 56.234508 0
M  V30 30 O 36.034434 30.021421 58.715510 0
M  V30 31 C 39.446641 33.156488 60.828814 0
M  V30 32 C 37.441748 31.776784 59.862434 0 CFG=1
M  V30 33 C 39.990326 35.819135 63.116555 0 CFG=2
M  V30 34 C 40.601306 27.295638 58.273178 0
M  V30 35 C 38.240904 29.403657 59.633915 0 CFG=1
M  V30 36 O 36.366521 32.590799 60.291751 0
M  V30 37 H 39.619323 36.413719 66.559551 0
M  V30 38 H 41.114301 36.768960 65.795898 0
M  V30 39 H 37.725374 27.293099 53.796662 0
M  V30 40 H 39.347263 28.886759 50.025924 0
M  V30 41 H 38.038193 29.230097 51.129290 0
M  V30 42 H 41.199645 32.995092 64.713085 0
M  V30 43 H 37.607373 25.594579 58.169498 0
M  V30 44 H 38.346937 26.523467 59.453491 0
M  V30 45 H 39.867404 27.768631 54.039529 0
M  V30 46 H 40.880578 30.419459 51.190863 0
M  V30 47 H 39.469713 31.293436 50.673042 0
M  V30 48 H 40.267392 31.784074 52.992494 0
M  V30 49 H 38.610955 31.419402 53.053496 0
M  V30 50 H 40.667523 28.020820 51.853529 0
M  V30 51 H 39.152790 27.152783 51.787036 0
M  V30 52 H 38.200857 31.713525 61.900637 0
M  V30 53 H 36.482665 30.040148 60.661427 0
M  V30 54 H 38.375611 29.825030 57.558055 0
M  V30 55 H 39.867519 34.080064 66.253655 0
M  V30 56 H 41.451691 34.611597 66.574793 0
M  V30 57 H 38.662704 29.099459 55.545775 0
M  V30 58 H 39.223328 33.812551 63.453505 0
M  V30 59 H 40.019476 25.227494 57.903433 0
M  V30 60 H 39.474916 30.294733 54.826073 0
M  V30 61 H 40.935968 30.021434 54.044748 0
M  V30 62 H 42.665572 35.609392 64.101250 0
M  V30 63 H 43.207643 34.316233 65.151957 0
M  V30 64 H 43.067271 34.021406 63.453604 0
M  V30 65 H 37.175879 26.625344 55.951173 0
M  V30 66 H 40.333810 28.887890 56.854042 0
M  V30 67 H 40.792567 29.449273 58.389682 0
M  V30 68 H 36.725170 27.846178 57.853543 0
M  V30 69 H 38.409680 36.274800 64.530389 0
M  V30 70 H 39.502224 37.576289 64.272153 0
M  V30 71 H 41.177611 34.299954 61.371091 0
M  V30 72 H 40.186047 26.921551 55.797690 0
M  V30 73 H 39.153129 25.511553 55.720606 0
M  V30 74 H 35.878085 30.791254 58.160271 0
M  V30 75 H 39.900326 33.183766 59.838694 0
M  V30 76 H 38.720812 33.960616 60.789278 0
M  V30 77 H 37.794045 32.135852 58.893399 0
M  V30 78 H 40.941767 36.274557 62.844788 0
M  V30 79 H 41.610866 27.119798 57.896751 0
M  V30 80 H 40.660696 27.221424 59.358781 0
M  V30 81 H 38.083956 28.511887 60.232566 0
M  V30 82 H 35.954198 32.187717 61.037655 0
M  V30 83 H 37.328019 28.877672 53.511643 0
M  V30 END ATOM
M  V30 BEGIN BOND
M  V30 1 1 7 2
M  V30 2 1 8 3
M  V30 3 1 11 8
M  V30 4 1 13 3
M  V30 5 1 13 7
M  V30 6 1 14 10
M  V30 7 1 17 1
M  V30 8 1 17 5
M  V30 9 1 18 2
M  V30 10 1 19 5
M  V30 11 1 20 6
M  V30 12 1 21 7
M  V30 13 1 21 11
M  V30 14 1 22 5
M  V30 15 1 23 18
M  V30 16 1 24 16
M  V30 17 1 25 6
M  V30 18 1 25 16
M  V30 19 1 25 23
M  V30 20 1 26 1
M  V30 21 2 27 9
M  V30 22 1 27 12
M  V30 23 1 28 19
M  V30 24 1 28 27
M  V30 25 1 29 20
M  V30 26 1 29 23
M  V30 27 1 30 15
M  V30 28 1 31 14
M  V30 29 1 31 28
M  V30 30 1 32 14
M  V30 31 1 32 15
M  V30 32 1 33 4
M  V30 33 1 33 19
M  V30 34 1 33 26
M  V30 35 1 34 20
M  V30 36 1 34 24
M  V30 37 1 35 10
M  V30 38 1 35 15
M  V30 39 1 35 16
M  V30 40 1 36 32
M  V30 41 1 37 1
M  V30 42 1 38 1
M  V30 43 1 39 2
M  V30 44 1 40 3
M  V30 45 1 41 3
M  V30 46 1 5 42 CFG=1
M  V30 47 1 43 6
M  V30 48 1 44 6
M  V30 49 1 45 7
M  V30 50 1 46 8
M  V30 51 1 47 8
M  V30 52 1 48 11
M  V30 53 1 49 11
M  V30 54 1 50 13
M  V30 55 1 51 13
M  V30 56 1 14 52 CFG=1
M  V30 57 1 15 53 CFG=1
M  V30 58 1 16 54 CFG=3
M  V30 59 1 55 17
M  V30 60 1 56 17
M  V30 61 1 57 18
M  V30 62 1 19 58 CFG=1
M  V30 63 1 20 59 CFG=3
M  V30 64 1 60 21
M  V30 65 1 61 21
M  V30 66 1 62 22
M  V30 67 1 63 22
M  V30 68 1 64 22
M  V30 69 1 23 65 CFG=3
M  V30 70 1 66 24
M  V30 71 1 67 24
M  V30 72 1 25 68 CFG=3
M  V30 73 1 69 26
M  V30 74 1 70 26
M  V30 75 1 28 71 CFG=3
M  V30 76 1 72 29
M  V30 77 1 73 29
M  V30 78 1 74 30
M  V30 79 1 75 31
M  V30 80 1 76 31
M  V30 81 1 32 77 CFG=3
M  V30 82 1 33 78 CFG=3
M  V30 83 1 79 34
M  V30 84 1 80 34
M  V30 85 1 35 81 CFG=1
M  V30 86 1 82 36
M  V30 87 1 83 2
M  V30 END BOND
M  V30 END CTAB
M  END
>  <i_epik_Tot_Q>  (1) 
0

>  <i_epik_Tot_abs_Q>  (1) 
2

>  <i_i_glide_confnum>  (1) 
1174

>  <i_i_glide_lignum>  (1) 
223

>  <i_i_glide_posenum>  (1) 
175

>  <i_i_glide_rotatable_bonds>  (1) 
10

>  <i_lp_mmshare_version>  (1) 
72125

>  <i_m_source_file_index>  (1) 
86

>  <i_f3d_flags>  (1) 
0

>  <num_sample>  (1) 
100

>  <b_lp_Chiralities_Consistent>  (1) 
1

>  <r_epik_Charging_Adjusted_Penalty>  (1) 
0.73371446279801333

>  <r_epik_Ionization_Penalty>  (1) 
0.028997413797582132

>  <r_epik_Ionization_Penalty_Charging>  (1) 
0.028997299906531444

>  <r_epik_Ionization_Penalty_Neutral>  (1) 
1.138910506862436e-07

>  <r_epik_State_Penalty>  (1) 
0.7047171628914819

>  <r_glide_ring_energy>  (1) 
2.0860766362546888

>  <r_i_docking_score>  (1) 
-5.503218288757961

>  <r_i_glide_ecoul>  (1) 
-4.8786436793738019

>  <r_i_glide_eff_state_penalty>  (1) 
0.7047171628914819

>  <r_i_glide_einternal>  (1) 
5.5075265103300808

>  <r_i_glide_emodel>  (1) 
-34.61501223884266

>  <r_i_glide_emodel_strain>  (1) 
9.186566402074348

>  <r_i_glide_energy>  (1) 
-31.675591247758305

>  <r_i_glide_erotb>  (1) 
0.49083612240102314

>  <r_i_glide_esite>  (1) 
0

>  <r_i_glide_evdw>  (1) 
-26.796947568384503

>  <r_i_glide_gscore>  (1) 
-6.2079354516494432

>  <r_i_glide_gscore_strain>  (1) 
1.296641600518587

>  <r_i_glide_hbond>  (1) 
-0.16037568839579072

>  <r_i_glide_ligand_efficiency>  (1) 
-0.15286717468772115

>  <r_i_glide_ligand_efficiency_ln>  (1) 
-1.2006535508308902

>  <r_i_glide_ligand_efficiency_sa>  (1) 
-0.50475628956292151

>  <r_i_glide_lipo>  (1) 
-4.7919215134583464

>  <r_i_glide_metal>  (1) 
-0

>  <r_i_glide_rewards>  (1) 
-0.97147204238962126

>  <r_lp_Energy>  (1) 
63.234845

>  <s_epik_cmdline>  (1) 
J2VwaWtfcHl0aG9uJywgJy1waHQnLCAnMS4wJywgJy1waCcsICc3LjQnLCAnLXRuJywgJzgnLCAnLW1hJywgJzUwMCcsICctaW1hZScsICc8aW5maWxlLm1hZT4nLCAnLW9tYWUnLCAnPG91dGZpbGUubWFlPic=

>  <s_epik_input>  (1) 
W0NIM11bQ0BIXTFbQ0gyXVtDSDJdW0NIMl1bQ0BIXShDbClbQ0BIXTFbQ0BASF0oQyg9TylbT0hdKVtDSDJdW0NAQEhdMlNbQ0BASF0oW0NAQEhdKFtPSF0pW0NASF0yW09IXSlbQ0BASF0oW0NIMl1bQ0gyXTMpW0NASF0oW0NIMl1bQ0BIXTM0KVtDQEhdKFtDSDJdNClbTkhdW05IXVtDSF01W0NIMl1bQ0gyXVtDSDJdW0NIMl1bQ0gyXTU=

>  <s_glide_docking_method>  (1) 
confgen

>  <s_i_glide_gridfile>  (1) 
gpcr_5ht2c_6bqh_protein_autoprepared_prepared

>  <s_lp_Force_Field>  (1) 
S-OPLS

>  <s_lp_Variant>  (1) 
DiffSBDD_85_num_sample_100-4

>  <s_m_source_file>  (1) 
generated__ligand_DiffSBDD_2026-05-06_prepared.sdf

>  <GenAI_Model>  (1) 
DiffSBDD

>  <Protein>  (1) 
GPCR_5HT2C

$$$$
DiffSBDD_60_num_sample_100
     RDKit          3D

  0  0  0  0  0  0  0  0  0  0999 V3000
M  V30 BEGIN CTAB
M  V30 COUNTS 74 76 0 0 1
M  V30 BEGIN ATOM
M  V30 1 C 42.533418 31.530566 64.825863 0
M  V30 2 C 39.467348 29.163797 50.754655 0
M  V30 3 C 38.917835 28.364682 51.773328 0
M  V30 4 C 39.369949 29.375307 60.213039 0
M  V30 5 N 43.055483 29.335402 64.701812 0
M  V30 6 C 40.349896 33.129359 63.600717 0
M  V30 7 C 38.298525 31.749498 56.137654 0
M  V30 8 C 37.059935 30.543767 60.179729 0
M  V30 9 C 38.397618 30.324850 59.460413 0 CFG=2
M  V30 10 C 41.199207 28.459627 63.367778 0
M  V30 11 C 38.737701 30.289808 55.879945 0 CFG=1
M  V30 12 O 41.099720 31.655819 61.144843 0
M  V30 13 C 39.317122 28.031549 57.185544 0 CFG=1
M  V30 14 C 40.800839 27.626395 57.081198 0
M  V30 15 C 39.780288 29.666357 61.678355 0 CFG=1
M  V30 16 N 40.907354 28.761265 61.967931 0
M  V30 17 C 39.950955 30.314918 54.912051 0
M  V30 18 C 41.917841 29.578981 64.041150 0
M  V30 19 C 40.330318 31.594366 63.458023 0 CFG=1
M  V30 20 C 40.083952 31.167133 61.985150 0 CFG=1
M  V30 21 O 38.268851 27.221431 51.454239 0
M  V30 22 C 39.047870 28.746857 53.120471 0
M  V30 23 C 41.543496 30.957144 64.084099 0
M  V30 24 C 38.507465 26.002102 56.092184 0
M  V30 25 C 37.775062 25.351982 57.274552 0
M  V30 26 C 40.137007 30.350154 51.080607 0
M  V30 27 C 39.087295 29.577383 57.229269 0 CFG=2
M  V30 28 O 38.039320 29.789298 58.179799 0
M  V30 29 N 43.402594 30.541618 65.167856 0
M  V30 30 C 37.867992 32.481971 54.861899 0
M  V30 31 C 39.732170 29.931069 53.450289 0
M  V30 32 C 40.267478 30.732270 52.425970 0
M  V30 33 O 38.521571 27.427180 56.166963 0
M  V30 34 H 42.685365 32.555587 65.133287 0
M  V30 35 H 39.369501 28.866828 49.721263 0
M  V30 36 H 38.936061 28.375612 60.205923 0
M  V30 37 H 40.288531 29.298872 59.631132 0
M  V30 38 H 40.385000 33.425929 64.649509 0
M  V30 39 H 39.462631 33.580342 63.157856 0
M  V30 40 H 41.217000 33.564621 63.102521 0
M  V30 41 H 39.102102 32.307326 56.618756 0
M  V30 42 H 37.467394 31.768369 56.838791 0
M  V30 43 H 37.182545 30.920280 61.192962 0
M  V30 44 H 36.487552 29.621540 60.230858 0
M  V30 45 H 36.449219 31.265203 59.635733 0
M  V30 46 H 38.871983 31.295122 59.306550 0
M  V30 47 H 41.817607 27.564551 63.416947 0
M  V30 48 H 40.283899 28.212708 63.905767 0
M  V30 49 H 37.897892 29.760780 55.429507 0
M  V30 50 H 40.839611 31.493805 60.253481 0
M  V30 51 H 38.967469 27.632862 58.134699 0
M  V30 52 H 41.437506 28.260472 57.696568 0
M  V30 53 H 41.156012 27.669961 56.054756 0
M  V30 54 H 40.954664 26.604090 57.427166 0
M  V30 55 H 38.930629 29.379385 62.295828 0
M  V30 56 H 40.812308 27.891218 61.452145 0
M  V30 57 H 40.456837 31.280096 54.963193 0
M  V30 58 H 40.705306 29.624300 55.265413 0
M  V30 59 H 39.467190 31.230969 64.012808 0
M  V30 60 H 39.199148 31.725874 61.685182 0
M  V30 61 H 38.639994 28.124935 53.896918 0
M  V30 62 H 39.512688 25.595478 55.982855 0
M  V30 63 H 37.985497 25.738240 55.171865 0
M  V30 64 H 37.680906 24.277236 57.120202 0
M  V30 65 H 36.770935 25.763010 57.387808 0
M  V30 66 H 38.312482 25.496227 58.211868 0
M  V30 67 H 40.559610 30.966333 50.299260 0
M  V30 68 H 39.991341 30.054298 57.601237 0
M  V30 69 H 44.237992 30.672419 65.720005 0
M  V30 70 H 37.581152 33.509766 55.082667 0
M  V30 71 H 37.012607 31.982766 54.407863 0
M  V30 72 H 38.661815 32.511548 54.117568 0
M  V30 73 H 40.795877 31.621311 52.673034 0
M  V30 74 H 37.696329 26.871121 52.120183 0
M  V30 END ATOM
M  V30 BEGIN BOND
M  V30 1 2 3 2
M  V30 2 1 9 4
M  V30 3 1 9 8
M  V30 4 1 11 7
M  V30 5 1 14 13
M  V30 6 1 15 4
M  V30 7 1 16 10
M  V30 8 1 16 15
M  V30 9 1 17 11
M  V30 10 2 18 5
M  V30 11 1 18 10
M  V30 12 1 19 6
M  V30 13 1 20 12
M  V30 14 1 20 15
M  V30 15 1 20 19
M  V30 16 1 21 3
M  V30 17 1 22 3
M  V30 18 2 23 1
M  V30 19 1 23 18
M  V30 20 1 23 19
M  V30 21 1 25 24
M  V30 22 1 26 2
M  V30 23 1 27 11
M  V30 24 1 27 13
M  V30 25 1 28 9
M  V30 26 1 28 27
M  V30 27 1 29 1
M  V30 28 1 29 5
M  V30 29 1 30 7
M  V30 30 1 31 17
M  V30 31 2 31 22
M  V30 32 2 32 26
M  V30 33 1 32 31
M  V30 34 1 33 13
M  V30 35 1 33 24
M  V30 36 1 34 1
M  V30 37 1 35 2
M  V30 38 1 36 4
M  V30 39 1 37 4
M  V30 40 1 38 6
M  V30 41 1 39 6
M  V30 42 1 40 6
M  V30 43 1 41 7
M  V30 44 1 42 7
M  V30 45 1 43 8
M  V30 46 1 44 8
M  V30 47 1 45 8
M  V30 48 1 9 46 CFG=3
M  V30 49 1 47 10
M  V30 50 1 48 10
M  V30 51 1 11 49 CFG=3
M  V30 52 1 50 12
M  V30 53 1 13 51 CFG=1
M  V30 54 1 52 14
M  V30 55 1 53 14
M  V30 56 1 54 14
M  V30 57 1 15 55 CFG=1
M  V30 58 1 56 16
M  V30 59 1 57 17
M  V30 60 1 58 17
M  V30 61 1 19 59 CFG=1
M  V30 62 1 20 60 CFG=3
M  V30 63 1 61 22
M  V30 64 1 62 24
M  V30 65 1 63 24
M  V30 66 1 64 25
M  V30 67 1 65 25
M  V30 68 1 66 25
M  V30 69 1 67 26
M  V30 70 1 27 68 CFG=1
M  V30 71 1 69 29
M  V30 72 1 70 30
M  V30 73 1 71 30
M  V30 74 1 72 30
M  V30 75 1 73 32
M  V30 76 1 74 21
M  V30 END BOND
M  V30 END CTAB
M  END
>  <i_epik_Tot_Q>  (1) 
0

>  <i_epik_Tot_abs_Q>  (1) 
0

>  <i_i_glide_confnum>  (1) 
2583

>  <i_i_glide_lignum>  (1) 
155

>  <i_i_glide_posenum>  (1) 
360

>  <i_i_glide_rotatable_bonds>  (1) 
13

>  <i_lp_mmshare_version>  (1) 
72125

>  <i_m_source_file_index>  (1) 
61

>  <i_f3d_flags>  (1) 
0

>  <num_sample>  (1) 
100

>  <b_lp_Chiralities_Consistent>  (1) 
1

>  <r_epik_Charging_Adjusted_Penalty>  (1) 
1.0946962456901577

>  <r_epik_Ionization_Penalty>  (1) 
0.79333375819973251

>  <r_epik_Ionization_Penalty_Charging>  (1) 
0

>  <r_epik_Ionization_Penalty_Neutral>  (1) 
0.79333375819973251

>  <r_epik_State_Penalty>  (1) 
1.0946962456901577

>  <r_glide_ring_energy>  (1) 
0

>  <r_i_docking_score>  (1) 
-5.5030801842764721

>  <r_i_glide_ecoul>  (1) 
-3.459587607885378

>  <r_i_glide_eff_state_penalty>  (1) 
1.0946962456901577

>  <r_i_glide_einternal>  (1) 
7.2037502921539236

>  <r_i_glide_emodel>  (1) 
-59.338878013068886

>  <r_i_glide_emodel_strain>  (1) 
0.87058297880196989

>  <r_i_glide_energy>  (1) 
-42.855546370820804

>  <r_i_glide_erotb>  (1) 
0.85721886193159891

>  <r_i_glide_esite>  (1) 
0

>  <r_i_glide_evdw>  (1) 
-39.395958762935429

>  <r_i_glide_gscore>  (1) 
-6.5977764299666299

>  <r_i_glide_gscore_strain>  (1) 
0

>  <r_i_glide_hbond>  (1) 
-0.18777228778990199

>  <r_i_glide_ligand_efficiency>  (1) 
-0.16676000558413551

>  <r_i_glide_ligand_efficiency_ln>  (1) 
-1.2238565395588283

>  <r_i_glide_ligand_efficiency_sa>  (1) 
-0.53488844278141046

>  <r_i_glide_lipo>  (1) 
-3.9397148018631549

>  <r_i_glide_metal>  (1) 
-0

>  <r_i_glide_rewards>  (1) 
-0.83877212291559278

>  <r_lp_Energy>  (1) 
28.843152999999997

>  <r_lp_tautomer_probability>  (1) 
0.49999999999868239

>  <s_epik_cmdline>  (1) 
J2VwaWtfcHl0aG9uJywgJy1waHQnLCAnMS4wJywgJy1waCcsICc3LjQnLCAnLXRuJywgJzgnLCAnLW1hJywgJzUwMCcsICctaW1hZScsICc8aW5maWxlLm1hZT4nLCAnLW9tYWUnLCAnPG91dGZpbGUubWFlPic=

>  <s_epik_input>  (1) 
bjFbbkhdW2NIXWMoYzEyKVtDQEBIXShbQ0gzXSlbQ0BASF0oW09IXSlbQ0BIXShbTkhdW0NIMl0yKVtDSDJdW0NASF0oW0NIM10pT1tDQEBIXShbQ0BIXShbQ0gzXSlPW0NIMl1bQ0gzXSlbQ0BASF0oW0NIMl1bQ0gzXSlbQ0gyXUMoPVtDSF0zKVtDSDJdW0NIXT1bQ0hdQzM9Tw==

>  <s_glide_docking_method>  (1) 
confgen

>  <s_i_glide_gridfile>  (1) 
gpcr_5ht2c_6bqh_protein_autoprepared_prepared

>  <s_lp_Force_Field>  (1) 
S-OPLS

>  <s_lp_Variant>  (1) 
DiffSBDD_60_num_sample_100-4

>  <s_m_source_file>  (1) 
generated__ligand_DiffSBDD_2026-05-06_prepared.sdf

>  <GenAI_Model>  (1) 
DiffSBDD

>  <Protein>  (1) 
GPCR_5HT2C

$$$$
DiffSBDD_1_num_sample_100
     RDKit          3D

  0  0  0  0  0  0  0  0  0  0999 V3000
M  V30 BEGIN CTAB
M  V30 COUNTS 63 66 0 0 1
M  V30 BEGIN ATOM
M  V30 1 C 38.633914 37.160051 61.219065 0
M  V30 2 C 39.556603 28.835248 56.728803 0
M  V30 3 O 39.416791 39.248850 61.453503 0
M  V30 4 C 37.821606 30.624198 57.134192 0 CFG=1
M  V30 5 C 38.621806 35.699804 61.449545 0
M  V30 6 C 38.329533 32.973865 57.859955 0
M  V30 7 C 39.067325 28.380507 53.748282 0
M  V30 8 C 40.730150 26.845917 56.868995 0
M  V30 9 N 39.357974 26.551544 56.385640 0 CHG=1
M  V30 10 C 37.324592 31.089447 60.933199 0
M  V30 11 C 37.658292 34.851552 60.606813 0
M  V30 12 C 38.021730 27.952015 54.793657 0 CFG=2
M  V30 13 C 38.562359 27.796695 56.248498 0 CFG=2
M  V30 14 C 37.585713 32.688415 59.178740 0 CFG=2
M  V30 15 C 37.621862 32.448867 61.593448 0
M  V30 16 C 39.480683 37.949436 61.799416 0
M  V30 17 N 37.867493 32.063388 56.795875 0
M  V30 18 C 39.220933 30.075237 57.119981 0
M  V30 19 O 39.356688 35.147343 62.268848 0
M  V30 20 C 37.302740 26.669405 54.338819 0
M  V30 21 C 38.267790 39.240173 60.511391 0
M  V30 22 C 37.135919 30.349943 58.501695 0
M  V30 23 C 40.956463 28.344741 56.774132 0
M  V30 24 N 37.702895 31.260058 59.519320 0 CFG=2 CHG=1
M  V30 25 O 36.187346 32.902003 59.053502 0
M  V30 26 C 37.688184 37.762501 60.272750 0
M  V30 27 C 38.093832 33.377949 60.452400 0 CFG=2
M  V30 28 O 38.451405 28.641348 52.504648 0
M  V30 29 H 37.235993 30.118466 56.371603 0
M  V30 30 H 39.404720 32.867583 58.004161 0
M  V30 31 H 38.167000 34.009000 57.555630 0
M  V30 32 H 39.816927 27.600011 53.614017 0
M  V30 33 H 39.578016 29.293359 54.056802 0
M  V30 34 H 41.467332 26.354445 56.253443 0
M  V30 35 H 40.838327 26.496349 57.895911 0
M  V30 36 H 38.898866 25.916150 57.023031 0
M  V30 37 H 37.901147 30.284266 61.386041 0
M  V30 38 H 36.262931 30.846827 61.010774 0
M  V30 39 H 37.601464 35.283352 59.609303 0
M  V30 40 H 36.652937 34.918515 61.022138 0
M  V30 41 H 37.268025 28.737911 54.805973 0
M  V30 42 H 37.727861 27.739438 56.948549 0
M  V30 43 H 38.376269 32.368959 62.377306 0
M  V30 44 H 36.712881 32.830461 62.058073 0
M  V30 45 H 40.259908 37.701759 62.506947 0
M  V30 46 H 36.890688 32.307479 56.574265 0
M  V30 47 H 39.988263 30.739365 57.453442 0
M  V30 48 H 38.002050 25.878549 54.066265 0
M  V30 49 H 36.667463 26.279212 55.132591 0
M  V30 50 H 36.675409 26.855952 53.465236 0
M  V30 51 H 37.486923 39.896589 60.897817 0
M  V30 52 H 38.593211 39.661316 59.561667 0
M  V30 53 H 36.050455 30.421383 58.446399 0
M  V30 54 H 37.329251 29.323486 58.812754 0
M  V30 55 H 41.464201 28.619948 55.853526 0
M  V30 56 H 41.514993 28.736194 57.625710 0
M  V30 57 H 35.886049 32.574535 58.194778 0
M  V30 58 H 37.836880 37.423901 59.246150 0
M  V30 59 H 36.648864 37.656053 60.584897 0
M  V30 60 H 39.184188 33.327537 60.416642 0
M  V30 61 H 38.045294 27.847963 52.186121 0
M  V30 62 H 39.417694 26.112550 55.478237 0
M  V30 63 H 38.696773 31.091240 59.493745 0
M  V30 END ATOM
M  V30 BEGIN BOND
M  V30 1 1 5 1
M  V30 2 1 9 8
M  V30 3 1 11 5
M  V30 4 1 12 7
M  V30 5 1 13 2
M  V30 6 1 13 9
M  V30 7 1 13 12
M  V30 8 1 14 6
M  V30 9 1 15 10
M  V30 10 2 16 1
M  V30 11 1 16 3
M  V30 12 1 17 4
M  V30 13 1 17 6
M  V30 14 2 18 2
M  V30 15 1 18 4
M  V30 16 2 19 5
M  V30 17 1 20 12
M  V30 18 1 21 3
M  V30 19 1 22 4
M  V30 20 1 23 2
M  V30 21 1 23 8
M  V30 22 1 24 10
M  V30 23 1 24 14
M  V30 24 1 24 22
M  V30 25 1 14 25 CFG=3
M  V30 26 1 26 1
M  V30 27 1 26 21
M  V30 28 1 27 11
M  V30 29 1 27 14
M  V30 30 1 27 15
M  V30 31 1 28 7
M  V30 32 1 4 29 CFG=3
M  V30 33 1 30 6
M  V30 34 1 31 6
M  V30 35 1 32 7
M  V30 36 1 33 7
M  V30 37 1 34 8
M  V30 38 1 35 8
M  V30 39 1 36 9
M  V30 40 1 37 10
M  V30 41 1 38 10
M  V30 42 1 39 11
M  V30 43 1 40 11
M  V30 44 1 12 41 CFG=1
M  V30 45 1 13 42 CFG=1
M  V30 46 1 43 15
M  V30 47 1 44 15
M  V30 48 1 45 16
M  V30 49 1 46 17
M  V30 50 1 47 18
M  V30 51 1 48 20
M  V30 52 1 49 20
M  V30 53 1 50 20
M  V30 54 1 51 21
M  V30 55 1 52 21
M  V30 56 1 53 22
M  V30 57 1 54 22
M  V30 58 1 55 23
M  V30 59 1 56 23
M  V30 60 1 57 25
M  V30 61 1 58 26
M  V30 62 1 59 26
M  V30 63 1 27 60 CFG=3
M  V30 64 1 61 28
M  V30 65 1 62 9
M  V30 66 1 24 63 CFG=1
M  V30 END BOND
M  V30 END CTAB
M  END
>  <i_epik_Tot_Q>  (1) 
2

>  <i_epik_Tot_abs_Q>  (1) 
2

>  <i_i_glide_confnum>  (1) 
248

>  <i_i_glide_lignum>  (1) 
17

>  <i_i_glide_posenum>  (1) 
275

>  <i_i_glide_rotatable_bonds>  (1) 
8

>  <i_lp_mmshare_version>  (1) 
72125

>  <i_m_source_file_index>  (1) 
2

>  <i_f3d_flags>  (1) 
0

>  <num_sample>  (1) 
100

>  <b_lp_Chiralities_Consistent>  (1) 
1

>  <r_epik_Charging_Adjusted_Penalty>  (1) 
2.3622130296898831

>  <r_epik_Ionization_Penalty>  (1) 
1.4312966064593899

>  <r_epik_Ionization_Penalty_Charging>  (1) 
1.1852885594971458

>  <r_epik_Ionization_Penalty_Neutral>  (1) 
0.24600804696224418

>  <r_epik_State_Penalty>  (1) 
1.176924470192737

>  <r_glide_ring_energy>  (1) 
0

>  <r_i_docking_score>  (1) 
-5.50118074718503

>  <r_i_glide_ecoul>  (1) 
-11.474383965725202

>  <r_i_glide_eff_state_penalty>  (1) 
1.176924470192737

>  <r_i_glide_einternal>  (1) 
11.664997415429644

>  <r_i_glide_emodel>  (1) 
-46.098833154831084

>  <r_i_glide_emodel_strain>  (1) 
1.2245328955186494

>  <r_i_glide_energy>  (1) 
-34.407606794254107

>  <r_i_glide_erotb>  (1) 
0.75687532201182384

>  <r_i_glide_esite>  (1) 
-0.10532316305229715

>  <r_i_glide_evdw>  (1) 
-22.933222828528908

>  <r_i_glide_gscore>  (1) 
-6.6781052173777669

>  <r_i_glide_gscore_strain>  (1) 
0

>  <r_i_glide_hbond>  (1) 
-0.59937981500571558

>  <r_i_glide_ligand_efficiency>  (1) 
-0.19647074097089393

>  <r_i_glide_ligand_efficiency_ln>  (1) 
-1.2698340381355979

>  <r_i_glide_ligand_efficiency_sa>  (1) 
-0.59660088532845645

>  <r_i_glide_lipo>  (1) 
-2.0777249107609581

>  <r_i_glide_metal>  (1) 
-0

>  <r_i_glide_rewards>  (1) 
-1.7847339142853951

>  <r_lp_Energy>  (1) 
22.123918

>  <s_epik_cmdline>  (1) 
J2VwaWtfcHl0aG9uJywgJy1waHQnLCAnMS4wJywgJy1waCcsICc3LjQnLCAnLXRuJywgJzgnLCAnLW1hJywgJzUwMCcsICctaW1hZScsICc8aW5maWxlLm1hZT4nLCAnLW9tYWUnLCAnPG91dGZpbGUubWFlPic=

>  <s_epik_input>  (1) 
W0NIMl0xW0NIMl1PW0NIXT1DMUMoPU8pW0NIMl1bQ0BIXTJbQ0gyXVtDSDJdTihbQ0BAXTIzW09IXSlbQ0gyXVtDQEBIXShbTkhdW0NIMl0zKS9bQ0hdPUM0XFtDQEBIXShbTkhdW0NIMl1bQ0gyXTQpW0NASF0oW0NIM10pW0NIMl1bT0hd

>  <s_glide_docking_method>  (1) 
confgen

>  <s_i_glide_gridfile>  (1) 
gpcr_5ht2c_6bqh_protein_autoprepared_prepared

>  <s_lp_Force_Field>  (1) 
S-OPLS

>  <s_lp_Variant>  (1) 
DiffSBDD_1_num_sample_100-11

>  <s_m_source_file>  (1) 
generated__ligand_DiffSBDD_2026-05-06_prepared.sdf

>  <GenAI_Model>  (1) 
DiffSBDD

>  <Protein>  (1) 
GPCR_5HT2C

$$$$
DiffSBDD_15_num_sample_100
     RDKit          3D

  0  0  0  0  0  0  0  0  0  0999 V3000
M  V30 BEGIN CTAB
M  V30 COUNTS 74 79 0 0 1
M  V30 BEGIN ATOM
M  V30 1 C 38.704786 31.732643 59.779112 0
M  V30 2 S 38.229651 32.065736 55.633841 0
M  V30 3 N 41.960157 32.378615 65.356582 0
M  V30 4 C 40.142963 28.489970 50.665005 0
M  V30 5 C 42.100178 35.395980 64.464074 0
M  V30 6 C 41.949784 28.791761 66.788563 0
M  V30 7 S 41.343134 29.287940 63.084714 0
M  V30 8 S 40.868233 34.329622 63.667865 0
M  V30 9 O 40.667400 28.032715 63.428903 0
M  V30 10 C 38.787537 29.143369 53.208903 0
M  V30 11 C 39.474086 30.151126 52.634801 0
M  V30 12 C 38.827084 31.439477 57.226849 0 CFG=1
M  V30 13 C 41.505366 30.238398 66.665133 0 CFG=1
M  V30 14 N 38.276491 29.552067 54.427536 0
M  V30 15 C 41.906830 35.646925 65.969458 0
M  V30 16 C 40.538855 36.206804 66.376931 0
M  V30 17 C 41.846469 30.885916 65.319886 0 CFG=1
M  V30 18 C 39.416866 28.121333 59.052904 0
M  V30 19 S 40.267401 30.244640 51.095435 0
M  V30 20 C 38.549378 27.781113 52.651667 0
M  V30 21 N 40.584066 31.714347 63.721559 0
M  V30 22 C 38.670499 30.199161 59.886359 0 CFG=2
M  V30 23 N 40.103719 30.358058 67.018541 0
M  V30 24 O 38.266502 33.558356 58.300072 0
M  V30 25 C 38.823540 27.800135 51.122051 0
M  V30 26 C 40.765308 29.911159 61.425061 0
M  V30 27 C 38.130717 32.162654 58.411410 0 CFG=2
M  V30 28 N 40.860953 30.505094 64.222490 0
M  V30 29 C 39.314147 29.499829 61.095532 0 CFG=2
M  V30 30 C 41.068221 31.030578 67.868907 0
M  V30 31 C 41.215110 32.690091 64.369784 0
M  V30 32 C 39.301334 28.052945 60.583391 0
M  V30 33 O 42.805509 29.314811 63.055816 0
M  V30 34 C 38.681199 30.834011 54.469535 0
M  V30 35 N 39.322544 29.556270 58.733488 0 CFG=2 CHG=1
M  V30 36 O 39.467403 31.235764 53.434600 0
M  V30 37 C 38.734420 29.912933 57.426634 0
M  V30 38 H 39.710015 32.131466 59.895572 0
M  V30 39 H 38.114442 32.172126 60.584545 0
M  V30 40 H 40.267243 28.421474 49.586816 0
M  V30 41 H 40.999016 28.021432 51.134388 0
M  V30 42 H 43.067404 34.934454 64.303556 0
M  V30 43 H 42.111113 36.343646 63.925584 0
M  V30 44 H 43.031911 28.720176 66.676780 0
M  V30 45 H 41.679975 28.378840 67.762036 0
M  V30 46 H 41.482970 28.179678 66.016377 0
M  V30 47 H 39.867395 31.720631 57.187632 0
M  V30 48 H 42.117940 34.746826 66.546932 0
M  V30 49 H 42.667420 36.372184 66.255255 0
M  V30 50 H 40.540075 36.494899 67.428444 0
M  V30 51 H 40.267459 37.086034 65.792609 0
M  V30 52 H 39.759054 35.460550 66.253543 0
M  V30 53 H 42.841640 30.521925 65.067531 0
M  V30 54 H 40.367489 27.722336 58.696650 0
M  V30 55 H 38.611508 27.554015 58.584066 0
M  V30 56 H 39.207989 27.060915 53.138133 0
M  V30 57 H 37.526693 27.451856 52.842769 0
M  V30 58 H 39.947511 31.844032 62.952329 0
M  V30 59 H 37.617182 29.907020 59.865714 0
M  V30 60 H 39.656241 29.532442 67.395265 0
M  V30 61 H 37.775633 33.835791 57.537081 0
M  V30 62 H 38.002763 28.334729 50.653503 0
M  V30 63 H 38.783812 26.784511 50.730544 0
M  V30 64 H 41.417021 29.432742 60.694647 0
M  V30 65 H 40.951014 30.980092 61.353795 0
M  V30 66 H 37.067383 31.930973 58.388802 0
M  V30 67 H 38.692244 29.621489 61.984527 0
M  V30 68 H 41.245711 30.605298 68.854330 0
M  V30 69 H 41.099492 32.116660 67.823433 0
M  V30 70 H 40.102729 27.453055 61.013588 0
M  V30 71 H 38.339410 27.621427 60.839108 0
M  V30 72 H 39.326964 29.385636 56.683099 0
M  V30 73 H 37.701300 29.566672 57.357356 0
M  V30 74 H 40.273428 29.894461 58.726057 0
M  V30 END ATOM
M  V30 BEGIN BOND
M  V30 1 1 8 5
M  V30 2 2 9 7
M  V30 3 2 11 10
M  V30 4 1 12 2
M  V30 5 1 13 6 CFG=1
M  V30 6 1 14 10
M  V30 7 1 15 5
M  V30 8 1 16 15
M  V30 9 1 17 3
M  V30 10 1 17 13
M  V30 11 1 19 4
M  V30 12 1 19 11
M  V30 13 1 20 10
M  V30 14 1 22 1
M  V30 15 1 23 13
M  V30 16 1 25 4
M  V30 17 1 25 20
M  V30 18 1 26 7
M  V30 19 1 27 1
M  V30 20 1 27 12
M  V30 21 1 27 24
M  V30 22 1 28 7
M  V30 23 1 28 17
M  V30 24 1 28 21
M  V30 25 1 29 22
M  V30 26 1 29 26
M  V30 27 1 30 13
M  V30 28 1 30 23
M  V30 29 2 31 3
M  V30 30 1 31 8
M  V30 31 1 31 21
M  V30 32 1 32 18
M  V30 33 1 32 29
M  V30 34 2 33 7
M  V30 35 1 34 2
M  V30 36 2 34 14
M  V30 37 1 35 18
M  V30 38 1 35 22
M  V30 39 1 36 11
M  V30 40 1 36 34
M  V30 41 1 37 12
M  V30 42 1 37 35
M  V30 43 1 38 1
M  V30 44 1 39 1
M  V30 45 1 40 4
M  V30 46 1 41 4
M  V30 47 1 42 5
M  V30 48 1 43 5
M  V30 49 1 44 6
M  V30 50 1 45 6
M  V30 51 1 46 6
M  V30 52 1 12 47 CFG=1
M  V30 53 1 48 15
M  V30 54 1 49 15
M  V30 55 1 50 16
M  V30 56 1 51 16
M  V30 57 1 52 16
M  V30 58 1 17 53 CFG=3
M  V30 59 1 54 18
M  V30 60 1 55 18
M  V30 61 1 56 20
M  V30 62 1 57 20
M  V30 63 1 58 21
M  V30 64 1 22 59 CFG=3
M  V30 65 1 60 23
M  V30 66 1 61 24
M  V30 67 1 62 25
M  V30 68 1 63 25
M  V30 69 1 64 26
M  V30 70 1 65 26
M  V30 71 1 27 66 CFG=1
M  V30 72 1 29 67 CFG=1
M  V30 73 1 68 30
M  V30 74 1 69 30
M  V30 75 1 70 32
M  V30 76 1 71 32
M  V30 77 1 72 37
M  V30 78 1 73 37
M  V30 79 1 35 74 CFG=3
M  V30 END BOND
M  V30 END CTAB
M  END
>  <i_epik_Tot_Q>  (1) 
1

>  <i_epik_Tot_abs_Q>  (1) 
1

>  <i_i_glide_confnum>  (1) 
225

>  <i_i_glide_lignum>  (1) 
37

>  <i_i_glide_posenum>  (1) 
383

>  <i_i_glide_rotatable_bonds>  (1) 
10

>  <i_lp_mmshare_version>  (1) 
72125

>  <i_m_source_file_index>  (1) 
16

>  <i_f3d_flags>  (1) 
0

>  <num_sample>  (1) 
100

>  <b_lp_Chiralities_Consistent>  (1) 
1

>  <r_epik_Charging_Adjusted_Penalty>  (1) 
0.0082019649409003706

>  <r_epik_Ionization_Penalty>  (1) 
0.015626865898487191

>  <r_epik_Ionization_Penalty_Charging>  (1) 
0.0082019649409003706

>  <r_epik_Ionization_Penalty_Neutral>  (1) 
0.0074249009575868222

>  <r_epik_State_Penalty>  (1) 
-0

>  <r_glide_ring_energy>  (1) 
0

>  <r_i_docking_score>  (1) 
-5.49940682360665

>  <r_i_glide_ecoul>  (1) 
2.299040410752045

>  <r_i_glide_eff_state_penalty>  (1) 
-0

>  <r_i_glide_einternal>  (1) 
16.722242447733759

>  <r_i_glide_emodel>  (1) 
-38.993618749995662

>  <r_i_glide_emodel_strain>  (1) 
4.9830977364641029

>  <r_i_glide_energy>  (1) 
-43.014931424567855

>  <r_i_glide_erotb>  (1) 
0.37349522713264072

>  <r_i_glide_esite>  (1) 
-0.046258710867696652

>  <r_i_glide_evdw>  (1) 
-45.313971835319897

>  <r_i_glide_gscore>  (1) 
-5.49940682360665

>  <r_i_glide_gscore_strain>  (1) 
0.24577443411602573

>  <r_i_glide_hbond>  (1) 
0

>  <r_i_glide_ligand_efficiency>  (1) 
-0.14863261685423379

>  <r_i_glide_ligand_efficiency_ln>  (1) 
-1.1926924156524192

>  <r_i_glide_ligand_efficiency_sa>  (1) 
-0.49527685374899849

>  <r_i_glide_lipo>  (1) 
-3.1041115777151669

>  <r_i_glide_metal>  (1) 
-0

>  <r_i_glide_rewards>  (1) 
-1.0474636661192651

>  <r_lp_Energy>  (1) 
9.5312570000000001

>  <r_lp_tautomer_probability>  (1) 
1

>  <s_epik_Chemistry_Notes>  (1) 
This compound has an imine and may undergo hydrolysis. This compound contains an acetal/aminal-like group ( X-CH(R)-Y where X, Y are N, S, or O) that may be acid/base labile, releasing an aldehyde.

>  <s_epik_cmdline>  (1) 
J2VwaWtfcHl0aG9uJywgJy1waHQnLCAnMS4wJywgJy1waCcsICc3LjQnLCAnLXRuJywgJzgnLCAnLW1hJywgJzUwMCcsICctaW1hZScsICc8aW5maWxlLm1hZT4nLCAnLW9tYWUnLCAnPG91dGZpbGUubWFlPic=

>  <s_epik_input>  (1) 
W0NIMl0xW0NIMl1bQ0gyXVNjKGMxMilvYyhuMilTW0NAQEhdKFtDQEBIXShbQ0gyXTMpW09IXSlbQ0gyXU4oW0NASF0zNClbQ0gyXVtDSDJdW0NASF00W0NIMl1TKD1PKSg9TylONVtOSF1DKFNbQ0gyXVtDSDJdW0NIM10pPU5bQ0BASF01W0NAXTYoW0NIM10pW05IXVtDSDJdNg==

>  <s_glide_docking_method>  (1) 
confgen

>  <s_i_glide_gridfile>  (1) 
gpcr_5ht2c_6bqh_protein_autoprepared_prepared

>  <s_lp_Force_Field>  (1) 
S-OPLS

>  <s_lp_Variant>  (1) 
DiffSBDD_15_num_sample_100-4

>  <s_m_source_file>  (1) 
generated__ligand_DiffSBDD_2026-05-06_prepared.sdf

>  <GenAI_Model>  (1) 
DiffSBDD

>  <Protein>  (1) 
GPCR_5HT2C

$$$$
DiffSBDD_17_num_sample_100
     RDKit          3D

  0  0  0  0  0  0  0  0  0  0999 V3000
M  V30 BEGIN CTAB
M  V30 COUNTS 106 113 0 0 1
M  V30 BEGIN ATOM
M  V30 1 C 42.912806 29.678838 68.103281 0
M  V30 2 O 42.742105 33.393736 67.277499 0
M  V30 3 C 35.480722 32.698055 60.814603 0
M  V30 4 C 36.494261 36.124896 62.620173 0
M  V30 5 C 37.293813 36.899217 61.831462 0
M  V30 6 C 40.705761 34.916023 61.907551 0 CFG=1
M  V30 7 C 42.653292 30.880380 67.172111 0 CFG=1
M  V30 8 O 41.867391 34.177620 61.873259 0
M  V30 9 C 38.789952 27.648274 53.793129 0
M  V30 10 O 40.134816 36.984532 62.858803 0
M  V30 11 C 36.823368 34.729287 58.575406 0 CFG=1
M  V30 12 O 35.498753 31.789197 61.623739 0
M  V30 13 C 37.337399 29.823464 60.018280 0
M  V30 14 C 37.771454 36.576853 60.400817 0
M  V30 15 C 36.351411 33.998133 61.011902 0 CFG=2
M  V30 16 C 39.344651 28.197280 56.047937 0 CFG=2
M  V30 17 C 43.327355 32.171971 67.740350 0 CFG=1
M  V30 18 N 38.005428 27.896534 52.778208 0
M  V30 19 C 36.041683 34.864158 59.830251 0 CFG=1
M  V30 20 C 39.601489 33.086754 62.907806 0 CFG=2
M  V30 21 C 38.690945 31.657037 60.940714 0
M  V30 22 C 37.195657 28.803779 53.446443 0
M  V30 23 S 40.401455 26.708858 55.614382 0
M  V30 24 N 38.143722 29.057288 59.090151 0
M  V30 25 C 38.386443 32.745880 61.972346 0 CFG=2
M  V30 26 C 41.606780 33.169111 65.173449 0 CFG=2
M  V30 27 C 44.870901 32.208987 67.672052 0
M  V30 28 C 39.821545 26.705626 53.942912 0
M  V30 29 C 41.710510 32.814283 61.612418 0
M  V30 30 N 37.615206 29.193514 54.661393 0
M  V30 31 N 38.667250 25.850992 58.653475 0
M  V30 32 C 34.566718 32.616333 59.586652 0
M  V30 33 O 39.892574 34.479013 62.953636 0
M  V30 34 C 42.862198 33.609930 65.885558 0 CFG=1
M  V30 35 O 38.873076 24.948874 57.530899 0
M  V30 36 C 41.891873 30.733678 64.650789 0
M  V30 37 C 41.838776 32.160995 64.057805 0 CFG=1
M  V30 38 C 41.988088 34.639267 65.223829 0
M  V30 39 O 41.066255 36.261364 62.003686 0
M  V30 40 C 36.787507 36.051419 59.387724 0 CFG=2
M  V30 41 C 43.005780 30.498084 65.702053 0
M  V30 42 C 40.915207 32.255760 62.795244 0 CFG=1
M  V30 43 O 37.795468 33.821017 61.221605 0
M  V30 44 O 39.653243 28.021478 60.527714 0
M  V30 45 C 38.035278 33.869246 58.313646 0
M  V30 46 C 39.050197 28.144757 59.466181 0
M  V30 47 C 35.867396 34.756335 62.241810 0
M  V30 48 C 38.428239 27.828566 57.183527 0 CFG=1
M  V30 49 C 39.224171 27.166729 58.331440 0 CFG=2
M  V30 50 C 38.043485 30.353509 61.274457 0
M  V30 51 C 37.728161 29.070490 57.727721 0
M  V30 52 N 38.608441 28.332586 54.831460 0
M  V30 53 O 40.267412 26.021410 53.053559 0
M  V30 54 H 43.964831 29.393030 68.111481 0
M  V30 55 H 42.618661 29.895910 69.130093 0
M  V30 56 H 42.339795 28.806825 67.785237 0
M  V30 57 H 36.247016 36.484164 63.608898 0
M  V30 58 H 37.652669 37.833751 62.234713 0
M  V30 59 H 40.200732 34.763976 60.957800 0
M  V30 60 H 41.576557 31.045595 67.225066 0
M  V30 61 H 40.586089 36.947282 63.691490 0
M  V30 62 H 36.076749 34.421431 57.853493 0
M  V30 63 H 35.102994 32.821335 58.668024 0
M  V30 64 H 36.471830 29.221520 60.253516 0
M  V30 65 H 36.863749 30.636691 59.468764 0
M  V30 66 H 38.120002 37.526032 59.998407 0
M  V30 67 H 38.650375 35.956040 60.416457 0
M  V30 68 H 39.964302 29.078337 56.227096 0
M  V30 69 H 43.090415 32.187932 68.804795 0
M  V30 70 H 34.985006 35.055660 59.704745 0
M  V30 71 H 39.253601 32.821485 63.887521 0
M  V30 72 H 38.338597 31.997784 59.988053 0
M  V30 73 H 39.715367 31.425773 60.708262 0
M  V30 74 H 36.267422 29.144181 53.053412 0
M  V30 75 H 37.607733 32.426020 62.653915 0
M  V30 76 H 40.745013 32.926061 65.793331 0
M  V30 77 H 45.312487 31.350547 68.178178 0
M  V30 78 H 45.255670 32.211870 66.654185 0
M  V30 79 H 45.254471 33.102806 68.162822 0
M  V30 80 H 41.222488 32.709372 60.653698 0
M  V30 81 H 42.687937 32.345789 61.511676 0
M  V30 82 H 37.662420 25.841662 58.769274 0
M  V30 83 H 34.150927 31.621481 59.488849 0
M  V30 84 H 33.732589 33.310459 59.677642 0
M  V30 85 H 43.853739 33.478356 65.463901 0
M  V30 86 H 38.682466 25.494383 56.782662 0
M  V30 87 H 40.918566 30.451211 65.055069 0
M  V30 88 H 42.081247 30.036235 63.833242 0
M  V30 89 H 42.847931 32.335496 63.699466 0
M  V30 90 H 41.411716 35.294892 65.873494 0
M  V30 91 H 42.372422 35.102501 64.317773 0
M  V30 92 H 36.183067 36.839570 58.942868 0
M  V30 93 H 43.222406 29.429758 65.671203 0
M  V30 94 H 43.936974 30.957010 65.374288 0
M  V30 95 H 40.652405 31.223346 62.574808 0
M  V30 96 H 38.829684 34.016200 59.042406 0
M  V30 97 H 37.708652 32.832571 58.266977 0
M  V30 98 H 38.422368 34.058798 57.315171 0
M  V30 99 H 34.795689 34.821312 62.253396 0
M  V30 100 H 35.867390 34.067656 63.053457 0
M  V30 101 H 37.655961 27.149116 56.815383 0
M  V30 102 H 40.302692 27.096034 58.182864 0
M  V30 103 H 38.753078 29.697409 61.763599 0
M  V30 104 H 37.326565 30.450736 62.067505 0
M  V30 105 H 36.646233 28.997839 57.646136 0
M  V30 106 H 38.042888 30.002924 57.253048 0
M  V30 END ATOM
M  V30 BEGIN BOND
M  V30 1 2 5 4
M  V30 2 1 7 1
M  V30 3 1 8 6
M  V30 4 2 12 3
M  V30 5 1 14 5
M  V30 6 1 15 3
M  V30 7 1 17 2
M  V30 8 1 17 7
M  V30 9 2 18 9
M  V30 10 1 19 11
M  V30 11 1 19 15
M  V30 12 1 22 18
M  V30 13 1 23 16
M  V30 14 1 24 13
M  V30 15 1 25 20
M  V30 16 1 25 21
M  V30 17 1 27 17
M  V30 18 1 28 9
M  V30 19 1 28 23
M  V30 20 1 29 8
M  V30 21 2 30 22
M  V30 22 1 32 3
M  V30 23 1 33 6
M  V30 24 1 33 20
M  V30 25 1 34 2
M  V30 26 1 34 26
M  V30 27 1 35 31
M  V30 28 1 37 26
M  V30 29 1 37 36
M  V30 30 1 38 26
M  V30 31 1 38 34
M  V30 32 1 39 6
M  V30 33 1 39 10
M  V30 34 1 40 11
M  V30 35 1 40 14
M  V30 36 1 40 19
M  V30 37 1 41 7
M  V30 38 1 41 36
M  V30 39 1 42 20
M  V30 40 1 42 29
M  V30 41 1 42 37
M  V30 42 1 15 43 CFG=1
M  V30 43 1 43 25
M  V30 44 1 45 11
M  V30 45 1 46 24
M  V30 46 2 46 44
M  V30 47 1 47 4
M  V30 48 1 47 15
M  V30 49 1 48 16
M  V30 50 1 49 31
M  V30 51 1 49 46
M  V30 52 1 49 48
M  V30 53 1 50 13
M  V30 54 1 50 21
M  V30 55 1 51 24
M  V30 56 1 51 48
M  V30 57 1 52 9
M  V30 58 1 52 16
M  V30 59 1 52 30
M  V30 60 2 53 28
M  V30 61 1 54 1
M  V30 62 1 55 1
M  V30 63 1 56 1
M  V30 64 1 57 4
M  V30 65 1 58 5
M  V30 66 1 6 59 CFG=3
M  V30 67 1 7 60 CFG=3
M  V30 68 1 61 10
M  V30 69 1 11 62 CFG=3
M  V30 70 1 63 32
M  V30 71 1 64 13
M  V30 72 1 65 13
M  V30 73 1 66 14
M  V30 74 1 67 14
M  V30 75 1 16 68 CFG=1
M  V30 76 1 17 69 CFG=1
M  V30 77 1 19 70 CFG=3
M  V30 78 1 20 71 CFG=1
M  V30 79 1 72 21
M  V30 80 1 73 21
M  V30 81 1 74 22
M  V30 82 1 25 75 CFG=1
M  V30 83 1 26 76 CFG=1
M  V30 84 1 77 27
M  V30 85 1 78 27
M  V30 86 1 79 27
M  V30 87 1 80 29
M  V30 88 1 81 29
M  V30 89 1 82 31
M  V30 90 1 83 32
M  V30 91 1 84 32
M  V30 92 1 34 85 CFG=3
M  V30 93 1 86 35
M  V30 94 1 87 36
M  V30 95 1 88 36
M  V30 96 1 37 89 CFG=3
M  V30 97 1 90 38
M  V30 98 1 91 38
M  V30 99 1 40 92 CFG=3
M  V30 100 1 93 41
M  V30 101 1 94 41
M  V30 102 1 42 95 CFG=3
M  V30 103 1 96 45
M  V30 104 1 97 45
M  V30 105 1 98 45
M  V30 106 1 99 47
M  V30 107 1 100 47
M  V30 108 1 48 101 CFG=3
M  V30 109 1 49 102 CFG=3
M  V30 110 1 103 50
M  V30 111 1 104 50
M  V30 112 1 105 51
M  V30 113 1 106 51
M  V30 END BOND
M  V30 END CTAB
M  END
>  <i_epik_Tot_Q>  (1) 
0

>  <i_epik_Tot_abs_Q>  (1) 
0

>  <i_i_glide_confnum>  (1) 
4105

>  <i_i_glide_lignum>  (1) 
39

>  <i_i_glide_posenum>  (1) 
16

>  <i_i_glide_rotatable_bonds>  (1) 
14

>  <i_lp_mmshare_version>  (1) 
72125

>  <i_m_source_file_index>  (1) 
18

>  <i_f3d_flags>  (1) 
0

>  <num_sample>  (1) 
100

>  <b_lp_Chiralities_Consistent>  (1) 
1

>  <r_epik_Charging_Adjusted_Penalty>  (1) 
0

>  <r_epik_Ionization_Penalty>  (1) 
0.00082092263498994861

>  <r_epik_Ionization_Penalty_Charging>  (1) 
0

>  <r_epik_Ionization_Penalty_Neutral>  (1) 
0.00082092263498994861

>  <r_epik_State_Penalty>  (1) 
-0

>  <r_glide_ring_energy>  (1) 
2.4013288792846437

>  <r_i_docking_score>  (1) 
-5.479780249785545

>  <r_i_glide_ecoul>  (1) 
-3.532827637772737

>  <r_i_glide_eff_state_penalty>  (1) 
-0

>  <r_i_glide_einternal>  (1) 
65.159806224957194

>  <r_i_glide_emodel>  (1) 
20.686930809834649

>  <r_i_glide_emodel_strain>  (1) 
12.032903709619234

>  <r_i_glide_energy>  (1) 
-16.753148105509133

>  <r_i_glide_erotb>  (1) 
0.21750603727348183

>  <r_i_glide_esite>  (1) 
0

>  <r_i_glide_evdw>  (1) 
-13.220320467736396

>  <r_i_glide_gscore>  (1) 
-5.479780249785545

>  <r_i_glide_gscore_strain>  (1) 
2.0082259274048084

>  <r_i_glide_hbond>  (1) 
-0.36397415763004526

>  <r_i_glide_ligand_efficiency>  (1) 
-0.10339208018463293

>  <r_i_glide_ligand_efficiency_ln>  (1) 
-1.1025067229641461

>  <r_i_glide_ligand_efficiency_sa>  (1) 
-0.38837019789681954

>  <r_i_glide_lipo>  (1) 
-3.8492180982670683

>  <r_i_glide_metal>  (1) 
-0

>  <r_i_glide_rewards>  (1) 
-2.3013797895139936

>  <r_lp_Energy>  (1) 
36.857391

>  <r_lp_tautomer_probability>  (1) 
1

>  <s_epik_Chemistry_Notes>  (1) 
This compound contains an acetal/aminal-like group ( X-CH(R)-Y where X, Y are N, S, or O) that may be acid/base labile, releasing an aldehyde. This compound has a N-S or N-O group and may undergo hydrolysis at high or low pH.

>  <s_epik_cmdline>  (1) 
J2VwaWtfcHl0aG9uJywgJy1waHQnLCAnMS4wJywgJy1waCcsICc3LjQnLCAnLXRuJywgJzgnLCAnLW1hJywgJzUwMCcsICctaW1hZScsICc8aW5maWxlLm1hZT4nLCAnLW9tYWUnLCAnPG91dGZpbGUubWFlPic=

>  <s_epik_input>  (1) 
W0NAQEhdMTJbQ0BASF0oW0NIMl0yKU9bQ0BIXShbQ0gzXSlbQ0BIXShbQ0gzXSlbQ0gyXVtDSDJdW0NASF0xW0NASF0oW0NIMl1PW0NAQEhdM09bT0hdKVtDQEBIXShPMylbQ0BASF0oT1tDQEBdNChDKFtPSF0pPVtDSDJdKVtDSDJdW0NIXT1bQ0hdW0NIMl1bQ0BIXShbQ0BIXTQ1KVtDSF01W0NIM10pW0NIMl1bQ0gyXVtDSDJdTjZDKD1PKVtDQEBIXShbTkhdW09IXSlbQ0BASF0oW0NIMl02KVtDQEBIXShTQzc9TyluKGM3OCluW2NIXW44

>  <s_glide_docking_method>  (1) 
confgen

>  <s_i_glide_gridfile>  (1) 
gpcr_5ht2c_6bqh_protein_autoprepared_prepared

>  <s_lp_Force_Field>  (1) 
S-OPLS

>  <s_lp_Variant>  (1) 
DiffSBDD_17_num_sample_100-1

>  <s_m_source_file>  (1) 
generated__ligand_DiffSBDD_2026-05-06_prepared.sdf

>  <GenAI_Model>  (1) 
DiffSBDD

>  <Protein>  (1) 
GPCR_5HT2C

$$$$
DiffSBDD_74_num_sample_100
     RDKit          3D

  0  0  0  0  0  0  0  0  0  0999 V3000
M  V30 BEGIN CTAB
M  V30 COUNTS 24 24 0 0 1
M  V30 BEGIN ATOM
M  V30 1 C 39.688131 25.415064 57.231881 0
M  V30 2 C 37.369892 30.403144 54.963328 0
M  V30 3 C 38.285944 28.067863 54.636436 0
M  V30 4 C 39.680765 29.234322 52.045492 0
M  V30 5 C 38.314316 25.767984 55.083296 0
M  V30 6 C 37.867403 26.826180 54.222210 0
M  V30 7 S 39.241725 27.942058 56.080880 0
M  V30 8 C 39.067809 26.218596 56.140142 0
M  V30 9 C 39.260796 29.990466 53.316115 0
M  V30 10 C 38.010152 29.394391 53.992296 0 CFG=2
M  V30 11 H 39.867429 24.390754 56.909465 0
M  V30 12 H 40.642338 25.844445 57.538727 0
M  V30 13 H 39.035739 25.385042 58.104449 0
M  V30 14 H 36.443563 30.021429 55.393011 0
M  V30 15 H 38.038105 30.649640 55.788594 0
M  V30 16 H 37.121424 31.337551 54.459154 0
M  V30 17 H 40.576369 29.676582 51.608292 0
M  V30 18 H 39.894728 28.186058 52.253504 0
M  V30 19 H 38.894971 29.263685 51.290025 0
M  V30 20 H 38.068064 24.732433 54.899096 0
M  V30 21 H 37.262906 26.639968 53.345997 0
M  V30 22 H 39.067407 31.029880 53.050099 0
M  V30 23 H 40.090041 30.021428 54.023790 0
M  V30 24 H 37.272647 29.221428 53.208516 0
M  V30 END ATOM
M  V30 BEGIN BOND
M  V30 1 2 6 3
M  V30 2 1 6 5
M  V30 3 1 7 3
M  V30 4 1 8 1
M  V30 5 2 8 5
M  V30 6 1 8 7
M  V30 7 1 9 4
M  V30 8 1 10 2
M  V30 9 1 10 3
M  V30 10 1 10 9
M  V30 11 1 11 1
M  V30 12 1 12 1
M  V30 13 1 13 1
M  V30 14 1 14 2
M  V30 15 1 15 2
M  V30 16 1 16 2
M  V30 17 1 17 4
M  V30 18 1 18 4
M  V30 19 1 19 4
M  V30 20 1 20 5
M  V30 21 1 21 6
M  V30 22 1 22 9
M  V30 23 1 23 9
M  V30 24 1 10 24 CFG=3
M  V30 END BOND
M  V30 END CTAB
M  END
>  <i_epik_Tot_Q>  (1) 
0

>  <i_epik_Tot_abs_Q>  (1) 
0

>  <i_i_glide_confnum>  (1) 
1

>  <i_i_glide_lignum>  (1) 
187

>  <i_i_glide_posenum>  (1) 
319

>  <i_i_glide_rotatable_bonds>  (1) 
2

>  <i_lp_mmshare_version>  (1) 
72125

>  <i_m_source_file_index>  (1) 
75

>  <i_f3d_flags>  (1) 
0

>  <num_sample>  (1) 
100

>  <b_lp_Chiralities_Consistent>  (1) 
1

>  <r_epik_Charging_Adjusted_Penalty>  (1) 
0

>  <r_epik_Ionization_Penalty>  (1) 
0

>  <r_epik_Ionization_Penalty_Charging>  (1) 
0

>  <r_epik_Ionization_Penalty_Neutral>  (1) 
0

>  <r_epik_State_Penalty>  (1) 
-0

>  <r_glide_ring_energy>  (1) 
0

>  <r_i_docking_score>  (1) 
-5.4786094066984319

>  <r_i_glide_ecoul>  (1) 
-0.21564232509737255

>  <r_i_glide_eff_state_penalty>  (1) 
-0

>  <r_i_glide_einternal>  (1) 
0.54362073540842326

>  <r_i_glide_emodel>  (1) 
-29.37471456957207

>  <r_i_glide_emodel_strain>  (1) 
0

>  <r_i_glide_energy>  (1) 
-21.554495433033207

>  <r_i_glide_erotb>  (1) 
0.62454345272379397

>  <r_i_glide_esite>  (1) 
0

>  <r_i_glide_evdw>  (1) 
-21.338853107935833

>  <r_i_glide_gscore>  (1) 
-5.4786094066984319

>  <r_i_glide_gscore_strain>  (1) 
0

>  <r_i_glide_hbond>  (1) 
0

>  <r_i_glide_ligand_efficiency>  (1) 
-0.54786094066984314

>  <r_i_glide_ligand_efficiency_ln>  (1) 
-1.6588851619055949

>  <r_i_glide_ligand_efficiency_sa>  (1) 
-1.1803306158926099

>  <r_i_glide_lipo>  (1) 
-2.4270044311798809

>  <r_i_glide_metal>  (1) 
-0

>  <r_i_glide_rewards>  (1) 
-2.5768594240809475

>  <r_lp_Energy>  (1) 
7.9689609999999993

>  <r_lp_tautomer_probability>  (1) 
1

>  <s_epik_cmdline>  (1) 
J2VwaWtfcHl0aG9uJywgJy1waHQnLCAnMS4wJywgJy1waCcsICc3LjQnLCAnLXRuJywgJzgnLCAnLW1hJywgJzUwMCcsICctaW1hZScsICc8aW5maWxlLm1hZT4nLCAnLW9tYWUnLCAnPG91dGZpbGUubWFlPic=

>  <s_epik_input>  (1) 
W0NIM11jKHMxKVtjSF1bY0hdYzFbQ0BIXShbQ0gzXSlbQ0gyXVtDSDNd

>  <s_glide_docking_method>  (1) 
confgen

>  <s_i_glide_gridfile>  (1) 
gpcr_5ht2c_6bqh_protein_autoprepared_prepared

>  <s_lp_Force_Field>  (1) 
S-OPLS

>  <s_lp_Variant>  (1) 
DiffSBDD_74_num_sample_100-2

>  <s_m_source_file>  (1) 
generated__ligand_DiffSBDD_2026-05-06_prepared.sdf

>  <GenAI_Model>  (1) 
DiffSBDD

>  <Protein>  (1) 
GPCR_5HT2C

$$$$
DiffSBDD_93_num_sample_100
     RDKit          3D

  0  0  0  0  0  0  0  0  0  0999 V3000
M  V30 BEGIN CTAB
M  V30 COUNTS 74 77 0 0 1
M  V30 BEGIN ATOM
M  V30 1 C 36.959635 33.269548 60.379642 0
M  V30 2 S 39.204868 28.502804 56.556581 0
M  V30 3 C 37.616438 35.340209 61.691674 0 CFG=2
M  V30 4 O 41.279385 28.021432 61.311942 0
M  V30 5 C 40.293819 30.820934 52.407252 0
M  V30 6 C 39.112433 29.309005 60.042269 0 CFG=1
M  V30 7 C 38.564828 28.231027 52.907014 0
M  V30 8 C 37.625208 29.620322 54.776062 0
M  V30 9 C 38.992352 34.700338 61.887920 0
M  V30 10 N 37.067405 30.021426 57.246008 0
M  V30 11 C 39.933755 30.441428 51.025040 0
M  V30 12 C 36.627173 34.314652 61.177807 0
M  V30 13 C 35.863365 32.356945 59.895792 0
M  V30 14 C 37.367765 30.560812 58.601063 0 CFG=1
M  V30 15 C 39.456512 34.034220 60.602262 0
M  V30 16 Cl 38.270822 33.621427 58.281773 0
M  V30 17 O 39.867408 28.919345 49.453513 0
M  V30 18 C 38.389284 33.116264 59.950754 0 CFG=2
M  V30 19 C 34.438195 32.729337 60.241117 0
M  V30 20 C 40.327595 29.038733 57.829867 0
M  V30 21 C 39.121072 28.925860 61.528168 0
M  V30 22 C 36.056419 31.200271 59.138227 0
M  V30 23 C 38.622820 28.317026 51.388936 0
M  V30 24 C 40.060557 28.423040 59.214845 0 CFG=1
M  V30 25 C 38.129654 29.946363 56.223435 0 CFG=1
M  V30 26 C 39.889028 28.955646 50.835162 0 CFG=2
M  V30 27 C 41.402055 28.342417 59.933522 0
M  V30 28 C 40.542722 28.958051 62.064355 0
M  V30 29 C 39.712277 30.386531 53.530550 0
M  V30 30 S 38.667423 31.668301 56.060309 0
M  V30 31 N 38.634549 29.487760 53.666283 0
M  V30 32 C 37.628670 36.587655 60.795541 0
M  V30 33 C 37.693792 29.338859 59.461455 0
M  V30 34 H 37.248698 35.674978 62.653595 0
M  V30 35 H 41.081249 31.529077 52.491003 0
M  V30 36 H 39.549416 30.298180 60.016818 0
M  V30 37 H 39.386340 27.599563 53.249893 0
M  V30 38 H 37.657185 27.684465 53.161410 0
M  V30 39 H 36.891879 30.365877 54.466725 0
M  V30 40 H 37.067553 28.689636 54.843946 0
M  V30 41 H 39.720270 35.434865 62.234078 0
M  V30 42 H 38.932795 33.930250 62.654136 0
M  V30 43 H 36.374504 30.705865 56.903612 0
M  V30 44 H 40.759348 30.841660 50.431419 0
M  V30 45 H 39.067412 30.974624 50.652296 0
M  V30 46 H 35.605788 34.463579 61.477368 0
M  V30 47 H 38.229134 31.183729 58.505959 0
M  V30 48 H 39.775806 34.816508 59.912317 0
M  V30 49 H 40.357148 33.455372 60.803226 0
M  V30 50 H 39.032536 29.269002 49.159007 0
M  V30 51 H 38.731278 32.114368 60.099838 0
M  V30 52 H 34.182183 33.683365 59.778926 0
M  V30 53 H 33.754594 31.996666 59.833066 0
M  V30 54 H 34.280997 32.821345 61.314552 0
M  V30 55 H 41.324689 28.771210 57.477907 0
M  V30 56 H 40.267352 30.116269 57.853436 0
M  V30 57 H 38.707875 27.928493 61.670565 0
M  V30 58 H 38.519553 29.624837 62.108885 0
M  V30 59 H 35.170505 30.646913 58.865422 0
M  V30 60 H 37.756199 28.854660 51.053587 0
M  V30 61 H 38.528204 27.308256 50.984277 0
M  V30 62 H 39.666054 27.410588 59.118495 0
M  V30 63 H 40.791070 28.465276 51.204573 0
M  V30 64 H 42.054857 27.618281 59.451420 0
M  V30 65 H 41.867369 29.306868 59.808582 0
M  V30 66 H 40.568322 28.678182 63.116727 0
M  V30 67 H 40.979042 29.954372 61.982076 0
M  V30 68 H 40.080457 30.744053 54.451757 0
M  V30 69 H 38.972295 31.590720 54.760284 0
M  V30 70 H 36.648417 37.066384 60.778198 0
M  V30 71 H 38.346572 37.325574 61.152765 0
M  V30 72 H 37.882134 36.338752 59.764980 0
M  V30 73 H 37.509108 28.421362 58.913619 0
M  V30 74 H 36.961295 29.311151 60.253482 0
M  V30 END ATOM
M  V30 BEGIN BOND
M  V30 1 1 9 3
M  V30 2 1 11 5
M  V30 3 2 12 1
M  V30 4 1 12 3
M  V30 5 1 13 1
M  V30 6 1 14 10
M  V30 7 1 15 9
M  V30 8 1 18 1
M  V30 9 1 18 15
M  V30 10 1 18 16
M  V30 11 1 19 13
M  V30 12 1 20 2
M  V30 13 1 21 6
M  V30 14 2 22 13
M  V30 15 1 22 14
M  V30 16 1 23 7
M  V30 17 1 24 6
M  V30 18 1 24 20
M  V30 19 1 25 2
M  V30 20 1 25 8
M  V30 21 1 25 10
M  V30 22 1 26 11
M  V30 23 1 26 17
M  V30 24 1 26 23
M  V30 25 1 27 4
M  V30 26 1 27 24
M  V30 27 1 28 4
M  V30 28 1 28 21
M  V30 29 2 29 5
M  V30 30 1 25 30 CFG=3
M  V30 31 1 31 7
M  V30 32 1 31 8
M  V30 33 1 31 29
M  V30 34 1 32 3
M  V30 35 1 33 6
M  V30 36 1 33 14
M  V30 37 1 3 34 CFG=1
M  V30 38 1 35 5
M  V30 39 1 6 36 CFG=1
M  V30 40 1 37 7
M  V30 41 1 38 7
M  V30 42 1 39 8
M  V30 43 1 40 8
M  V30 44 1 41 9
M  V30 45 1 42 9
M  V30 46 1 43 10
M  V30 47 1 44 11
M  V30 48 1 45 11
M  V30 49 1 46 12
M  V30 50 1 14 47 CFG=3
M  V30 51 1 48 15
M  V30 52 1 49 15
M  V30 53 1 50 17
M  V30 54 1 18 51 CFG=3
M  V30 55 1 52 19
M  V30 56 1 53 19
M  V30 57 1 54 19
M  V30 58 1 55 20
M  V30 59 1 56 20
M  V30 60 1 57 21
M  V30 61 1 58 21
M  V30 62 1 59 22
M  V30 63 1 60 23
M  V30 64 1 61 23
M  V30 65 1 24 62 CFG=3
M  V30 66 1 26 63 CFG=1
M  V30 67 1 64 27
M  V30 68 1 65 27
M  V30 69 1 66 28
M  V30 70 1 67 28
M  V30 71 1 68 29
M  V30 72 1 69 30
M  V30 73 1 70 32
M  V30 74 1 71 32
M  V30 75 1 72 32
M  V30 76 1 73 33
M  V30 77 1 74 33
M  V30 END BOND
M  V30 END CTAB
M  END
>  <i_epik_Tot_Q>  (1) 
0

>  <i_epik_Tot_abs_Q>  (1) 
0

>  <i_i_glide_confnum>  (1) 
8

>  <i_i_glide_lignum>  (1) 
250

>  <i_i_glide_posenum>  (1) 
166

>  <i_i_glide_rotatable_bonds>  (1) 
6

>  <i_lp_mmshare_version>  (1) 
72125

>  <i_m_source_file_index>  (1) 
94

>  <i_f3d_flags>  (1) 
0

>  <num_sample>  (1) 
100

>  <b_lp_Chiralities_Consistent>  (1) 
1

>  <r_epik_Charging_Adjusted_Penalty>  (1) 
0.20325292957253988

>  <r_epik_Ionization_Penalty>  (1) 
0.031936562948065232

>  <r_epik_Ionization_Penalty_Charging>  (1) 
3.6030848355623751e-07

>  <r_epik_Ionization_Penalty_Neutral>  (1) 
0.031936202639581676

>  <r_epik_State_Penalty>  (1) 
0.20325256926405633

>  <r_glide_ring_energy>  (1) 
1.1916073689223343

>  <r_i_docking_score>  (1) 
-5.4712669502386131

>  <r_i_glide_ecoul>  (1) 
-6.8029625571537329

>  <r_i_glide_eff_state_penalty>  (1) 
0.20325256926405633

>  <r_i_glide_einternal>  (1) 
7.9725910338865127

>  <r_i_glide_emodel>  (1) 
-22.350381543555599

>  <r_i_glide_emodel_strain>  (1) 
7.5389278245549889

>  <r_i_glide_energy>  (1) 
-25.111548881388973

>  <r_i_glide_erotb>  (1) 
0.31140238833871409

>  <r_i_glide_esite>  (1) 
-0.059239803593601981

>  <r_i_glide_evdw>  (1) 
-18.30858632423524

>  <r_i_glide_gscore>  (1) 
-5.6745195195026694

>  <r_i_glide_gscore_strain>  (1) 
0.88473195613874722

>  <r_i_glide_hbond>  (1) 
-0.46078090139065275

>  <r_i_glide_ligand_efficiency>  (1) 
-0.16579596818904888

>  <r_i_glide_ligand_efficiency_ln>  (1) 
-1.2167814410289188

>  <r_i_glide_ligand_efficiency_sa>  (1) 
-0.53179625974127032

>  <r_i_glide_lipo>  (1) 
-3.5316518848047398

>  <r_i_glide_metal>  (1) 
-0

>  <r_i_glide_rewards>  (1) 
-0.8831075744063146

>  <r_lp_Energy>  (1) 
33.420006000000001

>  <s_epik_Chemistry_Notes>  (1) 
This compound has an imine and may undergo hydrolysis.

>  <s_epik_cmdline>  (1) 
J2VwaWtfcHl0aG9uJywgJy1waHQnLCAnMS4wJywgJy1waCcsICc3LjQnLCAnLXRuJywgJzgnLCAnLW1hJywgJzUwMCcsICctaW1hZScsICc8aW5maWxlLm1hZT4nLCAnLW9tYWUnLCAnPG91dGZpbGUubWFlPic=

>  <s_epik_input>  (1) 
Q2xbQ0BIXTFbQ0gyXVtDSDJdW0NAQEhdKFtDSDNdKVtDSF09QzEvQyhbQ0gzXSk9W0NIXVxbQ0BASF0oW0NIMl0yKVtOSF1bQ0BAXShbU0hdKShTW0NIMl1bQ0BIXShbQ0BASF0yMylbQ0gyXU9bQ0gyXVtDSDJdMylbQ0gyXU4oW0NIMl1bQ0gyXTQpW0NIXT1bQ0hdW0NIMl1bQ0BASF00W09IXQ==

>  <s_glide_docking_method>  (1) 
confgen

>  <s_i_glide_gridfile>  (1) 
gpcr_5ht2c_6bqh_protein_autoprepared_prepared

>  <s_lp_Force_Field>  (1) 
S-OPLS

>  <s_lp_Variant>  (1) 
DiffSBDD_93_num_sample_100-2

>  <s_m_source_file>  (1) 
generated__ligand_DiffSBDD_2026-05-06_prepared.sdf

>  <GenAI_Model>  (1) 
DiffSBDD

>  <Protein>  (1) 
GPCR_5HT2C

$$$$
DiffSBDD_93_num_sample_100
     RDKit          3D

  0  0  0  0  0  0  0  0  0  0999 V3000
M  V30 BEGIN CTAB
M  V30 COUNTS 74 77 0 0 1
M  V30 BEGIN ATOM
M  V30 1 C 41.918676 31.742675 64.246873 0
M  V30 2 S 37.298124 34.407106 59.418283 0
M  V30 3 C 43.610252 30.380960 65.574766 0 CFG=2
M  V30 4 O 37.448541 37.621414 63.547704 0
M  V30 5 C 38.392267 32.821085 55.266050 0
M  V30 6 C 38.891480 35.567015 62.286094 0 CFG=1
M  V30 7 C 38.154653 30.474292 57.337196 0
M  V30 8 C 38.864635 32.189623 58.946326 0
M  V30 9 C 42.492452 30.170816 66.603518 0
M  V30 10 N 38.306432 32.758806 61.267846 0
M  V30 11 C 38.626318 31.583706 54.423976 0
M  V30 12 C 43.045479 30.986957 64.302143 0
M  V30 13 C 41.443915 32.251855 62.935069 0
M  V30 14 C 39.653185 33.295843 61.487436 0 CFG=2
M  V30 15 C 41.759483 31.489078 66.833178 0
M  V30 16 Cl 41.067443 33.834884 65.790466 0
M  V30 17 O 36.667498 30.320245 54.934485 0
M  V30 18 C 41.147919 32.066879 65.538221 0 CFG=1
M  V30 19 C 42.327447 32.193349 61.709362 0
M  V30 20 C 36.655712 35.111093 60.934504 0
M  V30 21 C 39.604449 36.684051 63.045162 0
M  V30 22 C 40.210218 32.778964 62.811792 0
M  V30 23 C 38.722605 29.765757 56.124544 0
M  V30 24 C 37.570570 36.099971 61.675208 0 CFG=1
M  V30 25 C 37.766109 32.726145 59.900189 0 CFG=1
M  V30 26 C 38.070035 30.249298 54.848793 0 CFG=2
M  V30 27 C 36.707876 36.707610 62.794128 0
M  V30 28 C 38.664214 37.184640 64.139143 0
M  V30 29 C 38.389010 32.901459 56.616784 0
M  V30 30 S 36.392568 31.543521 59.957382 0
M  V30 31 N 38.531476 31.870557 57.562725 0
M  V30 32 C 44.335529 29.059534 65.272194 0
M  V30 33 C 39.819907 34.820062 61.339222 0
M  V30 34 H 44.344205 31.084431 65.972333 0
M  V30 35 H 38.266733 33.732479 54.709410 0
M  V30 36 H 38.667406 34.854068 63.053514 0
M  V30 37 H 38.462858 29.887153 58.201981 0
M  V30 38 H 37.067469 30.414436 57.351680 0
M  V30 39 H 39.344222 31.326534 59.412310 0
M  V30 40 H 39.625658 32.962100 58.852922 0
M  V30 41 H 41.787950 29.415478 66.250453 0
M  V30 42 H 42.904656 29.799482 67.543709 0
M  V30 43 H 37.646622 33.228147 61.866929 0
M  V30 44 H 39.700820 31.500704 54.259122 0
M  V30 45 H 38.210472 31.826569 53.453521 0
M  V30 46 H 43.580313 30.754578 63.403397 0
M  V30 47 H 40.281219 32.870210 60.726148 0
M  V30 48 H 40.983781 31.369013 67.590350 0
M  V30 49 H 42.476031 32.197067 67.251960 0
M  V30 50 H 36.414760 30.959572 55.602007 0
M  V30 51 H 40.127867 31.691147 65.445087 0
M  V30 52 H 43.381873 32.021478 61.853493 0
M  V30 53 H 41.867506 31.504675 60.997137 0
M  V30 54 H 42.333680 33.178820 61.249458 0
M  V30 55 H 35.867409 35.716840 60.523288 0
M  V30 56 H 36.193217 34.362443 61.578192 0
M  V30 57 H 39.881616 37.494807 62.370116 0
M  V30 58 H 40.525154 36.320979 63.505368 0
M  V30 59 H 39.557964 32.843598 63.666088 0
M  V30 60 H 38.520689 28.699023 56.228960 0
M  V30 61 H 39.807196 29.870742 56.082637 0
M  V30 62 H 37.833310 36.896498 60.977266 0
M  V30 63 H 38.303625 29.532857 54.060515 0
M  V30 64 H 35.874225 37.269855 62.375189 0
M  V30 65 H 36.267389 35.972037 63.461449 0
M  V30 66 H 39.137915 38.008610 64.671544 0
M  V30 67 H 38.461382 36.421403 64.885920 0
M  V30 68 H 38.278816 33.866710 57.078623 0
M  V30 69 H 36.100968 31.619882 58.644394 0
M  V30 70 H 45.143011 29.205321 64.553778 0
M  V30 71 H 44.777488 28.635871 66.173147 0
M  V30 72 H 43.650619 28.318801 64.857707 0
M  V30 73 H 39.710586 35.161579 60.311609 0
M  V30 74 H 40.857702 35.057677 61.578927 0
M  V30 END ATOM
M  V30 BEGIN BOND
M  V30 1 1 9 3
M  V30 2 1 11 5
M  V30 3 2 12 1
M  V30 4 1 12 3
M  V30 5 1 13 1
M  V30 6 1 14 10
M  V30 7 1 15 9
M  V30 8 1 18 1
M  V30 9 1 18 15
M  V30 10 1 18 16
M  V30 11 1 19 13
M  V30 12 1 20 2
M  V30 13 1 21 6
M  V30 14 2 22 13
M  V30 15 1 22 14
M  V30 16 1 23 7
M  V30 17 1 24 6
M  V30 18 1 24 20
M  V30 19 1 25 2
M  V30 20 1 25 8
M  V30 21 1 25 10
M  V30 22 1 26 11
M  V30 23 1 26 17
M  V30 24 1 26 23
M  V30 25 1 27 4
M  V30 26 1 27 24
M  V30 27 1 28 4
M  V30 28 1 28 21
M  V30 29 2 29 5
M  V30 30 1 25 30 CFG=1
M  V30 31 1 31 7
M  V30 32 1 31 8
M  V30 33 1 31 29
M  V30 34 1 32 3
M  V30 35 1 33 6
M  V30 36 1 33 14
M  V30 37 1 3 34 CFG=1
M  V30 38 1 35 5
M  V30 39 1 6 36 CFG=1
M  V30 40 1 37 7
M  V30 41 1 38 7
M  V30 42 1 39 8
M  V30 43 1 40 8
M  V30 44 1 41 9
M  V30 45 1 42 9
M  V30 46 1 43 10
M  V30 47 1 44 11
M  V30 48 1 45 11
M  V30 49 1 46 12
M  V30 50 1 14 47 CFG=3
M  V30 51 1 48 15
M  V30 52 1 49 15
M  V30 53 1 50 17
M  V30 54 1 18 51 CFG=3
M  V30 55 1 52 19
M  V30 56 1 53 19
M  V30 57 1 54 19
M  V30 58 1 55 20
M  V30 59 1 56 20
M  V30 60 1 57 21
M  V30 61 1 58 21
M  V30 62 1 59 22
M  V30 63 1 60 23
M  V30 64 1 61 23
M  V30 65 1 24 62 CFG=3
M  V30 66 1 26 63 CFG=3
M  V30 67 1 64 27
M  V30 68 1 65 27
M  V30 69 1 66 28
M  V30 70 1 67 28
M  V30 71 1 68 29
M  V30 72 1 69 30
M  V30 73 1 70 32
M  V30 74 1 71 32
M  V30 75 1 72 32
M  V30 76 1 73 33
M  V30 77 1 74 33
M  V30 END BOND
M  V30 END CTAB
M  END
>  <i_epik_Tot_Q>  (1) 
0

>  <i_epik_Tot_abs_Q>  (1) 
0

>  <i_i_glide_confnum>  (1) 
42

>  <i_i_glide_lignum>  (1) 
255

>  <i_i_glide_posenum>  (1) 
397

>  <i_i_glide_rotatable_bonds>  (1) 
6

>  <i_lp_mmshare_version>  (1) 
72125

>  <i_m_source_file_index>  (1) 
94

>  <i_f3d_flags>  (1) 
0

>  <num_sample>  (1) 
100

>  <b_lp_Chiralities_Consistent>  (1) 
1

>  <r_epik_Charging_Adjusted_Penalty>  (1) 
0.20325292957253988

>  <r_epik_Ionization_Penalty>  (1) 
0.031936562948065232

>  <r_epik_Ionization_Penalty_Charging>  (1) 
3.6030848355623751e-07

>  <r_epik_Ionization_Penalty_Neutral>  (1) 
0.031936202639581676

>  <r_epik_State_Penalty>  (1) 
0.20325256926405633

>  <r_glide_ring_energy>  (1) 
0

>  <r_i_docking_score>  (1) 
-5.4701004127748298

>  <r_i_glide_ecoul>  (1) 
-4.2296062905555605

>  <r_i_glide_eff_state_penalty>  (1) 
0.20325256926405633

>  <r_i_glide_einternal>  (1) 
3.5100368603251457

>  <r_i_glide_emodel>  (1) 
-41.891712553910949

>  <r_i_glide_emodel_strain>  (1) 
1.1925049733475532

>  <r_i_glide_energy>  (1) 
-32.400758649624308

>  <r_i_glide_erotb>  (1) 
0.31140238833871409

>  <r_i_glide_esite>  (1) 
-0.14918212681972115

>  <r_i_glide_evdw>  (1) 
-28.171152359068749

>  <r_i_glide_gscore>  (1) 
-5.6733529820388862

>  <r_i_glide_gscore_strain>  (1) 
0

>  <r_i_glide_hbond>  (1) 
-0.30399999999999999

>  <r_i_glide_ligand_efficiency>  (1) 
-0.16576061856893423

>  <r_i_glide_ligand_efficiency_ln>  (1) 
-1.2165220091369813

>  <r_i_glide_ligand_efficiency_sa>  (1) 
-0.53168287462120023

>  <r_i_glide_lipo>  (1) 
-3.2195248953691165

>  <r_i_glide_metal>  (1) 
-0

>  <r_i_glide_rewards>  (1) 
-0.2690497866519907

>  <r_lp_Energy>  (1) 
30.005939999999999

>  <s_epik_Chemistry_Notes>  (1) 
This compound has an imine and may undergo hydrolysis.

>  <s_epik_cmdline>  (1) 
J2VwaWtfcHl0aG9uJywgJy1waHQnLCAnMS4wJywgJy1waCcsICc3LjQnLCAnLXRuJywgJzgnLCAnLW1hJywgJzUwMCcsICctaW1hZScsICc8aW5maWxlLm1hZT4nLCAnLW9tYWUnLCAnPG91dGZpbGUubWFlPic=

>  <s_epik_input>  (1) 
Q2xbQ0BIXTFbQ0gyXVtDSDJdW0NAQEhdKFtDSDNdKVtDSF09QzEvQyhbQ0gzXSk9W0NIXS9bQ0BASF0oW0NIMl0yKVtOSF1bQ0BAXShbU0hdKShTW0NIMl1bQ0BIXShbQ0BASF0yMylbQ0gyXU9bQ0gyXVtDSDJdMylbQ0gyXU4oW0NIMl1bQ0gyXTQpW0NIXT1bQ0hdW0NIMl1bQ0BASF00W09IXQ==

>  <s_glide_docking_method>  (1) 
confgen

>  <s_i_glide_gridfile>  (1) 
gpcr_5ht2c_6bqh_protein_autoprepared_prepared

>  <s_lp_Force_Field>  (1) 
S-OPLS

>  <s_lp_Variant>  (1) 
DiffSBDD_93_num_sample_100-7

>  <s_m_source_file>  (1) 
generated__ligand_DiffSBDD_2026-05-06_prepared.sdf

>  <GenAI_Model>  (1) 
DiffSBDD

>  <Protein>  (1) 
GPCR_5HT2C

$$$$
DiffSBDD_88_num_sample_100
     RDKit          3D

  0  0  0  0  0  0  0  0  0  0999 V3000
M  V30 BEGIN CTAB
M  V30 COUNTS 72 75 0 0 1
M  V30 BEGIN ATOM
M  V30 1 C 37.136640 30.020222 55.150488 0
M  V30 2 C 39.960772 28.310160 50.368983 0
M  V30 3 C 38.896379 32.207867 60.341298 0 CFG=1
M  V30 4 C 36.890721 29.506836 57.651491 0
M  V30 5 C 38.242648 30.359567 54.163027 0
M  V30 6 C 38.911849 32.606023 58.842064 0
M  V30 7 O 34.785711 33.221418 61.853487 0
M  V30 8 C 40.167635 28.582552 60.397559 0 CFG=1
M  V30 9 C 39.067421 27.996752 54.067009 0
M  V30 10 C 37.619636 29.178190 56.346930 0
M  V30 11 O 34.270199 33.621386 59.728148 0 CHG=-1
M  V30 12 N 37.639900 30.427441 58.533892 0 CFG=1 CHG=1
M  V30 13 C 38.155542 29.792898 59.785015 0 CFG=1
M  V30 14 C 37.568729 32.771491 60.988847 0 CFG=1
M  V30 15 C 39.901201 30.817873 50.230020 0
M  V30 16 C 38.502310 31.464609 57.882053 0
M  V30 17 C 39.880959 28.688770 61.907198 0
M  V30 18 C 37.749788 34.285437 61.266177 0
M  V30 19 C 36.264167 32.444074 60.186801 0
M  V30 20 N 39.331727 27.045745 54.673316 0
M  V30 21 C 35.004141 33.161274 60.628123 0
M  V30 22 C 39.377868 30.845259 63.047882 0
M  V30 23 O 37.713151 28.821441 52.383246 0
M  V30 24 C 40.014732 29.672735 52.521585 0 CFG=1
M  V30 25 C 39.867449 29.621746 49.628076 0
M  V30 26 C 38.862592 28.413737 59.610689 0
M  V30 27 C 40.653948 28.546527 51.694010 0
M  V30 28 C 39.185564 30.670613 60.526093 0 CFG=1
M  V30 29 C 40.055169 30.997662 51.722776 0
M  V30 30 C 40.475926 30.021475 59.969157 0
M  V30 31 C 38.737868 29.199659 53.276217 0 CFG=1
M  V30 32 C 39.449593 30.120417 61.920548 0
M  V30 33 H 36.713382 30.972190 55.453434 0
M  V30 34 H 36.311864 29.531052 54.653426 0
M  V30 35 H 38.966935 27.880674 50.475786 0
M  V30 36 H 40.543278 27.557738 49.853531 0
M  V30 37 H 39.732499 32.723853 60.816961 0
M  V30 38 H 35.918672 29.944453 57.452904 0
M  V30 39 H 36.659958 28.583122 58.184198 0
M  V30 40 H 39.075043 30.789532 54.722245 0
M  V30 41 H 37.876531 31.170652 53.540945 0
M  V30 42 H 39.867385 33.036189 58.556845 0
M  V30 43 H 38.259259 33.458522 58.663243 0
M  V30 44 H 40.935417 27.850671 60.140205 0
M  V30 45 H 37.467415 28.123532 56.127118 0
M  V30 46 H 38.698071 29.236280 56.476409 0
M  V30 47 H 37.281452 29.651648 60.407756 0
M  V30 48 H 37.411001 32.312522 61.960819 0
M  V30 49 H 39.827312 31.717129 49.637084 0
M  V30 50 H 39.392172 31.023246 57.442533 0
M  V30 51 H 37.957555 31.917790 57.054343 0
M  V30 52 H 40.777451 28.549432 62.512774 0
M  V30 53 H 39.092593 28.020999 62.252220 0
M  V30 54 H 37.802135 34.868446 60.347706 0
M  V30 55 H 36.932420 34.698237 61.853485 0
M  V30 56 H 38.660310 34.478981 61.833034 0
M  V30 57 H 36.341834 32.664448 59.123854 0
M  V30 58 H 36.003689 31.395789 60.294270 0
M  V30 59 H 39.603541 30.399407 64.006161 0
M  V30 60 H 39.104133 31.885000 63.033858 0
M  V30 61 H 37.635094 27.878028 52.388296 0
M  V30 62 H 40.667378 29.943248 53.346632 0
M  V30 63 H 39.757198 29.569645 48.559006 0
M  V30 64 H 39.097507 28.195008 58.568875 0
M  V30 65 H 38.267649 27.588179 59.992879 0
M  V30 66 H 41.682538 28.815906 51.453538 0
M  V30 67 H 40.667402 27.621345 52.253441 0
M  V30 68 H 39.418549 31.779358 52.119244 0
M  V30 69 H 41.059558 31.401074 51.832267 0
M  V30 70 H 40.585794 30.021403 58.889648 0
M  V30 71 H 41.384060 30.429778 60.409362 0
M  V30 72 H 36.892938 31.017037 58.883828 0
M  V30 END ATOM
M  V30 BEGIN BOND
M  V30 1 1 5 1
M  V30 2 1 6 3
M  V30 3 1 10 1
M  V30 4 1 10 4
M  V30 5 1 12 4
M  V30 6 1 13 12
M  V30 7 1 14 3
M  V30 8 1 16 6
M  V30 9 1 16 12
M  V30 10 1 17 8
M  V30 11 1 18 14
M  V30 12 1 19 14
M  V30 13 3 20 9
M  V30 14 2 21 7
M  V30 15 1 21 11
M  V30 16 1 21 19
M  V30 17 1 25 2
M  V30 18 2 25 15
M  V30 19 1 26 8
M  V30 20 1 26 13
M  V30 21 1 27 2
M  V30 22 1 27 24
M  V30 23 1 28 3
M  V30 24 1 28 13
M  V30 25 1 29 15
M  V30 26 1 29 24
M  V30 27 1 30 8
M  V30 28 1 30 28
M  V30 29 1 31 5
M  V30 30 1 31 9 CFG=1
M  V30 31 1 31 23
M  V30 32 1 31 24
M  V30 33 1 32 17
M  V30 34 2 32 22
M  V30 35 1 28 32 CFG=1
M  V30 36 1 33 1
M  V30 37 1 34 1
M  V30 38 1 35 2
M  V30 39 1 36 2
M  V30 40 1 3 37 CFG=1
M  V30 41 1 38 4
M  V30 42 1 39 4
M  V30 43 1 40 5
M  V30 44 1 41 5
M  V30 45 1 42 6
M  V30 46 1 43 6
M  V30 47 1 8 44 CFG=1
M  V30 48 1 45 10
M  V30 49 1 46 10
M  V30 50 1 13 47 CFG=1
M  V30 51 1 14 48 CFG=1
M  V30 52 1 49 15
M  V30 53 1 50 16
M  V30 54 1 51 16
M  V30 55 1 52 17
M  V30 56 1 53 17
M  V30 57 1 54 18
M  V30 58 1 55 18
M  V30 59 1 56 18
M  V30 60 1 57 19
M  V30 61 1 58 19
M  V30 62 1 59 22
M  V30 63 1 60 22
M  V30 64 1 61 23
M  V30 65 1 24 62 CFG=1
M  V30 66 1 63 25
M  V30 67 1 64 26
M  V30 68 1 65 26
M  V30 69 1 66 27
M  V30 70 1 67 27
M  V30 71 1 68 29
M  V30 72 1 69 29
M  V30 73 1 70 30
M  V30 74 1 71 30
M  V30 75 1 12 72 CFG=1
M  V30 END BOND
M  V30 END CTAB
M  END
>  <i_epik_Tot_Q>  (1) 
0

>  <i_epik_Tot_abs_Q>  (1) 
2

>  <i_i_glide_confnum>  (1) 
832

>  <i_i_glide_lignum>  (1) 
226

>  <i_i_glide_posenum>  (1) 
37

>  <i_i_glide_rotatable_bonds>  (1) 
10

>  <i_lp_mmshare_version>  (1) 
72125

>  <i_m_source_file_index>  (1) 
89

>  <i_f3d_flags>  (1) 
0

>  <num_sample>  (1) 
100

>  <b_lp_Chiralities_Consistent>  (1) 
1

>  <r_epik_Charging_Adjusted_Penalty>  (1) 
0.0020242395650179774

>  <r_epik_Ionization_Penalty>  (1) 
0.0021859291232044671

>  <r_epik_Ionization_Penalty_Charging>  (1) 
0.0020242395650179774

>  <r_epik_Ionization_Penalty_Neutral>  (1) 
0.00016168955818648959

>  <r_epik_State_Penalty>  (1) 
-0

>  <r_glide_ring_energy>  (1) 
1.8266832637363128

>  <r_i_docking_score>  (1) 
-5.4683122002030036

>  <r_i_glide_ecoul>  (1) 
-2.2660829925295327

>  <r_i_glide_eff_state_penalty>  (1) 
-0

>  <r_i_glide_einternal>  (1) 
14.270201901028623

>  <r_i_glide_emodel>  (1) 
-22.317787203953316

>  <r_i_glide_emodel_strain>  (1) 
0.039427183742247962

>  <r_i_glide_energy>  (1) 
-19.52167044072851

>  <r_i_glide_erotb>  (1) 
0.71992511853168706

>  <r_i_glide_esite>  (1) 
-0.065704610504468297

>  <r_i_glide_evdw>  (1) 
-17.255587448198977

>  <r_i_glide_gscore>  (1) 
-5.4683122002030036

>  <r_i_glide_gscore_strain>  (1) 
0

>  <r_i_glide_hbond>  (1) 
0

>  <r_i_glide_ligand_efficiency>  (1) 
-0.17088475625634386

>  <r_i_glide_ligand_efficiency_ln>  (1) 
-1.2245041621862873

>  <r_i_glide_ligand_efficiency_sa>  (1) 
-0.54252528369329933

>  <r_i_glide_lipo>  (1) 
-3.2037713705506521

>  <r_i_glide_metal>  (1) 
-0

>  <r_i_glide_rewards>  (1) 
-1.7160695163901911

>  <r_lp_Energy>  (1) 
68.419443999999999

>  <r_lp_tautomer_probability>  (1) 
1

>  <s_epik_cmdline>  (1) 
J2VwaWtfcHl0aG9uJywgJy1waHQnLCAnMS4wJywgJy1waCcsICc3LjQnLCAnLXRuJywgJzgnLCAnLW1hJywgJzUwMCcsICctaW1hZScsICc8aW5maWxlLm1hZT4nLCAnLW9tYWUnLCAnPG91dGZpbGUubWFlPic=

>  <s_epik_input>  (1) 
W0NIMl0xW0NIXT1bQ0hdW0NIMl1bQ0gyXVtDQEBIXTFbQ0BdKEMjTikoW09IXSlbQ0gyXVtDSDJdW0NIMl1bQ0gyXU4oW0NASF0oW0NAXTIzNClbQ0gyXVtDQEBIXShbQ0gyXTMpW0NIMl1DND1bQ0gyXSlbQ0gyXVtDSDJdW0NASF0yW0NAQEhdKFtDSDNdKVtDSDJdQyg9TylbT0hd

>  <s_glide_docking_method>  (1) 
confgen

>  <s_i_glide_gridfile>  (1) 
gpcr_5ht2c_6bqh_protein_autoprepared_prepared

>  <s_lp_Force_Field>  (1) 
S-OPLS

>  <s_lp_Variant>  (1) 
DiffSBDD_88_num_sample_100-1

>  <s_m_source_file>  (1) 
generated__ligand_DiffSBDD_2026-05-06_prepared.sdf

>  <GenAI_Model>  (1) 
DiffSBDD

>  <Protein>  (1) 
GPCR_5HT2C

$$$$
DiffSBDD_1_num_sample_100
     RDKit          3D

  0  0  0  0  0  0  0  0  0  0999 V3000
M  V30 BEGIN CTAB
M  V30 COUNTS 63 66 0 0 1
M  V30 BEGIN ATOM
M  V30 1 C 38.623632 26.512383 56.654731 0
M  V30 2 C 39.770634 35.115077 61.351146 0
M  V30 3 O 38.667039 24.422167 55.853702 0
M  V30 4 C 37.935849 33.538549 60.522295 0 CFG=1
M  V30 5 C 39.014268 27.939291 56.702509 0
M  V30 6 C 38.653974 31.163426 60.228544 0
M  V30 7 C 36.968736 37.119706 63.335045 0
M  V30 8 C 41.306307 36.049090 62.794703 0
M  V30 9 N 39.954999 36.500470 63.197570 0 CHG=1
M  V30 10 C 38.023203 32.539398 56.814324 0
M  V30 11 C 38.341234 28.828099 57.760154 0
M  V30 12 C 37.700199 36.638848 62.060751 0 CFG=2
M  V30 13 C 38.927233 35.742210 62.436713 0 CFG=1
M  V30 14 C 38.055033 31.175601 58.807948 0 CFG=2
M  V30 15 C 38.256270 31.068934 56.412835 0
M  V30 16 C 39.109798 25.687217 55.786037 0
M  V30 17 N 37.949915 32.160654 61.064056 0
M  V30 18 C 39.340131 34.137107 60.522796 0
M  V30 19 O 39.845801 28.429773 55.936925 0
M  V30 20 C 38.056750 37.785952 61.098382 0
M  V30 21 C 37.725820 24.503219 56.998228 0
M  V30 22 C 37.354368 33.549543 59.082024 0
M  V30 23 C 41.173687 35.621774 61.331928 0
M  V30 24 N 38.113099 32.556349 58.284132 0 CFG=2 CHG=1
M  V30 25 O 36.667447 30.868026 58.905575 0
M  V30 26 C 37.652036 25.985159 57.615017 0
M  V30 27 C 38.704617 30.331137 57.698969 0 CFG=2
M  V30 28 O 35.867404 37.959349 63.053435 0
M  V30 29 H 37.280148 34.116788 61.159927 0
M  V30 30 H 39.722029 31.376521 60.208444 0
M  V30 31 H 38.550841 30.170776 60.668412 0
M  V30 32 H 37.654812 37.621446 64.011320 0
M  V30 33 H 36.571970 36.269126 63.884440 0
M  V30 34 H 41.580015 35.188496 63.407233 0
M  V30 35 H 42.052652 36.821438 62.966143 0
M  V30 36 H 39.885226 37.474925 62.942710 0
M  V30 37 H 38.796479 33.188370 56.401960 0
M  V30 38 H 37.067509 32.920387 56.466551 0
M  V30 39 H 38.602478 28.435289 58.742964 0
M  V30 40 H 37.262157 28.713330 57.656830 0
M  V30 41 H 36.957995 36.052418 61.527348 0
M  V30 42 H 38.667422 34.898265 63.053487 0
M  V30 43 H 38.985154 30.980156 55.605900 0
M  V30 44 H 37.319854 30.645770 56.045595 0
M  V30 45 H 39.830143 25.877299 55.002841 0
M  V30 46 H 36.981941 31.850502 61.111446 0
M  V30 47 H 40.026727 33.728733 59.801170 0
M  V30 48 H 38.911354 38.369868 61.440285 0
M  V30 49 H 38.267386 37.377290 60.112356 0
M  V30 50 H 37.225438 38.474436 60.947785 0
M  V30 51 H 36.738550 24.185652 56.661038 0
M  V30 52 H 38.038760 23.792088 57.763918 0
M  V30 53 H 36.284549 33.335498 59.077926 0
M  V30 54 H 37.467477 34.538653 58.635586 0
M  V30 55 H 41.884113 34.848533 61.053511 0
M  V30 56 H 41.261260 36.467802 60.653735 0
M  V30 57 H 36.199169 31.205422 58.130600 0
M  V30 58 H 38.015485 26.037116 58.642064 0
M  V30 59 H 36.667399 26.438093 57.509711 0
M  V30 60 H 39.788000 30.421429 57.781333 0
M  V30 61 H 36.164287 38.725982 62.587006 0
M  V30 62 H 39.826601 36.413161 64.196206 0
M  V30 63 H 39.074988 32.813247 58.440222 0
M  V30 END ATOM
M  V30 BEGIN BOND
M  V30 1 1 5 1
M  V30 2 1 9 8
M  V30 3 1 11 5
M  V30 4 1 12 7
M  V30 5 1 13 2
M  V30 6 1 13 9
M  V30 7 1 13 12
M  V30 8 1 14 6
M  V30 9 1 15 10
M  V30 10 2 16 1
M  V30 11 1 16 3
M  V30 12 1 17 4
M  V30 13 1 17 6
M  V30 14 2 18 2
M  V30 15 1 18 4
M  V30 16 2 19 5
M  V30 17 1 20 12
M  V30 18 1 21 3
M  V30 19 1 22 4
M  V30 20 1 23 2
M  V30 21 1 23 8
M  V30 22 1 24 10
M  V30 23 1 24 14
M  V30 24 1 24 22
M  V30 25 1 14 25 CFG=1
M  V30 26 1 26 1
M  V30 27 1 26 21
M  V30 28 1 27 11
M  V30 29 1 27 14
M  V30 30 1 27 15
M  V30 31 1 28 7
M  V30 32 1 4 29 CFG=1
M  V30 33 1 30 6
M  V30 34 1 31 6
M  V30 35 1 32 7
M  V30 36 1 33 7
M  V30 37 1 34 8
M  V30 38 1 35 8
M  V30 39 1 36 9
M  V30 40 1 37 10
M  V30 41 1 38 10
M  V30 42 1 39 11
M  V30 43 1 40 11
M  V30 44 1 12 41 CFG=3
M  V30 45 1 13 42 CFG=1
M  V30 46 1 43 15
M  V30 47 1 44 15
M  V30 48 1 45 16
M  V30 49 1 46 17
M  V30 50 1 47 18
M  V30 51 1 48 20
M  V30 52 1 49 20
M  V30 53 1 50 20
M  V30 54 1 51 21
M  V30 55 1 52 21
M  V30 56 1 53 22
M  V30 57 1 54 22
M  V30 58 1 55 23
M  V30 59 1 56 23
M  V30 60 1 57 25
M  V30 61 1 58 26
M  V30 62 1 59 26
M  V30 63 1 27 60 CFG=1
M  V30 64 1 61 28
M  V30 65 1 62 9
M  V30 66 1 24 63 CFG=3
M  V30 END BOND
M  V30 END CTAB
M  END
>  <i_epik_Tot_Q>  (1) 
2

>  <i_epik_Tot_abs_Q>  (1) 
2

>  <i_i_glide_confnum>  (1) 
192

>  <i_i_glide_lignum>  (1) 
13

>  <i_i_glide_posenum>  (1) 
327

>  <i_i_glide_rotatable_bonds>  (1) 
8

>  <i_lp_mmshare_version>  (1) 
72125

>  <i_m_source_file_index>  (1) 
2

>  <i_f3d_flags>  (1) 
0

>  <num_sample>  (1) 
100

>  <b_lp_Chiralities_Consistent>  (1) 
1

>  <r_epik_Charging_Adjusted_Penalty>  (1) 
2.3622130296898831

>  <r_epik_Ionization_Penalty>  (1) 
1.4312966064593899

>  <r_epik_Ionization_Penalty_Charging>  (1) 
1.1852885594971458

>  <r_epik_Ionization_Penalty_Neutral>  (1) 
0.24600804696224418

>  <r_epik_State_Penalty>  (1) 
1.176924470192737

>  <r_glide_ring_energy>  (1) 
0

>  <r_i_docking_score>  (1) 
-5.4679026221520051

>  <r_i_glide_ecoul>  (1) 
-7.1773575307959039

>  <r_i_glide_eff_state_penalty>  (1) 
1.176924470192737

>  <r_i_glide_einternal>  (1) 
8.0224942502716186

>  <r_i_glide_emodel>  (1) 
-51.774121166086232

>  <r_i_glide_emodel_strain>  (1) 
0.93854690276516806

>  <r_i_glide_energy>  (1) 
-36.205233694012193

>  <r_i_glide_erotb>  (1) 
0.75687532201182384

>  <r_i_glide_esite>  (1) 
-0.12466541025106155

>  <r_i_glide_evdw>  (1) 
-29.027876163216291

>  <r_i_glide_gscore>  (1) 
-6.6448270923447419

>  <r_i_glide_gscore_strain>  (1) 
0

>  <r_i_glide_hbond>  (1) 
-0.16

>  <r_i_glide_ligand_efficiency>  (1) 
-0.19528223650542875

>  <r_i_glide_ligand_efficiency_ln>  (1) 
-1.2621524697897677

>  <r_i_glide_ligand_efficiency_sa>  (1) 
-0.59299188577559991

>  <r_i_glide_lipo>  (1) 
-3.0367591898526003

>  <r_i_glide_metal>  (1) 
-0

>  <r_i_glide_rewards>  (1) 
-1.5522803764727044

>  <r_lp_Energy>  (1) 
26.616364999999998

>  <s_epik_cmdline>  (1) 
J2VwaWtfcHl0aG9uJywgJy1waHQnLCAnMS4wJywgJy1waCcsICc3LjQnLCAnLXRuJywgJzgnLCAnLW1hJywgJzUwMCcsICctaW1hZScsICc8aW5maWxlLm1hZT4nLCAnLW9tYWUnLCAnPG91dGZpbGUubWFlPic=

>  <s_epik_input>  (1) 
W0NIMl0xW0NIMl1PW0NIXT1DMUMoPU8pW0NIMl1bQ0BIXTJbQ0gyXVtDSDJdTihbQ0BAXTIzW09IXSlbQ0gyXVtDQEBIXShbTkhdW0NIMl0zKS9bQ0hdPUM0XFtDQEBIXShbTkhdW0NIMl1bQ0gyXTQpW0NASF0oW0NIM10pW0NIMl1bT0hd

>  <s_glide_docking_method>  (1) 
confgen

>  <s_i_glide_gridfile>  (1) 
gpcr_5ht2c_6bqh_protein_autoprepared_prepared

>  <s_lp_Force_Field>  (1) 
S-OPLS

>  <s_lp_Variant>  (1) 
DiffSBDD_1_num_sample_100-7

>  <s_m_source_file>  (1) 
generated__ligand_DiffSBDD_2026-05-06_prepared.sdf

>  <GenAI_Model>  (1) 
DiffSBDD

>  <Protein>  (1) 
GPCR_5HT2C

$$$$
DiffSBDD_20_num_sample_100
     RDKit          3D

  0  0  0  0  0  0  0  0  0  0999 V3000
M  V30 BEGIN CTAB
M  V30 COUNTS 55 55 0 0 1
M  V30 BEGIN ATOM
M  V30 1 C 37.946297 25.618519 56.100225 0 CFG=1
M  V30 2 C 38.931049 27.492914 54.435687 0 CFG=2
M  V30 3 C 39.861620 27.953003 58.309341 0
M  V30 4 C 36.932557 23.405887 55.173629 0
M  V30 5 N 39.312105 27.494211 53.042472 0
M  V30 6 C 39.745363 28.378849 50.819652 0
M  V30 7 O 39.867373 34.113784 60.258283 0
M  V30 8 C 40.336876 31.962171 61.143263 0
M  V30 9 C 40.125347 29.671652 60.035695 0
M  V30 10 C 39.867016 31.036544 51.785589 0
M  V30 11 N 39.344527 28.938500 59.052341 0
M  V30 12 O 41.029407 27.576143 58.387227 0
M  V30 13 C 36.818958 25.649745 57.161083 0
M  V30 14 C 38.186571 24.162036 55.674048 0
M  V30 15 C 39.467472 28.525593 52.305400 0
M  V30 16 C 39.702527 33.347958 61.231469 0
M  V30 17 O 39.418117 31.398592 54.839506 0
M  V30 18 N 38.961871 27.423023 57.474541 0
M  V30 19 C 39.988077 26.821001 55.324008 0
M  V30 20 S 37.467426 26.514864 54.607667 0
M  V30 21 C 40.129721 30.388687 54.150764 0
M  V30 22 O 39.066665 33.612190 62.269051 0 CHG=-1
M  V30 23 C 39.262070 26.302153 56.578940 0 CFG=2
M  V30 24 C 39.382654 29.998361 52.834627 0 CFG=1
M  V30 25 C 39.431492 31.004669 60.353342 0
M  V30 26 H 38.613744 28.454843 54.825747 0
M  V30 27 H 37.198693 22.488532 54.653094 0
M  V30 28 H 36.276942 23.124635 55.997828 0
M  V30 29 H 36.343387 23.995114 54.471673 0
M  V30 30 H 40.667454 28.880164 50.533206 0
M  V30 31 H 40.516393 31.576621 62.147434 0
M  V30 32 H 41.309275 32.058852 60.660166 0
M  V30 33 H 40.232051 29.071317 60.939929 0
M  V30 34 H 41.131886 29.849399 59.653666 0
M  V30 35 H 39.459431 30.914165 50.784727 0
M  V30 36 H 39.548264 32.021363 52.108342 0
M  V30 37 H 40.951349 31.052706 51.679297 0
M  V30 38 H 38.376822 29.195891 58.931253 0
M  V30 39 H 37.085993 25.051430 58.032707 0
M  V30 40 H 36.604853 26.656143 57.512118 0
M  V30 41 H 35.879771 25.262263 56.768414 0
M  V30 42 H 38.924675 24.161134 54.874366 0
M  V30 43 H 38.627500 23.621644 56.510938 0
M  V30 44 H 38.578252 31.065966 55.120548 0
M  V30 45 H 38.023256 27.791296 57.465475 0
M  V30 46 H 40.437666 25.978863 54.796827 0
M  V30 47 H 40.803704 27.495825 55.577026 0
M  V30 48 H 41.099646 30.819439 53.932620 0
M  V30 49 H 40.335617 29.590845 54.851832 0
M  V30 50 H 39.887795 25.583974 57.113255 0
M  V30 51 H 38.323364 30.143180 53.053471 0
M  V30 52 H 39.109029 31.484858 59.425911 0
M  V30 53 H 38.517727 30.816931 60.918965 0
M  V30 54 H 39.849477 27.325579 50.556547 0
M  V30 55 H 38.915046 28.777241 50.238115 0
M  V30 END ATOM
M  V30 BEGIN BOND
M  V30 1 1 5 2
M  V30 2 1 11 3
M  V30 3 1 11 9
M  V30 4 2 12 3
M  V30 5 1 1 13 CFG=1
M  V30 6 1 14 1
M  V30 7 1 14 4
M  V30 8 2 15 5
M  V30 9 1 15 6
M  V30 10 2 16 7
M  V30 11 1 16 8
M  V30 12 1 18 3
M  V30 13 1 19 2
M  V30 14 1 20 1
M  V30 15 1 20 2
M  V30 16 1 21 17
M  V30 17 1 22 16
M  V30 18 1 23 1
M  V30 19 1 23 18
M  V30 20 1 23 19
M  V30 21 1 24 10
M  V30 22 1 24 15
M  V30 23 1 24 21
M  V30 24 1 25 8
M  V30 25 1 25 9
M  V30 26 1 2 26 CFG=1
M  V30 27 1 27 4
M  V30 28 1 28 4
M  V30 29 1 29 4
M  V30 30 1 30 6
M  V30 31 1 31 8
M  V30 32 1 32 8
M  V30 33 1 33 9
M  V30 34 1 34 9
M  V30 35 1 35 10
M  V30 36 1 36 10
M  V30 37 1 37 10
M  V30 38 1 38 11
M  V30 39 1 39 13
M  V30 40 1 40 13
M  V30 41 1 41 13
M  V30 42 1 42 14
M  V30 43 1 43 14
M  V30 44 1 44 17
M  V30 45 1 45 18
M  V30 46 1 46 19
M  V30 47 1 47 19
M  V30 48 1 48 21
M  V30 49 1 49 21
M  V30 50 1 23 50 CFG=1
M  V30 51 1 24 51 CFG=1
M  V30 52 1 52 25
M  V30 53 1 53 25
M  V30 54 1 54 6
M  V30 55 1 55 6
M  V30 END BOND
M  V30 END CTAB
M  END
>  <i_epik_Tot_Q>  (1) 
-1

>  <i_epik_Tot_abs_Q>  (1) 
1

>  <i_i_glide_confnum>  (1) 
301

>  <i_i_glide_lignum>  (1) 
53

>  <i_i_glide_posenum>  (1) 
57

>  <i_i_glide_rotatable_bonds>  (1) 
12

>  <i_lp_mmshare_version>  (1) 
72125

>  <i_m_source_file_index>  (1) 
21

>  <i_f3d_flags>  (1) 
0

>  <num_sample>  (1) 
100

>  <b_lp_Chiralities_Consistent>  (1) 
1

>  <r_epik_Charging_Adjusted_Penalty>  (1) 
0.43743025276339675

>  <r_epik_Ionization_Penalty>  (1) 
0.026773266926762091

>  <r_epik_Ionization_Penalty_Charging>  (1) 
0.0015534882308521432

>  <r_epik_Ionization_Penalty_Neutral>  (1) 
0.025219778695909949

>  <r_epik_State_Penalty>  (1) 
0.43587676453254459

>  <r_glide_ring_energy>  (1) 
0

>  <r_i_docking_score>  (1) 
-5.4671112241332152

>  <r_i_glide_ecoul>  (1) 
0.81756565806051751

>  <r_i_glide_eff_state_penalty>  (1) 
0.43587676453254459

>  <r_i_glide_einternal>  (1) 
9.6527020649224919

>  <r_i_glide_emodel>  (1) 
-38.260647653170281

>  <r_i_glide_emodel_strain>  (1) 
2.9319169188925827

>  <r_i_glide_energy>  (1) 
-33.490101234372702

>  <r_i_glide_erotb>  (1) 
1.2527341714622291

>  <r_i_glide_esite>  (1) 
0

>  <r_i_glide_evdw>  (1) 
-34.307666892433218

>  <r_i_glide_gscore>  (1) 
-5.9029879886657595

>  <r_i_glide_gscore_strain>  (1) 
0

>  <r_i_glide_hbond>  (1) 
0

>  <r_i_glide_ligand_efficiency>  (1) 
-0.2186844489653286

>  <r_i_glide_ligand_efficiency_ln>  (1) 
-1.2958691962221973

>  <r_i_glide_ligand_efficiency_sa>  (1) 
-0.63943720784592717

>  <r_i_glide_lipo>  (1) 
-3.3590474622833222

>  <r_i_glide_metal>  (1) 
-0

>  <r_i_glide_rewards>  (1) 
-2.2039262019320836

>  <r_lp_Energy>  (1) 
16.070501

>  <r_lp_tautomer_probability>  (1) 
0.49999399997599986

>  <s_epik_Chemistry_Notes>  (1) 
This compound has an imine and may undergo hydrolysis. This compound contains an acetal/aminal-like group ( X-CH(R)-Y where X, Y are N, S, or O) that may be acid/base labile, releasing an aldehyde.

>  <s_epik_cmdline>  (1) 
J2VwaWtfcHl0aG9uJywgJy1waHQnLCAnMS4wJywgJy1waCcsICc3LjQnLCAnLXRuJywgJzgnLCAnLW1hJywgJzUwMCcsICctaW1hZScsICc8aW5maWxlLm1hZT4nLCAnLW9tYWUnLCAnPG91dGZpbGUubWFlPic=

>  <s_epik_input>  (1) 
W09IXVtDSDJdW0NAQEhdKFtDSDNdKUMoPVtDSDJdKVtOSF1bQ0BASF0oU1tDQEBdMShbQ0gzXSlbQ0gyXVtDSDNdKVtDSDJdW0NASF0xW05IXUMoPU8pW05IXVtDSDJdW0NIMl1bQ0gyXUMoPU8pW09IXQ==

>  <s_glide_docking_method>  (1) 
confgen

>  <s_i_glide_gridfile>  (1) 
gpcr_5ht2c_6bqh_protein_autoprepared_prepared

>  <s_lp_Force_Field>  (1) 
S-OPLS

>  <s_lp_Variant>  (1) 
DiffSBDD_20_num_sample_100-1

>  <s_m_source_file>  (1) 
generated__ligand_DiffSBDD_2026-05-06_prepared.sdf

>  <GenAI_Model>  (1) 
DiffSBDD

>  <Protein>  (1) 
GPCR_5HT2C

$$$$
DiffSBDD_2_num_sample_100
     RDKit          3D

  0  0  0  0  0  0  0  0  0  0999 V3000
M  V30 BEGIN CTAB
M  V30 COUNTS 51 51 0 0 1
M  V30 BEGIN ATOM
M  V30 1 C 37.164901 28.793307 54.070692 0
M  V30 2 C 39.077158 33.500205 59.815174 0
M  V30 3 O 41.105737 34.795584 62.686127 0
M  V30 4 O 38.296523 36.422393 61.078812 0
M  V30 5 C 39.597596 33.642848 61.261617 0
M  V30 6 F 40.790701 30.986040 49.950455 0
M  V30 7 C 40.217019 30.099295 50.790721 0
M  V30 8 C 39.731979 28.846399 58.863356 0
M  V30 9 O 40.868760 28.446111 59.102810 0
M  V30 10 C 39.092356 28.535877 56.454300 0
M  V30 11 C 39.214593 28.884961 52.678070 0
M  V30 12 S 39.867653 30.491507 52.422309 0
M  V30 13 C 38.473669 31.778460 57.979831 0
M  V30 14 O 39.863507 37.205642 62.621197 0
M  V30 15 O 36.962073 30.068731 54.653181 0
M  V30 16 N 39.387529 29.082731 55.130236 0
M  V30 17 C 40.199968 35.023491 61.623153 0 CFG=1
M  V30 18 C 38.597464 28.642692 59.858529 0
M  V30 19 C 39.402451 29.570841 57.551391 0 CFG=1
M  V30 20 O 38.244055 30.398017 57.689088 0
M  V30 21 C 39.176955 36.072525 62.121042 0
M  V30 22 C 39.865295 28.844354 50.430209 0
M  V30 23 C 38.681967 32.047327 59.483996 0
M  V30 24 C 39.281135 28.129242 51.519813 0
M  V30 25 C 38.665584 28.472573 54.000415 0 CFG=1
M  V30 26 H 36.695877 28.747033 53.086674 0
M  V30 27 H 36.668292 28.029227 54.653404 0
M  V30 28 H 38.230052 34.163190 59.640063 0
M  V30 29 H 39.864736 33.817168 59.130936 0
M  V30 30 H 41.579771 35.600561 62.835330 0
M  V30 31 H 37.638550 37.003650 61.427434 0
M  V30 32 H 40.377425 32.890120 61.388283 0
M  V30 33 H 38.816680 33.376413 61.975291 0
M  V30 34 H 39.675629 27.624436 56.597812 0
M  V30 35 H 38.046657 28.240556 56.538107 0
M  V30 36 H 37.594040 32.331077 57.648468 0
M  V30 37 H 39.303816 32.160105 57.383829 0
M  V30 38 H 40.159819 37.020361 63.500678 0
M  V30 39 H 37.599135 30.166993 55.350495 0
M  V30 40 H 40.386765 29.108734 54.955010 0
M  V30 41 H 40.770549 35.418695 60.781036 0
M  V30 42 H 37.624955 28.821580 59.400289 0
M  V30 43 H 38.616484 27.623057 60.239333 0
M  V30 44 H 38.710540 29.321689 60.703060 0
M  V30 45 H 40.266407 30.167261 57.262286 0
M  V30 46 H 38.587519 35.654481 62.936784 0
M  V30 47 H 39.998513 28.421825 49.453578 0
M  V30 48 H 39.468427 31.396403 59.855606 0
M  V30 49 H 37.781562 31.772660 60.034012 0
M  V30 50 H 38.934854 27.109908 51.424233 0
M  V30 51 H 38.777305 27.389092 54.058420 0
M  V30 END ATOM
M  V30 BEGIN BOND
M  V30 1 1 5 2
M  V30 2 1 7 6
M  V30 3 2 9 8
M  V30 4 1 12 7
M  V30 5 1 12 11
M  V30 6 1 15 1
M  V30 7 1 16 10
M  V30 8 1 17 3
M  V30 9 1 17 5
M  V30 10 1 18 8
M  V30 11 1 19 8
M  V30 12 1 19 10
M  V30 13 1 20 13
M  V30 14 1 20 19
M  V30 15 1 21 4
M  V30 16 1 21 14
M  V30 17 1 21 17
M  V30 18 2 22 7
M  V30 19 1 23 2
M  V30 20 1 23 13
M  V30 21 2 24 11
M  V30 22 1 24 22
M  V30 23 1 25 1
M  V30 24 1 25 11
M  V30 25 1 25 16
M  V30 26 1 26 1
M  V30 27 1 27 1
M  V30 28 1 28 2
M  V30 29 1 29 2
M  V30 30 1 30 3
M  V30 31 1 31 4
M  V30 32 1 32 5
M  V30 33 1 33 5
M  V30 34 1 34 10
M  V30 35 1 35 10
M  V30 36 1 36 13
M  V30 37 1 37 13
M  V30 38 1 38 14
M  V30 39 1 39 15
M  V30 40 1 40 16
M  V30 41 1 17 41 CFG=3
M  V30 42 1 42 18
M  V30 43 1 43 18
M  V30 44 1 44 18
M  V30 45 1 19 45 CFG=3
M  V30 46 1 46 21
M  V30 47 1 47 22
M  V30 48 1 48 23
M  V30 49 1 49 23
M  V30 50 1 50 24
M  V30 51 1 25 51 CFG=1
M  V30 END BOND
M  V30 END CTAB
M  END
>  <i_epik_Tot_Q>  (1) 
0

>  <i_epik_Tot_abs_Q>  (1) 
0

>  <i_i_glide_confnum>  (1) 
14

>  <i_i_glide_lignum>  (1) 
19

>  <i_i_glide_posenum>  (1) 
240

>  <i_i_glide_rotatable_bonds>  (1) 
17

>  <i_lp_mmshare_version>  (1) 
72125

>  <i_m_source_file_index>  (1) 
3

>  <i_f3d_flags>  (1) 
0

>  <num_sample>  (1) 
100

>  <b_lp_Chiralities_Consistent>  (1) 
1

>  <r_epik_Charging_Adjusted_Penalty>  (1) 
0.24690330696891949

>  <r_epik_Ionization_Penalty>  (1) 
0.24690406667086767

>  <r_epik_Ionization_Penalty_Charging>  (1) 
0

>  <r_epik_Ionization_Penalty_Neutral>  (1) 
0.24690406667086767

>  <r_epik_State_Penalty>  (1) 
0.24690330696891949

>  <r_glide_ring_energy>  (1) 
0

>  <r_i_docking_score>  (1) 
-5.4660070402056

>  <r_i_glide_ecoul>  (1) 
-0.50111174838504913

>  <r_i_glide_eff_state_penalty>  (1) 
0.24690330696891949

>  <r_i_glide_einternal>  (1) 
9.7993776470809326

>  <r_i_glide_emodel>  (1) 
-46.061711477644437

>  <r_i_glide_emodel_strain>  (1) 
2.5409059569029964

>  <r_i_glide_energy>  (1) 
-37.904424910299426

>  <r_i_glide_erotb>  (1) 
1.4813531079748476

>  <r_i_glide_esite>  (1) 
0

>  <r_i_glide_evdw>  (1) 
-37.403313161914376

>  <r_i_glide_gscore>  (1) 
-5.7129103471745193

>  <r_i_glide_gscore_strain>  (1) 
0

>  <r_i_glide_hbond>  (1) 
0

>  <r_i_glide_ligand_efficiency>  (1) 
-0.21864028160822399

>  <r_i_glide_ligand_efficiency_ln>  (1) 
-1.2956074715416304

>  <r_i_glide_ligand_efficiency_sa>  (1) 
-0.6393080617103033

>  <r_i_glide_lipo>  (1) 
-2.8785273703936167

>  <r_i_glide_metal>  (1) 
-0

>  <r_i_glide_rewards>  (1) 
-2.3704036644022746

>  <r_lp_Energy>  (1) 
16.825317999999999

>  <r_lp_tautomer_probability>  (1) 
0.9999999700000004

>  <s_epik_Chemistry_Notes>  (1) 
This compound contains an acetal/aminal-like group ( X-CH(R)-Y where X, Y are N, S, or O) that may be acid/base labile, releasing an aldehyde.

>  <s_epik_cmdline>  (1) 
J2VwaWtfcHl0aG9uJywgJy1waHQnLCAnMS4wJywgJy1waCcsICc3LjQnLCAnLXRuJywgJzgnLCAnLW1hJywgJzUwMCcsICctaW1hZScsICc8aW5maWxlLm1hZT4nLCAnLW9tYWUnLCAnPG91dGZpbGUubWFlPic=

>  <s_epik_input>  (1) 
RmMxc2MoW2NIXVtjSF0xKVtDQEhdKFtDSDJdW09IXSlbTkhdW0NIMl1bQ0BIXShDKD1PKVtDSDNdKU9bQ0gyXVtDSDJdW0NIMl1bQ0gyXVtDQEhdKFtPSF0pW0NIXShbT0hdKVtPSF0=

>  <s_glide_docking_method>  (1) 
confgen

>  <s_i_glide_gridfile>  (1) 
gpcr_5ht2c_6bqh_protein_autoprepared_prepared

>  <s_lp_Force_Field>  (1) 
S-OPLS

>  <s_lp_Variant>  (1) 
DiffSBDD_2_num_sample_100-1

>  <s_m_source_file>  (1) 
generated__ligand_DiffSBDD_2026-05-06_prepared.sdf

>  <GenAI_Model>  (1) 
DiffSBDD

>  <Protein>  (1) 
GPCR_5HT2C

$$$$
DiffSBDD_46_num_sample_100
     RDKit          3D

  0  0  0  0  0  0  0  0  0  0999 V3000
M  V30 BEGIN CTAB
M  V30 COUNTS 67 70 0 0 1
M  V30 BEGIN ATOM
M  V30 1 N 39.022351 32.482890 61.229886 0 CHG=-1
M  V30 2 N 38.740651 30.051653 54.365703 0
M  V30 3 C 38.740692 33.220858 58.317859 0
M  V30 4 C 45.040769 27.331664 66.461682 0
M  V30 5 C 38.847663 31.068848 56.951204 0
M  V30 6 O 42.041289 32.821198 62.773892 0
M  V30 7 O 40.267370 34.773989 61.057013 0
M  V30 8 C 43.329270 28.238168 64.983138 0
M  V30 9 N 44.127490 27.310694 65.652865 0
M  V30 10 F 44.776560 30.051058 65.647385 0
M  V30 11 C 38.746519 31.749012 58.300414 0 CFG=2
M  V30 12 N 40.781129 30.907590 62.967790 0
M  V30 13 C 37.984119 29.804205 56.688554 0 CFG=2
M  V30 14 C 42.843053 30.529751 64.326753 0
M  V30 15 C 39.847725 34.532384 62.372541 0
M  V30 16 C 39.527593 27.254221 56.913929 0
M  V30 17 C 39.867011 28.739419 50.509921 0
M  V30 18 C 39.106833 29.589258 53.088508 0
M  V30 19 C 43.670566 29.616394 64.995346 0
M  V30 20 C 37.557406 32.428512 61.132201 0
M  V30 21 C 41.434586 28.655547 63.704104 0
M  V30 22 C 41.694726 30.038564 63.662826 0
M  V30 23 N 42.231024 27.766081 64.341609 0
M  V30 24 C 39.702115 28.172076 55.696729 0
M  V30 25 C 40.246991 30.009131 50.970398 0
M  V30 26 C 39.654942 32.992829 62.468996 0 CFG=2
M  V30 27 C 37.860397 28.847142 57.896734 0
M  V30 28 C 39.867404 30.433627 52.253528 0
M  V30 29 C 36.850775 32.431806 59.757962 0
M  V30 30 C 39.106002 27.885563 51.333371 0
M  V30 31 C 39.148881 28.060884 58.159269 0
M  V30 32 C 40.958902 32.236011 62.795319 0
M  V30 33 C 38.724307 28.305289 52.623030 0
M  V30 34 O 45.867272 27.220601 67.291973 0
M  V30 35 C 38.452483 29.050193 55.399844 0 CFG=2
M  V30 36 N 37.467524 32.470566 58.591491 0 CHG=1
M  V30 37 H 39.114622 30.935757 54.677593 0
M  V30 38 H 38.555579 33.769268 57.396884 0
M  V30 39 H 38.995522 33.827640 59.173819 0
M  V30 40 H 38.619985 31.818404 56.192211 0
M  V30 41 H 39.893009 30.813443 56.815704 0
M  V30 42 H 39.913308 33.980396 60.646994 0
M  V30 43 H 39.067445 31.161373 59.154339 0
M  V30 44 H 39.926337 30.497839 62.615755 0
M  V30 45 H 36.977279 30.170487 56.491023 0
M  V30 46 H 43.083830 31.576245 64.339949 0
M  V30 47 H 40.563949 34.926733 63.094880 0
M  V30 48 H 38.902603 35.049189 62.539431 0
M  V30 49 H 40.450086 26.700742 57.094561 0
M  V30 50 H 38.756809 26.510741 56.705493 0
M  V30 51 H 40.157004 28.422038 49.522535 0
M  V30 52 H 37.186259 31.552158 61.666233 0
M  V30 53 H 40.562360 28.249280 63.212886 0
M  V30 54 H 40.575709 28.805543 55.853906 0
M  V30 55 H 39.942687 27.541099 54.843483 0
M  V30 56 H 40.829108 30.661763 50.336081 0
M  V30 57 H 39.067422 32.821037 63.370371 0
M  V30 58 H 37.551369 29.381906 58.794387 0
M  V30 59 H 37.064896 28.130831 57.698212 0
M  V30 60 H 40.160438 31.413231 52.601318 0
M  V30 61 H 35.770084 32.402434 59.717869 0
M  V30 62 H 38.813059 26.909180 50.974220 0
M  V30 63 H 39.958489 28.740725 58.427792 0
M  V30 64 H 39.011109 27.390409 59.008445 0
M  V30 65 H 38.138250 27.647597 53.244025 0
M  V30 66 H 37.622506 28.415394 55.091297 0
M  V30 67 H 37.126672 33.267547 61.677574 0
M  V30 END ATOM
M  V30 BEGIN BOND
M  V30 1 2 9 4
M  V30 2 1 9 8
M  V30 3 1 11 3
M  V30 4 1 11 5
M  V30 5 1 13 5
M  V30 6 1 15 7
M  V30 7 1 18 2
M  V30 8 2 19 8
M  V30 9 1 19 10
M  V30 10 1 19 14
M  V30 11 1 20 1
M  V30 12 1 22 12
M  V30 13 2 22 14
M  V30 14 1 22 21
M  V30 15 1 23 8
M  V30 16 2 23 21
M  V30 17 1 24 16
M  V30 18 2 25 17
M  V30 19 1 26 1
M  V30 20 1 26 15
M  V30 21 1 27 13
M  V30 22 2 28 18
M  V30 23 1 28 25
M  V30 24 1 29 20
M  V30 25 1 30 17
M  V30 26 1 31 16
M  V30 27 1 31 27
M  V30 28 2 32 6
M  V30 29 1 32 12
M  V30 30 1 32 26
M  V30 31 1 33 18
M  V30 32 2 33 30
M  V30 33 2 34 4
M  V30 34 1 35 2
M  V30 35 1 35 13
M  V30 36 1 35 24
M  V30 37 1 36 3
M  V30 38 1 36 11
M  V30 39 2 36 29
M  V30 40 1 37 2
M  V30 41 1 38 3
M  V30 42 1 39 3
M  V30 43 1 40 5
M  V30 44 1 41 5
M  V30 45 1 42 7
M  V30 46 1 11 43 CFG=1
M  V30 47 1 44 12
M  V30 48 1 13 45 CFG=3
M  V30 49 1 46 14
M  V30 50 1 47 15
M  V30 51 1 48 15
M  V30 52 1 49 16
M  V30 53 1 50 16
M  V30 54 1 51 17
M  V30 55 1 52 20
M  V30 56 1 53 21
M  V30 57 1 54 24
M  V30 58 1 55 24
M  V30 59 1 56 25
M  V30 60 1 26 57 CFG=1
M  V30 61 1 58 27
M  V30 62 1 59 27
M  V30 63 1 60 28
M  V30 64 1 61 29
M  V30 65 1 62 30
M  V30 66 1 63 31
M  V30 67 1 64 31
M  V30 68 1 65 33
M  V30 69 1 35 66 CFG=3
M  V30 70 1 67 20
M  V30 END BOND
M  V30 END CTAB
M  END
>  <i_epik_Tot_Q>  (1) 
0

>  <i_epik_Tot_abs_Q>  (1) 
2

>  <i_i_glide_confnum>  (1) 
2978

>  <i_i_glide_lignum>  (1) 
128

>  <i_i_glide_posenum>  (1) 
195

>  <i_i_glide_rotatable_bonds>  (1) 
13

>  <i_lp_mmshare_version>  (1) 
72125

>  <i_m_source_file_index>  (1) 
47

>  <i_f3d_flags>  (1) 
0

>  <num_sample>  (1) 
100

>  <b_lp_Chiralities_Consistent>  (1) 
1

>  <r_epik_Charging_Adjusted_Penalty>  (1) 
1.3427112581869221

>  <r_epik_Ionization_Penalty>  (1) 
0.80930426782544973

>  <r_epik_Ionization_Penalty_Charging>  (1) 
0

>  <r_epik_Ionization_Penalty_Neutral>  (1) 
0.80930426782544973

>  <r_epik_State_Penalty>  (1) 
1.3427112581869221

>  <r_glide_ring_energy>  (1) 
0.05726729789671494

>  <r_i_docking_score>  (1) 
-5.4601947587196369

>  <r_i_glide_ecoul>  (1) 
-3.1085840863773857

>  <r_i_glide_eff_state_penalty>  (1) 
1.3427112581869221

>  <r_i_glide_einternal>  (1) 
9.4065880072870645

>  <r_i_glide_emodel>  (1) 
-76.399952600656832

>  <r_i_glide_emodel_strain>  (1) 
2.4306490793008635

>  <r_i_glide_energy>  (1) 
-58.223658628374992

>  <r_i_glide_erotb>  (1) 
0.99979395072351473

>  <r_i_glide_esite>  (1) 
-0.14978162258930641

>  <r_i_glide_evdw>  (1) 
-55.115074541997608

>  <r_i_glide_gscore>  (1) 
-6.8029060169065589

>  <r_i_glide_gscore_strain>  (1) 
0

>  <r_i_glide_hbond>  (1) 
0

>  <r_i_glide_ligand_efficiency>  (1) 
-0.15167207663110102

>  <r_i_glide_ligand_efficiency_ln>  (1) 
-1.1912669789379822

>  <r_i_glide_ligand_efficiency_sa>  (1) 
-0.5008101627246665

>  <r_i_glide_lipo>  (1) 
-3.3900463726002759

>  <r_i_glide_metal>  (1) 
-0

>  <r_i_glide_rewards>  (1) 
-1.0408306323840035

>  <r_lp_Energy>  (1) 
87.141047

>  <s_epik_Chemistry_Notes>  (1) 
This compound has an imine and may undergo hydrolysis.

>  <s_epik_cmdline>  (1) 
J2VwaWtfcHl0aG9uJywgJy1waHQnLCAnMS4wJywgJy1waCcsICc3LjQnLCAnLXRuJywgJzgnLCAnLW1hJywgJzUwMCcsICctaW1hZScsICc8aW5maWxlLm1hZT4nLCAnLW9tYWUnLCAnPG91dGZpbGUubWFlPic=

>  <s_epik_input>  (1) 
Tz1DPU5jMWMoRilbY0hdYyhbY0hdbjEpW05IXUMoPU8pW0NAQEhdKFtDSDJdW09IXSkvTj1bQ0hdL1tDSDJdTjJbQ0gyXVtDQEBIXTJbQ0gyXVtDQEBIXTNbQ0gyXVtDSDJdW0NIMl1bQ0gyXVtDQEBIXTNbTkhdYzRbY0hdW2NIXVtjSF1bY0hdW2NIXTQ=

>  <s_glide_docking_method>  (1) 
confgen

>  <s_i_glide_gridfile>  (1) 
gpcr_5ht2c_6bqh_protein_autoprepared_prepared

>  <s_lp_Force_Field>  (1) 
S-OPLS

>  <s_lp_Variant>  (1) 
DiffSBDD_46_num_sample_100-4

>  <s_m_source_file>  (1) 
generated__ligand_DiffSBDD_2026-05-06_prepared.sdf

>  <GenAI_Model>  (1) 
DiffSBDD

>  <Protein>  (1) 
GPCR_5HT2C

$$$$
DiffSBDD_16_num_sample_100
     RDKit          3D

  0  0  0  0  0  0  0  0  0  0999 V3000
M  V30 BEGIN CTAB
M  V30 COUNTS 58 60 0 0 1
M  V30 BEGIN ATOM
M  V30 1 C 38.176076 30.800950 58.040197 0
M  V30 2 O 37.467404 28.421425 52.905777 0
M  V30 3 C 38.862738 33.221429 57.558789 0
M  V30 4 C 41.438963 31.819682 64.722464 0
M  V30 5 C 37.458325 33.229882 58.576887 0 CFG=2
M  V30 6 C 39.861765 30.852988 63.132033 0
M  V30 7 C 37.148904 29.969054 58.806897 0
M  V30 8 C 38.181674 28.596055 55.190391 0
M  V30 9 C 37.474754 33.580977 60.073113 0 CFG=1
M  V30 10 C 41.033391 32.924526 62.584770 0
M  V30 11 C 40.098196 29.089663 58.111163 0
M  V30 12 C 40.521098 30.808691 64.375309 0
M  V30 13 C 37.678589 27.724820 54.114619 0
M  V30 14 C 38.623707 29.266025 56.112432 0
M  V30 15 C 40.113083 31.913566 62.236325 0
M  V30 16 C 36.890207 31.256349 61.083196 0
M  V30 17 C 38.169720 32.150224 58.058053 0
M  V30 18 C 37.911988 32.424810 61.025083 0 CFG=1
M  V30 19 C 36.236504 30.733691 59.782609 0
M  V30 20 O 40.267404 29.788592 65.245282 0
M  V30 21 C 39.389635 31.969970 60.901157 0
M  V30 22 C 38.140000 34.969599 60.320443 0
M  V30 23 C 39.217690 30.010215 57.242654 0 CFG=1
M  V30 24 C 41.695687 32.876588 63.826588 0
M  V30 25 C 38.219343 35.393766 61.797593 0
M  V30 26 C 37.392750 36.084597 59.558866 0
M  V30 27 H 37.441845 27.792544 52.197818 0
M  V30 28 H 38.722735 33.537135 56.526997 0
M  V30 29 H 39.795132 33.531834 58.020322 0
M  V30 30 H 41.945111 31.785505 65.676272 0
M  V30 31 H 36.568060 33.595645 58.068776 0
M  V30 32 H 39.158751 30.077133 62.868118 0
M  V30 33 H 36.521813 29.460422 58.073842 0
M  V30 34 H 37.661927 29.190065 59.368379 0
M  V30 35 H 36.424526 33.737407 60.325500 0
M  V30 36 H 41.228375 33.738176 61.901348 0
M  V30 37 H 40.916122 28.667918 57.525594 0
M  V30 38 H 39.535030 28.250324 58.519772 0
M  V30 39 H 40.549209 29.621429 58.946641 0
M  V30 40 H 36.753128 27.248883 54.436886 0
M  V30 41 H 38.414162 26.936838 53.951128 0
M  V30 42 H 36.065926 31.600029 61.709693 0
M  V30 43 H 37.333783 30.421437 61.619303 0
M  V30 44 H 37.831325 32.841504 62.027769 0
M  V30 45 H 35.467499 30.028276 60.084055 0
M  V30 46 H 35.676905 31.515280 59.271353 0
M  V30 47 H 39.593345 29.190422 64.937669 0
M  V30 48 H 39.939068 32.651235 60.253539 0
M  V30 49 H 39.456498 30.988998 60.435658 0
M  V30 50 H 39.163738 34.921126 59.949872 0
M  V30 51 H 39.867412 30.741428 56.764026 0
M  V30 52 H 42.398571 33.652015 64.093409 0
M  V30 53 H 37.229145 35.405821 62.253489 0
M  V30 54 H 38.633077 36.398209 61.893112 0
M  V30 55 H 38.866280 34.741667 62.381457 0
M  V30 56 H 36.359968 36.170037 59.899350 0
M  V30 57 H 37.364677 35.901155 58.486883 0
M  V30 58 H 37.867399 37.055088 59.704020 0
M  V30 END ATOM
M  V30 BEGIN BOND
M  V30 1 1 5 3
M  V30 2 1 7 1
M  V30 3 1 9 5
M  V30 4 1 12 4
M  V30 5 2 12 6
M  V30 6 1 13 2
M  V30 7 1 13 8
M  V30 8 3 14 8
M  V30 9 1 15 6
M  V30 10 2 15 10
M  V30 11 2 17 1
M  V30 12 1 17 3
M  V30 13 1 17 5
M  V30 14 1 18 9
M  V30 15 1 18 16
M  V30 16 1 19 7
M  V30 17 1 19 16
M  V30 18 1 20 12
M  V30 19 1 21 15
M  V30 20 1 21 18
M  V30 21 1 22 9
M  V30 22 1 23 1
M  V30 23 1 23 11
M  V30 24 1 23 14
M  V30 25 2 24 4
M  V30 26 1 24 10
M  V30 27 1 25 22
M  V30 28 1 26 22
M  V30 29 1 27 2
M  V30 30 1 28 3
M  V30 31 1 29 3
M  V30 32 1 30 4
M  V30 33 1 5 31 CFG=3
M  V30 34 1 32 6
M  V30 35 1 33 7
M  V30 36 1 34 7
M  V30 37 1 9 35 CFG=1
M  V30 38 1 36 10
M  V30 39 1 37 11
M  V30 40 1 38 11
M  V30 41 1 39 11
M  V30 42 1 40 13
M  V30 43 1 41 13
M  V30 44 1 42 16
M  V30 45 1 43 16
M  V30 46 1 18 44 CFG=1
M  V30 47 1 45 19
M  V30 48 1 46 19
M  V30 49 1 47 20
M  V30 50 1 48 21
M  V30 51 1 49 21
M  V30 52 1 50 22
M  V30 53 1 23 51 CFG=3
M  V30 54 1 52 24
M  V30 55 1 53 25
M  V30 56 1 54 25
M  V30 57 1 55 25
M  V30 58 1 56 26
M  V30 59 1 57 26
M  V30 60 1 58 26
M  V30 END BOND
M  V30 END CTAB
M  END
>  <i_epik_Tot_Q>  (1) 
0

>  <i_epik_Tot_abs_Q>  (1) 
0

>  <i_i_glide_confnum>  (1) 
3

>  <i_i_glide_lignum>  (1) 
38

>  <i_i_glide_posenum>  (1) 
303

>  <i_i_glide_rotatable_bonds>  (1) 
8

>  <i_lp_mmshare_version>  (1) 
72125

>  <i_m_source_file_index>  (1) 
17

>  <i_f3d_flags>  (1) 
0

>  <num_sample>  (1) 
100

>  <b_lp_Chiralities_Consistent>  (1) 
1

>  <r_epik_Charging_Adjusted_Penalty>  (1) 
0

>  <r_epik_Ionization_Penalty>  (1) 
0.00099862310418953213

>  <r_epik_Ionization_Penalty_Charging>  (1) 
0

>  <r_epik_Ionization_Penalty_Neutral>  (1) 
0.00099862310418953213

>  <r_epik_State_Penalty>  (1) 
-0

>  <r_glide_ring_energy>  (1) 
0

>  <r_i_docking_score>  (1) 
-5.4596448857578581

>  <r_i_glide_ecoul>  (1) 
-5.0842321410582816

>  <r_i_glide_eff_state_penalty>  (1) 
-0

>  <r_i_glide_einternal>  (1) 
1.0295681197106639

>  <r_i_glide_emodel>  (1) 
-46.142184572387997

>  <r_i_glide_emodel_strain>  (1) 
0.14711376923672503

>  <r_i_glide_energy>  (1) 
-37.29503425715037

>  <r_i_glide_erotb>  (1) 
0.76791189123998571

>  <r_i_glide_esite>  (1) 
0

>  <r_i_glide_evdw>  (1) 
-32.21080211609209

>  <r_i_glide_gscore>  (1) 
-5.4596448857578581

>  <r_i_glide_gscore_strain>  (1) 
0

>  <r_i_glide_hbond>  (1) 
-0.32000000000000001

>  <r_i_glide_ligand_efficiency>  (1) 
-0.20998634175991762

>  <r_i_glide_ligand_efficiency_ln>  (1) 
-1.2821796868641862

>  <r_i_glide_ligand_efficiency_sa>  (1) 
-0.62208371188300249

>  <r_i_glide_lipo>  (1) 
-1.9807978961634523

>  <r_i_glide_metal>  (1) 
-0

>  <r_i_glide_rewards>  (1) 
-1.5535839538710441

>  <r_lp_Energy>  (1) 
30.586513999999998

>  <r_lp_tautomer_probability>  (1) 
1

>  <s_epik_cmdline>  (1) 
J2VwaWtfcHl0aG9uJywgJy1waHQnLCAnMS4wJywgJy1waCcsICc3LjQnLCAnLXRuJywgJzgnLCAnLW1hJywgJzUwMCcsICctaW1hZScsICc8aW5maWxlLm1hZT4nLCAnLW9tYWUnLCAnPG91dGZpbGUubWFlPic=

>  <s_epik_input>  (1) 
W09IXVtDSDJdQyNDW0NASF0oW0NIM10pQyg9QygvW0NIMl0xKVtDQEhdMTIpXFtDSDJdW0NIMl1bQ0gyXVtDQEhdKFtDQEhdMltDSF0oW0NIM10pW0NIM10pW0NIMl1jKFtjSF0zKVtjSF1bY0hdW2NIXWMzW09IXQ==

>  <s_glide_docking_method>  (1) 
confgen

>  <s_i_glide_gridfile>  (1) 
gpcr_5ht2c_6bqh_protein_autoprepared_prepared

>  <s_lp_Force_Field>  (1) 
S-OPLS

>  <s_lp_Variant>  (1) 
DiffSBDD_16_num_sample_100-1

>  <s_m_source_file>  (1) 
generated__ligand_DiffSBDD_2026-05-06_prepared.sdf

>  <GenAI_Model>  (1) 
DiffSBDD

>  <Protein>  (1) 
GPCR_5HT2C

$$$$
DiffSBDD_1_num_sample_100
     RDKit          3D

  0  0  0  0  0  0  0  0  0  0999 V3000
M  V30 BEGIN CTAB
M  V30 COUNTS 63 66 0 0 1
M  V30 BEGIN ATOM
M  V30 1 C 38.953068 26.603948 57.828294 0
M  V30 2 C 37.744071 35.369443 62.063753 0
M  V30 3 O 37.603179 24.985159 57.060212 0
M  V30 4 C 36.432896 33.702579 60.675695 0 CFG=1
M  V30 5 C 39.278452 27.914882 58.446393 0
M  V30 6 C 37.204161 31.367211 61.016597 0
M  V30 7 C 41.381844 36.367870 62.863197 0
M  V30 8 C 37.031611 37.058429 63.527168 0
M  V30 9 N 38.511462 36.985981 63.537863 0 CHG=1
M  V30 10 C 38.174658 32.355558 57.528551 0
M  V30 11 C 38.118087 28.808450 58.915187 0
M  V30 12 C 40.214876 36.177389 61.914834 0 CFG=2
M  V30 13 C 38.985897 35.819087 62.759051 0 CFG=2
M  V30 14 C 37.344255 31.211268 59.496646 0 CFG=2
M  V30 15 C 38.597800 30.879953 57.464030 0
M  V30 16 C 37.738016 26.193344 57.628800 0
M  V30 17 N 36.163042 32.386066 61.293854 0
M  V30 18 C 37.689576 34.247716 61.329276 0
M  V30 19 O 40.436354 28.303949 58.601588 0
M  V30 20 C 40.634242 35.207120 60.811214 0
M  V30 21 C 39.022554 24.593994 56.877312 0
M  V30 22 C 36.590074 33.566190 59.140152 0
M  V30 23 C 36.558446 36.226955 62.343184 0
M  V30 24 N 37.613231 32.530680 58.881186 0 CFG=2 CHG=1
M  V30 25 O 36.056525 30.821263 59.053508 0
M  V30 26 C 40.037903 25.715969 57.413433 0
M  V30 27 C 38.437734 30.316135 58.895711 0 CFG=2
M  V30 28 O 41.653824 35.247922 63.682234 0
M  V30 29 H 35.588382 34.364026 60.865709 0
M  V30 30 H 38.157852 31.619333 61.479218 0
M  V30 31 H 36.908373 30.421481 61.453736 0
M  V30 32 H 41.112682 37.221302 63.453522 0
M  V30 33 H 42.267388 36.608031 62.310155 0
M  V30 34 H 36.667434 38.082888 63.453382 0
M  V30 35 H 36.650941 36.640888 64.460426 0
M  V30 36 H 38.868208 36.957366 64.483911 0
M  V30 37 H 39.031352 33.020382 57.410718 0
M  V30 38 H 37.467459 32.599233 56.738632 0
M  V30 39 H 37.867639 28.506641 59.930009 0
M  V30 40 H 37.236406 28.643842 58.298711 0
M  V30 41 H 40.022760 37.144581 61.453456 0
M  V30 42 H 39.227589 35.019023 63.453340 0
M  V30 43 H 39.608151 30.752760 57.074241 0
M  V30 44 H 37.924345 30.359074 56.781605 0
M  V30 45 H 36.807743 26.690371 57.853666 0
M  V30 46 H 35.300570 32.033661 60.881818 0
M  V30 47 H 38.584207 33.662185 61.204958 0
M  V30 48 H 40.759650 34.192780 61.192387 0
M  V30 49 H 39.924320 35.192920 59.986313 0
M  V30 50 H 41.598218 35.522397 60.415710 0
M  V30 51 H 39.197631 23.649891 57.395621 0
M  V30 52 H 39.196988 24.421618 55.815618 0
M  V30 53 H 35.641236 33.315137 58.665180 0
M  V30 54 H 36.906638 34.515269 58.705013 0
M  V30 55 H 36.317289 36.846884 61.479237 0
M  V30 56 H 35.709166 35.619650 62.653544 0
M  V30 57 H 35.867370 31.191367 58.174266 0
M  V30 58 H 40.654309 26.153923 56.627064 0
M  V30 59 H 40.646156 25.383038 58.253419 0
M  V30 60 H 39.358811 30.505949 59.450137 0
M  V30 61 H 42.344091 35.484188 64.286056 0
M  V30 62 H 38.866490 37.814453 63.084548 0
M  V30 63 H 38.408529 32.857642 59.407024 0
M  V30 END ATOM
M  V30 BEGIN BOND
M  V30 1 1 5 1
M  V30 2 1 9 8
M  V30 3 1 11 5
M  V30 4 1 12 7
M  V30 5 1 13 2
M  V30 6 1 13 9
M  V30 7 1 13 12
M  V30 8 1 14 6
M  V30 9 1 15 10
M  V30 10 2 16 1
M  V30 11 1 16 3
M  V30 12 1 17 4
M  V30 13 1 17 6
M  V30 14 2 18 2
M  V30 15 1 18 4
M  V30 16 2 19 5
M  V30 17 1 20 12
M  V30 18 1 21 3
M  V30 19 1 22 4
M  V30 20 1 23 2
M  V30 21 1 23 8
M  V30 22 1 24 10
M  V30 23 1 24 14
M  V30 24 1 24 22
M  V30 25 1 14 25 CFG=3
M  V30 26 1 26 1
M  V30 27 1 26 21
M  V30 28 1 27 11
M  V30 29 1 27 14
M  V30 30 1 27 15
M  V30 31 1 28 7
M  V30 32 1 4 29 CFG=3
M  V30 33 1 30 6
M  V30 34 1 31 6
M  V30 35 1 32 7
M  V30 36 1 33 7
M  V30 37 1 34 8
M  V30 38 1 35 8
M  V30 39 1 36 9
M  V30 40 1 37 10
M  V30 41 1 38 10
M  V30 42 1 39 11
M  V30 43 1 40 11
M  V30 44 1 12 41 CFG=3
M  V30 45 1 13 42 CFG=1
M  V30 46 1 43 15
M  V30 47 1 44 15
M  V30 48 1 45 16
M  V30 49 1 46 17
M  V30 50 1 47 18
M  V30 51 1 48 20
M  V30 52 1 49 20
M  V30 53 1 50 20
M  V30 54 1 51 21
M  V30 55 1 52 21
M  V30 56 1 53 22
M  V30 57 1 54 22
M  V30 58 1 55 23
M  V30 59 1 56 23
M  V30 60 1 57 25
M  V30 61 1 58 26
M  V30 62 1 59 26
M  V30 63 1 27 60 CFG=1
M  V30 64 1 61 28
M  V30 65 1 62 9
M  V30 66 1 24 63 CFG=1
M  V30 END BOND
M  V30 END CTAB
M  END
>  <i_epik_Tot_Q>  (1) 
2

>  <i_epik_Tot_abs_Q>  (1) 
2

>  <i_i_glide_confnum>  (1) 
203

>  <i_i_glide_lignum>  (1) 
15

>  <i_i_glide_posenum>  (1) 
141

>  <i_i_glide_rotatable_bonds>  (1) 
8

>  <i_lp_mmshare_version>  (1) 
72125

>  <i_m_source_file_index>  (1) 
2

>  <i_f3d_flags>  (1) 
0

>  <num_sample>  (1) 
100

>  <b_lp_Chiralities_Consistent>  (1) 
1

>  <r_epik_Charging_Adjusted_Penalty>  (1) 
2.3622130296898831

>  <r_epik_Ionization_Penalty>  (1) 
1.4312966064593899

>  <r_epik_Ionization_Penalty_Charging>  (1) 
1.1852885594971458

>  <r_epik_Ionization_Penalty_Neutral>  (1) 
0.24600804696224418

>  <r_epik_State_Penalty>  (1) 
1.176924470192737

>  <r_glide_ring_energy>  (1) 
0

>  <r_i_docking_score>  (1) 
-5.4586083887674128

>  <r_i_glide_ecoul>  (1) 
-10.269271283481951

>  <r_i_glide_eff_state_penalty>  (1) 
1.176924470192737

>  <r_i_glide_einternal>  (1) 
2.6364522276518674

>  <r_i_glide_emodel>  (1) 
-49.606548417978807

>  <r_i_glide_emodel_strain>  (1) 
0.39557257589548556

>  <r_i_glide_energy>  (1) 
-34.32951329955916

>  <r_i_glide_erotb>  (1) 
0.75687532201182384

>  <r_i_glide_esite>  (1) 
-0.13869439606714426

>  <r_i_glide_evdw>  (1) 
-24.060242016077211

>  <r_i_glide_gscore>  (1) 
-6.6355328589601497

>  <r_i_glide_gscore_strain>  (1) 
0

>  <r_i_glide_hbond>  (1) 
-0.14967443698693333

>  <r_i_glide_ligand_efficiency>  (1) 
-0.19495029959883617

>  <r_i_glide_ligand_efficiency_ln>  (1) 
-1.2600070878340539

>  <r_i_glide_ligand_efficiency_sa>  (1) 
-0.59198392982568238

>  <r_i_glide_lipo>  (1) 
-2.6516603363458975

>  <r_i_glide_metal>  (1) 
-0

>  <r_i_glide_rewards>  (1) 
-1.7089762182458461

>  <r_lp_Energy>  (1) 
19.420013000000001

>  <s_epik_cmdline>  (1) 
J2VwaWtfcHl0aG9uJywgJy1waHQnLCAnMS4wJywgJy1waCcsICc3LjQnLCAnLXRuJywgJzgnLCAnLW1hJywgJzUwMCcsICctaW1hZScsICc8aW5maWxlLm1hZT4nLCAnLW9tYWUnLCAnPG91dGZpbGUubWFlPic=

>  <s_epik_input>  (1) 
W0NIMl0xW0NIMl1PW0NIXT1DMUMoPU8pW0NIMl1bQ0BIXTJbQ0gyXVtDSDJdTihbQ0BAXTIzW09IXSlbQ0gyXVtDQEBIXShbTkhdW0NIMl0zKVxbQ0hdPUM0XFtDQEBIXShbTkhdW0NIMl1bQ0gyXTQpW0NASF0oW0NIM10pW0NIMl1bT0hd

>  <s_glide_docking_method>  (1) 
confgen

>  <s_i_glide_gridfile>  (1) 
gpcr_5ht2c_6bqh_protein_autoprepared_prepared

>  <s_lp_Force_Field>  (1) 
S-OPLS

>  <s_lp_Variant>  (1) 
DiffSBDD_1_num_sample_100-9

>  <s_m_source_file>  (1) 
generated__ligand_DiffSBDD_2026-05-06_prepared.sdf

>  <GenAI_Model>  (1) 
DiffSBDD

>  <Protein>  (1) 
GPCR_5HT2C

$$$$
DiffSBDD_20_num_sample_100
     RDKit          3D

  0  0  0  0  0  0  0  0  0  0999 V3000
M  V30 BEGIN CTAB
M  V30 COUNTS 55 55 0 0 1
M  V30 BEGIN ATOM
M  V30 1 C 38.501336 26.569188 56.820055 0 CFG=1
M  V30 2 C 38.718793 27.660936 54.403189 0 CFG=2
M  V30 3 C 38.673300 29.837512 58.190546 0
M  V30 4 C 38.743505 24.021489 57.278323 0
M  V30 5 N 39.234916 27.161689 53.161342 0
M  V30 6 C 39.593346 27.032670 50.783164 0
M  V30 7 O 38.657368 35.439155 61.768631 0
M  V30 8 C 37.650994 34.389811 59.887567 0
M  V30 9 C 37.860993 31.860893 59.336707 0
M  V30 10 C 39.505681 30.262190 52.965897 0
M  V30 11 N 37.867433 30.909678 58.225401 0
M  V30 12 O 39.472080 29.552413 59.082556 0
M  V30 13 C 37.385495 26.603385 57.853671 0
M  V30 14 C 39.449368 25.380097 57.130494 0
M  V30 15 C 39.281764 27.775479 52.047149 0
M  V30 16 C 38.827201 34.606230 60.852446 0
M  V30 17 O 40.888679 30.021452 50.461556 0
M  V30 18 N 38.514928 29.110651 57.072637 0
M  V30 19 C 39.855637 28.014827 55.374277 0
M  V30 20 S 37.780786 26.339133 55.176139 0
M  V30 21 C 39.482912 29.869365 50.506675 0
M  V30 22 O 39.867405 33.940467 60.653529 0 CHG=-1
M  V30 23 C 39.306944 27.900059 56.787940 0 CFG=2
M  V30 24 C 38.997380 29.287811 51.869603 0 CFG=2
M  V30 25 C 37.867678 33.306301 58.804486 0
M  V30 26 H 37.993646 28.463181 54.280500 0
M  V30 27 H 39.467512 23.228916 57.453509 0
M  V30 28 H 38.054628 23.994331 58.122107 0
M  V30 29 H 38.176976 23.773404 56.380821 0
M  V30 30 H 40.435322 27.463885 50.253155 0
M  V30 31 H 37.454534 35.345366 59.401097 0
M  V30 32 H 36.760692 34.158399 60.472213 0
M  V30 33 H 36.956644 31.685549 59.919409 0
M  V30 34 H 38.702302 31.711481 60.014536 0
M  V30 35 H 38.911917 30.272358 53.874882 0
M  V30 36 H 40.545445 30.068644 53.220768 0
M  V30 37 H 39.468013 31.293976 52.614927 0
M  V30 38 H 37.225956 31.079680 57.457783 0
M  V30 39 H 37.867432 26.621839 58.830794 0
M  V30 40 H 36.733242 27.472119 57.782872 0
M  V30 41 H 36.734379 25.732124 57.801315 0
M  V30 42 H 40.209282 25.293175 56.352220 0
M  V30 43 H 39.993882 25.581840 58.054305 0
M  V30 44 H 41.108108 30.634071 49.774500 0
M  V30 45 H 37.835042 29.403051 56.387800 0
M  V30 46 H 40.667161 27.295027 55.263323 0
M  V30 47 H 40.274497 29.002938 55.203597 0
M  V30 48 H 39.067410 30.859253 50.325872 0
M  V30 49 H 39.167527 29.259113 49.663520 0
M  V30 50 H 40.152784 27.840996 57.475668 0
M  V30 51 H 37.909414 29.302537 51.869500 0
M  V30 52 H 38.796846 33.498066 58.266449 0
M  V30 53 H 37.070294 33.411177 58.065536 0
M  V30 54 H 39.866260 26.021435 51.053634 0
M  V30 55 H 38.715368 26.979958 50.145392 0
M  V30 END ATOM
M  V30 BEGIN BOND
M  V30 1 1 5 2
M  V30 2 1 11 3
M  V30 3 1 11 9
M  V30 4 2 12 3
M  V30 5 1 1 13 CFG=1
M  V30 6 1 14 1
M  V30 7 1 14 4
M  V30 8 2 15 5
M  V30 9 1 15 6
M  V30 10 2 16 7
M  V30 11 1 16 8
M  V30 12 1 18 3
M  V30 13 1 19 2
M  V30 14 1 20 1
M  V30 15 1 20 2
M  V30 16 1 21 17
M  V30 17 1 22 16
M  V30 18 1 23 1
M  V30 19 1 23 18
M  V30 20 1 23 19
M  V30 21 1 24 10
M  V30 22 1 24 15
M  V30 23 1 24 21
M  V30 24 1 25 8
M  V30 25 1 25 9
M  V30 26 1 2 26 CFG=3
M  V30 27 1 27 4
M  V30 28 1 28 4
M  V30 29 1 29 4
M  V30 30 1 30 6
M  V30 31 1 31 8
M  V30 32 1 32 8
M  V30 33 1 33 9
M  V30 34 1 34 9
M  V30 35 1 35 10
M  V30 36 1 36 10
M  V30 37 1 37 10
M  V30 38 1 38 11
M  V30 39 1 39 13
M  V30 40 1 40 13
M  V30 41 1 41 13
M  V30 42 1 42 14
M  V30 43 1 43 14
M  V30 44 1 44 17
M  V30 45 1 45 18
M  V30 46 1 46 19
M  V30 47 1 47 19
M  V30 48 1 48 21
M  V30 49 1 49 21
M  V30 50 1 23 50 CFG=1
M  V30 51 1 24 51 CFG=3
M  V30 52 1 52 25
M  V30 53 1 53 25
M  V30 54 1 54 6
M  V30 55 1 55 6
M  V30 END BOND
M  V30 END CTAB
M  END
>  <i_epik_Tot_Q>  (1) 
-1

>  <i_epik_Tot_abs_Q>  (1) 
1

>  <i_i_glide_confnum>  (1) 
1091

>  <i_i_glide_lignum>  (1) 
54

>  <i_i_glide_posenum>  (1) 
269

>  <i_i_glide_rotatable_bonds>  (1) 
12

>  <i_lp_mmshare_version>  (1) 
72125

>  <i_m_source_file_index>  (1) 
21

>  <i_f3d_flags>  (1) 
0

>  <num_sample>  (1) 
100

>  <b_lp_Chiralities_Consistent>  (1) 
1

>  <r_epik_Charging_Adjusted_Penalty>  (1) 
0.43743025276339675

>  <r_epik_Ionization_Penalty>  (1) 
0.026773266926762091

>  <r_epik_Ionization_Penalty_Charging>  (1) 
0.0015534882308521432

>  <r_epik_Ionization_Penalty_Neutral>  (1) 
0.025219778695909949

>  <r_epik_State_Penalty>  (1) 
0.43587676453254459

>  <r_glide_ring_energy>  (1) 
0

>  <r_i_docking_score>  (1) 
-5.4543335547586773

>  <r_i_glide_ecoul>  (1) 
-3.6453196756912352

>  <r_i_glide_eff_state_penalty>  (1) 
0.43587676453254459

>  <r_i_glide_einternal>  (1) 
11.343313010383032

>  <r_i_glide_emodel>  (1) 
-41.837488580978842

>  <r_i_glide_emodel_strain>  (1) 
3.8011428088913846

>  <r_i_glide_energy>  (1) 
-37.410589938322069

>  <r_i_glide_erotb>  (1) 
1.2527341714622291

>  <r_i_glide_esite>  (1) 
-0.090902720511325627

>  <r_i_glide_evdw>  (1) 
-33.765270262630835

>  <r_i_glide_gscore>  (1) 
-5.8902103192912216

>  <r_i_glide_gscore_strain>  (1) 
0

>  <r_i_glide_hbond>  (1) 
-0.11955205148988517

>  <r_i_glide_ligand_efficiency>  (1) 
-0.21817334219034709

>  <r_i_glide_ligand_efficiency_ln>  (1) 
-1.29284050566458

>  <r_i_glide_ligand_efficiency_sa>  (1) 
-0.63794272256976037

>  <r_i_glide_lipo>  (1) 
-2.7165615404951304

>  <r_i_glide_metal>  (1) 
-0

>  <r_i_glide_rewards>  (1) 
-1.9808667137718814

>  <r_lp_Energy>  (1) 
20.662696

>  <r_lp_tautomer_probability>  (1) 
0.49999399997599986

>  <s_epik_Chemistry_Notes>  (1) 
This compound has an imine and may undergo hydrolysis. This compound contains an acetal/aminal-like group ( X-CH(R)-Y where X, Y are N, S, or O) that may be acid/base labile, releasing an aldehyde.

>  <s_epik_cmdline>  (1) 
J2VwaWtfcHl0aG9uJywgJy1waHQnLCAnMS4wJywgJy1waCcsICc3LjQnLCAnLXRuJywgJzgnLCAnLW1hJywgJzUwMCcsICctaW1hZScsICc8aW5maWxlLm1hZT4nLCAnLW9tYWUnLCAnPG91dGZpbGUubWFlPic=

>  <s_epik_input>  (1) 
W09IXVtDSDJdW0NAQEhdKFtDSDNdKUMoPVtDSDJdKVtOSF1bQ0BASF0oU1tDQEBdMShbQ0gzXSlbQ0gyXVtDSDNdKVtDSDJdW0NASF0xW05IXUMoPU8pW05IXVtDSDJdW0NIMl1bQ0gyXUMoPU8pW09IXQ==

>  <s_glide_docking_method>  (1) 
confgen

>  <s_i_glide_gridfile>  (1) 
gpcr_5ht2c_6bqh_protein_autoprepared_prepared

>  <s_lp_Force_Field>  (1) 
S-OPLS

>  <s_lp_Variant>  (1) 
DiffSBDD_20_num_sample_100-2

>  <s_m_source_file>  (1) 
generated__ligand_DiffSBDD_2026-05-06_prepared.sdf

>  <GenAI_Model>  (1) 
DiffSBDD

>  <Protein>  (1) 
GPCR_5HT2C

$$$$
DiffSBDD_37_num_sample_100
     RDKit          3D

  0  0  0  0  0  0  0  0  0  0999 V3000
M  V30 BEGIN CTAB
M  V30 COUNTS 23 23 0 0 1
M  V30 BEGIN ATOM
M  V30 1 C 37.722638 31.981249 60.189276 0 CFG=2
M  V30 2 O 37.387209 30.856121 59.395012 0
M  V30 3 C 37.047400 33.261927 59.712831 0 CFG=2
M  V30 4 C 38.992976 31.886925 61.046438 0 CFG=2
M  V30 5 O 40.993463 30.611314 61.413298 0 CHG=-1
M  V30 6 N 34.847343 32.114041 59.453553 0 CHG=1
M  V30 7 C 35.530515 33.311838 59.977893 0
M  V30 8 C 39.741296 33.114089 61.574077 0
M  V30 9 O 37.315380 33.453064 58.337963 0
M  V30 10 C 39.758632 30.548253 61.223718 0
M  V30 11 O 37.657601 31.742040 61.588808 0
M  V30 12 O 39.092406 29.497528 61.160346 0
M  V30 13 H 38.175052 30.518089 58.984786 0
M  V30 14 H 37.496464 34.103621 60.242145 0
M  V30 15 H 33.846798 32.181752 59.565370 0
M  V30 16 H 35.067447 32.015465 58.447088 0
M  V30 17 H 35.343144 33.387241 61.048153 0
M  V30 18 H 35.089617 34.202933 59.531324 0
M  V30 19 H 40.821580 32.978880 61.669968 0
M  V30 20 H 39.603798 33.941904 60.884648 0
M  V30 21 H 39.345872 33.397173 62.550368 0
M  V30 22 H 37.012516 32.688580 57.854832 0
M  V30 23 H 35.222160 31.295517 59.912522 0
M  V30 END ATOM
M  V30 BEGIN BOND
M  V30 1 1 1 2 CFG=3
M  V30 2 1 3 1
M  V30 3 1 4 1
M  V30 4 1 7 3
M  V30 5 1 7 6
M  V30 6 1 4 8 CFG=1
M  V30 7 1 9 3
M  V30 8 1 10 4
M  V30 9 1 10 5
M  V30 10 1 11 1
M  V30 11 1 11 4
M  V30 12 2 12 10
M  V30 13 1 13 2
M  V30 14 1 3 14 CFG=1
M  V30 15 1 15 6
M  V30 16 1 16 6
M  V30 17 1 17 7
M  V30 18 1 18 7
M  V30 19 1 19 8
M  V30 20 1 20 8
M  V30 21 1 21 8
M  V30 22 1 22 9
M  V30 23 1 23 6
M  V30 END BOND
M  V30 END CTAB
M  END
>  <i_epik_Tot_Q>  (1) 
0

>  <i_epik_Tot_abs_Q>  (1) 
2

>  <i_i_glide_confnum>  (1) 
1

>  <i_i_glide_lignum>  (1) 
91

>  <i_i_glide_posenum>  (1) 
347

>  <i_i_glide_rotatable_bonds>  (1) 
5

>  <i_lp_mmshare_version>  (1) 
72125

>  <i_m_source_file_index>  (1) 
38

>  <i_f3d_flags>  (1) 
0

>  <num_sample>  (1) 
100

>  <b_lp_Chiralities_Consistent>  (1) 
1

>  <r_epik_Charging_Adjusted_Penalty>  (1) 
0.074826181312878909

>  <r_epik_Ionization_Penalty>  (1) 
0.037455731975657096

>  <r_epik_Ionization_Penalty_Charging>  (1) 
0.037420022134994256

>  <r_epik_Ionization_Penalty_Neutral>  (1) 
3.5709840662840338e-05

>  <r_epik_State_Penalty>  (1) 
0.03740615917788466

>  <r_glide_ring_energy>  (1) 
0

>  <r_i_docking_score>  (1) 
-5.4474015695364697

>  <r_i_glide_ecoul>  (1) 
-12.755618898235126

>  <r_i_glide_eff_state_penalty>  (1) 
0.03740615917788466

>  <r_i_glide_einternal>  (1) 
5.74739701313948

>  <r_i_glide_emodel>  (1) 
-38.033356715586542

>  <r_i_glide_emodel_strain>  (1) 
1.561591396029721

>  <r_i_glide_energy>  (1) 
-26.756454005576305

>  <r_i_glide_erotb>  (1) 
0.49897273093522621

>  <r_i_glide_esite>  (1) 
-0.11667317903822393

>  <r_i_glide_evdw>  (1) 
-14.00083510734118

>  <r_i_glide_gscore>  (1) 
-5.4848077287143546

>  <r_i_glide_gscore_strain>  (1) 
0

>  <r_i_glide_hbond>  (1) 
-0.55164349492038534

>  <r_i_glide_ligand_efficiency>  (1) 
-0.45395013079470581

>  <r_i_glide_ligand_efficiency_ln>  (1) 
-1.5631413168177275

>  <r_i_glide_ligand_efficiency_sa>  (1) 
-1.0392863602592952

>  <r_i_glide_lipo>  (1) 
-0.31343442548335593

>  <r_i_glide_metal>  (1) 
-0

>  <r_i_glide_rewards>  (1) 
-2.3886447701052873

>  <r_lp_Energy>  (1) 
9.471366999999999

>  <s_epik_cmdline>  (1) 
J2VwaWtfcHl0aG9uJywgJy1waHQnLCAnMS4wJywgJy1waCcsICc3LjQnLCAnLXRuJywgJzgnLCAnLW1hJywgJzUwMCcsICctaW1hZScsICc8aW5maWxlLm1hZT4nLCAnLW9tYWUnLCAnPG91dGZpbGUubWFlPic=

>  <s_epik_input>  (1) 
W05IMl1bQ0gyXVtDQEhdKFtPSF0pW0NAQF0xKFtPSF0pW0NAXShPMSkoW0NIM10pQyg9TylbT0hd

>  <s_glide_docking_method>  (1) 
confgen

>  <s_i_glide_gridfile>  (1) 
gpcr_5ht2c_6bqh_protein_autoprepared_prepared

>  <s_lp_Force_Field>  (1) 
S-OPLS

>  <s_lp_Variant>  (1) 
DiffSBDD_37_num_sample_100-1

>  <s_m_source_file>  (1) 
generated__ligand_DiffSBDD_2026-05-06_prepared.sdf

>  <GenAI_Model>  (1) 
DiffSBDD

>  <Protein>  (1) 
GPCR_5HT2C

$$$$
DiffSBDD_75_num_sample_100
     RDKit          3D

  0  0  0  0  0  0  0  0  0  0999 V3000
M  V30 BEGIN CTAB
M  V30 COUNTS 40 43 0 0 1
M  V30 BEGIN ATOM
M  V30 1 N 39.067403 30.829141 59.696339 0
M  V30 2 C 37.050225 32.120375 60.043332 0
M  V30 3 C 37.867513 29.487475 56.156564 0
M  V30 4 C 36.869598 30.023889 58.928545 0
M  V30 5 C 38.411571 31.921895 60.134638 0
M  V30 6 C 36.617364 33.366558 60.569145 0
M  V30 7 C 40.372884 28.589488 58.799644 0 CFG=1
M  V30 8 C 38.635934 24.548408 57.345904 0
M  V30 9 C 36.237822 31.164196 59.453783 0
M  V30 10 C 37.804213 34.137624 61.053495 0
M  V30 11 O 35.467343 33.794377 60.634036 0
M  V30 12 O 40.093110 26.218882 58.231272 0
M  V30 13 C 38.290976 29.900462 59.047779 0
M  V30 14 S 39.397655 33.237163 60.882724 0
M  V30 15 C 38.475973 28.438902 57.103788 0
M  V30 16 C 39.257240 29.003241 55.919127 0
M  V30 17 N 38.949103 28.785477 58.459519 0
M  V30 18 C 40.601563 28.373430 60.318348 0
M  V30 19 O 37.703304 35.273174 61.516244 0
M  V30 20 C 40.942954 27.353572 58.058736 0
M  V30 21 C 39.190856 25.962710 57.155853 0 CFG=2
M  V30 22 C 38.037513 26.986169 57.054676 0
M  V30 23 H 37.118606 29.175982 55.432651 0
M  V30 24 H 37.780296 30.526937 56.468354 0
M  V30 25 H 36.290001 29.264282 58.425235 0
M  V30 26 H 40.944002 29.462141 58.483481 0
M  V30 27 H 38.017230 24.250879 56.499118 0
M  V30 28 H 39.444825 23.822987 57.440401 0
M  V30 29 H 38.025389 24.482184 58.247185 0
M  V30 30 H 35.169772 31.304530 59.369744 0
M  V30 31 H 40.056331 29.715756 56.111678 0
M  V30 32 H 39.414386 28.356211 55.058529 0
M  V30 33 H 41.612331 28.021449 60.516558 0
M  V30 34 H 40.480858 29.265441 60.927667 0
M  V30 35 H 39.917742 27.621506 60.708438 0
M  V30 36 H 41.923215 27.103829 58.465255 0
M  V30 37 H 41.139263 27.555566 57.005968 0
M  V30 38 H 39.758237 25.966356 56.223607 0
M  V30 39 H 37.314792 26.822880 57.853656 0
M  V30 40 H 37.492497 26.812261 56.126374 0
M  V30 END ATOM
M  V30 BEGIN BOND
M  V30 1 1 5 1
M  V30 2 2 5 2
M  V30 3 1 6 2
M  V30 4 1 9 2
M  V30 5 2 9 4
M  V30 6 1 10 6
M  V30 7 2 11 6
M  V30 8 2 13 1
M  V30 9 1 13 4
M  V30 10 1 14 5
M  V30 11 1 14 10
M  V30 12 1 15 3
M  V30 13 1 16 3
M  V30 14 1 16 15
M  V30 15 1 17 7
M  V30 16 1 17 13
M  V30 17 1 17 15
M  V30 18 1 18 7
M  V30 19 2 19 10
M  V30 20 1 20 7
M  V30 21 1 20 12
M  V30 22 1 21 8
M  V30 23 1 21 12
M  V30 24 1 22 15
M  V30 25 1 22 21
M  V30 26 1 23 3
M  V30 27 1 24 3
M  V30 28 1 25 4
M  V30 29 1 7 26 CFG=3
M  V30 30 1 27 8
M  V30 31 1 28 8
M  V30 32 1 29 8
M  V30 33 1 30 9
M  V30 34 1 31 16
M  V30 35 1 32 16
M  V30 36 1 33 18
M  V30 37 1 34 18
M  V30 38 1 35 18
M  V30 39 1 36 20
M  V30 40 1 37 20
M  V30 41 1 21 38 CFG=3
M  V30 42 1 39 22
M  V30 43 1 40 22
M  V30 END BOND
M  V30 END CTAB
M  END
>  <i_epik_Tot_Q>  (1) 
0

>  <i_epik_Tot_abs_Q>  (1) 
0

>  <i_i_glide_confnum>  (1) 
4

>  <i_i_glide_lignum>  (1) 
188

>  <i_i_glide_posenum>  (1) 
162

>  <i_i_glide_rotatable_bonds>  (1) 
1

>  <i_lp_mmshare_version>  (1) 
72125

>  <i_m_source_file_index>  (1) 
76

>  <i_f3d_flags>  (1) 
0

>  <num_sample>  (1) 
100

>  <b_lp_Chiralities_Consistent>  (1) 
1

>  <r_epik_Charging_Adjusted_Penalty>  (1) 
0

>  <r_epik_Ionization_Penalty>  (1) 
6.9313959963176031e-10

>  <r_epik_Ionization_Penalty_Charging>  (1) 
0

>  <r_epik_Ionization_Penalty_Neutral>  (1) 
6.9313959963176031e-10

>  <r_epik_State_Penalty>  (1) 
-0

>  <r_glide_ring_energy>  (1) 
0.8094378056749032

>  <r_i_docking_score>  (1) 
-5.4456151695402832

>  <r_i_glide_ecoul>  (1) 
-0.8484556960347126

>  <r_i_glide_eff_state_penalty>  (1) 
-0

>  <r_i_glide_einternal>  (1) 
0.30140019606275814

>  <r_i_glide_emodel>  (1) 
-49.767217583097342

>  <r_i_glide_emodel_strain>  (1) 
0.066587727836292743

>  <r_i_glide_energy>  (1) 
-37.324576307141484

>  <r_i_glide_erotb>  (1) 
0.1839108918674553

>  <r_i_glide_esite>  (1) 
0

>  <r_i_glide_evdw>  (1) 
-36.476120611106772

>  <r_i_glide_gscore>  (1) 
-5.4456151695402832

>  <r_i_glide_gscore_strain>  (1) 
0

>  <r_i_glide_hbond>  (1) 
0

>  <r_i_glide_ligand_efficiency>  (1) 
-0.24752796225183105

>  <r_i_glide_ligand_efficiency_ln>  (1) 
-1.3311069810752039

>  <r_i_glide_ligand_efficiency_sa>  (1) 
-0.69358308566661264

>  <r_i_glide_lipo>  (1) 
-1.8301260659964869

>  <r_i_glide_metal>  (1) 
-0

>  <r_i_glide_rewards>  (1) 
-1.8483256104507058

>  <r_lp_Energy>  (1) 
36.581914999999995

>  <r_lp_tautomer_probability>  (1) 
1

>  <s_epik_cmdline>  (1) 
J2VwaWtfcHl0aG9uJywgJy1waHQnLCAnMS4wJywgJy1waCcsICc3LjQnLCAnLXRuJywgJzgnLCAnLW1hJywgJzUwMCcsICctaW1hZScsICc8aW5maWxlLm1hZT4nLCAnLW9tYWUnLCAnPG91dGZpbGUubWFlPic=

>  <s_epik_input>  (1) 
Tz1DMUMoPU8pU2MoYzEyKW5jKFtjSF1bY0hdMilOKEMzNFtDSDJdW0NIMl0zKVtDQEBIXShbQ0gzXSlbQ0gyXU9bQ0BASF0oW0NIM10pW0NIMl00

>  <s_glide_docking_method>  (1) 
confgen

>  <s_i_glide_gridfile>  (1) 
gpcr_5ht2c_6bqh_protein_autoprepared_prepared

>  <s_lp_Force_Field>  (1) 
S-OPLS

>  <s_lp_Variant>  (1) 
DiffSBDD_75_num_sample_100-1

>  <s_m_source_file>  (1) 
generated__ligand_DiffSBDD_2026-05-06_prepared.sdf

>  <GenAI_Model>  (1) 
DiffSBDD

>  <Protein>  (1) 
GPCR_5HT2C

$$$$
DiffSBDD_82_num_sample_100
     RDKit          3D

  0  0  0  0  0  0  0  0  0  0999 V3000
M  V30 BEGIN CTAB
M  V30 COUNTS 57 59 0 0 1
M  V30 BEGIN ATOM
M  V30 1 C 37.373793 30.011778 58.716874 0 CFG=1
M  V30 2 N 37.939116 26.750486 53.440645 0
M  V30 3 F 36.319880 29.621500 59.432221 0
M  V30 4 C 36.880989 32.233861 59.943870 0
M  V30 5 N 37.192368 29.482684 57.369542 0
M  V30 6 C 39.548203 27.620797 55.167152 0
M  V30 7 C 36.456287 34.210821 61.401466 0
M  V30 8 C 39.113339 32.183916 61.950228 0
M  V30 9 N 38.557598 30.858995 55.891464 0
M  V30 10 O 39.259466 35.784753 60.870858 0
M  V30 11 C 39.473168 28.072859 51.878369 0 CFG=2
M  V30 12 C 39.730704 28.074453 50.389779 0
M  V30 13 C 37.726146 24.801791 57.355368 0
M  V30 14 S 40.666151 31.398991 61.850522 0 CHG=-1
M  V30 15 C 37.487910 33.566756 60.443138 0 CFG=1
M  V30 16 C 39.345146 33.147372 55.984819 0
M  V30 17 C 37.664089 29.799349 56.187306 0
M  V30 18 C 38.083192 27.634801 52.281452 0 CFG=1
M  V30 19 C 38.750687 27.117368 51.027592 0 CFG=2
M  V30 20 C 37.570022 31.495798 58.806349 0
M  V30 21 O 38.161854 31.849902 62.642191 0
M  V30 22 C 38.091400 27.341198 54.756089 0 CFG=2
M  V30 23 C 38.263006 32.098468 57.896660 0
M  V30 24 O 40.010865 34.769069 62.702085 0 CHG=-1
M  V30 25 O 37.509157 26.530714 55.755748 0
M  V30 26 C 37.988864 25.219251 55.905310 0 CFG=2
M  V30 27 S 37.228747 28.949493 54.653555 0
M  V30 28 C 38.940208 33.417246 61.028649 0 CFG=1
M  V30 29 O 37.336607 24.310056 55.053287 0
M  V30 30 C 39.448904 34.774472 61.584494 0
M  V30 31 C 38.726585 31.984948 56.690510 0
M  V30 32 H 38.227148 29.529472 59.193317 0
M  V30 33 H 37.043730 26.289109 53.369292 0
M  V30 34 H 36.735654 31.547819 60.773846 0
M  V30 35 H 35.868467 32.419750 59.582513 0
M  V30 36 H 40.211078 26.803664 54.880542 0
M  V30 37 H 39.625694 27.778445 56.243883 0
M  V30 38 H 39.868149 28.528462 54.661823 0
M  V30 39 H 36.264395 33.566661 62.253502 0
M  V30 40 H 35.501377 34.371986 60.899981 0
M  V30 41 H 36.777296 35.176086 61.787960 0
M  V30 42 H 38.911798 30.959308 54.953696 0
M  V30 43 H 40.267276 27.641077 52.471190 0
M  V30 44 H 39.324604 28.893218 49.799785 0
M  V30 45 H 40.667398 27.649048 50.052470 0
M  V30 46 H 36.660611 24.866447 57.577651 0
M  V30 47 H 38.271698 25.458313 58.034495 0
M  V30 48 H 38.058258 23.774879 57.516936 0
M  V30 49 H 37.554665 34.238475 59.585575 0
M  V30 50 H 40.392298 33.221325 56.271521 0
M  V30 51 H 38.774166 34.040612 56.223459 0
M  V30 52 H 39.290009 32.996917 54.910940 0
M  V30 53 H 37.285894 28.341369 52.059449 0
M  V30 54 H 39.092068 26.090852 51.054538 0
M  V30 55 H 39.054232 25.135931 55.700204 0
M  V30 56 H 39.572047 33.263056 60.152715 0
M  V30 57 H 37.666433 24.451957 54.179399 0
M  V30 END ATOM
M  V30 BEGIN BOND
M  V30 1 1 3 1
M  V30 2 1 5 1
M  V30 3 1 12 11
M  V30 4 1 14 8
M  V30 5 1 15 4
M  V30 6 1 15 7
M  V30 7 2 17 5
M  V30 8 1 17 9
M  V30 9 1 18 2
M  V30 10 1 18 11
M  V30 11 1 19 11
M  V30 12 1 19 12
M  V30 13 1 19 18
M  V30 14 1 20 1
M  V30 15 1 20 4
M  V30 16 2 21 8
M  V30 17 1 22 2
M  V30 18 1 22 6
M  V30 19 2 23 20
M  V30 20 1 22 25 CFG=1
M  V30 21 1 26 13
M  V30 22 1 26 25
M  V30 23 1 27 17
M  V30 24 1 27 22
M  V30 25 1 28 8
M  V30 26 1 28 15
M  V30 27 1 29 26
M  V30 28 2 30 10
M  V30 29 1 30 24
M  V30 30 1 30 28
M  V30 31 1 31 9
M  V30 32 1 31 16
M  V30 33 2 31 23
M  V30 34 1 1 32 CFG=1
M  V30 35 1 33 2
M  V30 36 1 34 4
M  V30 37 1 35 4
M  V30 38 1 36 6
M  V30 39 1 37 6
M  V30 40 1 38 6
M  V30 41 1 39 7
M  V30 42 1 40 7
M  V30 43 1 41 7
M  V30 44 1 42 9
M  V30 45 1 11 43 CFG=1
M  V30 46 1 44 12
M  V30 47 1 45 12
M  V30 48 1 46 13
M  V30 49 1 47 13
M  V30 50 1 48 13
M  V30 51 1 15 49 CFG=3
M  V30 52 1 50 16
M  V30 53 1 51 16
M  V30 54 1 52 16
M  V30 55 1 18 53 CFG=3
M  V30 56 1 19 54 CFG=1
M  V30 57 1 26 55 CFG=3
M  V30 58 1 28 56 CFG=3
M  V30 59 1 57 29
M  V30 END BOND
M  V30 END CTAB
M  END
>  <i_epik_Tot_Q>  (1) 
-2

>  <i_epik_Tot_abs_Q>  (1) 
2

>  <i_i_glide_confnum>  (1) 
1113

>  <i_i_glide_lignum>  (1) 
215

>  <i_i_glide_posenum>  (1) 
207

>  <i_i_glide_rotatable_bonds>  (1) 
12

>  <i_lp_mmshare_version>  (1) 
72125

>  <i_m_source_file_index>  (1) 
83

>  <i_f3d_flags>  (1) 
0

>  <num_sample>  (1) 
100

>  <b_lp_Chiralities_Consistent>  (1) 
1

>  <r_epik_Charging_Adjusted_Penalty>  (1) 
0.00013622687110547772

>  <r_epik_Ionization_Penalty>  (1) 
0.0015792256383976989

>  <r_epik_Ionization_Penalty_Charging>  (1) 
0.00013622687110547772

>  <r_epik_Ionization_Penalty_Neutral>  (1) 
0.0014429987672922213

>  <r_epik_State_Penalty>  (1) 
-0

>  <r_glide_ring_energy>  (1) 
0

>  <r_i_docking_score>  (1) 
-5.435816702679789

>  <r_i_glide_ecoul>  (1) 
-1.7850906376837208

>  <r_i_glide_eff_state_penalty>  (1) 
-0

>  <r_i_glide_einternal>  (1) 
18.321723119793255

>  <r_i_glide_emodel>  (1) 
-37.118268236777624

>  <r_i_glide_emodel_strain>  (1) 
3.4907607178806188

>  <r_i_glide_energy>  (1) 
-34.748930157631101

>  <r_i_glide_erotb>  (1) 
0.72716710484865599

>  <r_i_glide_esite>  (1) 
-0.1606623910836584

>  <r_i_glide_evdw>  (1) 
-32.963839519947378

>  <r_i_glide_gscore>  (1) 
-5.435816702679789

>  <r_i_glide_gscore_strain>  (1) 
0

>  <r_i_glide_hbond>  (1) 
-0.017365678835954194

>  <r_i_glide_ligand_efficiency>  (1) 
-0.17534892589289641

>  <r_i_glide_ligand_efficiency_ln>  (1) 
-1.2259432542297943

>  <r_i_glide_ligand_efficiency_sa>  (1) 
-0.55083772321755708

>  <r_i_glide_lipo>  (1) 
-2.2437851169760403

>  <r_i_glide_metal>  (1) 
-0

>  <r_i_glide_rewards>  (1) 
-1.8252150489828656

>  <r_lp_Energy>  (1) 
24.444061999999999

>  <r_lp_tautomer_probability>  (1) 
1

>  <s_epik_Chemistry_Notes>  (1) 
This compound has an imine and may undergo hydrolysis. This compound contains an acetal/aminal-like group ( X-CH(R)-Y where X, Y are N, S, or O) that may be acid/base labile, releasing an aldehyde.

>  <s_epik_cmdline>  (1) 
J2VwaWtfcHl0aG9uJywgJy1waHQnLCAnMS4wJywgJy1waCcsICc3LjQnLCAnLXRuJywgJzgnLCAnLW1hJywgJzUwMCcsICctaW1hZScsICc8aW5maWxlLm1hZT4nLCAnLW9tYWUnLCAnPG91dGZpbGUubWFlPic=

>  <s_epik_input>  (1) 
W0NASF0xMltDQEhdKFtDSDJdMSlbQ0BIXTJbTkhdW0NAXShbQ0gzXSkoT1tDQEBIXShbQ0gzXSlbT0hdKVNDKD1OW0NAQEhdM0YpW05IXUMoW0NIM10pPUM9QzNbQ0gyXVtDQEBIXShbQ0gzXSlbQ0BIXShDKD1PKVtTSF0pQyg9TylbT0hd

>  <s_glide_docking_method>  (1) 
confgen

>  <s_i_glide_gridfile>  (1) 
gpcr_5ht2c_6bqh_protein_autoprepared_prepared

>  <s_lp_Force_Field>  (1) 
S-OPLS

>  <s_lp_Variant>  (1) 
DiffSBDD_82_num_sample_100-1

>  <s_m_source_file>  (1) 
generated__ligand_DiffSBDD_2026-05-06_prepared.sdf

>  <GenAI_Model>  (1) 
DiffSBDD

>  <Protein>  (1) 
GPCR_5HT2C

$$$$
DiffSBDD_93_num_sample_100
     RDKit          3D

  0  0  0  0  0  0  0  0  0  0999 V3000
M  V30 BEGIN CTAB
M  V30 COUNTS 74 77 0 0 1
M  V30 BEGIN ATOM
M  V30 1 C 38.826087 30.647925 57.999625 0
M  V30 2 S 40.668422 34.204908 63.814469 0
M  V30 3 C 38.935308 31.055834 55.479554 0 CFG=2
M  V30 4 O 37.746151 38.022757 61.853561 0
M  V30 5 C 44.156427 30.642856 65.692759 0
M  V30 6 C 38.385093 35.389085 61.106208 0 CFG=1
M  V30 7 C 41.544647 32.022669 66.263884 0
M  V30 8 C 40.899678 31.417754 63.950401 0
M  V30 9 C 38.088139 29.787494 55.307309 0
M  V30 10 N 39.644653 32.282724 62.188568 0
M  V30 11 C 44.093185 31.103592 67.137250 0
M  V30 12 C 39.078905 31.468395 56.938781 0
M  V30 13 C 38.955574 31.137401 59.402844 0
M  V30 14 C 39.376622 33.093835 61.014967 0 CFG=1
M  V30 15 C 38.528743 28.726397 56.309362 0
M  V30 16 Cl 36.667023 29.220823 58.252634 0
M  V30 17 O 43.864020 32.822303 68.736083 0
M  V30 18 C 38.369097 29.225060 57.753109 0 CFG=2
M  V30 19 C 38.770629 30.156039 60.567041 0
M  V30 20 C 40.533785 35.566359 62.606626 0
M  V30 21 C 37.044410 36.054673 60.779395 0
M  V30 22 C 39.226970 32.450543 59.647646 0
M  V30 23 C 42.495859 33.117971 66.769397 0
M  V30 24 C 39.076106 36.035203 62.335183 0 CFG=1
M  V30 25 C 40.844598 32.604012 62.946440 0 CFG=1
M  V30 26 C 43.831044 32.602381 67.341083 0 CFG=2
M  V30 27 C 39.054659 37.561016 62.179795 0
M  V30 28 C 37.221336 37.553947 60.631745 0
M  V30 29 C 43.175532 30.812256 64.777293 0
M  V30 30 S 42.267459 32.421501 61.853777 0
M  V30 31 N 41.944381 31.446404 64.979063 0
M  V30 32 C 38.350705 32.218727 54.668983 0
M  V30 33 C 38.120965 33.899379 61.279299 0
M  V30 34 H 39.946249 30.863766 55.114141 0
M  V30 35 H 45.061920 30.124553 65.402041 0
M  V30 36 H 39.037789 35.551502 60.251476 0
M  V30 37 H 40.556754 32.470980 66.155077 0
M  V30 38 H 41.412772 31.232143 67.002261 0
M  V30 39 H 40.992699 30.478104 63.403143 0
M  V30 40 H 39.937406 31.340357 64.455325 0
M  V30 41 H 37.033501 30.014476 55.472893 0
M  V30 42 H 38.167443 29.404695 54.288829 0
M  V30 43 H 39.655860 31.311462 61.915278 0
M  V30 44 H 45.055983 30.855597 67.584373 0
M  V30 45 H 43.364856 30.491073 67.671429 0
M  V30 46 H 39.399396 32.476892 57.089279 0
M  V30 47 H 40.218889 33.753922 60.844734 0
M  V30 48 H 37.975219 27.798688 56.163859 0
M  V30 49 H 39.578140 28.488116 56.132356 0
M  V30 50 H 43.194394 32.294972 69.144269 0
M  V30 51 H 38.913065 28.527147 58.388613 0
M  V30 52 H 38.367205 29.186710 60.296405 0
M  V30 53 H 39.727106 29.953161 61.052252 0
M  V30 54 H 38.054376 30.548671 61.289028 0
M  V30 55 H 41.070470 36.384556 63.088610 0
M  V30 56 H 41.111293 35.388106 61.703241 0
M  V30 57 H 36.332166 35.843185 61.579633 0
M  V30 58 H 36.620090 35.649922 59.856601 0
M  V30 59 H 39.347025 33.133354 58.834025 0
M  V30 60 H 41.966991 33.700295 67.525468 0
M  V30 61 H 42.698733 33.820796 65.961290 0
M  V30 62 H 38.479737 35.826568 63.219147 0
M  V30 63 H 44.649056 33.178693 66.907367 0
M  V30 64 H 39.370404 38.019852 63.116870 0
M  V30 65 H 39.788576 37.891330 61.453504 0
M  V30 66 H 36.253389 38.022422 60.463431 0
M  V30 67 H 37.866708 37.803679 59.789185 0
M  V30 68 H 43.295436 30.436091 63.770334 0
M  V30 69 H 43.180744 32.488914 62.828448 0
M  V30 70 H 38.883404 33.141566 54.903554 0
M  V30 71 H 38.423257 32.042201 53.595544 0
M  V30 72 H 37.301963 32.378386 54.914245 0
M  V30 73 H 37.694905 33.689166 62.253413 0
M  V30 74 H 37.333011 33.582968 60.591711 0
M  V30 END ATOM
M  V30 BEGIN BOND
M  V30 1 1 9 3
M  V30 2 1 11 5
M  V30 3 2 12 1
M  V30 4 1 12 3
M  V30 5 1 13 1
M  V30 6 1 14 10
M  V30 7 1 15 9
M  V30 8 1 18 1
M  V30 9 1 18 15
M  V30 10 1 18 16
M  V30 11 1 19 13
M  V30 12 1 20 2
M  V30 13 1 21 6
M  V30 14 2 22 13
M  V30 15 1 22 14
M  V30 16 1 23 7
M  V30 17 1 24 6
M  V30 18 1 24 20
M  V30 19 1 25 2
M  V30 20 1 25 8
M  V30 21 1 25 10
M  V30 22 1 26 11
M  V30 23 1 26 17
M  V30 24 1 26 23
M  V30 25 1 27 4
M  V30 26 1 27 24
M  V30 27 1 28 4
M  V30 28 1 28 21
M  V30 29 2 29 5
M  V30 30 1 25 30 CFG=3
M  V30 31 1 31 7
M  V30 32 1 31 8
M  V30 33 1 31 29
M  V30 34 1 32 3
M  V30 35 1 33 6
M  V30 36 1 33 14
M  V30 37 1 3 34 CFG=3
M  V30 38 1 35 5
M  V30 39 1 6 36 CFG=3
M  V30 40 1 37 7
M  V30 41 1 38 7
M  V30 42 1 39 8
M  V30 43 1 40 8
M  V30 44 1 41 9
M  V30 45 1 42 9
M  V30 46 1 43 10
M  V30 47 1 44 11
M  V30 48 1 45 11
M  V30 49 1 46 12
M  V30 50 1 14 47 CFG=3
M  V30 51 1 48 15
M  V30 52 1 49 15
M  V30 53 1 50 17
M  V30 54 1 18 51 CFG=1
M  V30 55 1 52 19
M  V30 56 1 53 19
M  V30 57 1 54 19
M  V30 58 1 55 20
M  V30 59 1 56 20
M  V30 60 1 57 21
M  V30 61 1 58 21
M  V30 62 1 59 22
M  V30 63 1 60 23
M  V30 64 1 61 23
M  V30 65 1 24 62 CFG=1
M  V30 66 1 26 63 CFG=3
M  V30 67 1 64 27
M  V30 68 1 65 27
M  V30 69 1 66 28
M  V30 70 1 67 28
M  V30 71 1 68 29
M  V30 72 1 69 30
M  V30 73 1 70 32
M  V30 74 1 71 32
M  V30 75 1 72 32
M  V30 76 1 73 33
M  V30 77 1 74 33
M  V30 END BOND
M  V30 END CTAB
M  END
>  <i_epik_Tot_Q>  (1) 
0

>  <i_epik_Tot_abs_Q>  (1) 
0

>  <i_i_glide_confnum>  (1) 
61

>  <i_i_glide_lignum>  (1) 
249

>  <i_i_glide_posenum>  (1) 
180

>  <i_i_glide_rotatable_bonds>  (1) 
6

>  <i_lp_mmshare_version>  (1) 
72125

>  <i_m_source_file_index>  (1) 
94

>  <i_f3d_flags>  (1) 
0

>  <num_sample>  (1) 
100

>  <b_lp_Chiralities_Consistent>  (1) 
1

>  <r_epik_Charging_Adjusted_Penalty>  (1) 
0.20325292957253988

>  <r_epik_Ionization_Penalty>  (1) 
0.031936562948065232

>  <r_epik_Ionization_Penalty_Charging>  (1) 
3.6030848355623751e-07

>  <r_epik_Ionization_Penalty_Neutral>  (1) 
0.031936202639581676

>  <r_epik_State_Penalty>  (1) 
0.20325256926405633

>  <r_glide_ring_energy>  (1) 
0

>  <r_i_docking_score>  (1) 
-5.4351186696908096

>  <r_i_glide_ecoul>  (1) 
-1.4098849686143997

>  <r_i_glide_eff_state_penalty>  (1) 
0.20325256926405633

>  <r_i_glide_einternal>  (1) 
16.433770174074898

>  <r_i_glide_emodel>  (1) 
-22.361245398002218

>  <r_i_glide_emodel_strain>  (1) 
1.8156884613795796

>  <r_i_glide_energy>  (1) 
-31.13166978606893

>  <r_i_glide_erotb>  (1) 
0.31140238833871409

>  <r_i_glide_esite>  (1) 
0

>  <r_i_glide_evdw>  (1) 
-29.72178481745453

>  <r_i_glide_gscore>  (1) 
-5.6383712389548659

>  <r_i_glide_gscore_strain>  (1) 
0

>  <r_i_glide_hbond>  (1) 
0

>  <r_i_glide_ligand_efficiency>  (1) 
-0.16470056574820635

>  <r_i_glide_ligand_efficiency_ln>  (1) 
-1.2087422506008672

>  <r_i_glide_ligand_efficiency_sa>  (1) 
-0.52828271880710664

>  <r_i_glide_lipo>  (1) 
-3.1871724452242622

>  <r_i_glide_metal>  (1) 
-0

>  <r_i_glide_rewards>  (1) 
-1.0650291959044322

>  <r_lp_Energy>  (1) 
26.366080999999998

>  <s_epik_Chemistry_Notes>  (1) 
This compound has an imine and may undergo hydrolysis.

>  <s_epik_cmdline>  (1) 
J2VwaWtfcHl0aG9uJywgJy1waHQnLCAnMS4wJywgJy1waCcsICc3LjQnLCAnLXRuJywgJzgnLCAnLW1hJywgJzUwMCcsICctaW1hZScsICc8aW5maWxlLm1hZT4nLCAnLW9tYWUnLCAnPG91dGZpbGUubWFlPic=

>  <s_epik_input>  (1) 
Q2xbQ0BIXTFbQ0gyXVtDSDJdW0NAQEhdKFtDSDNdKVtDSF09QzEvQyhbQ0gzXSk9W0NIXS9bQ0BASF0oW0NIMl0yKVtOSF1bQ0BAXShbU0hdKShTW0NIMl1bQ0BIXShbQ0BASF0yMylbQ0gyXU9bQ0gyXVtDSDJdMylbQ0gyXU4oW0NIMl1bQ0gyXTQpW0NIXT1bQ0hdW0NIMl1bQ0BASF00W09IXQ==

>  <s_glide_docking_method>  (1) 
confgen

>  <s_i_glide_gridfile>  (1) 
gpcr_5ht2c_6bqh_protein_autoprepared_prepared

>  <s_lp_Force_Field>  (1) 
S-OPLS

>  <s_lp_Variant>  (1) 
DiffSBDD_93_num_sample_100-1

>  <s_m_source_file>  (1) 
generated__ligand_DiffSBDD_2026-05-06_prepared.sdf

>  <GenAI_Model>  (1) 
DiffSBDD

>  <Protein>  (1) 
GPCR_5HT2C

$$$$
DiffSBDD_2_num_sample_100
     RDKit          3D

  0  0  0  0  0  0  0  0  0  0999 V3000
M  V30 BEGIN CTAB
M  V30 COUNTS 51 51 0 0 1
M  V30 BEGIN ATOM
M  V30 1 C 36.634942 31.798549 60.130365 0
M  V30 2 C 40.276300 26.469216 56.032497 0
M  V30 3 O 37.483371 24.650124 57.846042 0
M  V30 4 O 37.296970 24.133442 55.106107 0
M  V30 5 C 39.497194 25.371180 56.786545 0
M  V30 6 F 39.582888 36.531765 61.974783 0
M  V30 7 C 38.746473 35.810186 61.191389 0
M  V30 8 C 38.430690 31.198657 55.276674 0
M  V30 9 O 38.092592 30.456544 54.353818 0
M  V30 10 C 38.087876 30.952302 57.786314 0
M  V30 11 C 37.585763 34.099860 59.845824 0
M  V30 12 S 39.057061 34.164776 60.810637 0
M  V30 13 C 39.933284 28.602348 57.485848 0
M  V30 14 O 37.456724 26.420635 54.686024 0
M  V30 15 O 35.710639 30.962215 59.454525 0
M  V30 16 N 38.261417 32.331242 58.293450 0
M  V30 17 C 37.979095 25.604434 56.931125 0 CFG=1
M  V30 18 C 38.292054 32.714442 55.164752 0
M  V30 19 C 39.006987 30.640055 56.589043 0 CFG=1
M  V30 20 O 39.222883 29.238369 56.429941 0
M  V30 21 C 37.149956 25.429821 55.637241 0
M  V30 22 C 37.607603 36.308650 60.641837 0
M  V30 23 C 40.909993 27.570613 56.904218 0
M  V30 24 C 36.926705 35.321084 59.859446 0
M  V30 25 C 37.168282 32.847758 59.138637 0 CFG=1
M  V30 26 H 37.438122 31.237119 60.608443 0
M  V30 27 H 36.092124 32.285257 60.942692 0
M  V30 28 H 41.068139 25.948632 55.509813 0
M  V30 29 H 39.721133 26.933798 55.224866 0
M  V30 30 H 37.408537 23.830354 57.377022 0
M  V30 31 H 38.162010 24.071638 54.729240 0
M  V30 32 H 39.945167 25.238891 57.772680 0
M  V30 33 H 39.654299 24.420928 56.276030 0
M  V30 34 H 37.067280 30.779882 57.445246 0
M  V30 35 H 38.252165 30.244567 58.600887 0
M  V30 36 H 39.233707 28.142695 58.182067 0
M  V30 37 H 40.511410 29.327276 58.059934 0
M  V30 38 H 36.671313 26.658500 54.221290 0
M  V30 39 H 35.653002 31.221655 58.527579 0
M  V30 40 H 38.312975 32.946536 57.487507 0
M  V30 41 H 37.779932 26.589649 57.355010 0
M  V30 42 H 39.210462 33.211138 55.480874 0
M  V30 43 H 38.076802 32.990149 54.134102 0
M  V30 44 H 37.467553 33.073389 55.781396 0
M  V30 45 H 39.968767 31.120697 56.750159 0
M  V30 46 H 36.102812 25.545369 55.905854 0
M  V30 47 H 37.241002 37.317368 60.762738 0
M  V30 48 H 41.500717 27.126217 57.705805 0
M  V30 49 H 41.620694 28.118566 56.288209 0
M  V30 50 H 36.001175 35.527897 59.342213 0
M  V30 51 H 36.327639 33.128344 58.503672 0
M  V30 END ATOM
M  V30 BEGIN BOND
M  V30 1 1 5 2
M  V30 2 1 7 6
M  V30 3 2 9 8
M  V30 4 1 12 7
M  V30 5 1 12 11
M  V30 6 1 15 1
M  V30 7 1 16 10
M  V30 8 1 17 3
M  V30 9 1 17 5
M  V30 10 1 18 8
M  V30 11 1 19 8
M  V30 12 1 19 10
M  V30 13 1 20 13
M  V30 14 1 20 19
M  V30 15 1 21 4
M  V30 16 1 21 14
M  V30 17 1 21 17
M  V30 18 2 22 7
M  V30 19 1 23 2
M  V30 20 1 23 13
M  V30 21 2 24 11
M  V30 22 1 24 22
M  V30 23 1 25 1
M  V30 24 1 25 11
M  V30 25 1 25 16
M  V30 26 1 26 1
M  V30 27 1 27 1
M  V30 28 1 28 2
M  V30 29 1 29 2
M  V30 30 1 30 3
M  V30 31 1 31 4
M  V30 32 1 32 5
M  V30 33 1 33 5
M  V30 34 1 34 10
M  V30 35 1 35 10
M  V30 36 1 36 13
M  V30 37 1 37 13
M  V30 38 1 38 14
M  V30 39 1 39 15
M  V30 40 1 40 16
M  V30 41 1 17 41 CFG=1
M  V30 42 1 42 18
M  V30 43 1 43 18
M  V30 44 1 44 18
M  V30 45 1 19 45 CFG=1
M  V30 46 1 46 21
M  V30 47 1 47 22
M  V30 48 1 48 23
M  V30 49 1 49 23
M  V30 50 1 50 24
M  V30 51 1 25 51 CFG=3
M  V30 END BOND
M  V30 END CTAB
M  END
>  <i_epik_Tot_Q>  (1) 
0

>  <i_epik_Tot_abs_Q>  (1) 
0

>  <i_i_glide_confnum>  (1) 
1757

>  <i_i_glide_lignum>  (1) 
19

>  <i_i_glide_posenum>  (1) 
278

>  <i_i_glide_rotatable_bonds>  (1) 
17

>  <i_lp_mmshare_version>  (1) 
72125

>  <i_m_source_file_index>  (1) 
3

>  <i_f3d_flags>  (1) 
0

>  <num_sample>  (1) 
100

>  <b_lp_Chiralities_Consistent>  (1) 
1

>  <r_epik_Charging_Adjusted_Penalty>  (1) 
0.24690330696891949

>  <r_epik_Ionization_Penalty>  (1) 
0.24690406667086767

>  <r_epik_Ionization_Penalty_Charging>  (1) 
0

>  <r_epik_Ionization_Penalty_Neutral>  (1) 
0.24690406667086767

>  <r_epik_State_Penalty>  (1) 
0.24690330696891949

>  <r_glide_ring_energy>  (1) 
0

>  <r_i_docking_score>  (1) 
-5.4264329635616368

>  <r_i_glide_ecoul>  (1) 
-7.7603434325819585

>  <r_i_glide_eff_state_penalty>  (1) 
0.24690330696891949

>  <r_i_glide_einternal>  (1) 
15.252004732048608

>  <r_i_glide_emodel>  (1) 
-51.472019250709806

>  <r_i_glide_emodel_strain>  (1) 
2.883518604814391

>  <r_i_glide_energy>  (1) 
-46.491707436476602

>  <r_i_glide_erotb>  (1) 
1.4813531079748476

>  <r_i_glide_esite>  (1) 
-0.025868677801932229

>  <r_i_glide_evdw>  (1) 
-38.731364003894647

>  <r_i_glide_gscore>  (1) 
-5.6733362705305561

>  <r_i_glide_gscore_strain>  (1) 
0

>  <r_i_glide_hbond>  (1) 
0

>  <r_i_glide_ligand_efficiency>  (1) 
-0.21705731854246546

>  <r_i_glide_ligand_efficiency_ln>  (1) 
-1.2862272294376336

>  <r_i_glide_ligand_efficiency_sa>  (1) 
-0.63467944962708955

>  <r_i_glide_lipo>  (1) 
-2.0505383855469486

>  <r_i_glide_metal>  (1) 
-0

>  <r_i_glide_rewards>  (1) 
-1.9776626000744977

>  <r_lp_Energy>  (1) 
16.825317999999999

>  <r_lp_tautomer_probability>  (1) 
0.9999999700000004

>  <s_epik_Chemistry_Notes>  (1) 
This compound contains an acetal/aminal-like group ( X-CH(R)-Y where X, Y are N, S, or O) that may be acid/base labile, releasing an aldehyde.

>  <s_epik_cmdline>  (1) 
J2VwaWtfcHl0aG9uJywgJy1waHQnLCAnMS4wJywgJy1waCcsICc3LjQnLCAnLXRuJywgJzgnLCAnLW1hJywgJzUwMCcsICctaW1hZScsICc8aW5maWxlLm1hZT4nLCAnLW9tYWUnLCAnPG91dGZpbGUubWFlPic=

>  <s_epik_input>  (1) 
RmMxc2MoW2NIXVtjSF0xKVtDQEhdKFtDSDJdW09IXSlbTkhdW0NIMl1bQ0BIXShDKD1PKVtDSDNdKU9bQ0gyXVtDSDJdW0NIMl1bQ0gyXVtDQEhdKFtPSF0pW0NIXShbT0hdKVtPSF0=

>  <s_glide_docking_method>  (1) 
confgen

>  <s_i_glide_gridfile>  (1) 
gpcr_5ht2c_6bqh_protein_autoprepared_prepared

>  <s_lp_Force_Field>  (1) 
S-OPLS

>  <s_lp_Variant>  (1) 
DiffSBDD_2_num_sample_100-1

>  <s_m_source_file>  (1) 
generated__ligand_DiffSBDD_2026-05-06_prepared.sdf

>  <GenAI_Model>  (1) 
DiffSBDD

>  <Protein>  (1) 
GPCR_5HT2C

$$$$
DiffSBDD_81_num_sample_100
     RDKit          3D

  0  0  0  0  0  0  0  0  0  0999 V3000
M  V30 BEGIN CTAB
M  V30 COUNTS 55 56 0 0 1
M  V30 BEGIN ATOM
M  V30 1 N 39.601279 29.424379 50.273159 0 CHG=1
M  V30 2 C 41.342744 27.372804 58.039300 0
M  V30 3 C 39.505392 30.186862 52.702730 0
M  V30 4 C 39.503357 31.132300 55.041936 0
M  V30 5 S 38.666524 30.471331 57.635815 0
M  V30 6 C 38.357565 32.821430 56.529420 0
M  V30 7 C 38.098006 28.994992 54.564783 0
M  V30 8 C 38.815947 31.597889 56.321960 0
M  V30 9 C 39.693594 26.229873 56.750112 0 CFG=2
M  V30 10 O 39.620245 27.997401 51.853503 0 CHG=-1
M  V30 11 O 37.504556 31.683474 59.768337 0
M  V30 12 C 39.401895 24.862527 57.377689 0
M  V30 13 C 38.671535 30.319629 54.013610 0 CFG=2
M  V30 14 C 37.737683 33.180227 57.853488 0
M  V30 15 C 37.930854 24.574423 57.732176 0
M  V30 16 O 39.959621 27.151747 57.804136 0
M  V30 17 O 37.272234 24.022364 56.602579 0
M  V30 18 C 39.067402 29.152127 51.619547 0 CFG=2
M  V30 19 C 37.882942 31.826954 58.606345 0
M  V30 20 C 39.150030 28.009705 55.102352 0
M  V30 21 C 38.564073 26.829758 55.893376 0 CFG=1
M  V30 22 C 37.900524 25.782266 54.974390 0
M  V30 23 C 40.901524 30.121848 50.167765 0
M  V30 24 C 36.791058 24.970667 55.666930 0
M  V30 25 H 39.715576 28.491601 49.906115 0
M  V30 26 H 41.469688 28.037133 58.894063 0
M  V30 27 H 41.866013 26.441061 58.253501 0
M  V30 28 H 41.815283 27.843573 57.176145 0
M  V30 29 H 39.491205 31.181198 52.256654 0
M  V30 30 H 40.550497 30.021433 52.962508 0
M  V30 31 H 39.867407 32.021441 54.538284 0
M  V30 32 H 40.407793 30.592581 55.315831 0
M  V30 33 H 38.425989 33.586858 55.770455 0
M  V30 34 H 37.393500 29.233714 55.361045 0
M  V30 35 H 37.494694 28.512166 53.797210 0
M  V30 36 H 40.577225 26.114558 56.117050 0
M  V30 37 H 40.036262 24.821430 58.253501 0
M  V30 38 H 39.757481 24.071177 56.721499 0
M  V30 39 H 37.802554 30.933021 53.781348 0
M  V30 40 H 38.297645 33.967300 58.355610 0
M  V30 41 H 36.696337 33.486867 57.759383 0
M  V30 42 H 37.418300 25.449482 58.133633 0
M  V30 43 H 37.867402 23.809202 58.504526 0
M  V30 44 H 37.986429 29.221431 51.511569 0
M  V30 45 H 39.778799 27.620353 54.307304 0
M  V30 46 H 39.828285 28.552041 55.754752 0
M  V30 47 H 37.804289 27.230182 56.565816 0
M  V30 48 H 37.448145 26.280406 54.117501 0
M  V30 49 H 38.654583 25.114664 54.560292 0
M  V30 50 H 41.285278 30.030954 49.152141 0
M  V30 51 H 40.808757 31.183262 50.397519 0
M  V30 52 H 41.633286 29.678286 50.842194 0
M  V30 53 H 36.070322 25.623393 56.157515 0
M  V30 54 H 36.239318 24.415066 54.908564 0
M  V30 55 H 38.899289 29.900532 49.718249 0
M  V30 END ATOM
M  V30 BEGIN BOND
M  V30 1 1 8 4
M  V30 2 1 8 5
M  V30 3 2 8 6
M  V30 4 1 12 9
M  V30 5 1 13 3
M  V30 6 1 13 4
M  V30 7 1 13 7
M  V30 8 1 14 6
M  V30 9 1 15 12
M  V30 10 1 16 2
M  V30 11 1 16 9
M  V30 12 1 17 15
M  V30 13 1 18 1
M  V30 14 1 18 3
M  V30 15 1 18 10
M  V30 16 1 19 5
M  V30 17 2 19 11
M  V30 18 1 19 14
M  V30 19 1 20 7
M  V30 20 1 21 9
M  V30 21 1 21 20
M  V30 22 1 22 21
M  V30 23 1 23 1
M  V30 24 1 24 17
M  V30 25 1 24 22
M  V30 26 1 25 1
M  V30 27 1 26 2
M  V30 28 1 27 2
M  V30 29 1 28 2
M  V30 30 1 29 3
M  V30 31 1 30 3
M  V30 32 1 31 4
M  V30 33 1 32 4
M  V30 34 1 33 6
M  V30 35 1 34 7
M  V30 36 1 35 7
M  V30 37 1 9 36 CFG=3
M  V30 38 1 37 12
M  V30 39 1 38 12
M  V30 40 1 13 39 CFG=3
M  V30 41 1 40 14
M  V30 42 1 41 14
M  V30 43 1 42 15
M  V30 44 1 43 15
M  V30 45 1 18 44 CFG=3
M  V30 46 1 45 20
M  V30 47 1 46 20
M  V30 48 1 21 47 CFG=1
M  V30 49 1 48 22
M  V30 50 1 49 22
M  V30 51 1 50 23
M  V30 52 1 51 23
M  V30 53 1 52 23
M  V30 54 1 53 24
M  V30 55 1 54 24
M  V30 56 1 55 1
M  V30 END BOND
M  V30 END CTAB
M  END
>  <i_epik_Tot_Q>  (1) 
0

>  <i_epik_Tot_abs_Q>  (1) 
2

>  <i_i_glide_confnum>  (1) 
958

>  <i_i_glide_lignum>  (1) 
214

>  <i_i_glide_posenum>  (1) 
193

>  <i_i_glide_rotatable_bonds>  (1) 
9

>  <i_lp_mmshare_version>  (1) 
72125

>  <i_m_source_file_index>  (1) 
82

>  <i_f3d_flags>  (1) 
0

>  <num_sample>  (1) 
100

>  <b_lp_Chiralities_Consistent>  (1) 
1

>  <r_epik_Charging_Adjusted_Penalty>  (1) 
2.6824970044638059

>  <r_epik_Ionization_Penalty>  (1) 
1.3267145025925604

>  <r_epik_Ionization_Penalty_Charging>  (1) 
1.3267145025735321

>  <r_epik_Ionization_Penalty_Neutral>  (1) 
1.9028324776712985e-11

>  <r_epik_State_Penalty>  (1) 
1.3557825018902738

>  <r_glide_ring_energy>  (1) 
0.093239952567163886

>  <r_i_docking_score>  (1) 
-5.4231887197074302

>  <r_i_glide_ecoul>  (1) 
-3.3366358359281678

>  <r_i_glide_eff_state_penalty>  (1) 
1.3557825018902738

>  <r_i_glide_einternal>  (1) 
6.3749576250557993

>  <r_i_glide_emodel>  (1) 
-53.363468473826039

>  <r_i_glide_emodel_strain>  (1) 
1.7806309430533034

>  <r_i_glide_energy>  (1) 
-40.605947146356989

>  <r_i_glide_erotb>  (1) 
0.89870139130029003

>  <r_i_glide_esite>  (1) 
-0.078434372233056104

>  <r_i_glide_evdw>  (1) 
-37.269311310428819

>  <r_i_glide_gscore>  (1) 
-6.778971221597704

>  <r_i_glide_gscore_strain>  (1) 
0

>  <r_i_glide_hbond>  (1) 
0

>  <r_i_glide_ligand_efficiency>  (1) 
-0.22596619665447626

>  <r_i_glide_ligand_efficiency_ln>  (1) 
-1.2980179145407973

>  <r_i_glide_ligand_efficiency_sa>  (1) 
-0.65179930005783548

>  <r_i_glide_lipo>  (1) 
-3.2847476366992092

>  <r_i_glide_metal>  (1) 
-0

>  <r_i_glide_rewards>  (1) 
-1.9505296630550619

>  <r_lp_Energy>  (1) 
7.9027319999999994

>  <s_epik_Chemistry_Notes>  (1) 
This compound contains an acetal/aminal-like group ( X-CH(R)-Y where X, Y are N, S, or O) that may be acid/base labile, releasing an aldehyde.

>  <s_epik_cmdline>  (1) 
J2VwaWtfcHl0aG9uJywgJy1waHQnLCAnMS4wJywgJy1waCcsICc3LjQnLCAnLXRuJywgJzgnLCAnLW1hJywgJzUwMCcsICctaW1hZScsICc8aW5maWxlLm1hZT4nLCAnLW9tYWUnLCAnPG91dGZpbGUubWFlPic=

>  <s_epik_input>  (1) 
UzFDKD1PKVtDSDJdW0NIXT1DMVtDSDJdW0NAQEhdKFtDSDJdW0NASF0oW09IXSlbTkhdW0NIM10pW0NIMl1bQ0gyXVtDQEhdMltDSDJdW0NIMl1PW0NIMl1bQ0gyXVtDQEBIXTJPW0NIM10=

>  <s_glide_docking_method>  (1) 
confgen

>  <s_i_glide_gridfile>  (1) 
gpcr_5ht2c_6bqh_protein_autoprepared_prepared

>  <s_lp_Force_Field>  (1) 
S-OPLS

>  <s_lp_Variant>  (1) 
DiffSBDD_81_num_sample_100-2

>  <s_m_source_file>  (1) 
generated__ligand_DiffSBDD_2026-05-06_prepared.sdf

>  <GenAI_Model>  (1) 
DiffSBDD

>  <Protein>  (1) 
GPCR_5HT2C

$$$$
DiffSBDD_25_num_sample_100
     RDKit          3D

  0  0  0  0  0  0  0  0  0  0999 V3000
M  V30 BEGIN CTAB
M  V30 COUNTS 57 59 0 0 1
M  V30 BEGIN ATOM
M  V30 1 C 38.568352 31.023257 55.919202 0
M  V30 2 C 38.460596 31.139956 59.747712 0
M  V30 3 C 39.064177 29.274488 58.165585 0
M  V30 4 C 39.665782 36.914501 62.312973 0
M  V30 5 C 37.225961 37.474634 62.532117 0
M  V30 6 C 36.271634 37.621614 63.462707 0
M  V30 7 C 37.158924 34.709033 59.058272 0 CFG=2
M  V30 8 N 37.467407 25.621755 54.261851 0
M  V30 9 O 37.749496 32.872524 61.256815 0
M  V30 10 C 37.985823 32.453193 59.971631 0
M  V30 11 C 41.052970 34.981586 63.351793 0
M  V30 12 C 38.236634 26.806321 54.575439 0 CFG=2
M  V30 13 C 37.746738 35.205627 61.547577 0 CFG=2
M  V30 14 O 40.671371 35.383514 64.471954 0
M  V30 15 O 38.579626 34.063097 61.625356 0
M  V30 16 C 38.430968 29.499462 55.766387 0
M  V30 17 O 41.591271 33.878815 63.114103 0 CHG=-1
M  V30 18 C 39.425498 27.296124 56.804297 0
M  V30 19 C 37.715015 33.302957 58.864551 0
M  V30 20 N 39.467366 27.594558 52.388821 0
M  V30 21 O 36.381593 34.924294 61.853497 0
M  V30 22 C 37.924298 32.830335 57.557461 0
M  V30 23 C 38.934105 27.248775 53.355389 0
M  V30 24 C 40.848282 35.922857 62.159960 0
M  V30 25 C 38.976608 28.694613 56.949392 0
M  V30 26 O 38.708692 30.320173 60.813565 0
M  V30 27 C 37.804221 35.648923 60.090803 0
M  V30 28 O 35.753284 34.702609 59.190652 0
M  V30 29 C 39.136783 26.465146 55.762933 0
M  V30 30 C 38.640033 30.663161 58.422451 0
M  V30 31 C 38.370948 31.518412 57.336105 0
M  V30 32 C 38.238367 36.334176 62.522064 0 CFG=1
M  V30 33 F 39.660798 25.227112 55.801181 0
M  V30 34 H 37.866692 31.526921 55.253319 0
M  V30 35 H 39.566438 31.331701 55.607968 0
M  V30 36 H 39.431525 28.704664 59.004760 0
M  V30 37 H 39.890624 37.576661 63.151710 0
M  V30 38 H 39.662130 37.575864 61.453511 0
M  V30 39 H 37.299063 38.193531 61.728818 0
M  V30 40 H 36.172978 36.917919 64.277465 0
M  V30 41 H 35.577483 38.447601 63.420566 0
M  V30 42 H 37.354859 35.206405 58.114587 0
M  V30 43 H 38.094837 24.873224 54.002452 0
M  V30 44 H 36.963845 25.310555 55.080076 0
M  V30 45 H 37.457528 27.510764 54.824045 0
M  V30 46 H 37.359907 29.310203 55.705030 0
M  V30 47 H 38.908634 29.239012 54.827360 0
M  V30 48 H 40.039748 26.891475 57.595845 0
M  V30 49 H 36.303454 34.811255 62.789353 0
M  V30 50 H 37.711857 33.472268 56.712885 0
M  V30 51 H 40.744375 35.335882 61.248252 0
M  V30 52 H 41.774464 36.484917 62.043532 0
M  V30 53 H 39.022489 29.466914 60.565302 0
M  V30 54 H 38.852324 35.803855 59.853512 0
M  V30 55 H 37.334998 36.626693 59.977605 0
M  V30 56 H 35.566095 34.493075 60.097685 0
M  V30 57 H 38.267292 35.942054 63.532023 0
M  V30 END ATOM
M  V30 BEGIN BOND
M  V30 1 2 6 5
M  V30 2 1 10 2
M  V30 3 1 10 9
M  V30 4 1 12 8
M  V30 5 2 14 11
M  V30 6 1 15 9
M  V30 7 1 15 13
M  V30 8 1 16 1
M  V30 9 1 17 11
M  V30 10 1 19 7
M  V30 11 2 19 10
M  V30 12 1 13 21 CFG=1
M  V30 13 1 22 19
M  V30 14 1 23 12
M  V30 15 3 23 20
M  V30 16 1 24 4
M  V30 17 1 24 11
M  V30 18 2 25 3
M  V30 19 1 25 16
M  V30 20 1 25 18
M  V30 21 1 26 2
M  V30 22 1 27 7
M  V30 23 1 27 13
M  V30 24 1 28 7
M  V30 25 1 29 12
M  V30 26 2 29 18
M  V30 27 2 30 2
M  V30 28 1 30 3
M  V30 29 1 31 1
M  V30 30 2 31 22
M  V30 31 1 31 30
M  V30 32 1 32 4
M  V30 33 1 32 5
M  V30 34 1 32 13
M  V30 35 1 33 29
M  V30 36 1 34 1
M  V30 37 1 35 1
M  V30 38 1 36 3
M  V30 39 1 37 4
M  V30 40 1 38 4
M  V30 41 1 39 5
M  V30 42 1 40 6
M  V30 43 1 41 6
M  V30 44 1 7 42 CFG=3
M  V30 45 1 43 8
M  V30 46 1 44 8
M  V30 47 1 12 45 CFG=1
M  V30 48 1 46 16
M  V30 49 1 47 16
M  V30 50 1 48 18
M  V30 51 1 49 21
M  V30 52 1 50 22
M  V30 53 1 51 24
M  V30 54 1 52 24
M  V30 55 1 53 26
M  V30 56 1 54 27
M  V30 57 1 55 27
M  V30 58 1 56 28
M  V30 59 1 32 57 CFG=1
M  V30 END BOND
M  V30 END CTAB
M  END
>  <i_epik_Tot_Q>  (1) 
-1

>  <i_epik_Tot_abs_Q>  (1) 
1

>  <i_i_glide_confnum>  (1) 
106

>  <i_i_glide_lignum>  (1) 
66

>  <i_i_glide_posenum>  (1) 
114

>  <i_i_glide_rotatable_bonds>  (1) 
10

>  <i_lp_mmshare_version>  (1) 
72125

>  <i_m_source_file_index>  (1) 
26

>  <i_f3d_flags>  (1) 
0

>  <num_sample>  (1) 
100

>  <b_lp_Chiralities_Consistent>  (1) 
1

>  <r_epik_Charging_Adjusted_Penalty>  (1) 
0.0056011124489286045

>  <r_epik_Ionization_Penalty>  (1) 
0.0056278004124673013

>  <r_epik_Ionization_Penalty_Charging>  (1) 
0.0010502183284910153

>  <r_epik_Ionization_Penalty_Neutral>  (1) 
0.0045775820839762862

>  <r_epik_State_Penalty>  (1) 
0.0045508941204375894

>  <r_glide_ring_energy>  (1) 
0

>  <r_i_docking_score>  (1) 
-5.4224148584418685

>  <r_i_glide_ecoul>  (1) 
0.61346421741218804

>  <r_i_glide_eff_state_penalty>  (1) 
0.0045508941204375894

>  <r_i_glide_einternal>  (1) 
5.8708309761078494

>  <r_i_glide_emodel>  (1) 
-37.225709951348193

>  <r_i_glide_emodel_strain>  (1) 
3.7724076215591253

>  <r_i_glide_energy>  (1) 
-34.458376574621944

>  <r_i_glide_erotb>  (1) 
0.57188489385704211

>  <r_i_glide_esite>  (1) 
0

>  <r_i_glide_evdw>  (1) 
-35.071840792034131

>  <r_i_glide_gscore>  (1) 
-5.4269657525623058

>  <r_i_glide_gscore_strain>  (1) 
0

>  <r_i_glide_hbond>  (1) 
0

>  <r_i_glide_ligand_efficiency>  (1) 
-0.16431560177096571

>  <r_i_glide_ligand_efficiency_ln>  (1) 
-1.2059169887559169

>  <r_i_glide_ligand_efficiency_sa>  (1) 
-0.52704793363429558

>  <r_i_glide_lipo>  (1) 
-2.1456592285472174

>  <r_i_glide_metal>  (1) 
-0

>  <r_i_glide_rewards>  (1) 
-2.1916190108822526

>  <r_lp_Energy>  (1) 
30.738761

>  <s_epik_cmdline>  (1) 
J2VwaWtfcHl0aG9uJywgJy1waHQnLCAnMS4wJywgJy1waCcsICc3LjQnLCAnLXRuJywgJzgnLCAnLW1hJywgJzUwMCcsICctaW1hZScsICc8aW5maWxlLm1hZT4nLCAnLW9tYWUnLCAnPG91dGZpbGUubWFlPic=

>  <s_epik_input>  (1) 
TiNDW0NAQEhdKFtOSDJdKS9DKEYpPVtDSF1cQyhbQ0gyXVtDSDJdMSk9W0NIXWMoYzJbT0hdKWMxW2NIXWMoYzIzKVtDQEBIXShbT0hdKVtDSDJdW0NAXShPTzMpKFtPSF0pW0NASF0oW0NIXT1bQ0gyXSlbQ0gyXVtDSDJdQyg9TylbT0hd

>  <s_glide_docking_method>  (1) 
confgen

>  <s_i_glide_gridfile>  (1) 
gpcr_5ht2c_6bqh_protein_autoprepared_prepared

>  <s_lp_Force_Field>  (1) 
S-OPLS

>  <s_lp_Variant>  (1) 
DiffSBDD_25_num_sample_100-2

>  <s_m_source_file>  (1) 
generated__ligand_DiffSBDD_2026-05-06_prepared.sdf

>  <GenAI_Model>  (1) 
DiffSBDD

>  <Protein>  (1) 
GPCR_5HT2C

$$$$
DiffSBDD_44_num_sample_100
     RDKit          3D

  0  0  0  0  0  0  0  0  0  0999 V3000
M  V30 BEGIN CTAB
M  V30 COUNTS 58 59 0 0 1
M  V30 BEGIN ATOM
M  V30 1 C 37.730236 33.877375 58.829473 0
M  V30 2 O 37.975729 29.609183 59.766447 0 CHG=-1
M  V30 3 C 39.467394 29.655494 54.091716 0
M  V30 4 C 36.781318 31.993959 59.956632 0 CFG=1
M  V30 5 N 37.296988 31.485033 58.653671 0 CFG=1 CHG=1
M  V30 6 C 39.125165 27.211172 54.073735 0
M  V30 7 N 39.012293 27.513126 56.917723 0
M  V30 8 C 39.467404 28.530345 54.763406 0
M  V30 9 O 41.186237 28.087917 56.384472 0
M  V30 10 C 36.599849 33.504592 59.772293 0 CFG=1
M  V30 11 C 36.612692 34.308340 61.080504 0
M  V30 12 C 37.275585 29.179238 57.587121 0 CFG=1
M  V30 13 C 37.875002 27.746101 57.415759 0
M  V30 14 C 37.949055 32.632967 57.963633 0
M  V30 15 C 41.683186 28.042772 57.718566 0
M  V30 16 C 39.478769 29.644749 51.629385 0
M  V30 17 C 38.016780 30.157152 58.577689 0 CFG=2
M  V30 18 C 39.833814 28.476769 56.242897 0 CFG=2
M  V30 19 F 37.467406 28.421482 52.077395 0
M  V30 20 C 38.726620 28.282584 51.671868 0 CFG=2
M  V30 21 C 39.581829 30.331436 52.982041 0
M  V30 22 C 36.979626 29.796216 56.201337 0
M  V30 23 C 36.990630 26.606203 57.853497 0
M  V30 24 C 35.459629 31.322195 60.332109 0
M  V30 25 C 39.383737 27.190530 52.542806 0
M  V30 26 H 38.637551 34.092475 59.397046 0
M  V30 27 H 37.467399 34.756993 58.238758 0
M  V30 28 H 37.529691 31.838683 60.734730 0
M  V30 29 H 39.726349 26.418903 54.521775 0
M  V30 30 H 38.082349 26.966227 54.283272 0
M  V30 31 H 35.660541 33.692167 59.249079 0
M  V30 32 H 37.539444 34.154524 61.635124 0
M  V30 33 H 36.523325 35.374903 60.877352 0
M  V30 34 H 35.785243 34.024805 61.729641 0
M  V30 35 H 36.287251 29.047774 58.031301 0
M  V30 36 H 39.013753 32.497408 57.776515 0
M  V30 37 H 37.468657 32.772499 56.995507 0
M  V30 38 H 42.760702 27.875665 57.700413 0
M  V30 39 H 41.495496 28.975161 58.253284 0
M  V30 40 H 41.237105 27.223758 58.284008 0
M  V30 41 H 39.067417 30.314187 50.878408 0
M  V30 42 H 40.499289 29.464187 51.289883 0
M  V30 43 H 38.995063 30.400359 58.193573 0
M  V30 44 H 39.773514 29.483809 56.622517 0
M  V30 45 H 38.664265 27.909623 50.649707 0
M  V30 46 H 39.840559 31.379824 52.983332 0
M  V30 47 H 37.093206 29.095097 55.379671 0
M  V30 48 H 35.922217 30.021428 56.125869 0
M  V30 49 H 37.558604 30.690705 55.978969 0
M  V30 50 H 36.036145 26.929736 58.253495 0
M  V30 51 H 36.772038 25.978665 56.989211 0
M  V30 52 H 37.520741 25.985430 58.574781 0
M  V30 53 H 35.145777 31.583705 61.341870 0
M  V30 54 H 34.666440 31.621645 59.647517 0
M  V30 55 H 35.535581 30.240756 60.263067 0
M  V30 56 H 40.449123 27.221447 52.381907 0
M  V30 57 H 39.067722 26.231770 52.156738 0
M  V30 58 H 36.458690 31.369055 58.080285 0
M  V30 END ATOM
M  V30 BEGIN BOND
M  V30 1 1 5 4
M  V30 2 2 8 3
M  V30 3 1 8 6
M  V30 4 1 10 1
M  V30 5 1 10 4
M  V30 6 1 11 10
M  V30 7 2 13 7
M  V30 8 1 13 12
M  V30 9 1 14 1
M  V30 10 1 14 5
M  V30 11 1 15 9
M  V30 12 1 17 2
M  V30 13 1 17 5
M  V30 14 1 17 12
M  V30 15 1 18 7
M  V30 16 1 18 8
M  V30 17 1 18 9
M  V30 18 1 20 16
M  V30 19 1 20 19
M  V30 20 2 21 3
M  V30 21 1 21 16
M  V30 22 1 22 12
M  V30 23 1 23 13
M  V30 24 1 24 4
M  V30 25 1 25 6
M  V30 26 1 25 20
M  V30 27 1 26 1
M  V30 28 1 27 1
M  V30 29 1 4 28 CFG=1
M  V30 30 1 29 6
M  V30 31 1 30 6
M  V30 32 1 10 31 CFG=3
M  V30 33 1 32 11
M  V30 34 1 33 11
M  V30 35 1 34 11
M  V30 36 1 12 35 CFG=1
M  V30 37 1 36 14
M  V30 38 1 37 14
M  V30 39 1 38 15
M  V30 40 1 39 15
M  V30 41 1 40 15
M  V30 42 1 41 16
M  V30 43 1 42 16
M  V30 44 1 17 43 CFG=3
M  V30 45 1 18 44 CFG=1
M  V30 46 1 20 45 CFG=3
M  V30 47 1 46 21
M  V30 48 1 47 22
M  V30 49 1 48 22
M  V30 50 1 49 22
M  V30 51 1 50 23
M  V30 52 1 51 23
M  V30 53 1 52 23
M  V30 54 1 53 24
M  V30 55 1 54 24
M  V30 56 1 55 24
M  V30 57 1 56 25
M  V30 58 1 57 25
M  V30 59 1 5 58 CFG=3
M  V30 END BOND
M  V30 END CTAB
M  END
>  <i_epik_Tot_Q>  (1) 
0

>  <i_epik_Tot_abs_Q>  (1) 
2

>  <i_i_glide_confnum>  (1) 
27

>  <i_i_glide_lignum>  (1) 
118

>  <i_i_glide_posenum>  (1) 
85

>  <i_i_glide_rotatable_bonds>  (1) 
6

>  <i_lp_mmshare_version>  (1) 
72125

>  <i_m_source_file_index>  (1) 
45

>  <i_f3d_flags>  (1) 
0

>  <num_sample>  (1) 
100

>  <b_lp_Chiralities_Consistent>  (1) 
1

>  <r_epik_Charging_Adjusted_Penalty>  (1) 
0.41733257654759531

>  <r_epik_Ionization_Penalty>  (1) 
0.0069177268181324029

>  <r_epik_Ionization_Penalty_Charging>  (1) 
0.0066527375949913311

>  <r_epik_Ionization_Penalty_Neutral>  (1) 
0.00026498922314107146

>  <r_epik_State_Penalty>  (1) 
0.41067983895260396

>  <r_glide_ring_energy>  (1) 
0

>  <r_i_docking_score>  (1) 
-5.4215886282761607

>  <r_i_glide_ecoul>  (1) 
-4.817096936004253

>  <r_i_glide_eff_state_penalty>  (1) 
0.41067983895260396

>  <r_i_glide_einternal>  (1) 
4.9609359430263424

>  <r_i_glide_emodel>  (1) 
-26.001312903025102

>  <r_i_glide_emodel_strain>  (1) 
3.3808442618320527

>  <r_i_glide_energy>  (1) 
-19.472572661796754

>  <r_i_glide_erotb>  (1) 
0.61440649929112812

>  <r_i_glide_esite>  (1) 
-0.1369632490449621

>  <r_i_glide_evdw>  (1) 
-14.655475725792503

>  <r_i_glide_gscore>  (1) 
-5.832268467228765

>  <r_i_glide_gscore_strain>  (1) 
0

>  <r_i_glide_hbond>  (1) 
-0.20000000000000001

>  <r_i_glide_ligand_efficiency>  (1) 
-0.21686354513104644

>  <r_i_glide_ligand_efficiency_ln>  (1) 
-1.2850789768019619

>  <r_i_glide_ligand_efficiency_sa>  (1) 
-0.63411285273490625

>  <r_i_glide_lipo>  (1) 
-2.1142943793981046

>  <r_i_glide_metal>  (1) 
-0

>  <r_i_glide_rewards>  (1) 
-2.5400790113865641

>  <r_lp_Energy>  (1) 
7.5226449999999998

>  <r_lp_tautomer_probability>  (1) 
0.49999399997599986

>  <s_epik_Chemistry_Notes>  (1) 
This compound has an imine and may undergo hydrolysis. This compound contains an acetal/aminal-like group ( X-CH(R)-Y where X, Y are N, S, or O) that may be acid/base labile, releasing an aldehyde.

>  <s_epik_cmdline>  (1) 
J2VwaWtfcHl0aG9uJywgJy1waHQnLCAnMS4wJywgJy1waCcsICc3LjQnLCAnLXRuJywgJzgnLCAnLW1hJywgJzUwMCcsICctaW1hZScsICc8aW5maWxlLm1hZT4nLCAnLW9tYWUnLCAnPG91dGZpbGUubWFlPic=

>  <s_epik_input>  (1) 
W0NIM11bQ0BIXTFbQ0gyXVtDSDJdTihbQ0BASF0xW0NIM10pW0NAQEhdKFtPSF0pW0NAQEhdKFtDSDNdKS9DKFtDSDNdKT1OXFtDQEBIXShPW0NIM10pQzI9Qz1bQ0hdW0NIMl1bQ0BASF0oRilbQ0gyXVtDSDJdMg==

>  <s_glide_docking_method>  (1) 
confgen

>  <s_i_glide_gridfile>  (1) 
gpcr_5ht2c_6bqh_protein_autoprepared_prepared

>  <s_lp_Force_Field>  (1) 
S-OPLS

>  <s_lp_Variant>  (1) 
DiffSBDD_44_num_sample_100-11

>  <s_m_source_file>  (1) 
generated__ligand_DiffSBDD_2026-05-06_prepared.sdf

>  <GenAI_Model>  (1) 
DiffSBDD

>  <Protein>  (1) 
GPCR_5HT2C

$$$$
DiffSBDD_82_num_sample_100
     RDKit          3D

  0  0  0  0  0  0  0  0  0  0999 V3000
M  V30 BEGIN CTAB
M  V30 COUNTS 57 59 0 0 1
M  V30 BEGIN ATOM
M  V30 1 C 38.822306 29.528634 57.558377 0 CFG=1
M  V30 2 N 38.505978 28.821430 51.713763 0
M  V30 3 F 39.067965 30.816659 57.725849 0
M  V30 4 C 39.970381 29.332513 59.891565 0
M  V30 5 N 39.345491 29.084430 56.278109 0
M  V30 6 C 36.948206 27.945509 53.270126 0
M  V30 7 C 39.198039 29.221277 62.251004 0
M  V30 8 C 38.399500 32.470269 60.306414 0
M  V30 9 N 38.631192 26.770714 56.311275 0
M  V30 10 O 41.467586 31.147891 61.853248 0
M  V30 11 C 40.232501 29.357226 49.977852 0 CFG=1
M  V30 12 C 40.986657 30.608790 50.358933 0
M  V30 13 C 38.393730 32.074738 54.618024 0
M  V30 14 S 36.680040 32.605042 60.656876 0 CHG=-1
M  V30 15 C 39.034485 29.999181 60.940409 0 CFG=1
M  V30 16 C 38.609457 25.051819 58.027982 0
M  V30 17 C 39.135576 27.934163 55.689028 0
M  V30 18 C 39.772958 28.474883 51.120751 0 CFG=1
M  V30 19 C 40.926994 29.418662 51.291570 0 CFG=1
M  V30 20 C 39.327547 28.660870 58.672729 0
M  V30 21 O 39.027065 33.030642 59.413995 0
M  V30 22 C 38.265868 28.687035 53.133377 0 CFG=2
M  V30 23 C 39.178376 27.375894 58.565437 0
M  V30 24 O 40.756107 33.254610 61.858817 0 CHG=-1
M  V30 25 O 38.043270 29.910165 53.809145 0
M  V30 26 C 38.964606 30.973570 53.708782 0 CFG=2
M  V30 27 S 39.467401 27.586361 53.939536 0
M  V30 28 C 39.176777 31.544511 61.261577 0 CFG=1
M  V30 29 O 40.262990 30.674693 54.157254 0
M  V30 30 C 40.592355 32.023965 61.689459 0
M  V30 31 C 38.776468 26.498867 57.677537 0
M  V30 32 H 37.734199 29.469104 57.536020 0
M  V30 33 H 38.216790 29.724104 51.378240 0
M  V30 34 H 40.716540 30.021423 59.523649 0
M  V30 35 H 40.580636 28.572876 60.380731 0
M  V30 36 H 36.198764 28.425548 52.650241 0
M  V30 37 H 36.637273 27.934811 54.307938 0
M  V30 38 H 37.068514 26.917187 52.924082 0
M  V30 39 H 40.217192 29.233898 62.630436 0
M  V30 40 H 38.933122 28.170783 62.145296 0
M  V30 41 H 38.593916 29.683955 63.024828 0
M  V30 42 H 38.404915 25.967006 55.745140 0
M  V30 43 H 40.666185 28.821420 49.138599 0
M  V30 44 H 41.936065 30.813775 49.868905 0
M  V30 45 H 40.408153 31.483351 50.642401 0
M  V30 46 H 38.180905 31.673089 55.607025 0
M  V30 47 H 37.455948 32.456666 54.220375 0
M  V30 48 H 39.093743 32.894815 54.734715 0
M  V30 49 H 38.009236 29.836405 60.605790 0
M  V30 50 H 38.265583 24.971137 59.054255 0
M  V30 51 H 39.553862 24.533404 57.854423 0
M  V30 52 H 37.861674 24.574665 57.392449 0
M  V30 53 H 40.024449 27.422359 51.034633 0
M  V30 54 H 41.865988 28.898865 51.453759 0
M  V30 55 H 39.069892 31.340410 52.689219 0
M  V30 56 H 38.675657 31.684383 62.220996 0
M  V30 57 H 40.180802 30.406086 55.065351 0
M  V30 END ATOM
M  V30 BEGIN BOND
M  V30 1 1 3 1
M  V30 2 1 5 1
M  V30 3 1 12 11
M  V30 4 1 14 8
M  V30 5 1 15 4
M  V30 6 1 15 7
M  V30 7 2 17 5
M  V30 8 1 17 9
M  V30 9 1 18 2
M  V30 10 1 18 11
M  V30 11 1 19 11
M  V30 12 1 19 12
M  V30 13 1 19 18
M  V30 14 1 20 1
M  V30 15 1 20 4
M  V30 16 2 21 8
M  V30 17 1 22 2
M  V30 18 1 22 6
M  V30 19 2 23 20
M  V30 20 1 22 25 CFG=1
M  V30 21 1 26 13
M  V30 22 1 26 25
M  V30 23 1 27 17
M  V30 24 1 27 22
M  V30 25 1 28 8
M  V30 26 1 28 15
M  V30 27 1 29 26
M  V30 28 2 30 10
M  V30 29 1 30 24
M  V30 30 1 30 28
M  V30 31 1 31 9
M  V30 32 1 31 16
M  V30 33 2 31 23
M  V30 34 1 1 32 CFG=3
M  V30 35 1 33 2
M  V30 36 1 34 4
M  V30 37 1 35 4
M  V30 38 1 36 6
M  V30 39 1 37 6
M  V30 40 1 38 6
M  V30 41 1 39 7
M  V30 42 1 40 7
M  V30 43 1 41 7
M  V30 44 1 42 9
M  V30 45 1 11 43 CFG=3
M  V30 46 1 44 12
M  V30 47 1 45 12
M  V30 48 1 46 13
M  V30 49 1 47 13
M  V30 50 1 48 13
M  V30 51 1 15 49 CFG=3
M  V30 52 1 50 16
M  V30 53 1 51 16
M  V30 54 1 52 16
M  V30 55 1 18 53 CFG=3
M  V30 56 1 19 54 CFG=3
M  V30 57 1 26 55 CFG=3
M  V30 58 1 28 56 CFG=1
M  V30 59 1 57 29
M  V30 END BOND
M  V30 END CTAB
M  END
>  <i_epik_Tot_Q>  (1) 
-2

>  <i_epik_Tot_abs_Q>  (1) 
2

>  <i_i_glide_confnum>  (1) 
193

>  <i_i_glide_lignum>  (1) 
216

>  <i_i_glide_posenum>  (1) 
186

>  <i_i_glide_rotatable_bonds>  (1) 
12

>  <i_lp_mmshare_version>  (1) 
72125

>  <i_m_source_file_index>  (1) 
83

>  <i_f3d_flags>  (1) 
0

>  <num_sample>  (1) 
100

>  <b_lp_Chiralities_Consistent>  (1) 
1

>  <r_epik_Charging_Adjusted_Penalty>  (1) 
0.00013622687110547772

>  <r_epik_Ionization_Penalty>  (1) 
0.0015792256383976989

>  <r_epik_Ionization_Penalty_Charging>  (1) 
0.00013622687110547772

>  <r_epik_Ionization_Penalty_Neutral>  (1) 
0.0014429987672922213

>  <r_epik_State_Penalty>  (1) 
-0

>  <r_glide_ring_energy>  (1) 
0

>  <r_i_docking_score>  (1) 
-5.4192503643407219

>  <r_i_glide_ecoul>  (1) 
-2.0567546433528516

>  <r_i_glide_eff_state_penalty>  (1) 
-0

>  <r_i_glide_einternal>  (1) 
11.132690634592979

>  <r_i_glide_emodel>  (1) 
-38.862363189410821

>  <r_i_glide_emodel_strain>  (1) 
8.1563458640663953

>  <r_i_glide_energy>  (1) 
-35.393267226667561

>  <r_i_glide_erotb>  (1) 
0.72716710484865599

>  <r_i_glide_esite>  (1) 
-0.028521113698022457

>  <r_i_glide_evdw>  (1) 
-33.336512583314708

>  <r_i_glide_gscore>  (1) 
-5.4192503643407219

>  <r_i_glide_gscore_strain>  (1) 
1.0390864660165988

>  <r_i_glide_hbond>  (1) 
-0.1181916625518903

>  <r_i_glide_ligand_efficiency>  (1) 
-0.17481452788195878

>  <r_i_glide_ligand_efficiency_ln>  (1) 
-1.2222070372370368

>  <r_i_glide_ligand_efficiency_sa>  (1) 
-0.54915897564532112

>  <r_i_glide_lipo>  (1) 
-3.1447108354910811

>  <r_i_glide_metal>  (1) 
-0

>  <r_i_glide_rewards>  (1) 
-1.9187414977963198

>  <r_lp_Energy>  (1) 
27.993948

>  <r_lp_tautomer_probability>  (1) 
1

>  <s_epik_Chemistry_Notes>  (1) 
This compound has an imine and may undergo hydrolysis. This compound contains an acetal/aminal-like group ( X-CH(R)-Y where X, Y are N, S, or O) that may be acid/base labile, releasing an aldehyde.

>  <s_epik_cmdline>  (1) 
J2VwaWtfcHl0aG9uJywgJy1waHQnLCAnMS4wJywgJy1waCcsICc3LjQnLCAnLXRuJywgJzgnLCAnLW1hJywgJzUwMCcsICctaW1hZScsICc8aW5maWxlLm1hZT4nLCAnLW9tYWUnLCAnPG91dGZpbGUubWFlPic=

>  <s_epik_input>  (1) 
W0NAQEhdMTJbQ0BASF0oW0NIMl0xKVtDQEhdMltOSF1bQ0BdKFtDSDNdKShPW0NAQEhdKFtDSDNdKVtPSF0pU0MoPU5bQ0BASF0zRilbTkhdQyhbQ0gzXSk9Qz1DM1tDSDJdW0NAQEhdKFtDSDNdKVtDQEhdKEMoPU8pW1NIXSlDKD1PKVtPSF0=

>  <s_glide_docking_method>  (1) 
confgen

>  <s_i_glide_gridfile>  (1) 
gpcr_5ht2c_6bqh_protein_autoprepared_prepared

>  <s_lp_Force_Field>  (1) 
S-OPLS

>  <s_lp_Variant>  (1) 
DiffSBDD_82_num_sample_100-2

>  <s_m_source_file>  (1) 
generated__ligand_DiffSBDD_2026-05-06_prepared.sdf

>  <GenAI_Model>  (1) 
DiffSBDD

>  <Protein>  (1) 
GPCR_5HT2C

$$$$
DiffSBDD_60_num_sample_100
     RDKit          3D

  0  0  0  0  0  0  0  0  0  0999 V3000
M  V30 BEGIN CTAB
M  V30 COUNTS 74 76 0 0 1
M  V30 BEGIN ATOM
M  V30 1 C 39.122874 36.446206 63.299052 0
M  V30 2 C 39.431965 28.742685 50.565713 0
M  V30 3 C 39.881636 30.038198 50.853722 0
M  V30 4 C 37.508614 32.453560 59.113175 0
M  V30 5 N 37.245000 37.065519 62.606539 0
M  V30 6 C 41.071262 34.445619 62.193600 0
M  V30 7 C 37.467418 29.172931 55.583058 0
M  V30 8 C 38.455313 32.965358 56.805436 0
M  V30 9 C 38.499914 32.022993 58.023574 0 CFG=2
M  V30 10 C 36.909376 35.883222 60.437434 0
M  V30 11 C 38.985413 29.348404 55.756302 0 CFG=1
M  V30 12 O 38.543838 32.804770 61.973428 0
M  V30 13 C 39.592894 28.625681 58.139149 0 CFG=1
M  V30 14 C 41.065382 28.162266 58.056873 0
M  V30 15 C 37.937712 33.760518 59.814489 0 CFG=1
M  V30 16 N 36.752340 34.437497 60.340223 0
M  V30 17 C 39.656520 30.158292 54.647822 0
M  V30 18 C 37.697826 36.212438 61.647545 0
M  V30 19 C 39.833576 34.800962 61.348021 0 CFG=1
M  V30 20 C 39.057848 33.538968 60.879065 0 CFG=1
M  V30 21 O 40.267507 30.856633 49.853504 0
M  V30 22 C 39.934814 30.488867 52.172712 0
M  V30 23 C 38.919766 35.772279 62.048775 0
M  V30 24 C 38.652104 26.413976 58.530191 0
M  V30 25 C 37.688004 25.437211 57.853196 0
M  V30 26 C 39.017954 27.893625 51.604674 0
M  V30 27 C 39.327371 29.837399 57.194239 0 CFG=2
M  V30 28 O 38.263897 30.645884 57.725868 0
M  V30 29 N 38.092313 37.221388 63.632420 0
M  V30 30 C 36.755927 30.351615 54.912970 0
M  V30 31 C 39.537224 29.652118 53.219484 0
M  V30 32 C 39.067379 28.343182 52.935050 0
M  V30 33 O 38.733697 27.563325 57.720537 0
M  V30 34 H 39.969010 36.386833 63.969275 0
M  V30 35 H 39.394985 28.405819 49.544414 0
M  V30 36 H 36.528436 32.575762 58.653852 0
M  V30 37 H 37.387163 31.655788 59.846624 0
M  V30 38 H 41.652260 35.338753 62.430841 0
M  V30 39 H 41.731718 33.762909 61.659206 0
M  V30 40 H 40.792395 33.966704 63.133425 0
M  V30 41 H 37.067435 29.010750 56.579074 0
M  V30 42 H 37.237632 28.263553 55.033732 0
M  V30 43 H 38.667364 33.994272 57.073144 0
M  V30 44 H 37.467361 33.009281 56.360119 0
M  V30 45 H 39.188103 32.699494 56.051510 0
M  V30 46 H 39.467247 32.114090 58.466609 0
M  V30 47 H 37.397662 36.284665 59.547608 0
M  V30 48 H 35.935804 36.363223 60.461158 0
M  V30 49 H 39.445454 28.366310 55.652082 0
M  V30 50 H 38.255623 31.964120 61.653748 0
M  V30 51 H 39.365554 28.911042 59.168447 0
M  V30 52 H 41.749265 28.967426 58.317385 0
M  V30 53 H 41.322244 27.820365 57.053974 0
M  V30 54 H 41.284391 27.347413 58.744132 0
M  V30 55 H 38.358341 34.407786 59.053502 0
M  V30 56 H 36.615626 34.082669 61.283108 0
M  V30 57 H 39.295754 31.180736 54.643800 0
M  V30 58 H 40.723800 30.224493 54.863155 0
M  V30 59 H 40.215634 35.283265 60.446105 0
M  V30 60 H 39.813453 32.893772 60.435314 0
M  V30 61 H 40.294044 31.484719 52.385758 0
M  V30 62 H 38.267605 26.719445 59.494520 0
M  V30 63 H 39.620189 25.933644 58.664152 0
M  V30 64 H 37.575564 24.522278 58.435505 0
M  V30 65 H 38.046813 25.157264 56.862311 0
M  V30 66 H 36.702082 25.887042 57.735811 0
M  V30 67 H 38.666999 26.896180 51.381713 0
M  V30 68 H 40.239288 30.423768 57.164334 0
M  V30 69 H 36.353157 37.541187 62.582335 0
M  V30 70 H 35.680512 30.346954 55.053255 0
M  V30 71 H 36.983087 30.361901 53.853869 0
M  V30 72 H 37.088233 31.294120 55.314511 0
M  V30 73 H 38.766147 27.683321 53.728120 0
M  V30 74 H 39.969817 30.545649 49.014784 0
M  V30 END ATOM
M  V30 BEGIN BOND
M  V30 1 2 3 2
M  V30 2 1 9 4
M  V30 3 1 9 8
M  V30 4 1 11 7
M  V30 5 1 14 13
M  V30 6 1 15 4
M  V30 7 1 16 10
M  V30 8 1 16 15
M  V30 9 1 17 11
M  V30 10 1 18 5
M  V30 11 1 18 10
M  V30 12 1 19 6
M  V30 13 1 20 12
M  V30 14 1 20 15
M  V30 15 1 20 19
M  V30 16 1 21 3
M  V30 17 1 22 3
M  V30 18 1 23 1
M  V30 19 2 23 18
M  V30 20 1 23 19
M  V30 21 1 25 24
M  V30 22 1 26 2
M  V30 23 1 27 11
M  V30 24 1 27 13
M  V30 25 1 28 9
M  V30 26 1 28 27
M  V30 27 2 29 1
M  V30 28 1 29 5
M  V30 29 1 30 7
M  V30 30 1 31 17
M  V30 31 2 31 22
M  V30 32 2 32 26
M  V30 33 1 32 31
M  V30 34 1 33 13
M  V30 35 1 33 24
M  V30 36 1 34 1
M  V30 37 1 35 2
M  V30 38 1 36 4
M  V30 39 1 37 4
M  V30 40 1 38 6
M  V30 41 1 39 6
M  V30 42 1 40 6
M  V30 43 1 41 7
M  V30 44 1 42 7
M  V30 45 1 43 8
M  V30 46 1 44 8
M  V30 47 1 45 8
M  V30 48 1 9 46 CFG=1
M  V30 49 1 47 10
M  V30 50 1 48 10
M  V30 51 1 11 49 CFG=1
M  V30 52 1 50 12
M  V30 53 1 13 51 CFG=1
M  V30 54 1 52 14
M  V30 55 1 53 14
M  V30 56 1 54 14
M  V30 57 1 15 55 CFG=3
M  V30 58 1 56 16
M  V30 59 1 57 17
M  V30 60 1 58 17
M  V30 61 1 19 59 CFG=3
M  V30 62 1 20 60 CFG=3
M  V30 63 1 61 22
M  V30 64 1 62 24
M  V30 65 1 63 24
M  V30 66 1 64 25
M  V30 67 1 65 25
M  V30 68 1 66 25
M  V30 69 1 67 26
M  V30 70 1 27 68 CFG=3
M  V30 71 1 69 5
M  V30 72 1 70 30
M  V30 73 1 71 30
M  V30 74 1 72 30
M  V30 75 1 73 32
M  V30 76 1 74 21
M  V30 END BOND
M  V30 END CTAB
M  END
>  <i_epik_Tot_Q>  (1) 
0

>  <i_epik_Tot_abs_Q>  (1) 
0

>  <i_i_glide_confnum>  (1) 
618

>  <i_i_glide_lignum>  (1) 
154

>  <i_i_glide_posenum>  (1) 
149

>  <i_i_glide_rotatable_bonds>  (1) 
13

>  <i_lp_mmshare_version>  (1) 
72125

>  <i_m_source_file_index>  (1) 
61

>  <i_f3d_flags>  (1) 
0

>  <num_sample>  (1) 
100

>  <b_lp_Chiralities_Consistent>  (1) 
1

>  <r_epik_Charging_Adjusted_Penalty>  (1) 
0.96999093632078437

>  <r_epik_Ionization_Penalty>  (1) 
0.47106789062039978

>  <r_epik_Ionization_Penalty_Charging>  (1) 
0

>  <r_epik_Ionization_Penalty_Neutral>  (1) 
0.47106789062039978

>  <r_epik_State_Penalty>  (1) 
0.96999093632078437

>  <r_glide_ring_energy>  (1) 
0

>  <r_i_docking_score>  (1) 
-5.4159260233897539

>  <r_i_glide_ecoul>  (1) 
1.3580782735420427

>  <r_i_glide_eff_state_penalty>  (1) 
0.96999093632078437

>  <r_i_glide_einternal>  (1) 
13.035216748307061

>  <r_i_glide_emodel>  (1) 
-48.114351134233651

>  <r_i_glide_emodel_strain>  (1) 
3.1806338664718155

>  <r_i_glide_energy>  (1) 
-38.020562864014323

>  <r_i_glide_erotb>  (1) 
0.85721886193159891

>  <r_i_glide_esite>  (1) 
0

>  <r_i_glide_evdw>  (1) 
-39.378641137556365

>  <r_i_glide_gscore>  (1) 
-6.3859169597105385

>  <r_i_glide_gscore_strain>  (1) 
0

>  <r_i_glide_hbond>  (1) 
0

>  <r_i_glide_ligand_efficiency>  (1) 
-0.16411897040575013

>  <r_i_glide_ligand_efficiency_ln>  (1) 
-1.2044739054377165

>  <r_i_glide_ligand_efficiency_sa>  (1) 
-0.52641723178001265

>  <r_i_glide_lipo>  (1) 
-4.6052088375538025

>  <r_i_glide_metal>  (1) 
-0

>  <r_i_glide_rewards>  (1) 
-0.87270666824182208

>  <r_lp_Energy>  (1) 
22.684680999999998

>  <r_lp_tautomer_probability>  (1) 
0.49999999999868239

>  <s_epik_cmdline>  (1) 
J2VwaWtfcHl0aG9uJywgJy1waHQnLCAnMS4wJywgJy1waCcsICc3LjQnLCAnLXRuJywgJzgnLCAnLW1hJywgJzUwMCcsICctaW1hZScsICc8aW5maWxlLm1hZT4nLCAnLW9tYWUnLCAnPG91dGZpbGUubWFlPic=

>  <s_epik_input>  (1) 
bjFbbkhdW2NIXWMoYzEyKVtDQEBIXShbQ0gzXSlbQ0BASF0oW09IXSlbQ0BIXShbTkhdW0NIMl0yKVtDSDJdW0NASF0oW0NIM10pT1tDQEBIXShbQ0BIXShbQ0gzXSlPW0NIMl1bQ0gzXSlbQ0BASF0oW0NIMl1bQ0gzXSlbQ0gyXUMoPVtDSF0zKVtDSDJdW0NIXT1bQ0hdQzM9Tw==

>  <s_glide_docking_method>  (1) 
confgen

>  <s_i_glide_gridfile>  (1) 
gpcr_5ht2c_6bqh_protein_autoprepared_prepared

>  <s_lp_Force_Field>  (1) 
S-OPLS

>  <s_lp_Variant>  (1) 
DiffSBDD_60_num_sample_100-3

>  <s_m_source_file>  (1) 
generated__ligand_DiffSBDD_2026-05-06_prepared.sdf

>  <GenAI_Model>  (1) 
DiffSBDD

>  <Protein>  (1) 
GPCR_5HT2C

$$$$
DiffSBDD_90_num_sample_100
     RDKit          3D

  0  0  0  0  0  0  0  0  0  0999 V3000
M  V30 BEGIN CTAB
M  V30 COUNTS 84 87 0 0 1
M  V30 BEGIN ATOM
M  V30 1 C 39.229777 26.219109 56.175126 0
M  V30 2 O 42.167266 26.800202 66.341235 0
M  V30 3 F 39.182571 29.997475 50.870274 0
M  V30 4 C 38.083605 31.358590 57.080757 0 CFG=1
M  V30 5 C 41.034119 29.876182 64.516113 0 CFG=2
M  V30 6 C 40.954445 28.439617 62.484562 0 CFG=1
M  V30 7 C 35.862896 31.097195 59.500174 0
M  V30 8 C 40.502465 27.651036 60.114326 0
M  V30 9 C 38.066579 31.777149 58.615661 0
M  V30 10 N 41.336254 27.977058 66.166459 0
M  V30 11 C 38.891415 28.254444 52.406594 0
M  V30 12 C 38.727415 30.753031 59.573460 0
M  V30 13 C 40.601136 29.838977 63.019723 0
M  V30 14 C 40.956767 27.547749 63.731986 0
M  V30 15 O 42.791108 30.749318 65.890870 0
M  V30 16 N 39.383309 27.619333 56.545971 0
M  V30 17 C 40.048819 28.024425 61.326784 0
M  V30 18 F 40.924696 28.875133 51.453481 0
M  V30 19 C 38.869864 30.967487 53.776923 0 CFG=1
M  V30 20 N 39.351093 28.582622 55.556006 0
M  V30 21 C 37.598761 28.821411 53.004399 0
M  V30 22 C 40.244460 27.872166 57.680528 0
M  V30 23 O 36.748488 32.110905 59.053533 0
M  V30 24 C 38.682540 33.177947 58.860622 0
M  V30 25 C 38.598124 25.473187 57.349248 0
M  V30 26 C 40.080982 30.421481 52.996852 0
M  V30 27 C 39.608380 27.277633 58.932573 0 CFG=1
M  V30 28 C 41.561554 28.445109 64.803373 0 CFG=1
M  V30 29 C 39.429265 31.552433 56.389761 0
M  V30 30 O 42.232541 31.905742 64.069751 0 CHG=-1
M  V30 31 C 38.022425 29.186951 55.473321 0 CFG=1
M  V30 32 C 39.330950 25.774050 58.669455 0
M  V30 33 O 39.867408 30.129835 65.288723 0
M  V30 34 C 37.522891 29.942212 56.751666 0
M  V30 35 C 37.798360 29.893121 54.132623 0 CFG=1
M  V30 36 C 39.363475 31.908270 54.902775 0
M  V30 37 C 39.777873 29.390666 51.896466 0
M  V30 38 C 42.113069 30.937184 64.854106 0
M  V30 39 H 38.588399 26.135649 55.296312 0
M  V30 40 H 40.204417 25.802255 55.918854 0
M  V30 41 H 43.038660 27.148686 66.214520 0
M  V30 42 H 37.467412 32.094689 56.574883 0
M  V30 43 H 41.979364 28.472531 62.121017 0
M  V30 44 H 34.870295 31.540016 59.587006 0
M  V30 45 H 35.791661 30.255176 58.815737 0
M  V30 46 H 36.142955 30.730506 60.487369 0
M  V30 47 H 41.569240 27.621439 59.936988 0
M  V30 48 H 41.708961 28.634711 66.841728 0
M  V30 49 H 38.646379 27.581845 51.582700 0
M  V30 50 H 39.430035 27.647276 53.130962 0
M  V30 51 H 39.703730 30.421479 59.230736 0
M  V30 52 H 38.855560 31.171025 60.571517 0
M  V30 53 H 38.132387 29.851262 59.691853 0
M  V30 54 H 41.066714 30.601497 62.395604 0
M  V30 55 H 39.525661 30.007615 62.933845 0
M  V30 56 H 41.561294 26.654822 63.623448 0
M  V30 57 H 39.959705 27.221463 64.015242 0
M  V30 58 H 38.987355 28.051536 61.512897 0
M  V30 59 H 38.413612 31.665387 53.082537 0
M  V30 60 H 39.592522 28.146736 54.669551 0
M  V30 61 H 37.067411 29.221419 52.153277 0
M  V30 62 H 36.967531 28.001855 53.349799 0
M  V30 63 H 40.383529 28.943576 57.803568 0
M  V30 64 H 41.228479 27.441523 57.489224 0
M  V30 65 H 39.765446 33.221444 58.774188 0
M  V30 66 H 38.265169 33.909995 58.169098 0
M  V30 67 H 38.460014 33.533328 59.867583 0
M  V30 68 H 37.554852 25.777089 57.443215 0
M  V30 69 H 38.591671 24.399737 57.156923 0
M  V30 70 H 40.636014 31.241252 52.542059 0
M  V30 71 H 40.739420 30.021436 53.751045 0
M  V30 72 H 38.640255 27.750232 59.093786 0
M  V30 73 H 42.639856 28.455578 64.628405 0
M  V30 74 H 39.894995 32.432912 56.807049 0
M  V30 75 H 40.111867 30.736866 56.592696 0
M  V30 76 H 37.362391 28.326698 55.431025 0
M  V30 77 H 40.267534 25.221438 58.653537 0
M  V30 78 H 38.667423 25.397691 59.449236 0
M  V30 79 H 39.247478 29.433581 65.097933 0
M  V30 80 H 36.442293 30.021427 56.665031 0
M  V30 81 H 37.664499 29.283794 57.602999 0
M  V30 82 H 36.848140 30.416426 54.253503 0
M  V30 83 H 38.885430 32.881329 54.796740 0
M  V30 84 H 40.416179 32.021426 54.697637 0
M  V30 END ATOM
M  V30 BEGIN BOND
M  V30 1 1 9 4
M  V30 2 1 10 2
M  V30 3 1 12 9
M  V30 4 1 13 5
M  V30 5 1 13 6
M  V30 6 1 14 6
M  V30 7 1 16 1
M  V30 8 1 17 6
M  V30 9 2 17 8
M  V30 10 1 20 16
M  V30 11 1 21 11
M  V30 12 1 22 16
M  V30 13 1 23 7
M  V30 14 1 23 9
M  V30 15 1 24 9
M  V30 16 1 25 1
M  V30 17 1 26 19
M  V30 18 1 27 8
M  V30 19 1 27 22
M  V30 20 1 28 5
M  V30 21 1 28 10
M  V30 22 1 28 14
M  V30 23 1 29 4
M  V30 24 1 31 20
M  V30 25 1 32 25
M  V30 26 1 32 27
M  V30 27 1 5 33 CFG=1
M  V30 28 1 34 4
M  V30 29 1 34 31
M  V30 30 1 35 19
M  V30 31 1 35 21
M  V30 32 1 35 31
M  V30 33 1 36 19
M  V30 34 1 36 29
M  V30 35 1 37 3
M  V30 36 1 37 11
M  V30 37 1 37 18
M  V30 38 1 37 26
M  V30 39 1 38 5
M  V30 40 2 38 15
M  V30 41 1 38 30
M  V30 42 1 39 1
M  V30 43 1 40 1
M  V30 44 1 41 2
M  V30 45 1 4 42 CFG=3
M  V30 46 1 6 43 CFG=3
M  V30 47 1 44 7
M  V30 48 1 45 7
M  V30 49 1 46 7
M  V30 50 1 47 8
M  V30 51 1 48 10
M  V30 52 1 49 11
M  V30 53 1 50 11
M  V30 54 1 51 12
M  V30 55 1 52 12
M  V30 56 1 53 12
M  V30 57 1 54 13
M  V30 58 1 55 13
M  V30 59 1 56 14
M  V30 60 1 57 14
M  V30 61 1 58 17
M  V30 62 1 19 59 CFG=3
M  V30 63 1 60 20
M  V30 64 1 61 21
M  V30 65 1 62 21
M  V30 66 1 63 22
M  V30 67 1 64 22
M  V30 68 1 65 24
M  V30 69 1 66 24
M  V30 70 1 67 24
M  V30 71 1 68 25
M  V30 72 1 69 25
M  V30 73 1 70 26
M  V30 74 1 71 26
M  V30 75 1 27 72 CFG=1
M  V30 76 1 28 73 CFG=3
M  V30 77 1 74 29
M  V30 78 1 75 29
M  V30 79 1 31 76 CFG=3
M  V30 80 1 77 32
M  V30 81 1 78 32
M  V30 82 1 79 33
M  V30 83 1 80 34
M  V30 84 1 81 34
M  V30 85 1 35 82 CFG=1
M  V30 86 1 83 36
M  V30 87 1 84 36
M  V30 END BOND
M  V30 END CTAB
M  END
>  <i_epik_Tot_Q>  (1) 
-1

>  <i_epik_Tot_abs_Q>  (1) 
1

>  <i_i_glide_confnum>  (1) 
1473

>  <i_i_glide_lignum>  (1) 
232

>  <i_i_glide_posenum>  (1) 
62

>  <i_i_glide_rotatable_bonds>  (1) 
10

>  <i_lp_mmshare_version>  (1) 
72125

>  <i_m_source_file_index>  (1) 
91

>  <i_f3d_flags>  (1) 
0

>  <num_sample>  (1) 
100

>  <b_lp_Chiralities_Consistent>  (1) 
1

>  <r_epik_Charging_Adjusted_Penalty>  (1) 
0.43821527866000726

>  <r_epik_Ionization_Penalty>  (1) 
0.52002734918543769

>  <r_epik_Ionization_Penalty_Charging>  (1) 
0.00012691742049533285

>  <r_epik_Ionization_Penalty_Neutral>  (1) 
0.51990043176494238

>  <r_epik_State_Penalty>  (1) 
0.43808836123951195

>  <r_glide_ring_energy>  (1) 
0

>  <r_i_docking_score>  (1) 
-5.4144060881171816

>  <r_i_glide_ecoul>  (1) 
-2.090113624566964

>  <r_i_glide_eff_state_penalty>  (1) 
0.43808836123951195

>  <r_i_glide_einternal>  (1) 
2.4518726706573446

>  <r_i_glide_emodel>  (1) 
-25.773019703008178

>  <r_i_glide_emodel_strain>  (1) 
6.0454016760017311

>  <r_i_glide_energy>  (1) 
-28.781266640581755

>  <r_i_glide_erotb>  (1) 
0.42146348941000378

>  <r_i_glide_esite>  (1) 
0

>  <r_i_glide_evdw>  (1) 
-26.691153016014791

>  <r_i_glide_gscore>  (1) 
-5.8524944493566933

>  <r_i_glide_gscore_strain>  (1) 
0.51135041900043277

>  <r_i_glide_hbond>  (1) 
-0.32000000000000001

>  <r_i_glide_ligand_efficiency>  (1) 
-0.14248437073992584

>  <r_i_glide_ligand_efficiency_ln>  (1) 
-1.1675052282881204

>  <r_i_glide_ligand_efficiency_sa>  (1) 
-0.47902895028085657

>  <r_i_glide_lipo>  (1) 
-3.4887797593453658

>  <r_i_glide_metal>  (1) 
-0

>  <r_i_glide_rewards>  (1) 
-1.3284539039359793

>  <r_lp_Energy>  (1) 
49.927557999999998

>  <s_epik_Chemistry_Notes>  (1) 
This compound has a N-S or N-O group and may undergo hydrolysis at high or low pH.

>  <s_epik_cmdline>  (1) 
J2VwaWtfcHl0aG9uJywgJy1waHQnLCAnMS4wJywgJy1waCcsICc3LjQnLCAnLXRuJywgJzgnLCAnLW1hJywgJzUwMCcsICctaW1hZScsICc8aW5maWxlLm1hZT4nLCAnLW9tYWUnLCAnPG91dGZpbGUubWFlPic=

>  <s_epik_input>  (1) 
RkMoRikoW0NIMl0xKVtDSDJdW0NIMl1bQ0BIXShbQ0BASF0xMilbQ0BIXShbQ0gyXVtDQEhdKFtDSDJdW0NIMl0yKUMoW0NIM10pKFtDSDNdKU9bQ0gzXSlbTkhdTjNbQ0gyXVtDSDJdW0NIMl1bQ0BIXShbQ0gyXTMpL1tDSF09W0NIXS9bQ0BASF0oW0NIMl1bQ0BdNChbT0hdKUMoPU8pW09IXSlbQ0gyXVtDQEBIXTRbTkhdW09IXQ==

>  <s_glide_docking_method>  (1) 
confgen

>  <s_i_glide_gridfile>  (1) 
gpcr_5ht2c_6bqh_protein_autoprepared_prepared

>  <s_lp_Force_Field>  (1) 
S-OPLS

>  <s_lp_Variant>  (1) 
DiffSBDD_90_num_sample_100-4

>  <s_m_source_file>  (1) 
generated__ligand_DiffSBDD_2026-05-06_prepared.sdf

>  <GenAI_Model>  (1) 
DiffSBDD

>  <Protein>  (1) 
GPCR_5HT2C

$$$$
DiffSBDD_37_num_sample_100
     RDKit          3D

  0  0  0  0  0  0  0  0  0  0999 V3000
M  V30 BEGIN CTAB
M  V30 COUNTS 23 23 0 0 1
M  V30 BEGIN ATOM
M  V30 1 C 38.039877 32.214609 58.494996 0 CFG=2
M  V30 2 O 37.067711 33.220753 58.254839 0
M  V30 3 C 38.440711 31.403103 57.258522 0 CFG=2
M  V30 4 C 38.057272 31.652915 59.904789 0 CFG=2
M  V30 5 O 36.246865 31.621314 61.453481 0 CHG=-1
M  V30 6 N 37.870796 33.221574 55.603945 0 CHG=1
M  V30 7 C 38.872108 32.225056 56.024835 0
M  V30 8 C 38.561066 30.262759 60.259238 0
M  V30 9 O 37.467410 30.426909 56.933770 0
M  V30 10 C 37.221374 32.284078 61.033988 0
M  V30 11 O 39.065375 32.570874 59.426651 0
M  V30 12 O 37.576682 33.407495 61.453488 0
M  V30 13 H 36.245847 32.774910 58.047076 0
M  V30 14 H 39.314437 30.815351 57.540085 0
M  V30 15 H 38.164471 33.709067 54.773120 0
M  V30 16 H 36.944021 32.821202 55.453309 0
M  V30 17 H 39.794719 32.760524 56.252905 0
M  V30 18 H 39.094998 31.562046 55.188116 0
M  V30 19 H 37.857938 29.513282 59.895844 0
M  V30 20 H 39.532809 30.078039 59.802744 0
M  V30 21 H 38.668351 30.142670 61.338460 0
M  V30 22 H 36.600544 30.854261 56.937305 0
M  V30 23 H 37.756421 33.877738 56.367496 0
M  V30 END ATOM
M  V30 BEGIN BOND
M  V30 1 1 1 2 CFG=3
M  V30 2 1 3 1
M  V30 3 1 4 1
M  V30 4 1 7 3
M  V30 5 1 7 6
M  V30 6 1 4 8 CFG=3
M  V30 7 1 9 3
M  V30 8 1 10 4
M  V30 9 1 10 5
M  V30 10 1 11 1
M  V30 11 1 11 4
M  V30 12 2 12 10
M  V30 13 1 13 2
M  V30 14 1 3 14 CFG=1
M  V30 15 1 15 6
M  V30 16 1 16 6
M  V30 17 1 17 7
M  V30 18 1 18 7
M  V30 19 1 19 8
M  V30 20 1 20 8
M  V30 21 1 21 8
M  V30 22 1 22 9
M  V30 23 1 23 6
M  V30 END BOND
M  V30 END CTAB
M  END
>  <i_epik_Tot_Q>  (1) 
0

>  <i_epik_Tot_abs_Q>  (1) 
2

>  <i_i_glide_confnum>  (1) 
1

>  <i_i_glide_lignum>  (1) 
91

>  <i_i_glide_posenum>  (1) 
302

>  <i_i_glide_rotatable_bonds>  (1) 
5

>  <i_lp_mmshare_version>  (1) 
72125

>  <i_m_source_file_index>  (1) 
38

>  <i_f3d_flags>  (1) 
0

>  <num_sample>  (1) 
100

>  <b_lp_Chiralities_Consistent>  (1) 
1

>  <r_epik_Charging_Adjusted_Penalty>  (1) 
0.074826181312878909

>  <r_epik_Ionization_Penalty>  (1) 
0.037455731975657096

>  <r_epik_Ionization_Penalty_Charging>  (1) 
0.037420022134994256

>  <r_epik_Ionization_Penalty_Neutral>  (1) 
3.5709840662840338e-05

>  <r_epik_State_Penalty>  (1) 
0.03740615917788466

>  <r_glide_ring_energy>  (1) 
0

>  <r_i_docking_score>  (1) 
-5.4115412422411282

>  <r_i_glide_ecoul>  (1) 
-14.997772216661685

>  <r_i_glide_eff_state_penalty>  (1) 
0.03740615917788466

>  <r_i_glide_einternal>  (1) 
4.4531803242363921

>  <r_i_glide_emodel>  (1) 
-37.880621189218914

>  <r_i_glide_emodel_strain>  (1) 
0.66532052973491496

>  <r_i_glide_energy>  (1) 
-25.16306745830677

>  <r_i_glide_erotb>  (1) 
0.49897273093522621

>  <r_i_glide_esite>  (1) 
-0.17750086656324207

>  <r_i_glide_evdw>  (1) 
-10.165295241645087

>  <r_i_glide_gscore>  (1) 
-5.4489474014190131

>  <r_i_glide_gscore_strain>  (1) 
0

>  <r_i_glide_hbond>  (1) 
-0.63188034515667457

>  <r_i_glide_ligand_efficiency>  (1) 
-0.4509617701867607

>  <r_i_glide_ligand_efficiency_ln>  (1) 
-1.5528511337801063

>  <r_i_glide_ligand_efficiency_sa>  (1) 
-1.0324447223596951

>  <r_i_glide_lipo>  (1) 
-0.11769737862489875

>  <r_i_glide_metal>  (1) 
-0

>  <r_i_glide_rewards>  (1) 
-2.2629109474279168

>  <r_lp_Energy>  (1) 
9.471366999999999

>  <s_epik_cmdline>  (1) 
J2VwaWtfcHl0aG9uJywgJy1waHQnLCAnMS4wJywgJy1waCcsICc3LjQnLCAnLXRuJywgJzgnLCAnLW1hJywgJzUwMCcsICctaW1hZScsICc8aW5maWxlLm1hZT4nLCAnLW9tYWUnLCAnPG91dGZpbGUubWFlPic=

>  <s_epik_input>  (1) 
W05IMl1bQ0gyXVtDQEhdKFtPSF0pW0NAQF0xKFtPSF0pW0NAXShPMSkoW0NIM10pQyg9TylbT0hd

>  <s_glide_docking_method>  (1) 
confgen

>  <s_i_glide_gridfile>  (1) 
gpcr_5ht2c_6bqh_protein_autoprepared_prepared

>  <s_lp_Force_Field>  (1) 
S-OPLS

>  <s_lp_Variant>  (1) 
DiffSBDD_37_num_sample_100-1

>  <s_m_source_file>  (1) 
generated__ligand_DiffSBDD_2026-05-06_prepared.sdf

>  <GenAI_Model>  (1) 
DiffSBDD

>  <Protein>  (1) 
GPCR_5HT2C

$$$$
DiffSBDD_25_num_sample_100
     RDKit          3D

  0  0  0  0  0  0  0  0  0  0999 V3000
M  V30 BEGIN CTAB
M  V30 COUNTS 57 59 0 0 1
M  V30 BEGIN ATOM
M  V30 1 C 40.311350 30.557154 64.665627 0
M  V30 2 C 40.285333 33.450261 62.138532 0
M  V30 3 C 41.696868 33.058826 64.187533 0
M  V30 4 C 38.021694 31.010915 56.063806 0
M  V30 5 C 39.316241 33.193807 56.213650 0
M  V30 6 C 38.524536 34.063585 55.577819 0
M  V30 7 C 37.399072 31.435067 60.640317 0 CFG=2
M  V30 8 N 41.151796 32.566673 68.690829 0
M  V30 9 O 38.874057 33.830532 60.221206 0
M  V30 10 C 39.231951 33.051623 61.287472 0
M  V30 11 C 38.292398 29.457155 53.964151 0
M  V30 12 C 42.361206 31.815973 68.400736 0 CFG=2
M  V30 13 C 38.243664 32.449772 58.354864 0 CFG=2
M  V30 14 O 37.192705 28.975380 54.304217 0
M  V30 15 O 39.334888 33.161740 58.965112 0
M  V30 16 C 41.062861 31.264980 65.797829 0
M  V30 17 O 38.991789 29.073047 52.997034 0 CHG=-1
M  V30 18 C 43.028665 32.958176 66.197042 0
M  V30 19 C 38.539863 31.852771 61.538749 0
M  V30 20 N 43.592748 31.251861 70.659917 0
M  V30 21 O 37.076008 33.239122 58.204338 0
M  V30 22 C 38.900078 31.045087 62.628537 0
M  V30 23 C 43.056929 31.503042 69.665923 0
M  V30 24 C 38.843337 30.626582 54.794260 0
M  V30 25 C 41.922958 32.453929 65.371348 0
M  V30 26 O 40.956033 34.618185 61.896999 0
M  V30 27 C 37.840096 31.212915 59.182242 0
M  V30 28 O 36.293471 32.309112 60.746681 0
M  V30 29 C 43.250767 32.674580 67.508638 0
M  V30 30 C 40.634464 32.644876 63.259136 0
M  V30 31 C 39.937953 31.436936 63.489969 0
M  V30 32 C 38.811104 31.999629 56.969394 0 CFG=1
M  V30 33 F 44.334243 33.215039 68.068747 0
M  V30 34 H 39.432298 30.064330 65.082183 0
M  V30 35 H 40.937460 29.746597 64.293738 0
M  V30 36 H 42.306913 33.899876 63.893720 0
M  V30 37 H 37.069781 31.422386 55.744020 0
M  V30 38 H 37.782872 30.106221 56.623441 0
M  V30 39 H 40.381746 33.328195 56.209548 0
M  V30 40 H 37.461641 33.939434 55.579034 0
M  V30 41 H 38.928767 34.913169 55.053523 0
M  V30 42 H 37.046738 30.473192 61.001863 0
M  V30 43 H 41.391138 33.402790 69.207689 0
M  V30 44 H 40.737176 32.869201 67.823322 0
M  V30 45 H 42.152496 30.820040 68.028568 0
M  V30 46 H 40.313019 31.596896 66.511986 0
M  V30 47 H 41.664329 30.472826 66.230366 0
M  V30 48 H 43.734223 33.619834 65.720230 0
M  V30 49 H 36.487984 32.821543 57.570034 0
M  V30 50 H 38.372816 30.122314 62.812577 0
M  V30 51 H 38.917806 31.482194 54.118534 0
M  V30 52 H 39.859344 30.346085 55.076976 0
M  V30 53 H 41.488288 34.891366 62.626251 0
M  V30 54 H 38.670307 30.504114 59.167345 0
M  V30 55 H 37.013740 30.713641 58.676217 0
M  V30 56 H 36.457281 33.039010 60.152895 0
M  V30 57 H 39.726012 31.441113 57.173039 0
M  V30 END ATOM
M  V30 BEGIN BOND
M  V30 1 2 6 5
M  V30 2 1 10 2
M  V30 3 1 10 9
M  V30 4 1 12 8
M  V30 5 2 14 11
M  V30 6 1 15 9
M  V30 7 1 15 13
M  V30 8 1 16 1
M  V30 9 1 17 11
M  V30 10 1 19 7
M  V30 11 2 19 10
M  V30 12 1 13 21 CFG=3
M  V30 13 1 22 19
M  V30 14 1 23 12
M  V30 15 3 23 20
M  V30 16 1 24 4
M  V30 17 1 24 11
M  V30 18 2 25 3
M  V30 19 1 25 16
M  V30 20 1 25 18
M  V30 21 1 26 2
M  V30 22 1 27 7
M  V30 23 1 27 13
M  V30 24 1 28 7
M  V30 25 1 29 12
M  V30 26 2 29 18
M  V30 27 2 30 2
M  V30 28 1 30 3
M  V30 29 1 31 1
M  V30 30 2 31 22
M  V30 31 1 31 30
M  V30 32 1 32 4
M  V30 33 1 32 5
M  V30 34 1 32 13
M  V30 35 1 33 29
M  V30 36 1 34 1
M  V30 37 1 35 1
M  V30 38 1 36 3
M  V30 39 1 37 4
M  V30 40 1 38 4
M  V30 41 1 39 5
M  V30 42 1 40 6
M  V30 43 1 41 6
M  V30 44 1 7 42 CFG=1
M  V30 45 1 43 8
M  V30 46 1 44 8
M  V30 47 1 12 45 CFG=3
M  V30 48 1 46 16
M  V30 49 1 47 16
M  V30 50 1 48 18
M  V30 51 1 49 21
M  V30 52 1 50 22
M  V30 53 1 51 24
M  V30 54 1 52 24
M  V30 55 1 53 26
M  V30 56 1 54 27
M  V30 57 1 55 27
M  V30 58 1 56 28
M  V30 59 1 32 57 CFG=1
M  V30 END BOND
M  V30 END CTAB
M  END
>  <i_epik_Tot_Q>  (1) 
-1

>  <i_epik_Tot_abs_Q>  (1) 
1

>  <i_i_glide_confnum>  (1) 
7

>  <i_i_glide_lignum>  (1) 
66

>  <i_i_glide_posenum>  (1) 
357

>  <i_i_glide_rotatable_bonds>  (1) 
10

>  <i_lp_mmshare_version>  (1) 
72125

>  <i_m_source_file_index>  (1) 
26

>  <i_f3d_flags>  (1) 
0

>  <num_sample>  (1) 
100

>  <b_lp_Chiralities_Consistent>  (1) 
1

>  <r_epik_Charging_Adjusted_Penalty>  (1) 
0.0056011124489286045

>  <r_epik_Ionization_Penalty>  (1) 
0.0056278004124673013

>  <r_epik_Ionization_Penalty_Charging>  (1) 
0.0010502183284910153

>  <r_epik_Ionization_Penalty_Neutral>  (1) 
0.0045775820839762862

>  <r_epik_State_Penalty>  (1) 
0.0045508941204375894

>  <r_glide_ring_energy>  (1) 
0

>  <r_i_docking_score>  (1) 
-5.4098646425503825

>  <r_i_glide_ecoul>  (1) 
-6.5902270643183947

>  <r_i_glide_eff_state_penalty>  (1) 
0.0045508941204375894

>  <r_i_glide_einternal>  (1) 
9.3060431760649998

>  <r_i_glide_emodel>  (1) 
-35.482771231737424

>  <r_i_glide_emodel_strain>  (1) 
2.6484784085644577

>  <r_i_glide_energy>  (1) 
-33.331026665698126

>  <r_i_glide_erotb>  (1) 
0.57188489385704211

>  <r_i_glide_esite>  (1) 
-0.061454797103803652

>  <r_i_glide_evdw>  (1) 
-26.740799601379731

>  <r_i_glide_gscore>  (1) 
-5.4144155366708198

>  <r_i_glide_gscore_strain>  (1) 
0

>  <r_i_glide_hbond>  (1) 
-0.16

>  <r_i_glide_ligand_efficiency>  (1) 
-0.16393529219849645

>  <r_i_glide_ligand_efficiency_ln>  (1) 
-1.2031258857231906

>  <r_i_glide_ligand_efficiency_sa>  (1) 
-0.5258280776245744

>  <r_i_glide_lipo>  (1) 
-2.2248518456157247

>  <r_i_glide_metal>  (1) 
-0

>  <r_i_glide_rewards>  (1) 
-1.2144197480915886

>  <r_lp_Energy>  (1) 
30.738761

>  <s_epik_cmdline>  (1) 
J2VwaWtfcHl0aG9uJywgJy1waHQnLCAnMS4wJywgJy1waCcsICc3LjQnLCAnLXRuJywgJzgnLCAnLW1hJywgJzUwMCcsICctaW1hZScsICc8aW5maWxlLm1hZT4nLCAnLW9tYWUnLCAnPG91dGZpbGUubWFlPic=

>  <s_epik_input>  (1) 
TiNDW0NAQEhdKFtOSDJdKS9DKEYpPVtDSF1cQyhbQ0gyXVtDSDJdMSk9W0NIXWMoYzJbT0hdKWMxW2NIXWMoYzIzKVtDQEBIXShbT0hdKVtDSDJdW0NAXShPTzMpKFtPSF0pW0NASF0oW0NIXT1bQ0gyXSlbQ0gyXVtDSDJdQyg9TylbT0hd

>  <s_glide_docking_method>  (1) 
confgen

>  <s_i_glide_gridfile>  (1) 
gpcr_5ht2c_6bqh_protein_autoprepared_prepared

>  <s_lp_Force_Field>  (1) 
S-OPLS

>  <s_lp_Variant>  (1) 
DiffSBDD_25_num_sample_100-2

>  <s_m_source_file>  (1) 
generated__ligand_DiffSBDD_2026-05-06_prepared.sdf

>  <GenAI_Model>  (1) 
DiffSBDD

>  <Protein>  (1) 
GPCR_5HT2C

$$$$
DiffSBDD_52_num_sample_100
     RDKit          3D

  0  0  0  0  0  0  0  0  0  0999 V3000
M  V30 BEGIN CTAB
M  V30 COUNTS 25 25 0 0 1
M  V30 BEGIN ATOM
M  V30 1 C 38.191602 29.712545 54.306834 0 CFG=1
M  V30 2 O 38.577718 28.816557 56.515737 0
M  V30 3 C 38.528172 31.211479 56.463193 0 CFG=2
M  V30 4 S 39.852662 29.550111 52.084727 0
M  V30 5 C 38.417996 28.472589 52.051838 0 CFG=2
M  V30 6 S 37.770535 28.066757 53.681413 0
M  V30 7 O 37.467443 32.571161 54.670823 0
M  V30 8 C 37.967837 29.899311 55.830629 0 CFG=1
M  V30 9 O 37.864891 31.432033 57.684652 0
M  V30 10 C 38.461413 32.548045 55.680054 0
M  V30 11 N 38.798853 27.252030 51.394716 0
M  V30 12 C 39.600202 30.067443 53.805322 0
M  V30 13 H 37.486313 30.355680 53.795608 0
M  V30 14 H 38.471935 28.949543 57.446843 0
M  V30 15 H 39.574470 31.047865 56.715517 0
M  V30 16 H 37.639372 28.976810 51.482032 0
M  V30 17 H 36.608099 32.821425 55.051759 0
M  V30 18 H 36.895226 29.842017 56.020055 0
M  V30 19 H 36.947111 31.620242 57.475196 0
M  V30 20 H 39.416064 32.697144 55.178622 0
M  V30 21 H 38.381752 33.411367 56.350004 0
M  V30 22 H 37.968385 26.678967 51.326310 0
M  V30 23 H 39.090202 27.473986 50.453855 0
M  V30 24 H 39.790671 31.132621 53.830120 0
M  V30 25 H 40.335627 29.616747 54.457440 0
M  V30 END ATOM
M  V30 BEGIN BOND
M  V30 1 1 5 4
M  V30 2 1 6 1
M  V30 3 1 6 5
M  V30 4 1 8 1
M  V30 5 1 8 2
M  V30 6 1 8 3
M  V30 7 1 9 3
M  V30 8 1 10 3
M  V30 9 1 10 7
M  V30 10 1 11 5
M  V30 11 1 12 1
M  V30 12 1 12 4
M  V30 13 1 1 13 CFG=3
M  V30 14 1 14 2
M  V30 15 1 3 15 CFG=1
M  V30 16 1 5 16 CFG=3
M  V30 17 1 17 7
M  V30 18 1 8 18 CFG=3
M  V30 19 1 19 9
M  V30 20 1 20 10
M  V30 21 1 21 10
M  V30 22 1 22 11
M  V30 23 1 23 11
M  V30 24 1 24 12
M  V30 25 1 25 12
M  V30 END BOND
M  V30 END CTAB
M  END
>  <i_epik_Tot_Q>  (1) 
0

>  <i_epik_Tot_abs_Q>  (1) 
0

>  <i_i_glide_confnum>  (1) 
13

>  <i_i_glide_lignum>  (1) 
139

>  <i_i_glide_posenum>  (1) 
154

>  <i_i_glide_rotatable_bonds>  (1) 
6

>  <i_lp_mmshare_version>  (1) 
72125

>  <i_m_source_file_index>  (1) 
53

>  <i_f3d_flags>  (1) 
0

>  <num_sample>  (1) 
100

>  <b_lp_Chiralities_Consistent>  (1) 
1

>  <r_epik_Charging_Adjusted_Penalty>  (1) 
0.012458627256782779

>  <r_epik_Ionization_Penalty>  (1) 
0.012459545935989014

>  <r_epik_Ionization_Penalty_Charging>  (1) 
0

>  <r_epik_Ionization_Penalty_Neutral>  (1) 
0.012459545935989014

>  <r_epik_State_Penalty>  (1) 
0.012458627256782779

>  <r_glide_ring_energy>  (1) 
0

>  <r_i_docking_score>  (1) 
-5.4088846760629075

>  <r_i_glide_ecoul>  (1) 
-11.23852702821177

>  <r_i_glide_eff_state_penalty>  (1) 
0.012458627256782779

>  <r_i_glide_einternal>  (1) 
12.574843457062361

>  <r_i_glide_emodel>  (1) 
-32.525496205084536

>  <r_i_glide_emodel_strain>  (1) 
1.5332122828097603

>  <r_i_glide_energy>  (1) 
-28.005041464113642

>  <r_i_glide_erotb>  (1) 
1.1173698675060917

>  <r_i_glide_esite>  (1) 
0

>  <r_i_glide_evdw>  (1) 
-16.766514435901872

>  <r_i_glide_gscore>  (1) 
-5.4213433033196905

>  <r_i_glide_gscore_strain>  (1) 
0

>  <r_i_glide_hbond>  (1) 
-0.44978938964592358

>  <r_i_glide_ligand_efficiency>  (1) 
-0.45074038967190894

>  <r_i_glide_ligand_efficiency_ln>  (1) 
-1.5520888275133424

>  <r_i_glide_ligand_efficiency_sa>  (1) 
-1.0319378875029459

>  <r_i_glide_lipo>  (1) 
-1.4186489489804226

>  <r_i_glide_metal>  (1) 
-0

>  <r_i_glide_rewards>  (1) 
-2.1461700561725765

>  <r_lp_Energy>  (1) 
-2.6088819999999999

>  <s_epik_Chemistry_Notes>  (1) 
This compound contains an acetal/aminal-like group ( X-CH(R)-Y where X, Y are N, S, or O) that may be acid/base labile, releasing an aldehyde.

>  <s_epik_cmdline>  (1) 
J2VwaWtfcHl0aG9uJywgJy1waHQnLCAnMS4wJywgJy1waCcsICc3LjQnLCAnLXRuJywgJzgnLCAnLW1hJywgJzUwMCcsICctaW1hZScsICc8aW5maWxlLm1hZT4nLCAnLW9tYWUnLCAnPG91dGZpbGUubWFlPic=

>  <s_epik_input>  (1) 
W0NIMl0xU1tDQEhdKFtOSDJdKVNbQ0BIXTFbQ0BASF0oW09IXSlbQ0BIXShbT0hdKVtDSDJdW09IXQ==

>  <s_glide_docking_method>  (1) 
confgen

>  <s_i_glide_gridfile>  (1) 
gpcr_5ht2c_6bqh_protein_autoprepared_prepared

>  <s_lp_Force_Field>  (1) 
S-OPLS

>  <s_lp_Variant>  (1) 
DiffSBDD_52_num_sample_100-2

>  <s_m_source_file>  (1) 
generated__ligand_DiffSBDD_2026-05-06_prepared.sdf

>  <GenAI_Model>  (1) 
DiffSBDD

>  <Protein>  (1) 
GPCR_5HT2C

$$$$
DiffSBDD_83_num_sample_100
     RDKit          3D

  0  0  0  0  0  0  0  0  0  0999 V3000
M  V30 BEGIN CTAB
M  V30 COUNTS 66 69 0 0 1
M  V30 BEGIN ATOM
M  V30 1 C 40.067517 26.424456 56.719186 0
M  V30 2 C 39.766297 30.717854 53.893301 0
M  V30 3 O 39.178372 28.824508 50.754687 0
M  V30 4 O 39.440415 29.620453 66.813312 0
M  V30 5 C 39.774947 27.800108 56.719437 0
M  V30 6 N 42.537550 29.364597 65.323811 0
M  V30 7 C 37.531707 27.313330 57.534869 0
M  V30 8 C 43.876919 29.213068 65.390356 0
M  V30 9 O 44.467391 28.959680 66.439772 0
M  V30 10 C 39.820831 30.602294 60.691072 0
M  V30 11 C 41.773798 30.396106 64.762327 0 CFG=1
M  V30 12 C 39.070178 29.246290 52.065210 0
M  V30 13 C 39.953102 29.613380 49.851044 0
M  V30 14 N 40.025617 30.827408 63.170090 0
M  V30 15 C 44.653423 29.344239 64.083334 0
M  V30 16 C 38.443143 30.399947 58.431781 0 CFG=2
M  V30 17 C 39.088915 25.499045 57.124984 0
M  V30 18 O 41.039177 28.799139 63.116352 0
M  V30 19 C 39.868553 30.310409 52.553642 0
M  V30 20 C 38.150314 28.618727 52.926885 0
M  V30 21 O 42.668340 32.508016 65.437310 0
M  V30 22 C 38.862764 30.086164 54.758737 0
M  V30 23 C 37.823972 25.944013 57.532494 0
M  V30 24 O 37.718562 29.847596 59.535454 0
M  V30 25 C 38.151175 29.728351 57.096705 0 CFG=1
M  V30 26 C 42.450863 31.719949 64.518616 0
M  V30 27 C 40.626053 28.871861 66.719675 0
M  V30 28 C 38.036548 29.040956 54.266992 0
M  V30 29 C 39.105195 30.566175 62.060371 0 CFG=1
M  V30 30 C 40.921402 29.920987 63.613176 0
M  V30 31 O 39.365787 24.176253 57.121684 0
M  V30 32 C 39.145094 29.756818 59.620777 0 CFG=2
M  V30 33 O 38.809563 30.491037 56.082050 0
M  V30 34 C 37.991306 31.632513 62.110129 0
M  V30 35 C 38.498092 28.244829 57.121219 0
M  V30 36 C 41.690499 29.844450 66.285646 0 CFG=1
M  V30 37 H 41.040831 26.081719 56.402674 0
M  V30 38 H 40.392773 31.516617 54.261499 0
M  V30 39 H 38.962483 29.504857 66.002637 0
M  V30 40 H 40.521299 28.511096 56.400991 0
M  V30 41 H 36.560500 27.654551 57.852714 0
M  V30 42 H 40.843532 30.233836 60.779701 0
M  V30 43 H 39.884675 31.635952 60.346847 0
M  V30 44 H 39.860182 29.226773 48.838451 0
M  V30 45 H 39.603395 30.646038 49.836337 0
M  V30 46 H 41.017329 29.616002 50.094074 0
M  V30 47 H 39.975391 31.728845 63.621834 0
M  V30 48 H 44.014088 29.158875 63.218578 0
M  V30 49 H 45.081698 30.342708 64.006286 0
M  V30 50 H 45.465350 28.618273 64.063308 0
M  V30 51 H 38.355937 31.483085 58.410463 0
M  V30 52 H 40.573742 30.808467 51.907011 0
M  V30 53 H 37.531142 27.811499 52.561315 0
M  V30 54 H 37.073573 25.231027 57.843968 0
M  V30 55 H 37.079948 29.827870 56.918326 0
M  V30 56 H 42.729090 31.925226 63.484824 0
M  V30 57 H 40.502385 28.062743 65.999996 0
M  V30 58 H 40.888283 28.428028 67.680948 0
M  V30 59 H 37.329600 28.554581 54.915749 0
M  V30 60 H 38.678754 29.575881 62.208652 0
M  V30 61 H 38.685840 23.651670 57.516490 0
M  V30 62 H 39.515008 28.736082 59.534883 0
M  V30 63 H 37.243646 31.499522 61.328633 0
M  V30 64 H 37.457142 31.619701 63.053501 0
M  V30 65 H 38.405892 32.635775 61.997067 0
M  V30 66 H 42.112942 30.472554 67.069579 0
M  V30 END ATOM
M  V30 BEGIN BOND
M  V30 1 2 5 1
M  V30 2 1 8 6
M  V30 3 2 9 8
M  V30 4 1 11 6
M  V30 5 1 12 3
M  V30 6 1 13 3
M  V30 7 1 15 8
M  V30 8 1 17 1
M  V30 9 2 19 2
M  V30 10 1 19 12
M  V30 11 2 20 12
M  V30 12 1 22 2
M  V30 13 1 23 7
M  V30 14 2 23 17
M  V30 15 1 24 16
M  V30 16 1 25 16
M  V30 17 1 11 26 CFG=1
M  V30 18 2 26 21
M  V30 19 1 27 4
M  V30 20 1 28 20
M  V30 21 2 28 22
M  V30 22 1 29 10
M  V30 23 1 29 14
M  V30 24 1 30 11
M  V30 25 1 30 14
M  V30 26 2 30 18
M  V30 27 1 31 17
M  V30 28 1 32 10
M  V30 29 1 32 16
M  V30 30 1 32 24
M  V30 31 1 33 22
M  V30 32 1 33 25
M  V30 33 1 34 29
M  V30 34 1 35 5
M  V30 35 2 35 7
M  V30 36 1 35 25
M  V30 37 1 36 6
M  V30 38 1 36 11
M  V30 39 1 36 27
M  V30 40 1 37 1
M  V30 41 1 38 2
M  V30 42 1 39 4
M  V30 43 1 40 5
M  V30 44 1 41 7
M  V30 45 1 42 10
M  V30 46 1 43 10
M  V30 47 1 44 13
M  V30 48 1 45 13
M  V30 49 1 46 13
M  V30 50 1 47 14
M  V30 51 1 48 15
M  V30 52 1 49 15
M  V30 53 1 50 15
M  V30 54 1 16 51 CFG=3
M  V30 55 1 52 19
M  V30 56 1 53 20
M  V30 57 1 54 23
M  V30 58 1 25 55 CFG=3
M  V30 59 1 56 26
M  V30 60 1 57 27
M  V30 61 1 58 27
M  V30 62 1 59 28
M  V30 63 1 29 60 CFG=1
M  V30 64 1 61 31
M  V30 65 1 32 62 CFG=3
M  V30 66 1 63 34
M  V30 67 1 64 34
M  V30 68 1 65 34
M  V30 69 1 36 66 CFG=1
M  V30 END BOND
M  V30 END CTAB
M  END
>  <i_epik_Tot_Q>  (1) 
0

>  <i_epik_Tot_abs_Q>  (1) 
0

>  <i_i_glide_confnum>  (1) 
3220

>  <i_i_glide_lignum>  (1) 
217

>  <i_i_glide_posenum>  (1) 
306

>  <i_i_glide_rotatable_bonds>  (1) 
15

>  <i_lp_mmshare_version>  (1) 
72125

>  <i_m_source_file_index>  (1) 
84

>  <i_f3d_flags>  (1) 
0

>  <num_sample>  (1) 
100

>  <b_lp_Chiralities_Consistent>  (1) 
1

>  <r_epik_Charging_Adjusted_Penalty>  (1) 
0.0031499927794813721

>  <r_epik_Ionization_Penalty>  (1) 
0.0031524718426135371

>  <r_epik_Ionization_Penalty_Charging>  (1) 
0

>  <r_epik_Ionization_Penalty_Neutral>  (1) 
0.0031524718426135371

>  <r_epik_State_Penalty>  (1) 
0.0031499927794813721

>  <r_glide_ring_energy>  (1) 
0

>  <r_i_docking_score>  (1) 
-5.4086312855343452

>  <r_i_glide_ecoul>  (1) 
-0.84891298170423701

>  <r_i_glide_eff_state_penalty>  (1) 
0.0031499927794813721

>  <r_i_glide_einternal>  (1) 
13.225476023393

>  <r_i_glide_emodel>  (1) 
-55.36967248321627

>  <r_i_glide_emodel_strain>  (1) 
1.6025399782482168

>  <r_i_glide_energy>  (1) 
-47.340853589246919

>  <r_i_glide_erotb>  (1) 
0.82106346531741226

>  <r_i_glide_esite>  (1) 
-0.024287692084741002

>  <r_i_glide_evdw>  (1) 
-46.491940607542681

>  <r_i_glide_gscore>  (1) 
-5.4117812783138266

>  <r_i_glide_gscore_strain>  (1) 
0

>  <r_i_glide_hbond>  (1) 
-0.20266242682020605

>  <r_i_glide_ligand_efficiency>  (1) 
-0.15023975793150959

>  <r_i_glide_ligand_efficiency_ln>  (1) 
-1.1800172221730063

>  <r_i_glide_ligand_efficiency_sa>  (1) 
-0.49608075058138423

>  <r_i_glide_lipo>  (1) 
-4.3526892368219254

>  <r_i_glide_metal>  (1) 
-0

>  <r_i_glide_rewards>  (1) 
0.7987285897284031

>  <r_lp_Energy>  (1) 
25.148723999999998

>  <r_lp_tautomer_probability>  (1) 
0.99999999999736477

>  <s_epik_cmdline>  (1) 
J2VwaWtfcHl0aG9uJywgJy1waHQnLCAnMS4wJywgJy1waCcsICc3LjQnLCAnLXRuJywgJzgnLCAnLW1hJywgJzUwMCcsICctaW1hZScsICc8aW5maWxlLm1hZT4nLCAnLW9tYWUnLCAnPG91dGZpbGUubWFlPic=

>  <s_epik_input>  (1) 
W0NIM11PYzFbY0hdW2NIXWMoW2NIXVtjSF0xKU9bQ0BASF0oYyhbY0hdW2NIXTIpW2NIXVtjSF1jMltPSF0pW0NASF0zT1tDSF0zW0NIMl1bQ0BIXShbQ0gzXSlbTkhdQyg9TylDNChbQ0hdPU8pTihDKD1PKVtDSDNdKVtDQEBIXTRbQ0gyXVtPSF0=

>  <s_glide_docking_method>  (1) 
confgen

>  <s_i_glide_gridfile>  (1) 
gpcr_5ht2c_6bqh_protein_autoprepared_prepared

>  <s_lp_Force_Field>  (1) 
S-OPLS

>  <s_lp_Variant>  (1) 
DiffSBDD_83_num_sample_100-1

>  <s_m_source_file>  (1) 
generated__ligand_DiffSBDD_2026-05-06_prepared.sdf

>  <GenAI_Model>  (1) 
DiffSBDD

>  <Protein>  (1) 
GPCR_5HT2C

$$$$
DiffSBDD_93_num_sample_100
     RDKit          3D

  0  0  0  0  0  0  0  0  0  0999 V3000
M  V30 BEGIN CTAB
M  V30 COUNTS 74 77 0 0 1
M  V30 BEGIN ATOM
M  V30 1 C 40.804445 32.355204 64.762644 0
M  V30 2 S 36.500423 30.719598 59.453533 0
M  V30 3 C 41.378047 30.960300 66.824871 0 CFG=2
M  V30 4 O 39.829748 27.165458 57.419828 0
M  V30 5 C 36.786052 36.021425 62.757599 0
M  V30 6 C 39.652434 29.292322 59.402047 0 CFG=1
M  V30 7 C 36.741542 35.642971 59.688450 0
M  V30 8 C 36.199123 33.290367 60.236960 0
M  V30 9 C 41.299775 32.252701 67.643632 0
M  V30 10 N 37.992116 31.942174 61.265046 0
M  V30 11 C 37.922862 36.913951 62.323563 0
M  V30 12 C 40.898454 31.148232 65.393846 0
M  V30 13 C 40.297913 32.434332 63.346229 0
M  V30 14 C 39.309334 31.272898 61.269840 0 CFG=1
M  V30 15 C 41.938688 33.389295 66.861100 0
M  V30 16 Cl 42.267640 34.794624 64.653231 0
M  V30 17 O 36.571704 38.372359 61.053747 0
M  V30 18 C 41.216614 33.644737 65.525208 0 CFG=1
M  V30 19 C 40.304724 33.771504 62.607835 0
M  V30 20 C 37.493436 30.047360 58.087367 0
M  V30 21 C 40.583955 28.064957 59.512145 0
M  V30 22 C 39.828960 31.316239 62.713581 0
M  V30 23 C 37.867040 36.656680 59.849078 0
M  V30 24 C 38.459147 28.908767 58.477689 0 CFG=1
M  V30 25 C 37.344342 32.247733 59.986326 0 CFG=1
M  V30 26 C 37.761847 37.634353 61.014530 0 CFG=2
M  V30 27 C 38.985932 28.279830 57.166166 0
M  V30 28 C 40.999108 27.528834 58.135125 0
M  V30 29 C 36.263249 34.998302 62.041954 0
M  V30 30 S 38.532392 33.042105 58.853078 0
M  V30 31 N 36.584441 34.626915 60.737379 0
M  V30 32 C 40.603207 29.816462 67.492371 0
M  V30 33 C 39.249083 29.764549 60.834244 0
M  V30 34 H 42.424161 30.655673 66.764300 0
M  V30 35 H 36.418530 36.190551 63.760133 0
M  V30 36 H 40.260850 30.021457 58.896737 0
M  V30 37 H 36.850063 35.165161 58.714604 0
M  V30 38 H 35.798725 36.184598 59.612869 0
M  V30 39 H 35.482151 32.852736 60.933155 0
M  V30 40 H 35.632150 33.414304 59.312084 0
M  V30 41 H 40.267293 32.504584 67.873494 0
M  V30 42 H 41.807748 32.123279 68.599832 0
M  V30 43 H 38.097840 32.839393 61.719915 0
M  V30 44 H 38.839920 36.327368 62.309698 0
M  V30 45 H 38.066494 37.621476 63.134185 0
M  V30 46 H 40.627656 30.244601 64.889699 0
M  V30 47 H 40.041452 31.809917 60.668645 0
M  V30 48 H 41.941280 34.298124 67.464234 0
M  V30 49 H 42.984992 33.142852 66.674940 0
M  V30 50 H 35.857325 37.773472 61.201683 0
M  V30 51 H 40.299844 34.183177 65.759552 0
M  V30 52 H 41.307014 33.999090 62.244162 0
M  V30 53 H 39.645838 33.821419 61.745872 0
M  V30 54 H 39.973311 34.569367 63.269722 0
M  V30 55 H 36.752076 29.631553 57.403217 0
M  V30 56 H 37.990260 30.818109 57.504168 0
M  V30 57 H 40.083363 27.269287 60.063993 0
M  V30 58 H 41.478982 28.320347 60.079085 0
M  V30 59 H 39.804183 30.378878 63.227198 0
M  V30 60 H 37.907524 37.238904 58.928579 0
M  V30 61 H 38.803950 36.109241 59.929998 0
M  V30 62 H 37.874613 28.143907 58.986715 0
M  V30 63 H 38.572295 38.358671 60.927211 0
M  V30 64 H 38.153852 27.932249 56.552722 0
M  V30 65 H 39.523595 29.019326 56.569632 0
M  V30 66 H 41.630092 26.647827 58.249752 0
M  V30 67 H 41.576087 28.265702 57.574091 0
M  V30 68 H 35.500179 34.368396 62.478866 0
M  V30 69 H 39.334947 31.982302 58.746006 0
M  V30 70 H 40.797216 28.867114 66.991469 0
M  V30 71 H 40.890882 29.695689 68.537691 0
M  V30 72 H 39.526705 29.989123 67.453622 0
M  V30 73 H 38.267409 29.380530 61.052564 0
M  V30 74 H 39.883308 29.195938 61.514910 0
M  V30 END ATOM
M  V30 BEGIN BOND
M  V30 1 1 9 3
M  V30 2 1 11 5
M  V30 3 2 12 1
M  V30 4 1 12 3
M  V30 5 1 13 1
M  V30 6 1 14 10
M  V30 7 1 15 9
M  V30 8 1 18 1
M  V30 9 1 18 15
M  V30 10 1 18 16
M  V30 11 1 19 13
M  V30 12 1 20 2
M  V30 13 1 21 6
M  V30 14 2 22 13
M  V30 15 1 22 14
M  V30 16 1 23 7
M  V30 17 1 24 6
M  V30 18 1 24 20
M  V30 19 1 25 2
M  V30 20 1 25 8
M  V30 21 1 25 10
M  V30 22 1 26 11
M  V30 23 1 26 17
M  V30 24 1 26 23
M  V30 25 1 27 4
M  V30 26 1 27 24
M  V30 27 1 28 4
M  V30 28 1 28 21
M  V30 29 2 29 5
M  V30 30 1 25 30 CFG=3
M  V30 31 1 31 7
M  V30 32 1 31 8
M  V30 33 1 31 29
M  V30 34 1 32 3
M  V30 35 1 33 6
M  V30 36 1 33 14
M  V30 37 1 3 34 CFG=3
M  V30 38 1 35 5
M  V30 39 1 6 36 CFG=3
M  V30 40 1 37 7
M  V30 41 1 38 7
M  V30 42 1 39 8
M  V30 43 1 40 8
M  V30 44 1 41 9
M  V30 45 1 42 9
M  V30 46 1 43 10
M  V30 47 1 44 11
M  V30 48 1 45 11
M  V30 49 1 46 12
M  V30 50 1 14 47 CFG=3
M  V30 51 1 48 15
M  V30 52 1 49 15
M  V30 53 1 50 17
M  V30 54 1 18 51 CFG=1
M  V30 55 1 52 19
M  V30 56 1 53 19
M  V30 57 1 54 19
M  V30 58 1 55 20
M  V30 59 1 56 20
M  V30 60 1 57 21
M  V30 61 1 58 21
M  V30 62 1 59 22
M  V30 63 1 60 23
M  V30 64 1 61 23
M  V30 65 1 24 62 CFG=1
M  V30 66 1 26 63 CFG=3
M  V30 67 1 64 27
M  V30 68 1 65 27
M  V30 69 1 66 28
M  V30 70 1 67 28
M  V30 71 1 68 29
M  V30 72 1 69 30
M  V30 73 1 70 32
M  V30 74 1 71 32
M  V30 75 1 72 32
M  V30 76 1 73 33
M  V30 77 1 74 33
M  V30 END BOND
M  V30 END CTAB
M  END
>  <i_epik_Tot_Q>  (1) 
0

>  <i_epik_Tot_abs_Q>  (1) 
0

>  <i_i_glide_confnum>  (1) 
37

>  <i_i_glide_lignum>  (1) 
253

>  <i_i_glide_posenum>  (1) 
379

>  <i_i_glide_rotatable_bonds>  (1) 
6

>  <i_lp_mmshare_version>  (1) 
72125

>  <i_m_source_file_index>  (1) 
94

>  <i_f3d_flags>  (1) 
0

>  <num_sample>  (1) 
100

>  <b_lp_Chiralities_Consistent>  (1) 
1

>  <r_epik_Charging_Adjusted_Penalty>  (1) 
0.20325292957253988

>  <r_epik_Ionization_Penalty>  (1) 
0.031936562948065232

>  <r_epik_Ionization_Penalty_Charging>  (1) 
3.6030848355623751e-07

>  <r_epik_Ionization_Penalty_Neutral>  (1) 
0.031936202639581676

>  <r_epik_State_Penalty>  (1) 
0.20325256926405633

>  <r_glide_ring_energy>  (1) 
0

>  <r_i_docking_score>  (1) 
-5.4056077312758744

>  <r_i_glide_ecoul>  (1) 
-0.1254959226663922

>  <r_i_glide_eff_state_penalty>  (1) 
0.20325256926405633

>  <r_i_glide_einternal>  (1) 
19.677566812797092

>  <r_i_glide_emodel>  (1) 
-31.825271015490301

>  <r_i_glide_emodel_strain>  (1) 
2.5972189418443747

>  <r_i_glide_energy>  (1) 
-35.421741058742036

>  <r_i_glide_erotb>  (1) 
0.31140238833871409

>  <r_i_glide_esite>  (1) 
0

>  <r_i_glide_evdw>  (1) 
-35.29624513607564

>  <r_i_glide_gscore>  (1) 
-5.6088603005399307

>  <r_i_glide_gscore_strain>  (1) 
0

>  <r_i_glide_hbond>  (1) 
0

>  <r_i_glide_ligand_efficiency>  (1) 
-0.16380629488714771

>  <r_i_glide_ligand_efficiency_ln>  (1) 
-1.202179170696847

>  <r_i_glide_ligand_efficiency_sa>  (1) 
-0.52541431431994612

>  <r_i_glide_lipo>  (1) 
-3.669896178042702

>  <r_i_glide_metal>  (1) 
-0

>  <r_i_glide_rewards>  (1) 
-0.4667298656322022

>  <r_lp_Energy>  (1) 
31.372437999999999

>  <s_epik_Chemistry_Notes>  (1) 
This compound has an imine and may undergo hydrolysis.

>  <s_epik_cmdline>  (1) 
J2VwaWtfcHl0aG9uJywgJy1waHQnLCAnMS4wJywgJy1waCcsICc3LjQnLCAnLXRuJywgJzgnLCAnLW1hJywgJzUwMCcsICctaW1hZScsICc8aW5maWxlLm1hZT4nLCAnLW9tYWUnLCAnPG91dGZpbGUubWFlPic=

>  <s_epik_input>  (1) 
Q2xbQ0BIXTFbQ0gyXVtDSDJdW0NAQEhdKFtDSDNdKVtDSF09QzEvQyhbQ0gzXSk9W0NIXS9bQ0BASF0oW0NIMl0yKVtOSF1bQ0BAXShbU0hdKShTW0NIMl1bQ0BIXShbQ0BASF0yMylbQ0gyXU9bQ0gyXVtDSDJdMylbQ0gyXU4oW0NIMl1bQ0gyXTQpW0NIXT1bQ0hdW0NIMl1bQ0BASF00W09IXQ==

>  <s_glide_docking_method>  (1) 
confgen

>  <s_i_glide_gridfile>  (1) 
gpcr_5ht2c_6bqh_protein_autoprepared_prepared

>  <s_lp_Force_Field>  (1) 
S-OPLS

>  <s_lp_Variant>  (1) 
DiffSBDD_93_num_sample_100-5

>  <s_m_source_file>  (1) 
generated__ligand_DiffSBDD_2026-05-06_prepared.sdf

>  <GenAI_Model>  (1) 
DiffSBDD

>  <Protein>  (1) 
GPCR_5HT2C

$$$$
DiffSBDD_39_num_sample_100
     RDKit          3D

  0  0  0  0  0  0  0  0  0  0999 V3000
M  V30 BEGIN CTAB
M  V30 COUNTS 61 64 0 0 1
M  V30 BEGIN ATOM
M  V30 1 C 39.164223 34.804866 60.653572 0
M  V30 2 C 39.447019 28.935573 57.332097 0
M  V30 3 C 38.271701 31.073423 61.794386 0
M  V30 4 C 39.031825 29.797561 58.537129 0
M  V30 5 C 38.316812 32.857077 59.253624 0
M  V30 6 C 37.933144 28.335447 55.342937 0
M  V30 7 N 39.867537 30.821421 53.177480 0
M  V30 8 O 38.337534 31.973837 62.649411 0 CHG=-1
M  V30 9 C 38.645764 29.029904 54.239748 0
M  V30 10 C 36.825983 34.123927 60.905087 0
M  V30 11 O 39.056672 30.102922 61.721049 0
M  V30 12 C 36.647859 35.139247 61.853494 0
M  V30 13 C 37.712441 35.980720 62.220231 0
M  V30 14 N 37.666804 31.664072 59.454920 0
M  V30 15 C 40.140996 36.672041 62.103223 0
M  V30 16 C 35.832007 31.832739 61.122091 0
M  V30 17 C 40.547051 30.821367 50.838490 0
M  V30 18 C 37.720855 30.626529 58.422116 0
M  V30 19 C 41.432734 34.770528 63.298242 0
M  V30 20 C 38.670150 28.299701 52.941620 0
M  V30 21 C 37.152883 31.146241 60.733030 0 CFG=2
M  V30 22 C 40.224364 29.871299 49.643340 0
M  V30 23 O 41.058418 35.038233 64.460125 0 CHG=-1
M  V30 24 C 38.091722 33.946547 60.291249 0
M  V30 25 S 39.467411 28.308640 50.255357 0
M  V30 26 C 39.341303 28.961465 51.815581 0
M  V30 27 O 38.152522 27.192216 52.816333 0
M  V30 28 C 38.975582 35.804829 61.640388 0
M  V30 29 Cl 39.188919 31.292948 55.658031 0
M  V30 30 C 41.480341 35.930826 62.296168 0
M  V30 31 C 39.247579 30.277503 54.282809 0
M  V30 32 C 38.250682 28.307966 56.664288 0
M  V30 33 C 35.655328 33.235226 60.546994 0
M  V30 34 O 39.067418 33.057346 58.304796 0
M  V30 35 C 39.883118 30.143755 51.989241 0
M  V30 36 O 41.788419 33.645028 62.882101 0
M  V30 37 H 40.135096 34.670648 60.201459 0
M  V30 38 H 39.992955 28.089794 57.752167 0
M  V30 39 H 40.207238 29.348675 56.680592 0
M  V30 40 H 38.897522 29.118626 59.379384 0
M  V30 41 H 39.867295 30.420357 58.832127 0
M  V30 42 H 37.067405 27.766185 55.053475 0
M  V30 43 H 35.691160 35.246127 62.331559 0
M  V30 44 H 37.563147 36.739901 62.973835 0
M  V30 45 H 40.271641 37.529115 61.453485 0
M  V30 46 H 39.868375 37.110546 63.064857 0
M  V30 47 H 35.729304 31.857403 62.201156 0
M  V30 48 H 35.005783 31.221581 60.764470 0
M  V30 49 H 40.098516 31.796265 50.673060 0
M  V30 50 H 41.619626 30.907174 51.004436 0
M  V30 51 H 37.549462 31.100316 57.465601 0
M  V30 52 H 36.860240 29.960922 58.498759 0
M  V30 53 H 36.882129 30.097044 60.620062 0
M  V30 54 H 41.093337 29.669398 49.021411 0
M  V30 55 H 39.468144 30.360552 49.035791 0
M  V30 56 H 41.867112 35.582594 61.339180 0
M  V30 57 H 42.214385 36.628419 62.689958 0
M  V30 58 H 37.599770 27.756452 57.327375 0
M  V30 59 H 34.731931 33.665813 60.934712 0
M  V30 60 H 35.521867 33.210586 59.463496 0
M  V30 61 H 40.280474 31.743503 53.236466 0
M  V30 END ATOM
M  V30 BEGIN BOND
M  V30 1 1 4 2
M  V30 2 1 8 3
M  V30 3 1 9 6
M  V30 4 2 11 3
M  V30 5 1 12 10
M  V30 6 2 13 12
M  V30 7 1 14 5
M  V30 8 1 18 4
M  V30 9 1 18 14
M  V30 10 1 20 9
M  V30 11 1 21 3
M  V30 12 1 21 14
M  V30 13 1 21 16
M  V30 14 1 22 17
M  V30 15 1 23 19
M  V30 16 1 24 1
M  V30 17 1 24 5
M  V30 18 2 24 10
M  V30 19 1 25 22
M  V30 20 1 26 20
M  V30 21 1 26 25
M  V30 22 2 27 20
M  V30 23 2 28 1
M  V30 24 1 28 13
M  V30 25 1 28 15
M  V30 26 1 30 15
M  V30 27 1 30 19
M  V30 28 1 31 7
M  V30 29 2 31 9
M  V30 30 1 31 29
M  V30 31 1 32 2
M  V30 32 2 32 6
M  V30 33 1 33 10
M  V30 34 1 33 16
M  V30 35 2 34 5
M  V30 36 1 35 7
M  V30 37 1 35 17
M  V30 38 2 35 26
M  V30 39 2 36 19
M  V30 40 1 37 1
M  V30 41 1 38 2
M  V30 42 1 39 2
M  V30 43 1 40 4
M  V30 44 1 41 4
M  V30 45 1 42 6
M  V30 46 1 43 12
M  V30 47 1 44 13
M  V30 48 1 45 15
M  V30 49 1 46 15
M  V30 50 1 47 16
M  V30 51 1 48 16
M  V30 52 1 49 17
M  V30 53 1 50 17
M  V30 54 1 51 18
M  V30 55 1 52 18
M  V30 56 1 21 53 CFG=3
M  V30 57 1 54 22
M  V30 58 1 55 22
M  V30 59 1 56 30
M  V30 60 1 57 30
M  V30 61 1 58 32
M  V30 62 1 59 33
M  V30 63 1 60 33
M  V30 64 1 61 7
M  V30 END BOND
M  V30 END CTAB
M  END
>  <i_epik_Tot_Q>  (1) 
-2

>  <i_epik_Tot_abs_Q>  (1) 
2

>  <i_i_glide_confnum>  (1) 
186

>  <i_i_glide_lignum>  (1) 
99

>  <i_i_glide_posenum>  (1) 
23

>  <i_i_glide_rotatable_bonds>  (1) 
9

>  <i_lp_mmshare_version>  (1) 
72125

>  <i_m_source_file_index>  (1) 
40

>  <i_f3d_flags>  (1) 
0

>  <num_sample>  (1) 
100

>  <b_lp_Chiralities_Consistent>  (1) 
1

>  <r_epik_Charging_Adjusted_Penalty>  (1) 
2.4833595310622814

>  <r_epik_Ionization_Penalty>  (1) 
1.1966221344959846

>  <r_epik_Ionization_Penalty_Charging>  (1) 
1.1966221333468745

>  <r_epik_Ionization_Penalty_Neutral>  (1) 
1.1491101627543943e-09

>  <r_epik_State_Penalty>  (1) 
1.2867373977154066

>  <r_glide_ring_energy>  (1) 
0

>  <r_i_docking_score>  (1) 
-5.402944539123042

>  <r_i_glide_ecoul>  (1) 
1.0242930442426819

>  <r_i_glide_eff_state_penalty>  (1) 
1.2867373977154066

>  <r_i_glide_einternal>  (1) 
9.6084178737270634

>  <r_i_glide_emodel>  (1) 
-49.830168269375292

>  <r_i_glide_emodel_strain>  (1) 
0.72306524698599617

>  <r_i_glide_energy>  (1) 
-36.673295501127839

>  <r_i_glide_erotb>  (1) 
0.44176053004123106

>  <r_i_glide_esite>  (1) 
-0.065156944709536119

>  <r_i_glide_evdw>  (1) 
-37.697588545370522

>  <r_i_glide_gscore>  (1) 
-6.6896819368384488

>  <r_i_glide_gscore_strain>  (1) 
0

>  <r_i_glide_hbond>  (1) 
0

>  <r_i_glide_ligand_efficiency>  (1) 
-0.15008179275341782

>  <r_i_glide_ligand_efficiency_ln>  (1) 
-1.1787765277441928

>  <r_i_glide_ligand_efficiency_sa>  (1) 
-0.49555916105546655

>  <r_i_glide_lipo>  (1) 
-4.1329853152242109

>  <r_i_glide_metal>  (1) 
-0

>  <r_i_glide_rewards>  (1) 
-1.2020647363138084

>  <r_lp_Energy>  (1) 
54.484504999999999

>  <s_epik_cmdline>  (1) 
J2VwaWtfcHl0aG9uJywgJy1waHQnLCAnMS4wJywgJy1waCcsICc3LjQnLCAnLXRuJywgJzgnLCAnLW1hJywgJzUwMCcsICctaW1hZScsICc8aW5maWxlLm1hZT4nLCAnLW9tYWUnLCAnPG91dGZpbGUubWFlPic=

>  <s_epik_input>  (1) 
W09IXUMoPU8pW0NIMl1bQ0gyXWMoW2NIXVtjSF0xKVtjSF1jKGMxMilDKD1PKU4oW0NAQEhdKEMoPU8pW09IXSlbQ0gyXVtDSDJdMilbQ0gyXVtDSDJdW0NIMl0vW0NIXT1bQ0hdXGMoYzNbT0hdKWMoQ2wpbmMoYzM0KVtDSDJdW0NIMl1TNA==

>  <s_glide_docking_method>  (1) 
confgen

>  <s_i_glide_gridfile>  (1) 
gpcr_5ht2c_6bqh_protein_autoprepared_prepared

>  <s_lp_Force_Field>  (1) 
S-OPLS

>  <s_lp_Variant>  (1) 
DiffSBDD_39_num_sample_100-6

>  <s_m_source_file>  (1) 
generated__ligand_DiffSBDD_2026-05-06_prepared.sdf

>  <GenAI_Model>  (1) 
DiffSBDD

>  <Protein>  (1) 
GPCR_5HT2C

$$$$
DiffSBDD_28_num_sample_100
     RDKit          3D

  0  0  0  0  0  0  0  0  0  0999 V3000
M  V30 BEGIN CTAB
M  V30 COUNTS 37 38 0 0 1
M  V30 BEGIN ATOM
M  V30 1 C 38.744648 30.593705 53.998699 0
M  V30 2 C 38.841639 32.490987 59.765144 0
M  V30 3 C 40.267388 29.215117 51.053422 0
M  V30 4 O 40.822587 30.087956 50.388098 0
M  V30 5 S 38.660387 35.564091 61.053502 0
M  V30 6 O 39.866503 37.617903 62.253469 0
M  V30 7 C 40.232508 35.526069 63.240902 0
M  V30 8 C 39.674691 32.893059 60.966548 0
M  V30 9 C 38.254737 32.528939 57.313634 0
M  V30 10 C 39.089701 31.818460 56.235244 0
M  V30 11 C 39.682322 36.403161 62.276676 0
M  V30 12 C 39.886957 34.266221 63.053624 0
M  V30 13 C 39.067411 32.933989 58.518073 0
M  V30 14 C 38.983507 33.903893 61.885228 0 CFG=1
M  V30 15 C 38.256593 29.117802 54.343712 0
M  V30 16 C 38.954370 28.573233 53.036686 0
M  V30 17 C 39.578753 29.482095 52.318460 0
M  V30 18 C 38.332129 31.740859 54.901563 0
M  V30 19 C 39.467390 30.705703 52.892049 0
M  V30 20 H 38.027003 31.805559 59.949395 0
M  V30 21 H 40.251621 28.172300 50.734552 0
M  V30 22 H 40.868125 35.881187 64.039671 0
M  V30 23 H 39.907296 31.985074 61.524032 0
M  V30 24 H 40.633823 33.299000 60.653520 0
M  V30 25 H 37.775496 33.421164 56.908569 0
M  V30 26 H 37.467419 31.854966 57.636880 0
M  V30 27 H 39.346640 30.820491 56.591568 0
M  V30 28 H 40.031743 32.343171 56.074240 0
M  V30 29 H 40.229188 33.479431 63.710040 0
M  V30 30 H 39.872861 33.621435 58.338441 0
M  V30 31 H 38.043540 33.493360 62.252278 0
M  V30 32 H 37.171325 29.012374 54.324664 0
M  V30 33 H 38.694121 28.721047 55.259688 0
M  V30 34 H 38.895639 27.527128 52.770970 0
M  V30 35 H 38.432654 32.685962 54.368239 0
M  V30 36 H 37.263089 31.620549 55.085324 0
M  V30 37 H 39.870844 31.621458 52.494387 0
M  V30 END ATOM
M  V30 BEGIN BOND
M  V30 1 2 4 3
M  V30 2 1 8 2
M  V30 3 1 10 9
M  V30 4 1 11 5
M  V30 5 2 11 6
M  V30 6 1 11 7
M  V30 7 2 12 7
M  V30 8 2 13 2
M  V30 9 1 13 9
M  V30 10 1 14 5
M  V30 11 1 14 8
M  V30 12 1 14 12
M  V30 13 1 15 1
M  V30 14 1 16 15
M  V30 15 1 17 3
M  V30 16 2 17 16
M  V30 17 1 18 1
M  V30 18 1 18 10
M  V30 19 2 19 1
M  V30 20 1 19 17
M  V30 21 1 20 2
M  V30 22 1 21 3
M  V30 23 1 22 7
M  V30 24 1 23 8
M  V30 25 1 24 8
M  V30 26 1 25 9
M  V30 27 1 26 9
M  V30 28 1 27 10
M  V30 29 1 28 10
M  V30 30 1 29 12
M  V30 31 1 30 13
M  V30 32 1 14 31 CFG=1
M  V30 33 1 32 15
M  V30 34 1 33 15
M  V30 35 1 34 16
M  V30 36 1 35 18
M  V30 37 1 36 18
M  V30 38 1 37 19
M  V30 END BOND
M  V30 END CTAB
M  END
>  <i_epik_Tot_Q>  (1) 
0

>  <i_epik_Tot_abs_Q>  (1) 
0

>  <i_i_glide_confnum>  (1) 
28

>  <i_i_glide_lignum>  (1) 
70

>  <i_i_glide_posenum>  (1) 
11

>  <i_i_glide_rotatable_bonds>  (1) 
7

>  <i_lp_mmshare_version>  (1) 
72125

>  <i_m_source_file_index>  (1) 
29

>  <i_f3d_flags>  (1) 
0

>  <num_sample>  (1) 
100

>  <b_lp_Chiralities_Consistent>  (1) 
1

>  <r_epik_Charging_Adjusted_Penalty>  (1) 
0

>  <r_epik_Ionization_Penalty>  (1) 
0

>  <r_epik_Ionization_Penalty_Charging>  (1) 
0

>  <r_epik_Ionization_Penalty_Neutral>  (1) 
0

>  <r_epik_State_Penalty>  (1) 
-0

>  <r_glide_ring_energy>  (1) 
0

>  <r_i_docking_score>  (1) 
-5.4013583917332193

>  <r_i_glide_ecoul>  (1) 
-0.80141261984450463

>  <r_i_glide_eff_state_penalty>  (1) 
-0

>  <r_i_glide_einternal>  (1) 
1.8489493826677421

>  <r_i_glide_emodel>  (1) 
-40.784978648031966

>  <r_i_glide_emodel_strain>  (1) 
0.52353563782025958

>  <r_i_glide_energy>  (1) 
-31.47566159192905

>  <r_i_glide_erotb>  (1) 
1.1924995267514154

>  <r_i_glide_esite>  (1) 
0

>  <r_i_glide_evdw>  (1) 
-30.674248972084545

>  <r_i_glide_gscore>  (1) 
-5.4013583917332193

>  <r_i_glide_gscore_strain>  (1) 
0

>  <r_i_glide_hbond>  (1) 
0

>  <r_i_glide_ligand_efficiency>  (1) 
-0.28428202061753788

>  <r_i_glide_ligand_efficiency_ln>  (1) 
-1.369360362845482

>  <r_i_glide_ligand_efficiency_sa>  (1) 
-0.75857861251784409

>  <r_i_glide_lipo>  (1) 
-2.1678381978249237

>  <r_i_glide_metal>  (1) 
-0

>  <r_i_glide_rewards>  (1) 
-2.7720953790788085

>  <r_lp_Energy>  (1) 
-7.384944

>  <r_lp_tautomer_probability>  (1) 
1

>  <s_epik_cmdline>  (1) 
J2VwaWtfcHl0aG9uJywgJy1waHQnLCAnMS4wJywgJy1waCcsICc3LjQnLCAnLXRuJywgJzgnLCAnLW1hJywgJzUwMCcsICctaW1hZScsICc8aW5maWxlLm1hZT4nLCAnLW9tYWUnLCAnPG91dGZpbGUubWFlPic=

>  <s_epik_input>  (1) 
Tz1bQ0hdQyg9W0NIXVtDSDJdMSlbQ0hdPUMxW0NIMl1bQ0gyXVtDSDJdXFtDSF09W0NIXVxbQ0gyXVtDQEhdKFNDMj1PKVtDSF09W0NIXTI=

>  <s_glide_docking_method>  (1) 
confgen

>  <s_i_glide_gridfile>  (1) 
gpcr_5ht2c_6bqh_protein_autoprepared_prepared

>  <s_lp_Force_Field>  (1) 
S-OPLS

>  <s_lp_Variant>  (1) 
DiffSBDD_28_num_sample_100-2

>  <s_m_source_file>  (1) 
generated__ligand_DiffSBDD_2026-05-06_prepared.sdf

>  <GenAI_Model>  (1) 
DiffSBDD

>  <Protein>  (1) 
GPCR_5HT2C

$$$$
DiffSBDD_1_num_sample_100
     RDKit          3D

  0  0  0  0  0  0  0  0  0  0999 V3000
M  V30 BEGIN CTAB
M  V30 COUNTS 63 66 0 0 1
M  V30 BEGIN ATOM
M  V30 1 C 38.868803 26.547854 57.640399 0
M  V30 2 C 37.903353 35.429144 62.006823 0
M  V30 3 O 37.452110 24.953855 56.944766 0
M  V30 4 C 36.632721 33.700250 60.647085 0 CFG=1
M  V30 5 C 39.250712 27.840306 58.264470 0
M  V30 6 C 37.360602 31.350534 60.968750 0
M  V30 7 C 41.525506 36.100354 63.260246 0
M  V30 8 C 37.149108 37.188806 63.357257 0
M  V30 9 N 38.630076 37.217489 63.285973 0 CHG=1
M  V30 10 C 38.207967 32.276940 57.436083 0
M  V30 11 C 38.136145 28.731184 58.842940 0
M  V30 12 C 40.521118 36.085839 62.094781 0 CFG=2
M  V30 13 C 39.121173 35.933606 62.735107 0 CFG=2
M  V30 14 C 37.423720 31.170263 59.444498 0 CFG=2
M  V30 15 C 38.576031 30.788179 57.361817 0
M  V30 16 C 37.639463 26.144125 57.534633 0
M  V30 17 N 36.356077 32.391565 61.278417 0
M  V30 18 C 37.880095 34.279846 61.305016 0
M  V30 19 O 40.420213 28.218769 58.338078 0
M  V30 20 C 40.936635 35.049811 61.053564 0
M  V30 21 C 38.848917 24.570491 56.626923 0
M  V30 22 C 36.753168 33.556090 59.108564 0
M  V30 23 C 36.691919 36.274255 62.226051 0
M  V30 24 N 37.719961 32.478147 58.813701 0 CFG=2 CHG=1
M  V30 25 O 36.102623 30.821370 59.053518 0
M  V30 26 C 39.911098 25.671430 57.107901 0
M  V30 27 C 38.467125 30.238270 58.803961 0 CFG=2
M  V30 28 O 41.633258 34.838910 63.892242 0
M  V30 29 H 35.783501 34.354240 60.836364 0
M  V30 30 H 38.336881 31.604451 61.377150 0
M  V30 31 H 37.069264 30.421423 61.446704 0
M  V30 32 H 41.140811 36.820029 63.977414 0
M  V30 33 H 42.521919 36.421458 62.974019 0
M  V30 34 H 36.683053 38.172454 63.289266 0
M  V30 35 H 36.862318 36.764581 64.320347 0
M  V30 36 H 39.044059 37.412683 64.188722 0
M  V30 37 H 39.079040 32.910859 57.267978 0
M  V30 38 H 37.467382 32.537899 56.682087 0
M  V30 39 H 37.969818 28.422467 59.873403 0
M  V30 40 H 37.204178 28.574963 58.303426 0
M  V30 41 H 40.562752 37.055953 61.595573 0
M  V30 42 H 39.204567 35.227854 63.550957 0
M  V30 43 H 39.560512 30.620528 56.923445 0
M  V30 44 H 37.850931 30.287120 56.717975 0
M  V30 45 H 36.733757 26.634452 57.853779 0
M  V30 46 H 35.475531 32.054165 60.891926 0
M  V30 47 H 38.778611 33.695704 61.218909 0
M  V30 48 H 40.912478 34.033064 61.444626 0
M  V30 49 H 40.296027 35.106809 60.174029 0
M  V30 50 H 41.954964 35.242717 60.718576 0
M  V30 51 H 39.070186 23.620755 57.110056 0
M  V30 52 H 38.933168 24.420829 55.549385 0
M  V30 53 H 35.785410 33.335481 58.658893 0
M  V30 54 H 37.088334 34.493378 58.661051 0
M  V30 55 H 36.448092 36.824863 61.316049 0
M  V30 56 H 35.867380 35.656132 62.572193 0
M  V30 57 H 35.877252 31.202428 58.187367 0
M  V30 58 H 40.459600 26.123147 56.281128 0
M  V30 59 H 40.593745 25.312422 57.879025 0
M  V30 60 H 39.414805 30.411874 59.316572 0
M  V30 61 H 42.133077 34.260852 63.335482 0
M  V30 62 H 38.895180 37.939998 62.633589 0
M  V30 63 H 38.548810 32.772432 59.305351 0
M  V30 END ATOM
M  V30 BEGIN BOND
M  V30 1 1 5 1
M  V30 2 1 9 8
M  V30 3 1 11 5
M  V30 4 1 12 7
M  V30 5 1 13 2
M  V30 6 1 13 9
M  V30 7 1 13 12
M  V30 8 1 14 6
M  V30 9 1 15 10
M  V30 10 2 16 1
M  V30 11 1 16 3
M  V30 12 1 17 4
M  V30 13 1 17 6
M  V30 14 2 18 2
M  V30 15 1 18 4
M  V30 16 2 19 5
M  V30 17 1 20 12
M  V30 18 1 21 3
M  V30 19 1 22 4
M  V30 20 1 23 2
M  V30 21 1 23 8
M  V30 22 1 24 10
M  V30 23 1 24 14
M  V30 24 1 24 22
M  V30 25 1 14 25 CFG=3
M  V30 26 1 26 1
M  V30 27 1 26 21
M  V30 28 1 27 11
M  V30 29 1 27 14
M  V30 30 1 27 15
M  V30 31 1 28 7
M  V30 32 1 4 29 CFG=3
M  V30 33 1 30 6
M  V30 34 1 31 6
M  V30 35 1 32 7
M  V30 36 1 33 7
M  V30 37 1 34 8
M  V30 38 1 35 8
M  V30 39 1 36 9
M  V30 40 1 37 10
M  V30 41 1 38 10
M  V30 42 1 39 11
M  V30 43 1 40 11
M  V30 44 1 12 41 CFG=3
M  V30 45 1 13 42 CFG=1
M  V30 46 1 43 15
M  V30 47 1 44 15
M  V30 48 1 45 16
M  V30 49 1 46 17
M  V30 50 1 47 18
M  V30 51 1 48 20
M  V30 52 1 49 20
M  V30 53 1 50 20
M  V30 54 1 51 21
M  V30 55 1 52 21
M  V30 56 1 53 22
M  V30 57 1 54 22
M  V30 58 1 55 23
M  V30 59 1 56 23
M  V30 60 1 57 25
M  V30 61 1 58 26
M  V30 62 1 59 26
M  V30 63 1 27 60 CFG=1
M  V30 64 1 61 28
M  V30 65 1 62 9
M  V30 66 1 24 63 CFG=1
M  V30 END BOND
M  V30 END CTAB
M  END
>  <i_epik_Tot_Q>  (1) 
2

>  <i_epik_Tot_abs_Q>  (1) 
2

>  <i_i_glide_confnum>  (1) 
203

>  <i_i_glide_lignum>  (1) 
15

>  <i_i_glide_posenum>  (1) 
141

>  <i_i_glide_rotatable_bonds>  (1) 
8

>  <i_lp_mmshare_version>  (1) 
72125

>  <i_m_source_file_index>  (1) 
2

>  <i_f3d_flags>  (1) 
0

>  <num_sample>  (1) 
100

>  <b_lp_Chiralities_Consistent>  (1) 
1

>  <r_epik_Charging_Adjusted_Penalty>  (1) 
2.3622130296898831

>  <r_epik_Ionization_Penalty>  (1) 
1.4312966064593899

>  <r_epik_Ionization_Penalty_Charging>  (1) 
1.1852885594971458

>  <r_epik_Ionization_Penalty_Neutral>  (1) 
0.24600804696224418

>  <r_epik_State_Penalty>  (1) 
1.176924470192737

>  <r_glide_ring_energy>  (1) 
0

>  <r_i_docking_score>  (1) 
-5.4012445305821615

>  <r_i_glide_ecoul>  (1) 
-8.7831105728496564

>  <r_i_glide_eff_state_penalty>  (1) 
1.176924470192737

>  <r_i_glide_einternal>  (1) 
4.4397613725190528

>  <r_i_glide_emodel>  (1) 
-50.553301389233894

>  <r_i_glide_emodel_strain>  (1) 
1.4706644120802537

>  <r_i_glide_energy>  (1) 
-37.399897609661423

>  <r_i_glide_erotb>  (1) 
0.75687532201182384

>  <r_i_glide_esite>  (1) 
-0.13353371650554366

>  <r_i_glide_evdw>  (1) 
-28.616787036811768

>  <r_i_glide_gscore>  (1) 
-6.5781690007748983

>  <r_i_glide_gscore_strain>  (1) 
0

>  <r_i_glide_hbond>  (1) 
-0.1508386938454071

>  <r_i_glide_ligand_efficiency>  (1) 
-0.19290159037793433

>  <r_i_glide_ligand_efficiency_ln>  (1) 
-1.2467658250888352

>  <r_i_glide_ligand_efficiency_sa>  (1) 
-0.58576284199891193

>  <r_i_glide_lipo>  (1) 
-2.6148607084038646

>  <r_i_glide_metal>  (1) 
-0

>  <r_i_glide_rewards>  (1) 
-1.6875052662638699

>  <r_lp_Energy>  (1) 
19.420013000000001

>  <s_epik_cmdline>  (1) 
J2VwaWtfcHl0aG9uJywgJy1waHQnLCAnMS4wJywgJy1waCcsICc3LjQnLCAnLXRuJywgJzgnLCAnLW1hJywgJzUwMCcsICctaW1hZScsICc8aW5maWxlLm1hZT4nLCAnLW9tYWUnLCAnPG91dGZpbGUubWFlPic=

>  <s_epik_input>  (1) 
W0NIMl0xW0NIMl1PW0NIXT1DMUMoPU8pW0NIMl1bQ0BIXTJbQ0gyXVtDSDJdTihbQ0BAXTIzW09IXSlbQ0gyXVtDQEBIXShbTkhdW0NIMl0zKVxbQ0hdPUM0XFtDQEBIXShbTkhdW0NIMl1bQ0gyXTQpW0NASF0oW0NIM10pW0NIMl1bT0hd

>  <s_glide_docking_method>  (1) 
confgen

>  <s_i_glide_gridfile>  (1) 
gpcr_5ht2c_6bqh_protein_autoprepared_prepared

>  <s_lp_Force_Field>  (1) 
S-OPLS

>  <s_lp_Variant>  (1) 
DiffSBDD_1_num_sample_100-9

>  <s_m_source_file>  (1) 
generated__ligand_DiffSBDD_2026-05-06_prepared.sdf

>  <GenAI_Model>  (1) 
DiffSBDD

>  <Protein>  (1) 
GPCR_5HT2C

$$$$
DiffSBDD_28_num_sample_100
     RDKit          3D

  0  0  0  0  0  0  0  0  0  0999 V3000
M  V30 BEGIN CTAB
M  V30 COUNTS 37 38 0 0 1
M  V30 BEGIN ATOM
M  V30 1 C 39.251646 29.441755 53.886426 0
M  V30 2 C 37.725908 32.174528 58.699732 0
M  V30 3 C 40.342134 30.181642 50.549273 0
M  V30 4 O 40.267471 29.621365 49.459311 0
M  V30 5 S 39.462740 34.862805 61.453520 0
M  V30 6 O 41.467396 34.125466 63.051072 0
M  V30 7 C 40.152641 32.370540 62.223601 0
M  V30 8 C 38.443022 33.380297 59.274244 0
M  V30 9 C 37.618098 30.020719 57.386200 0
M  V30 10 C 37.725969 29.982270 55.853748 0
M  V30 11 C 40.522994 33.730743 62.371664 0
M  V30 12 C 39.106391 32.200671 61.439753 0
M  V30 13 C 38.329189 31.225757 57.966833 0
M  V30 14 C 38.440894 33.417810 60.810128 0 CFG=1
M  V30 15 C 38.587502 28.118297 53.297270 0
M  V30 16 C 39.093743 28.500472 51.852704 0
M  V30 17 C 39.767129 29.630083 51.778623 0
M  V30 18 C 39.160821 29.721826 55.370016 0
M  V30 19 C 39.867582 30.208424 52.999865 0
M  V30 20 H 36.667469 32.098271 58.904505 0
M  V30 21 H 40.854788 31.136079 50.671671 0
M  V30 22 H 40.691226 31.574496 62.715911 0
M  V30 23 H 39.469135 33.408767 58.902879 0
M  V30 24 H 37.944558 34.270636 58.890042 0
M  V30 25 H 36.568796 30.021418 57.682514 0
M  V30 26 H 38.050316 29.118031 57.818574 0
M  V30 27 H 37.349717 30.916340 55.432652 0
M  V30 28 H 37.067471 29.204073 55.476036 0
M  V30 29 H 38.703620 31.219917 61.231033 0
M  V30 30 H 39.385046 31.303289 57.762732 0
M  V30 31 H 37.422189 33.502316 61.190323 0
M  V30 32 H 37.500040 28.103692 53.373130 0
M  V30 33 H 39.040758 27.203303 53.679028 0
M  V30 34 H 38.889287 27.860589 51.005094 0
M  V30 35 H 39.585128 28.864980 55.894304 0
M  V30 36 H 39.796367 30.576320 55.604661 0
M  V30 37 H 40.377177 31.136591 53.217048 0
M  V30 END ATOM
M  V30 BEGIN BOND
M  V30 1 2 4 3
M  V30 2 1 8 2
M  V30 3 1 10 9
M  V30 4 1 11 5
M  V30 5 2 11 6
M  V30 6 1 11 7
M  V30 7 2 12 7
M  V30 8 2 13 2
M  V30 9 1 13 9
M  V30 10 1 14 5
M  V30 11 1 14 8
M  V30 12 1 14 12
M  V30 13 1 15 1
M  V30 14 1 16 15
M  V30 15 1 17 3
M  V30 16 2 17 16
M  V30 17 1 18 1
M  V30 18 1 18 10
M  V30 19 2 19 1
M  V30 20 1 19 17
M  V30 21 1 20 2
M  V30 22 1 21 3
M  V30 23 1 22 7
M  V30 24 1 23 8
M  V30 25 1 24 8
M  V30 26 1 25 9
M  V30 27 1 26 9
M  V30 28 1 27 10
M  V30 29 1 28 10
M  V30 30 1 29 12
M  V30 31 1 30 13
M  V30 32 1 14 31 CFG=1
M  V30 33 1 32 15
M  V30 34 1 33 15
M  V30 35 1 34 16
M  V30 36 1 35 18
M  V30 37 1 36 18
M  V30 38 1 37 19
M  V30 END BOND
M  V30 END CTAB
M  END
>  <i_epik_Tot_Q>  (1) 
0

>  <i_epik_Tot_abs_Q>  (1) 
0

>  <i_i_glide_confnum>  (1) 
143

>  <i_i_glide_lignum>  (1) 
70

>  <i_i_glide_posenum>  (1) 
40

>  <i_i_glide_rotatable_bonds>  (1) 
7

>  <i_lp_mmshare_version>  (1) 
72125

>  <i_m_source_file_index>  (1) 
29

>  <i_f3d_flags>  (1) 
0

>  <num_sample>  (1) 
100

>  <b_lp_Chiralities_Consistent>  (1) 
1

>  <r_epik_Charging_Adjusted_Penalty>  (1) 
0

>  <r_epik_Ionization_Penalty>  (1) 
0

>  <r_epik_Ionization_Penalty_Charging>  (1) 
0

>  <r_epik_Ionization_Penalty_Neutral>  (1) 
0

>  <r_epik_State_Penalty>  (1) 
-0

>  <r_glide_ring_energy>  (1) 
0

>  <r_i_docking_score>  (1) 
-5.400442340990784

>  <r_i_glide_ecoul>  (1) 
-0.34686887401039646

>  <r_i_glide_eff_state_penalty>  (1) 
-0

>  <r_i_glide_einternal>  (1) 
3.0011378512996698

>  <r_i_glide_emodel>  (1) 
-40.389316991037589

>  <r_i_glide_emodel_strain>  (1) 
0

>  <r_i_glide_energy>  (1) 
-31.134382935038364

>  <r_i_glide_erotb>  (1) 
1.1924995267514154

>  <r_i_glide_esite>  (1) 
0

>  <r_i_glide_evdw>  (1) 
-30.787514061027967

>  <r_i_glide_gscore>  (1) 
-5.400442340990784

>  <r_i_glide_gscore_strain>  (1) 
0

>  <r_i_glide_hbond>  (1) 
0

>  <r_i_glide_ligand_efficiency>  (1) 
-0.28423380742056759

>  <r_i_glide_ligand_efficiency_ln>  (1) 
-1.3691281243073088

>  <r_i_glide_ligand_efficiency_sa>  (1) 
-0.75844996034355838

>  <r_i_glide_lipo>  (1) 
-2.3440331634965768

>  <r_i_glide_metal>  (1) 
-0

>  <r_i_glide_rewards>  (1) 
-2.6575026700926649

>  <r_lp_Energy>  (1) 
-7.384944

>  <r_lp_tautomer_probability>  (1) 
1

>  <s_epik_cmdline>  (1) 
J2VwaWtfcHl0aG9uJywgJy1waHQnLCAnMS4wJywgJy1waCcsICc3LjQnLCAnLXRuJywgJzgnLCAnLW1hJywgJzUwMCcsICctaW1hZScsICc8aW5maWxlLm1hZT4nLCAnLW9tYWUnLCAnPG91dGZpbGUubWFlPic=

>  <s_epik_input>  (1) 
Tz1bQ0hdQyg9W0NIXVtDSDJdMSlbQ0hdPUMxW0NIMl1bQ0gyXVtDSDJdXFtDSF09W0NIXVxbQ0gyXVtDQEhdKFNDMj1PKVtDSF09W0NIXTI=

>  <s_glide_docking_method>  (1) 
confgen

>  <s_i_glide_gridfile>  (1) 
gpcr_5ht2c_6bqh_protein_autoprepared_prepared

>  <s_lp_Force_Field>  (1) 
S-OPLS

>  <s_lp_Variant>  (1) 
DiffSBDD_28_num_sample_100-2

>  <s_m_source_file>  (1) 
generated__ligand_DiffSBDD_2026-05-06_prepared.sdf

>  <GenAI_Model>  (1) 
DiffSBDD

>  <Protein>  (1) 
GPCR_5HT2C

$$$$
DiffSBDD_90_num_sample_100
     RDKit          3D

  0  0  0  0  0  0  0  0  0  0999 V3000
M  V30 BEGIN CTAB
M  V30 COUNTS 85 88 0 0 1
M  V30 BEGIN ATOM
M  V30 1 C 39.911423 27.905720 59.832329 0
M  V30 2 O 41.196831 36.055050 63.057502 0
M  V30 3 F 38.265442 23.621491 55.776812 0
M  V30 4 C 38.361935 29.682557 54.801323 0 CFG=1
M  V30 5 C 37.665854 36.425033 61.810443 0 CFG=2
M  V30 6 C 38.123328 34.342864 60.573078 0 CFG=1
M  V30 7 C 39.652623 30.728479 52.270531 0
M  V30 8 C 38.965219 31.956308 60.615437 0
M  V30 9 C 38.728106 31.193728 54.557624 0
M  V30 10 N 39.764514 36.209721 63.211012 0
M  V30 11 C 37.677678 24.943211 57.542812 0
M  V30 12 C 37.506281 32.089011 54.782410 0
M  V30 13 C 37.027647 35.099993 61.333885 0
M  V30 14 C 39.446313 34.804422 61.204072 0
M  V30 15 O 37.467404 37.359647 59.618922 0
M  V30 16 N 38.758204 28.455946 59.124192 0
M  V30 17 C 37.944390 32.831958 60.602068 0
M  V30 18 F 39.621123 23.704945 57.453487 0
M  V30 19 C 38.658345 26.350822 55.096861 0 CFG=1
M  V30 20 N 38.873976 28.041238 57.705155 0 CHG=1
M  V30 21 C 36.738987 25.728416 56.639198 0
M  V30 22 C 38.760768 29.916723 59.215332 0
M  V30 23 O 39.067410 31.594141 53.228832 0
M  V30 24 C 39.873068 31.681679 55.453851 0
M  V30 25 C 39.898943 28.298637 61.318357 0
M  V30 26 C 39.601310 25.500681 55.946285 0
M  V30 27 C 38.798423 30.454527 60.653548 0 CFG=1
M  V30 28 C 39.201412 36.170350 61.863478 0 CFG=1
M  V30 29 C 39.587702 28.758098 54.773791 0
M  V30 30 O 37.067675 38.687990 61.367297 0 CHG=-1
M  V30 31 C 37.670095 28.129247 56.844518 0 CFG=1
M  V30 32 C 39.931651 29.817165 61.471725 0
M  V30 33 O 37.117582 36.821428 63.053849 0
M  V30 34 C 37.563571 29.489569 56.108810 0
M  V30 35 C 37.467397 26.889583 55.897632 0 CFG=1
M  V30 36 C 39.341059 27.361009 54.169732 0
M  V30 37 C 38.813245 24.421444 56.688862 0
M  V30 38 C 37.374693 37.589817 60.845450 0
M  V30 39 H 39.877400 26.821650 59.738665 0
M  V30 40 H 40.839985 28.245289 59.370747 0
M  V30 41 H 41.379193 35.347629 63.657900 0
M  V30 42 H 37.699355 29.389705 53.984677 0
M  V30 43 H 38.092530 34.665533 59.530809 0
M  V30 44 H 39.702540 31.248849 51.313432 0
M  V30 45 H 40.667386 30.485584 52.533370 0
M  V30 46 H 39.078240 29.814061 52.122405 0
M  V30 47 H 39.979876 32.321643 60.597633 0
M  V30 48 H 39.676257 37.120363 63.643455 0
M  V30 49 H 37.141954 24.108446 57.995770 0
M  V30 50 H 38.049478 25.554379 58.364657 0
M  V30 51 H 37.298511 32.214392 55.842931 0
M  V30 52 H 37.656201 33.094925 54.387132 0
M  V30 53 H 36.624696 31.671612 54.297586 0
M  V30 54 H 36.158967 35.253062 60.693790 0
M  V30 55 H 36.668743 34.519719 62.181775 0
M  V30 56 H 40.248607 34.857016 60.467970 0
M  V30 57 H 39.760926 34.094893 61.970454 0
M  V30 58 H 36.927733 32.466085 60.612367 0
M  V30 59 H 38.224775 25.633572 54.396666 0
M  V30 60 H 39.613859 28.595968 57.300253 0
M  V30 61 H 36.294907 25.058368 55.904055 0
M  V30 62 H 35.911151 26.021429 57.270592 0
M  V30 63 H 37.833383 30.296136 58.791353 0
M  V30 64 H 39.586822 30.322716 58.633310 0
M  V30 65 H 39.792611 31.309643 56.473128 0
M  V30 66 H 40.841005 31.377546 55.053464 0
M  V30 67 H 39.867419 32.769692 55.517613 0
M  V30 68 H 39.017164 27.897554 61.814011 0
M  V30 69 H 40.757934 27.861575 61.826026 0
M  V30 70 H 40.267409 24.993800 55.265155 0
M  V30 71 H 40.221718 26.091668 56.618046 0
M  V30 72 H 37.846507 30.225809 61.129766 0
M  V30 73 H 39.723060 36.935627 61.290595 0
M  V30 74 H 40.267394 29.276652 54.144683 0
M  V30 75 H 40.147581 28.721060 55.703619 0
M  V30 76 H 36.846763 28.130795 57.559359 0
M  V30 77 H 40.896326 30.191675 61.130179 0
M  V30 78 H 39.843298 30.093352 62.523581 0
M  V30 79 H 36.929310 37.745824 62.910899 0
M  V30 80 H 36.517500 29.689039 55.881975 0
M  V30 81 H 37.821441 30.285622 56.792467 0
M  V30 82 H 36.821887 27.189506 55.053824 0
M  V30 83 H 38.739647 27.475305 53.266259 0
M  V30 84 H 40.267417 26.901343 53.819993 0
M  V30 85 H 39.163022 27.075241 57.736893 0
M  V30 END ATOM
M  V30 BEGIN BOND
M  V30 1 1 9 4
M  V30 2 1 10 2
M  V30 3 1 12 9
M  V30 4 1 13 5
M  V30 5 1 13 6
M  V30 6 1 14 6
M  V30 7 1 16 1
M  V30 8 1 17 6
M  V30 9 2 17 8
M  V30 10 1 20 16
M  V30 11 1 21 11
M  V30 12 1 22 16
M  V30 13 1 23 7
M  V30 14 1 23 9
M  V30 15 1 24 9
M  V30 16 1 25 1
M  V30 17 1 26 19
M  V30 18 1 27 8
M  V30 19 1 27 22
M  V30 20 1 28 5
M  V30 21 1 28 10
M  V30 22 1 28 14
M  V30 23 1 29 4
M  V30 24 1 31 20
M  V30 25 1 32 25
M  V30 26 1 32 27
M  V30 27 1 5 33 CFG=1
M  V30 28 1 34 4
M  V30 29 1 34 31
M  V30 30 1 35 19
M  V30 31 1 35 21
M  V30 32 1 35 31
M  V30 33 1 36 19
M  V30 34 1 36 29
M  V30 35 1 37 3
M  V30 36 1 37 11
M  V30 37 1 37 18
M  V30 38 1 37 26
M  V30 39 1 38 5
M  V30 40 2 38 15
M  V30 41 1 38 30
M  V30 42 1 39 1
M  V30 43 1 40 1
M  V30 44 1 41 2
M  V30 45 1 4 42 CFG=3
M  V30 46 1 6 43 CFG=3
M  V30 47 1 44 7
M  V30 48 1 45 7
M  V30 49 1 46 7
M  V30 50 1 47 8
M  V30 51 1 48 10
M  V30 52 1 49 11
M  V30 53 1 50 11
M  V30 54 1 51 12
M  V30 55 1 52 12
M  V30 56 1 53 12
M  V30 57 1 54 13
M  V30 58 1 55 13
M  V30 59 1 56 14
M  V30 60 1 57 14
M  V30 61 1 58 17
M  V30 62 1 19 59 CFG=3
M  V30 63 1 60 20
M  V30 64 1 61 21
M  V30 65 1 62 21
M  V30 66 1 63 22
M  V30 67 1 64 22
M  V30 68 1 65 24
M  V30 69 1 66 24
M  V30 70 1 67 24
M  V30 71 1 68 25
M  V30 72 1 69 25
M  V30 73 1 70 26
M  V30 74 1 71 26
M  V30 75 1 27 72 CFG=1
M  V30 76 1 28 73 CFG=3
M  V30 77 1 74 29
M  V30 78 1 75 29
M  V30 79 1 31 76 CFG=1
M  V30 80 1 77 32
M  V30 81 1 78 32
M  V30 82 1 79 33
M  V30 83 1 80 34
M  V30 84 1 81 34
M  V30 85 1 35 82 CFG=3
M  V30 86 1 83 36
M  V30 87 1 84 36
M  V30 88 1 85 20
M  V30 END BOND
M  V30 END CTAB
M  END
>  <i_epik_Tot_Q>  (1) 
0

>  <i_epik_Tot_abs_Q>  (1) 
2

>  <i_i_glide_confnum>  (1) 
987

>  <i_i_glide_lignum>  (1) 
236

>  <i_i_glide_posenum>  (1) 
269

>  <i_i_glide_rotatable_bonds>  (1) 
10

>  <i_lp_mmshare_version>  (1) 
72125

>  <i_m_source_file_index>  (1) 
91

>  <i_f3d_flags>  (1) 
0

>  <num_sample>  (1) 
100

>  <b_lp_Chiralities_Consistent>  (1) 
1

>  <r_epik_Charging_Adjusted_Penalty>  (1) 
1.3235823108087639

>  <r_epik_Ionization_Penalty>  (1) 
0.58520961668590687

>  <r_epik_Ionization_Penalty_Charging>  (1) 
0.5818654171532841

>  <r_epik_Ionization_Penalty_Neutral>  (1) 
0.0033441995326227757

>  <r_epik_State_Penalty>  (1) 
0.74171689365547977

>  <r_glide_ring_energy>  (1) 
0.76850257944793787

>  <r_i_docking_score>  (1) 
-5.3904522400986039

>  <r_i_glide_ecoul>  (1) 
0.98786969639835798

>  <r_i_glide_eff_state_penalty>  (1) 
0.74171689365547977

>  <r_i_glide_einternal>  (1) 
8.3547803769527498

>  <r_i_glide_emodel>  (1) 
-41.63993984208188

>  <r_i_glide_emodel_strain>  (1) 
5.2083436570870418

>  <r_i_glide_energy>  (1) 
-25.241474808443058

>  <r_i_glide_erotb>  (1) 
0.42002339013477186

>  <r_i_glide_esite>  (1) 
0

>  <r_i_glide_evdw>  (1) 
-26.229344504841418

>  <r_i_glide_gscore>  (1) 
-6.1321691337540836

>  <r_i_glide_gscore_strain>  (1) 
0.30208591427176046

>  <r_i_glide_hbond>  (1) 
0

>  <r_i_glide_ligand_efficiency>  (1) 
-0.14185400631838432

>  <r_i_glide_ligand_efficiency_ln>  (1) 
-1.1623400740044982

>  <r_i_glide_ligand_efficiency_sa>  (1) 
-0.4769096805983129

>  <r_i_glide_lipo>  (1) 
-4.5798006919374945

>  <r_i_glide_metal>  (1) 
-0

>  <r_i_glide_rewards>  (1) 
-1.1111909754408047

>  <r_lp_Energy>  (1) 
58.928919

>  <s_epik_Chemistry_Notes>  (1) 
This compound has a N-S or N-O group and may undergo hydrolysis at high or low pH.

>  <s_epik_cmdline>  (1) 
J2VwaWtfcHl0aG9uJywgJy1waHQnLCAnMS4wJywgJy1waCcsICc3LjQnLCAnLXRuJywgJzgnLCAnLW1hJywgJzUwMCcsICctaW1hZScsICc8aW5maWxlLm1hZT4nLCAnLW9tYWUnLCAnPG91dGZpbGUubWFlPic=

>  <s_epik_input>  (1) 
RkMoRikoW0NIMl0xKVtDSDJdW0NIMl1bQ0BIXShbQ0BASF0xMilbQ0BIXShbQ0gyXVtDQEhdKFtDSDJdW0NIMl0yKUMoW0NIM10pKFtDSDNdKU9bQ0gzXSlbTkhdTjNbQ0gyXVtDSDJdW0NIMl1bQ0BIXShbQ0gyXTMpL1tDSF09W0NIXS9bQ0BASF0oW0NIMl1bQ0BdNChbT0hdKUMoPU8pW09IXSlbQ0gyXVtDQEBIXTRbTkhdW09IXQ==

>  <s_glide_docking_method>  (1) 
confgen

>  <s_i_glide_gridfile>  (1) 
gpcr_5ht2c_6bqh_protein_autoprepared_prepared

>  <s_lp_Force_Field>  (1) 
S-OPLS

>  <s_lp_Variant>  (1) 
DiffSBDD_90_num_sample_100-8

>  <s_m_source_file>  (1) 
generated__ligand_DiffSBDD_2026-05-06_prepared.sdf

>  <GenAI_Model>  (1) 
DiffSBDD

>  <Protein>  (1) 
GPCR_5HT2C

$$$$
DiffSBDD_20_num_sample_100
     RDKit          3D

  0  0  0  0  0  0  0  0  0  0999 V3000
M  V30 BEGIN CTAB
M  V30 COUNTS 55 55 0 0 1
M  V30 BEGIN ATOM
M  V30 1 C 39.171206 27.029677 57.358770 0 CFG=1
M  V30 2 C 38.852520 28.669510 55.256655 0 CFG=2
M  V30 3 C 39.629933 29.585213 59.482578 0
M  V30 4 C 39.198639 24.463391 57.028605 0
M  V30 5 N 38.966453 28.520750 53.822883 0
M  V30 6 C 39.145329 30.954599 53.488125 0
M  V30 7 O 40.910343 32.989445 63.469434 0
M  V30 8 C 39.975253 33.271977 61.300793 0
M  V30 9 C 38.873756 30.933623 61.396500 0
M  V30 10 C 40.745386 29.608127 51.061264 0
M  V30 11 N 38.924199 30.615139 59.970273 0
M  V30 12 O 40.327315 28.844895 60.174112 0
M  V30 13 C 38.332127 26.831574 58.621319 0
M  V30 14 C 40.020554 25.760009 57.160750 0
M  V30 15 C 39.120734 29.503100 53.023927 0
M  V30 16 C 41.140048 32.942587 62.241974 0
M  V30 17 O 39.467399 26.840195 51.614130 0
M  V30 18 N 39.467090 29.433282 58.155185 0
M  V30 19 C 40.225173 28.741085 55.935238 0
M  V30 20 S 38.071477 27.198302 55.927487 0
M  V30 21 C 38.824865 27.926470 50.988458 0
M  V30 22 O 42.233977 32.649982 61.711861 0 CHG=-1
M  V30 23 C 40.062331 28.315375 57.399267 0 CFG=2
M  V30 24 C 39.308362 29.298793 51.509555 0 CFG=2
M  V30 25 C 38.714312 32.447155 61.627366 0
M  V30 26 H 38.234052 29.522073 55.541018 0
M  V30 27 H 39.867419 23.621330 57.053667 0
M  V30 28 H 38.499187 24.296226 57.845969 0
M  V30 29 H 38.645327 24.421411 56.090527 0
M  V30 30 H 39.399770 31.621498 52.665850 0
M  V30 31 H 40.267392 33.109018 60.264364 0
M  V30 32 H 39.756089 34.335328 61.398135 0
M  V30 33 H 38.007574 30.421804 61.816545 0
M  V30 34 H 39.741775 30.550901 61.938580 0
M  V30 35 H 41.067404 30.595615 51.392714 0
M  V30 36 H 41.450525 28.875047 51.453546 0
M  V30 37 H 40.822857 29.607747 49.974413 0
M  V30 38 H 38.371998 31.178198 59.341463 0
M  V30 39 H 38.951768 26.512579 59.453353 0
M  V30 40 H 37.867418 27.756530 58.918105 0
M  V30 41 H 37.536712 26.105606 58.465189 0
M  V30 42 H 40.659547 25.863016 56.283177 0
M  V30 43 H 40.696134 25.656379 58.010081 0
M  V30 44 H 39.326907 26.943574 52.549172 0
M  V30 45 H 38.874005 30.077856 57.655428 0
M  V30 46 H 40.896319 28.034432 55.453502 0
M  V30 47 H 40.667306 29.722935 55.829235 0
M  V30 48 H 39.001947 27.856519 49.915952 0
M  V30 49 H 37.754331 27.821201 51.152077 0
M  V30 50 H 41.044943 28.089855 57.820385 0
M  V30 51 H 38.682157 30.019182 50.988629 0
M  V30 52 H 37.874783 32.820721 61.039257 0
M  V30 53 H 38.432382 32.618559 62.665402 0
M  V30 54 H 38.171905 31.252281 53.879105 0
M  V30 55 H 39.894769 31.109192 54.262222 0
M  V30 END ATOM
M  V30 BEGIN BOND
M  V30 1 1 5 2
M  V30 2 1 11 3
M  V30 3 1 11 9
M  V30 4 2 12 3
M  V30 5 1 1 13 CFG=1
M  V30 6 1 14 1
M  V30 7 1 14 4
M  V30 8 2 15 5
M  V30 9 1 15 6
M  V30 10 2 16 7
M  V30 11 1 16 8
M  V30 12 1 18 3
M  V30 13 1 19 2
M  V30 14 1 20 1
M  V30 15 1 20 2
M  V30 16 1 21 17
M  V30 17 1 22 16
M  V30 18 1 23 1
M  V30 19 1 23 18
M  V30 20 1 23 19
M  V30 21 1 24 10
M  V30 22 1 24 15
M  V30 23 1 24 21
M  V30 24 1 25 8
M  V30 25 1 25 9
M  V30 26 1 2 26 CFG=3
M  V30 27 1 27 4
M  V30 28 1 28 4
M  V30 29 1 29 4
M  V30 30 1 30 6
M  V30 31 1 31 8
M  V30 32 1 32 8
M  V30 33 1 33 9
M  V30 34 1 34 9
M  V30 35 1 35 10
M  V30 36 1 36 10
M  V30 37 1 37 10
M  V30 38 1 38 11
M  V30 39 1 39 13
M  V30 40 1 40 13
M  V30 41 1 41 13
M  V30 42 1 42 14
M  V30 43 1 43 14
M  V30 44 1 44 17
M  V30 45 1 45 18
M  V30 46 1 46 19
M  V30 47 1 47 19
M  V30 48 1 48 21
M  V30 49 1 49 21
M  V30 50 1 23 50 CFG=1
M  V30 51 1 24 51 CFG=3
M  V30 52 1 52 25
M  V30 53 1 53 25
M  V30 54 1 54 6
M  V30 55 1 55 6
M  V30 END BOND
M  V30 END CTAB
M  END
>  <i_epik_Tot_Q>  (1) 
-1

>  <i_epik_Tot_abs_Q>  (1) 
1

>  <i_i_glide_confnum>  (1) 
573

>  <i_i_glide_lignum>  (1) 
56

>  <i_i_glide_posenum>  (1) 
304

>  <i_i_glide_rotatable_bonds>  (1) 
12

>  <i_lp_mmshare_version>  (1) 
72125

>  <i_m_source_file_index>  (1) 
21

>  <i_f3d_flags>  (1) 
0

>  <num_sample>  (1) 
100

>  <b_lp_Chiralities_Consistent>  (1) 
1

>  <r_epik_Charging_Adjusted_Penalty>  (1) 
0.43743025276339681

>  <r_epik_Ionization_Penalty>  (1) 
0.026773266926762091

>  <r_epik_Ionization_Penalty_Charging>  (1) 
0.0015534882308521432

>  <r_epik_Ionization_Penalty_Neutral>  (1) 
0.025219778695909949

>  <r_epik_State_Penalty>  (1) 
0.43587676453254465

>  <r_glide_ring_energy>  (1) 
0

>  <r_i_docking_score>  (1) 
-5.3865281275463266

>  <r_i_glide_ecoul>  (1) 
-1.6830338361440349

>  <r_i_glide_eff_state_penalty>  (1) 
0.43587676453254465

>  <r_i_glide_einternal>  (1) 
6.3106692547589756

>  <r_i_glide_emodel>  (1) 
-40.564871989603148

>  <r_i_glide_emodel_strain>  (1) 
0.25187023559765365

>  <r_i_glide_energy>  (1) 
-30.872605550237619

>  <r_i_glide_erotb>  (1) 
1.2527341714622291

>  <r_i_glide_esite>  (1) 
0

>  <r_i_glide_evdw>  (1) 
-29.189571714093585

>  <r_i_glide_gscore>  (1) 
-5.8224048920788709

>  <r_i_glide_gscore_strain>  (1) 
0

>  <r_i_glide_hbond>  (1) 
0

>  <r_i_glide_ligand_efficiency>  (1) 
-0.21546112510185306

>  <r_i_glide_ligand_efficiency_ln>  (1) 
-1.276768587450569

>  <r_i_glide_ligand_efficiency_sa>  (1) 
-0.63001215169311986

>  <r_i_glide_lipo>  (1) 
-3.3041735290673091

>  <r_i_glide_metal>  (1) 
-0

>  <r_i_glide_rewards>  (1) 
-2.0590318733475064

>  <r_lp_Energy>  (1) 
19.737282

>  <r_lp_tautomer_probability>  (1) 
0.49999399997599986

>  <s_epik_Chemistry_Notes>  (1) 
This compound has an imine and may undergo hydrolysis. This compound contains an acetal/aminal-like group ( X-CH(R)-Y where X, Y are N, S, or O) that may be acid/base labile, releasing an aldehyde.

>  <s_epik_cmdline>  (1) 
J2VwaWtfcHl0aG9uJywgJy1waHQnLCAnMS4wJywgJy1waCcsICc3LjQnLCAnLXRuJywgJzgnLCAnLW1hJywgJzUwMCcsICctaW1hZScsICc8aW5maWxlLm1hZT4nLCAnLW9tYWUnLCAnPG91dGZpbGUubWFlPic=

>  <s_epik_input>  (1) 
W09IXVtDSDJdW0NAQEhdKFtDSDNdKUMoPVtDSDJdKVtOSF1bQ0BASF0oU1tDQEBdMShbQ0gzXSlbQ0gyXVtDSDNdKVtDSDJdW0NASF0xW05IXUMoPU8pW05IXVtDSDJdW0NIMl1bQ0gyXUMoPU8pW09IXQ==

>  <s_glide_docking_method>  (1) 
confgen

>  <s_i_glide_gridfile>  (1) 
gpcr_5ht2c_6bqh_protein_autoprepared_prepared

>  <s_lp_Force_Field>  (1) 
S-OPLS

>  <s_lp_Variant>  (1) 
DiffSBDD_20_num_sample_100-4

>  <s_m_source_file>  (1) 
generated__ligand_DiffSBDD_2026-05-06_prepared.sdf

>  <GenAI_Model>  (1) 
DiffSBDD

>  <Protein>  (1) 
GPCR_5HT2C

$$$$
DiffSBDD_18_num_sample_100
     RDKit          3D

  0  0  0  0  0  0  0  0  0  0999 V3000
M  V30 BEGIN CTAB
M  V30 COUNTS 71 73 0 0 1
M  V30 BEGIN ATOM
M  V30 1 O 39.565826 34.259600 62.768537 0
M  V30 2 C 39.867482 30.297613 52.706680 0
M  V30 3 C 37.867365 32.191868 57.542007 0
M  V30 4 C 39.782367 29.781330 51.487649 0
M  V30 5 O 36.496814 32.997201 59.853498 0
M  V30 6 C 39.561276 29.675145 55.060937 0 CFG=2
M  V30 7 C 41.901784 31.981590 67.328237 0
M  V30 8 N 39.467401 29.458159 53.598657 0 CHG=1
M  V30 9 N 39.512603 28.409000 55.799024 0
M  V30 10 C 41.472291 34.793691 64.104424 0
M  V30 11 C 41.728038 31.169470 64.994679 0
M  V30 12 O 41.068209 31.621095 68.154583 0
M  V30 13 O 39.067358 27.685806 50.653501 0
M  V30 14 C 44.730500 30.736655 67.514189 0
M  V30 15 C 39.845935 32.567575 56.061064 0
M  V30 16 C 39.306462 28.573114 51.620360 0
M  V30 17 C 44.383707 29.745302 65.244608 0
M  V30 18 C 41.431442 32.338922 64.384445 0
M  V30 19 C 37.653248 33.379651 59.676883 0
M  V30 20 N 42.448564 33.220956 67.240009 0
M  V30 21 C 38.965443 31.505432 56.718612 0 CFG=2
M  V30 22 C 40.902861 34.726398 62.698775 0 CFG=2
M  V30 23 C 38.434321 30.559980 55.617839 0 CFG=2
M  V30 24 C 37.467736 29.481110 56.090232 0
M  V30 25 O 43.960837 28.607193 65.548295 0 CHG=-1
M  V30 26 C 38.973326 28.069731 53.046350 0
M  V30 27 C 42.305984 34.022540 66.257188 0
M  V30 28 C 38.325830 34.280515 60.697876 0
M  V30 29 C 39.112466 33.439979 61.706578 0
M  V30 30 C 40.909693 36.111916 62.041565 0
M  V30 31 C 41.722069 33.717467 64.887519 0
M  V30 32 C 42.431171 31.011853 66.306861 0 CFG=1
M  V30 33 C 43.987512 30.911369 66.171487 0 CFG=1
M  V30 34 N 38.385153 33.040961 58.604791 0
M  V30 35 N 38.267379 28.317940 56.463322 0
M  V30 36 O 45.097489 30.021423 64.255966 0
M  V30 37 H 40.229922 31.284123 52.976709 0
M  V30 38 H 37.267064 32.821438 56.887785 0
M  V30 39 H 37.217537 31.444383 57.993868 0
M  V30 40 H 40.073799 30.304525 50.587794 0
M  V30 41 H 40.553098 30.092809 55.216544 0
M  V30 42 H 39.655047 27.604353 55.193504 0
M  V30 43 H 41.686882 35.785999 64.480980 0
M  V30 44 H 41.456780 30.247168 64.499876 0
M  V30 45 H 37.910120 27.942297 53.253808 0
M  V30 46 H 45.790473 30.534899 67.354026 0
M  V30 47 H 44.670245 31.637641 68.124495 0
M  V30 48 H 44.321394 29.907744 68.092768 0
M  V30 49 H 39.272121 33.191897 55.375526 0
M  V30 50 H 40.268724 33.221444 56.809804 0
M  V30 51 H 40.667208 32.112376 55.512605 0
M  V30 52 H 40.937455 32.261002 63.430331 0
M  V30 53 H 39.563189 30.909794 57.409379 0
M  V30 54 H 41.542593 34.053840 62.125834 0
M  V30 55 H 37.953478 31.160239 54.842909 0
M  V30 56 H 36.853119 29.221480 55.229036 0
M  V30 57 H 36.783057 29.760136 56.887600 0
M  V30 58 H 39.611379 27.258320 53.398808 0
M  V30 59 H 42.606276 35.068324 66.370340 0
M  V30 60 H 38.967184 34.995195 60.188379 0
M  V30 61 H 37.557806 34.856076 61.214755 0
M  V30 62 H 38.451645 32.692277 62.149110 0
M  V30 63 H 39.921702 32.884202 61.227688 0
M  V30 64 H 41.867351 36.604018 62.181693 0
M  V30 65 H 40.737858 36.050111 60.968844 0
M  V30 66 H 40.146813 36.758343 62.475569 0
M  V30 67 H 42.090678 30.040244 66.672143 0
M  V30 68 H 44.356139 31.827048 65.708092 0
M  V30 69 H 39.328399 33.387564 58.518436 0
M  V30 70 H 37.795608 27.446363 56.228123 0
M  V30 71 H 39.262983 28.099914 49.826591 0
M  V30 END ATOM
M  V30 BEGIN BOND
M  V30 1 1 4 2
M  V30 2 2 8 2
M  V30 3 1 8 6
M  V30 4 1 9 6
M  V30 5 2 12 7
M  V30 6 2 16 4
M  V30 7 1 16 13
M  V30 8 2 18 11
M  V30 9 2 19 5
M  V30 10 1 20 7
M  V30 11 1 21 3
M  V30 12 1 21 15
M  V30 13 1 22 1
M  V30 14 1 22 10
M  V30 15 1 23 6
M  V30 16 1 23 21
M  V30 17 1 24 23
M  V30 18 1 25 17
M  V30 19 1 26 8
M  V30 20 1 26 16
M  V30 21 2 27 20
M  V30 22 1 28 19
M  V30 23 1 29 1
M  V30 24 1 29 28
M  V30 25 1 30 22
M  V30 26 2 31 10
M  V30 27 1 31 18
M  V30 28 1 31 27
M  V30 29 1 32 7
M  V30 30 1 32 11
M  V30 31 1 33 14
M  V30 32 1 33 17
M  V30 33 1 33 32
M  V30 34 1 34 3
M  V30 35 1 34 19
M  V30 36 1 35 9
M  V30 37 1 35 24
M  V30 38 2 36 17
M  V30 39 1 37 2
M  V30 40 1 38 3
M  V30 41 1 39 3
M  V30 42 1 40 4
M  V30 43 1 6 41 CFG=3
M  V30 44 1 42 9
M  V30 45 1 43 10
M  V30 46 1 44 11
M  V30 47 1 45 26
M  V30 48 1 46 14
M  V30 49 1 47 14
M  V30 50 1 48 14
M  V30 51 1 49 15
M  V30 52 1 50 15
M  V30 53 1 51 15
M  V30 54 1 52 18
M  V30 55 1 21 53 CFG=1
M  V30 56 1 22 54 CFG=3
M  V30 57 1 23 55 CFG=3
M  V30 58 1 56 24
M  V30 59 1 57 24
M  V30 60 1 58 26
M  V30 61 1 59 27
M  V30 62 1 60 28
M  V30 63 1 61 28
M  V30 64 1 62 29
M  V30 65 1 63 29
M  V30 66 1 64 30
M  V30 67 1 65 30
M  V30 68 1 66 30
M  V30 69 1 32 67 CFG=1
M  V30 70 1 33 68 CFG=3
M  V30 71 1 69 34
M  V30 72 1 70 35
M  V30 73 1 71 13
M  V30 END BOND
M  V30 END CTAB
M  END
>  <i_epik_Tot_Q>  (1) 
0

>  <i_epik_Tot_abs_Q>  (1) 
2

>  <i_i_glide_confnum>  (1) 
2680

>  <i_i_glide_lignum>  (1) 
45

>  <i_i_glide_posenum>  (1) 
176

>  <i_i_glide_rotatable_bonds>  (1) 
13

>  <i_lp_mmshare_version>  (1) 
72125

>  <i_m_source_file_index>  (1) 
19

>  <i_f3d_flags>  (1) 
0

>  <num_sample>  (1) 
100

>  <b_lp_Chiralities_Consistent>  (1) 
1

>  <r_epik_Charging_Adjusted_Penalty>  (1) 
0.76693695219889413

>  <r_epik_Ionization_Penalty>  (1) 
0.76778133156762796

>  <r_epik_Ionization_Penalty_Charging>  (1) 
0.00011398914501928687

>  <r_epik_Ionization_Penalty_Neutral>  (1) 
0.7676673424226087

>  <r_epik_State_Penalty>  (1) 
0.76682296305387487

>  <r_glide_ring_energy>  (1) 
1.7561163794185919

>  <r_i_docking_score>  (1) 
-5.3849661371877602

>  <r_i_glide_ecoul>  (1) 
-1.2706535543911879

>  <r_i_glide_eff_state_penalty>  (1) 
0.76682296305387487

>  <r_i_glide_einternal>  (1) 
9.426183970766516

>  <r_i_glide_emodel>  (1) 
-59.480199530651888

>  <r_i_glide_emodel_strain>  (1) 
1.5750109305339492

>  <r_i_glide_energy>  (1) 
-45.919894465380061

>  <r_i_glide_erotb>  (1) 
0.89312676016186854

>  <r_i_glide_esite>  (1) 
-0.040309486473056655

>  <r_i_glide_evdw>  (1) 
-44.649240910988873

>  <r_i_glide_gscore>  (1) 
-6.1517891002416354

>  <r_i_glide_gscore_strain>  (1) 
0

>  <r_i_glide_hbond>  (1) 
0

>  <r_i_glide_ligand_efficiency>  (1) 
-0.14958239269966001

>  <r_i_glide_ligand_efficiency_ln>  (1) 
-1.1748541261622027

>  <r_i_glide_ligand_efficiency_sa>  (1) 
-0.49391017840986418

>  <r_i_glide_lipo>  (1) 
-2.8709886982332615

>  <r_i_glide_metal>  (1) 
-0

>  <r_i_glide_rewards>  (1) 
-1.7105575969890627

>  <r_lp_Energy>  (1) 
33.335281999999999

>  <r_lp_tautomer_probability>  (1) 
0.99929914239148299

>  <s_epik_Chemistry_Notes>  (1) 
This compound has an imine and may undergo hydrolysis. This compound contains an acetal/aminal-like group ( X-CH(R)-Y where X, Y are N, S, or O) that may be acid/base labile, releasing an aldehyde.

>  <s_epik_cmdline>  (1) 
J2VwaWtfcHl0aG9uJywgJy1waHQnLCAnMS4wJywgJy1waCcsICc3LjQnLCAnLXRuJywgJzgnLCAnLW1hJywgJzUwMCcsICctaW1hZScsICc8aW5maWxlLm1hZT4nLCAnLW9tYWUnLCAnPG91dGZpbGUubWFlPic=

>  <s_epik_input>  (1) 
W09IXUMoPU8pW0NASF0oW0NIM10pW0NAQEhdMVtDSF09W0NIXS9DKFtDSF09TkMxPU8pPVtDSF1cW0NASF0oW0NIM10pT1tDSDJdW0NIMl1DKD1PKVtOSF1bQ0gyXVtDQEhdKFtDSDNdKVtDQEBIXTJbQ0gyXVtOSF1bTkhdW0NASF0ybjNbY0hdW2NIXWMoW09IXSlbY0hdMw==

>  <s_glide_docking_method>  (1) 
confgen

>  <s_i_glide_gridfile>  (1) 
gpcr_5ht2c_6bqh_protein_autoprepared_prepared

>  <s_lp_Force_Field>  (1) 
S-OPLS

>  <s_lp_Variant>  (1) 
DiffSBDD_18_num_sample_100-5

>  <s_m_source_file>  (1) 
generated__ligand_DiffSBDD_2026-05-06_prepared.sdf

>  <GenAI_Model>  (1) 
DiffSBDD

>  <Protein>  (1) 
GPCR_5HT2C

$$$$
DiffSBDD_60_num_sample_100
     RDKit          3D

  0  0  0  0  0  0  0  0  0  0999 V3000
M  V30 BEGIN CTAB
M  V30 COUNTS 74 76 0 0 1
M  V30 BEGIN ATOM
M  V30 1 C 37.348199 35.741231 61.844671 0
M  V30 2 C 39.786485 28.657583 50.664036 0
M  V30 3 C 39.953895 29.729110 51.556150 0
M  V30 4 C 37.172232 30.599593 58.653958 0
M  V30 5 N 39.204365 35.640400 60.889271 0
M  V30 6 C 35.067411 33.784773 61.836632 0
M  V30 7 C 39.726962 26.568019 55.109545 0
M  V30 8 C 39.582380 29.764325 58.511690 0
M  V30 9 C 38.092260 29.379846 58.597917 0 CFG=2
M  V30 10 C 39.373973 33.340821 59.954912 0
M  V30 11 C 38.983595 27.803485 55.670605 0 CFG=1
M  V30 12 O 35.799926 33.221446 59.053510 0
M  V30 13 C 37.359146 26.308424 57.172807 0 CFG=1
M  V30 14 C 37.866711 25.276376 58.199670 0
M  V30 15 C 37.559600 31.688656 59.670459 0 CFG=1
M  V30 16 N 38.506956 32.613823 59.039444 0
M  V30 17 C 38.038014 28.458772 54.628551 0
M  V30 18 C 38.663241 34.404805 60.703095 0
M  V30 19 C 36.444373 33.278415 61.421111 0 CFG=1
M  V30 20 C 36.298520 32.443757 60.128392 0 CFG=1
M  V30 21 O 40.667174 30.821431 51.171579 0
M  V30 22 C 39.386182 29.670385 52.846110 0
M  V30 23 C 37.448567 34.406768 61.313971 0
M  V30 24 C 36.267261 24.698587 55.725937 0
M  V30 25 C 36.889043 23.336062 55.852330 0
M  V30 26 C 39.047740 27.527462 51.053477 0
M  V30 27 C 38.301357 27.533491 57.051258 0 CFG=2
M  V30 28 O 37.619109 28.709246 57.437115 0
M  V30 29 N 38.422673 36.481548 61.579347 0
M  V30 30 C 40.581396 25.874153 56.143096 0
M  V30 31 C 38.643511 28.536803 53.235727 0
M  V30 32 C 38.472211 27.468720 52.335139 0
M  V30 33 O 37.170985 25.756599 55.878175 0
M  V30 34 H 36.541384 36.182713 62.410442 0
M  V30 35 H 40.223695 28.704788 49.678590 0
M  V30 36 H 37.132211 31.039828 57.658949 0
M  V30 37 H 36.163591 30.230658 58.843625 0
M  V30 38 H 35.104501 34.420932 62.713936 0
M  V30 39 H 34.368541 32.976060 62.043890 0
M  V30 40 H 34.667410 34.366256 61.012680 0
M  V30 41 H 40.377183 26.821434 54.277908 0
M  V30 42 H 39.055888 25.840867 54.661751 0
M  V30 43 H 39.867390 30.300586 59.415655 0
M  V30 44 H 39.769346 30.401624 57.646449 0
M  V30 45 H 40.265987 28.920037 58.455085 0
M  V30 46 H 37.927660 28.757606 59.478307 0
M  V30 47 H 39.870496 32.656468 60.643869 0
M  V30 48 H 40.152433 33.816773 59.365025 0
M  V30 49 H 39.764279 28.541998 55.858069 0
M  V30 50 H 35.613240 32.638553 58.312100 0
M  V30 51 H 36.402179 26.658600 57.549191 0
M  V30 52 H 38.268811 25.773227 59.076830 0
M  V30 53 H 38.640332 24.623150 57.803615 0
M  V30 54 H 37.057056 24.632569 58.533179 0
M  V30 55 H 38.012070 31.200981 60.535483 0
M  V30 56 H 37.931671 33.295187 58.545630 0
M  V30 57 H 37.106944 27.896986 54.557668 0
M  V30 58 H 37.756832 29.460626 54.955884 0
M  V30 59 H 36.781406 32.598375 62.204042 0
M  V30 60 H 35.529590 31.701147 60.345805 0
M  V30 61 H 39.518900 30.492454 53.535061 0
M  V30 62 H 35.867504 24.740434 54.720116 0
M  V30 63 H 35.467402 24.821459 56.443876 0
M  V30 64 H 36.175329 22.545065 55.620619 0
M  V30 65 H 37.195602 23.221436 56.882401 0
M  V30 66 H 37.744359 23.239846 55.184219 0
M  V30 67 H 38.917943 26.705050 50.367096 0
M  V30 68 H 39.079385 27.370350 57.785834 0
M  V30 69 H 40.107571 35.930040 60.540971 0
M  V30 70 H 40.667565 24.832916 55.853496 0
M  V30 71 H 40.201906 25.814744 57.147857 0
M  V30 72 H 41.508881 26.421433 56.253541 0
M  V30 73 H 37.903062 26.599528 52.632193 0
M  V30 74 H 40.666783 31.527676 51.801327 0
M  V30 END ATOM
M  V30 BEGIN BOND
M  V30 1 2 3 2
M  V30 2 1 9 4
M  V30 3 1 9 8
M  V30 4 1 11 7
M  V30 5 1 14 13
M  V30 6 1 15 4
M  V30 7 1 16 10
M  V30 8 1 16 15
M  V30 9 1 17 11
M  V30 10 1 18 5
M  V30 11 1 18 10
M  V30 12 1 19 6
M  V30 13 1 20 12
M  V30 14 1 20 15
M  V30 15 1 20 19
M  V30 16 1 21 3
M  V30 17 1 22 3
M  V30 18 1 23 1
M  V30 19 2 23 18
M  V30 20 1 23 19
M  V30 21 1 25 24
M  V30 22 1 26 2
M  V30 23 1 27 11
M  V30 24 1 27 13
M  V30 25 1 28 9
M  V30 26 1 28 27
M  V30 27 2 29 1
M  V30 28 1 29 5
M  V30 29 1 30 7
M  V30 30 1 31 17
M  V30 31 2 31 22
M  V30 32 2 32 26
M  V30 33 1 32 31
M  V30 34 1 33 13
M  V30 35 1 33 24
M  V30 36 1 34 1
M  V30 37 1 35 2
M  V30 38 1 36 4
M  V30 39 1 37 4
M  V30 40 1 38 6
M  V30 41 1 39 6
M  V30 42 1 40 6
M  V30 43 1 41 7
M  V30 44 1 42 7
M  V30 45 1 43 8
M  V30 46 1 44 8
M  V30 47 1 45 8
M  V30 48 1 9 46 CFG=1
M  V30 49 1 47 10
M  V30 50 1 48 10
M  V30 51 1 11 49 CFG=1
M  V30 52 1 50 12
M  V30 53 1 13 51 CFG=1
M  V30 54 1 52 14
M  V30 55 1 53 14
M  V30 56 1 54 14
M  V30 57 1 15 55 CFG=1
M  V30 58 1 56 16
M  V30 59 1 57 17
M  V30 60 1 58 17
M  V30 61 1 19 59 CFG=1
M  V30 62 1 20 60 CFG=1
M  V30 63 1 61 22
M  V30 64 1 62 24
M  V30 65 1 63 24
M  V30 66 1 64 25
M  V30 67 1 65 25
M  V30 68 1 66 25
M  V30 69 1 67 26
M  V30 70 1 27 68 CFG=1
M  V30 71 1 69 5
M  V30 72 1 70 30
M  V30 73 1 71 30
M  V30 74 1 72 30
M  V30 75 1 73 32
M  V30 76 1 74 21
M  V30 END BOND
M  V30 END CTAB
M  END
>  <i_epik_Tot_Q>  (1) 
0

>  <i_epik_Tot_abs_Q>  (1) 
0

>  <i_i_glide_confnum>  (1) 
2837

>  <i_i_glide_lignum>  (1) 
154

>  <i_i_glide_posenum>  (1) 
36

>  <i_i_glide_rotatable_bonds>  (1) 
13

>  <i_lp_mmshare_version>  (1) 
72125

>  <i_m_source_file_index>  (1) 
61

>  <i_f3d_flags>  (1) 
0

>  <num_sample>  (1) 
100

>  <b_lp_Chiralities_Consistent>  (1) 
1

>  <r_epik_Charging_Adjusted_Penalty>  (1) 
0.96999093632078437

>  <r_epik_Ionization_Penalty>  (1) 
0.47106789062039978

>  <r_epik_Ionization_Penalty_Charging>  (1) 
0

>  <r_epik_Ionization_Penalty_Neutral>  (1) 
0.47106789062039978

>  <r_epik_State_Penalty>  (1) 
0.96999093632078437

>  <r_glide_ring_energy>  (1) 
0

>  <r_i_docking_score>  (1) 
-5.3822974824822456

>  <r_i_glide_ecoul>  (1) 
-4.238371812910902

>  <r_i_glide_eff_state_penalty>  (1) 
0.96999093632078437

>  <r_i_glide_einternal>  (1) 
9.1173467776071959

>  <r_i_glide_emodel>  (1) 
-48.073890953400401

>  <r_i_glide_emodel_strain>  (1) 
3.0767977057972686

>  <r_i_glide_energy>  (1) 
-36.021557306435426

>  <r_i_glide_erotb>  (1) 
0.85721886193159891

>  <r_i_glide_esite>  (1) 
0

>  <r_i_glide_evdw>  (1) 
-31.783185493524524

>  <r_i_glide_gscore>  (1) 
-6.3522884188030302

>  <r_i_glide_gscore_strain>  (1) 
0

>  <r_i_glide_hbond>  (1) 
-0.16

>  <r_i_glide_ligand_efficiency>  (1) 
-0.16309992371158319

>  <r_i_glide_ligand_efficiency_ln>  (1) 
-1.1969950920591528

>  <r_i_glide_ligand_efficiency_sa>  (1) 
-0.52314860452460343

>  <r_i_glide_lipo>  (1) 
-4.2842941154119805

>  <r_i_glide_metal>  (1) 
-0

>  <r_i_glide_rewards>  (1) 
-0.54029811870978672

>  <r_lp_Energy>  (1) 
22.684680999999998

>  <r_lp_tautomer_probability>  (1) 
0.49999999999868239

>  <s_epik_cmdline>  (1) 
J2VwaWtfcHl0aG9uJywgJy1waHQnLCAnMS4wJywgJy1waCcsICc3LjQnLCAnLXRuJywgJzgnLCAnLW1hJywgJzUwMCcsICctaW1hZScsICc8aW5maWxlLm1hZT4nLCAnLW9tYWUnLCAnPG91dGZpbGUubWFlPic=

>  <s_epik_input>  (1) 
bjFbbkhdW2NIXWMoYzEyKVtDQEBIXShbQ0gzXSlbQ0BASF0oW09IXSlbQ0BIXShbTkhdW0NIMl0yKVtDSDJdW0NASF0oW0NIM10pT1tDQEBIXShbQ0BIXShbQ0gzXSlPW0NIMl1bQ0gzXSlbQ0BASF0oW0NIMl1bQ0gzXSlbQ0gyXUMoPVtDSF0zKVtDSDJdW0NIXT1bQ0hdQzM9Tw==

>  <s_glide_docking_method>  (1) 
confgen

>  <s_i_glide_gridfile>  (1) 
gpcr_5ht2c_6bqh_protein_autoprepared_prepared

>  <s_lp_Force_Field>  (1) 
S-OPLS

>  <s_lp_Variant>  (1) 
DiffSBDD_60_num_sample_100-3

>  <s_m_source_file>  (1) 
generated__ligand_DiffSBDD_2026-05-06_prepared.sdf

>  <GenAI_Model>  (1) 
DiffSBDD

>  <Protein>  (1) 
GPCR_5HT2C

$$$$
DiffSBDD_1_num_sample_100
     RDKit          3D

  0  0  0  0  0  0  0  0  0  0999 V3000
M  V30 BEGIN CTAB
M  V30 COUNTS 63 66 0 0 1
M  V30 BEGIN ATOM
M  V30 1 C 40.819304 33.980443 62.382542 0
M  V30 2 C 38.310189 28.122689 54.717486 0
M  V30 3 O 41.851142 35.175293 63.972071 0
M  V30 4 C 37.391198 29.934242 56.247619 0 CFG=1
M  V30 5 C 40.516792 32.748654 61.623850 0
M  V30 6 C 38.931570 31.612569 57.292292 0
M  V30 7 C 39.237022 25.691477 56.604395 0
M  V30 8 C 38.193783 27.963341 52.425376 0
M  V30 9 N 39.088926 26.888436 52.927856 0 CHG=1
M  V30 10 C 37.464734 29.621705 60.073244 0
M  V30 11 C 39.474810 32.831472 60.487293 0
M  V30 12 C 38.891792 25.651839 55.102377 0 CFG=2
M  V30 13 C 39.249324 26.991510 54.401554 0 CFG=2
M  V30 14 C 38.242126 31.378308 58.653088 0 CFG=2
M  V30 15 C 38.160037 30.663663 60.952182 0
M  V30 16 C 41.658990 33.994743 63.367338 0
M  V30 17 N 38.010224 31.276783 56.185922 0
M  V30 18 C 38.357068 28.818060 55.873129 0
M  V30 19 O 41.067274 31.671274 61.863031 0
M  V30 20 C 37.420746 25.224714 54.900455 0
M  V30 21 C 40.952340 36.049254 63.178498 0
M  V30 22 C 36.800211 29.612638 57.647811 0
M  V30 23 C 37.342375 28.411939 53.614545 0
M  V30 24 N 37.764946 29.989567 58.689156 0 CFG=2 CHG=1
M  V30 25 O 37.067403 32.167806 58.787948 0
M  V30 26 C 40.167580 35.243123 62.030203 0
M  V30 27 C 39.048321 31.440550 59.968207 0 CFG=2
M  V30 28 O 39.067435 24.421439 57.183827 0
M  V30 29 H 36.554940 29.924177 55.551028 0
M  V30 30 H 39.824560 30.992210 57.211449 0
M  V30 31 H 39.258315 32.650748 57.209637 0
M  V30 32 H 38.589128 26.384736 57.138960 0
M  V30 33 H 40.266661 26.014101 56.765560 0
M  V30 34 H 37.592915 27.625321 51.581671 0
M  V30 35 H 38.811541 28.794819 52.078968 0
M  V30 36 H 39.977437 26.911016 52.449192 0
M  V30 37 H 37.867457 28.624651 60.253438 0
M  V30 38 H 36.389552 29.625283 60.253291 0
M  V30 39 H 39.885827 33.419303 59.668143 0
M  V30 40 H 38.594486 33.368666 60.839151 0
M  V30 41 H 39.520639 24.881929 54.653528 0
M  V30 42 H 40.267396 27.272105 54.653562 0
M  V30 43 H 38.725438 30.205091 61.764788 0
M  V30 44 H 37.417132 31.325151 61.401090 0
M  V30 45 H 42.235533 33.175964 63.773682 0
M  V30 46 H 37.243020 31.954806 56.185358 0
M  V30 47 H 39.099894 28.560753 56.613091 0
M  V30 48 H 36.737119 25.877986 55.444980 0
M  V30 49 H 37.122968 25.235932 53.853865 0
M  V30 50 H 37.253647 24.208801 55.260370 0
M  V30 51 H 40.250678 36.548996 63.848223 0
M  V30 52 H 41.565388 36.822524 62.721898 0
M  V30 53 H 35.815343 30.021427 57.847935 0
M  V30 54 H 36.667360 28.535408 57.750852 0
M  V30 55 H 36.455944 27.785994 53.719669 0
M  V30 56 H 37.067431 29.460262 53.536030 0
M  V30 57 H 36.473807 32.021418 58.042903 0
M  V30 58 H 40.421475 35.583274 61.024892 0
M  V30 59 H 39.089734 35.221082 62.192957 0
M  V30 60 H 39.925030 30.809099 59.853481 0
M  V30 61 H 39.764022 23.856178 56.884307 0
M  V30 62 H 38.632719 26.007972 52.735751 0
M  V30 63 H 38.594548 29.461663 58.465835 0
M  V30 END ATOM
M  V30 BEGIN BOND
M  V30 1 1 5 1
M  V30 2 1 9 8
M  V30 3 1 11 5
M  V30 4 1 12 7
M  V30 5 1 13 2
M  V30 6 1 13 9
M  V30 7 1 13 12
M  V30 8 1 14 6
M  V30 9 1 15 10
M  V30 10 2 16 1
M  V30 11 1 16 3
M  V30 12 1 17 4
M  V30 13 1 17 6
M  V30 14 2 18 2
M  V30 15 1 18 4
M  V30 16 2 19 5
M  V30 17 1 20 12
M  V30 18 1 21 3
M  V30 19 1 22 4
M  V30 20 1 23 2
M  V30 21 1 23 8
M  V30 22 1 24 10
M  V30 23 1 24 14
M  V30 24 1 24 22
M  V30 25 1 14 25 CFG=1
M  V30 26 1 26 1
M  V30 27 1 26 21
M  V30 28 1 27 11
M  V30 29 1 27 14
M  V30 30 1 27 15
M  V30 31 1 28 7
M  V30 32 1 4 29 CFG=3
M  V30 33 1 30 6
M  V30 34 1 31 6
M  V30 35 1 32 7
M  V30 36 1 33 7
M  V30 37 1 34 8
M  V30 38 1 35 8
M  V30 39 1 36 9
M  V30 40 1 37 10
M  V30 41 1 38 10
M  V30 42 1 39 11
M  V30 43 1 40 11
M  V30 44 1 12 41 CFG=3
M  V30 45 1 13 42 CFG=3
M  V30 46 1 43 15
M  V30 47 1 44 15
M  V30 48 1 45 16
M  V30 49 1 46 17
M  V30 50 1 47 18
M  V30 51 1 48 20
M  V30 52 1 49 20
M  V30 53 1 50 20
M  V30 54 1 51 21
M  V30 55 1 52 21
M  V30 56 1 53 22
M  V30 57 1 54 22
M  V30 58 1 55 23
M  V30 59 1 56 23
M  V30 60 1 57 25
M  V30 61 1 58 26
M  V30 62 1 59 26
M  V30 63 1 27 60 CFG=3
M  V30 64 1 61 28
M  V30 65 1 62 9
M  V30 66 1 24 63 CFG=3
M  V30 END BOND
M  V30 END CTAB
M  END
>  <i_epik_Tot_Q>  (1) 
2

>  <i_epik_Tot_abs_Q>  (1) 
2

>  <i_i_glide_confnum>  (1) 
140

>  <i_i_glide_lignum>  (1) 
15

>  <i_i_glide_posenum>  (1) 
215

>  <i_i_glide_rotatable_bonds>  (1) 
8

>  <i_lp_mmshare_version>  (1) 
72125

>  <i_m_source_file_index>  (1) 
2

>  <i_f3d_flags>  (1) 
0

>  <num_sample>  (1) 
100

>  <b_lp_Chiralities_Consistent>  (1) 
1

>  <r_epik_Charging_Adjusted_Penalty>  (1) 
2.3622130296898831

>  <r_epik_Ionization_Penalty>  (1) 
1.4312966064593899

>  <r_epik_Ionization_Penalty_Charging>  (1) 
1.1852885594971458

>  <r_epik_Ionization_Penalty_Neutral>  (1) 
0.24600804696224418

>  <r_epik_State_Penalty>  (1) 
1.176924470192737

>  <r_glide_ring_energy>  (1) 
0

>  <r_i_docking_score>  (1) 
-5.3784024265866339

>  <r_i_glide_ecoul>  (1) 
-8.3119933736439187

>  <r_i_glide_eff_state_penalty>  (1) 
1.176924470192737

>  <r_i_glide_einternal>  (1) 
5.1840929232230604

>  <r_i_glide_emodel>  (1) 
-50.041425315137914

>  <r_i_glide_emodel_strain>  (1) 
0.74663774617935985

>  <r_i_glide_energy>  (1) 
-36.594649752231533

>  <r_i_glide_erotb>  (1) 
0.75687532201182384

>  <r_i_glide_esite>  (1) 
-0.095549652472238483

>  <r_i_glide_evdw>  (1) 
-28.28265637858761

>  <r_i_glide_gscore>  (1) 
-6.5553268967793707

>  <r_i_glide_gscore_strain>  (1) 
0

>  <r_i_glide_hbond>  (1) 
-0.2664947522850965

>  <r_i_glide_ligand_efficiency>  (1) 
-0.19208580094952263

>  <r_i_glide_ligand_efficiency_ln>  (1) 
-1.2414931968133516

>  <r_i_glide_ligand_efficiency_sa>  (1) 
-0.58328562481722424

>  <r_i_glide_lipo>  (1) 
-3.1203169090854392

>  <r_i_glide_metal>  (1) 
-0

>  <r_i_glide_rewards>  (1) 
-1.1689090799724535

>  <r_lp_Energy>  (1) 
19.420013000000001

>  <s_epik_cmdline>  (1) 
J2VwaWtfcHl0aG9uJywgJy1waHQnLCAnMS4wJywgJy1waCcsICc3LjQnLCAnLXRuJywgJzgnLCAnLW1hJywgJzUwMCcsICctaW1hZScsICc8aW5maWxlLm1hZT4nLCAnLW9tYWUnLCAnPG91dGZpbGUubWFlPic=

>  <s_epik_input>  (1) 
W0NIMl0xW0NIMl1PW0NIXT1DMUMoPU8pW0NIMl1bQ0BIXTJbQ0gyXVtDSDJdTihbQ0BAXTIzW09IXSlbQ0gyXVtDQEBIXShbTkhdW0NIMl0zKVxbQ0hdPUM0XFtDQEBIXShbTkhdW0NIMl1bQ0gyXTQpW0NASF0oW0NIM10pW0NIMl1bT0hd

>  <s_glide_docking_method>  (1) 
confgen

>  <s_i_glide_gridfile>  (1) 
gpcr_5ht2c_6bqh_protein_autoprepared_prepared

>  <s_lp_Force_Field>  (1) 
S-OPLS

>  <s_lp_Variant>  (1) 
DiffSBDD_1_num_sample_100-9

>  <s_m_source_file>  (1) 
generated__ligand_DiffSBDD_2026-05-06_prepared.sdf

>  <GenAI_Model>  (1) 
DiffSBDD

>  <Protein>  (1) 
GPCR_5HT2C

$$$$
DiffSBDD_44_num_sample_100
     RDKit          3D

  0  0  0  0  0  0  0  0  0  0999 V3000
M  V30 BEGIN CTAB
M  V30 COUNTS 58 59 0 0 1
M  V30 BEGIN ATOM
M  V30 1 C 39.080848 31.566765 60.568197 0
M  V30 2 O 39.153236 27.501637 59.453501 0 CHG=-1
M  V30 3 C 38.672181 28.477476 52.822585 0
M  V30 4 C 37.771452 29.894705 59.373744 0 CFG=1
M  V30 5 N 39.218509 29.703998 59.054636 0 CFG=1 CHG=1
M  V30 6 C 40.042820 30.421076 53.455337 0
M  V30 7 N 38.031178 28.059187 55.585472 0
M  V30 8 C 38.984388 29.361125 53.735353 0
M  V30 9 O 37.023785 30.001414 54.914882 0
M  V30 10 C 37.707004 31.336659 59.919175 0 CFG=1
M  V30 11 C 36.538494 31.594466 60.878946 0
M  V30 12 C 39.919309 27.947439 57.214609 0 CFG=1
M  V30 13 C 38.665084 27.406454 56.478619 0
M  V30 14 C 39.860894 30.288419 60.258461 0
M  V30 15 C 37.026099 31.386593 54.642765 0
M  V30 16 C 39.670839 28.422745 50.579657 0
M  V30 17 C 39.809198 28.362652 58.731606 0 CFG=2
M  V30 18 C 38.290073 29.401166 55.092920 0 CFG=1
M  V30 19 F 41.142427 30.046604 49.893078 0
M  V30 20 C 40.717106 29.487664 51.023886 0 CFG=1
M  V30 21 C 38.733086 27.915088 51.650957 0
M  V30 22 C 41.054045 26.921260 57.034158 0
M  V30 23 C 38.237219 25.993453 56.865372 0
M  V30 24 C 36.797284 29.673558 58.220113 0
M  V30 25 C 40.294720 30.675115 51.934608 0
M  V30 26 H 39.023279 31.734776 61.644796 0
M  V30 27 H 39.562715 32.441568 60.129373 0
M  V30 28 H 37.497151 29.222881 60.183604 0
M  V30 29 H 39.763786 31.367893 53.911186 0
M  V30 30 H 40.952264 30.154709 53.986555 0
M  V30 31 H 37.616339 32.022573 59.073769 0
M  V30 32 H 36.644218 30.990161 61.776580 0
M  V30 33 H 36.510257 32.640690 61.183214 0
M  V30 34 H 35.579700 31.360762 60.415037 0
M  V30 35 H 40.296909 28.816805 56.683044 0
M  V30 36 H 39.725705 29.592454 61.090280 0
M  V30 37 H 40.937384 30.421504 60.177023 0
M  V30 38 H 36.035972 31.621428 54.253577 0
M  V30 39 H 37.249651 31.979115 55.528054 0
M  V30 40 H 37.703901 31.684157 53.853456 0
M  V30 41 H 40.201275 27.557304 50.186711 0
M  V30 42 H 39.067405 28.821367 49.767758 0
M  V30 43 H 40.866442 28.518192 58.954784 0
M  V30 44 H 38.854853 30.007594 55.799581 0
M  V30 45 H 41.575769 28.978546 51.453558 0
M  V30 46 H 38.097065 27.082110 51.392012 0
M  V30 47 H 41.067402 26.529782 56.016155 0
M  V30 48 H 42.032277 27.357928 57.234142 0
M  V30 49 H 40.929814 26.075474 57.711230 0
M  V30 50 H 38.923733 25.258934 56.445639 0
M  V30 51 H 38.187265 25.842803 57.940324 0
M  V30 52 H 37.245916 25.779850 56.465209 0
M  V30 53 H 35.782639 29.947365 58.509044 0
M  V30 54 H 37.067305 30.294505 57.371653 0
M  V30 55 H 36.760517 28.630215 57.919660 0
M  V30 56 H 39.467402 31.188074 51.472736 0
M  V30 57 H 41.067948 31.426662 51.873370 0
M  V30 58 H 39.426472 30.311662 58.277541 0
M  V30 END ATOM
M  V30 BEGIN BOND
M  V30 1 1 5 4
M  V30 2 2 8 3
M  V30 3 1 8 6
M  V30 4 1 10 1
M  V30 5 1 10 4
M  V30 6 1 11 10
M  V30 7 2 13 7
M  V30 8 1 13 12
M  V30 9 1 14 1
M  V30 10 1 14 5
M  V30 11 1 15 9
M  V30 12 1 17 2
M  V30 13 1 17 5
M  V30 14 1 17 12
M  V30 15 1 18 7
M  V30 16 1 18 8
M  V30 17 1 18 9
M  V30 18 1 20 16
M  V30 19 1 20 19
M  V30 20 2 21 3
M  V30 21 1 21 16
M  V30 22 1 22 12
M  V30 23 1 23 13
M  V30 24 1 24 4
M  V30 25 1 25 6
M  V30 26 1 25 20
M  V30 27 1 26 1
M  V30 28 1 27 1
M  V30 29 1 4 28 CFG=1
M  V30 30 1 29 6
M  V30 31 1 30 6
M  V30 32 1 10 31 CFG=3
M  V30 33 1 32 11
M  V30 34 1 33 11
M  V30 35 1 34 11
M  V30 36 1 12 35 CFG=3
M  V30 37 1 36 14
M  V30 38 1 37 14
M  V30 39 1 38 15
M  V30 40 1 39 15
M  V30 41 1 40 15
M  V30 42 1 41 16
M  V30 43 1 42 16
M  V30 44 1 17 43 CFG=1
M  V30 45 1 18 44 CFG=1
M  V30 46 1 20 45 CFG=1
M  V30 47 1 46 21
M  V30 48 1 47 22
M  V30 49 1 48 22
M  V30 50 1 49 22
M  V30 51 1 50 23
M  V30 52 1 51 23
M  V30 53 1 52 23
M  V30 54 1 53 24
M  V30 55 1 54 24
M  V30 56 1 55 24
M  V30 57 1 56 25
M  V30 58 1 57 25
M  V30 59 1 5 58 CFG=3
M  V30 END BOND
M  V30 END CTAB
M  END
>  <i_epik_Tot_Q>  (1) 
0

>  <i_epik_Tot_abs_Q>  (1) 
2

>  <i_i_glide_confnum>  (1) 
13

>  <i_i_glide_lignum>  (1) 
114

>  <i_i_glide_posenum>  (1) 
70

>  <i_i_glide_rotatable_bonds>  (1) 
6

>  <i_lp_mmshare_version>  (1) 
72125

>  <i_m_source_file_index>  (1) 
45

>  <i_f3d_flags>  (1) 
0

>  <num_sample>  (1) 
100

>  <b_lp_Chiralities_Consistent>  (1) 
1

>  <r_epik_Charging_Adjusted_Penalty>  (1) 
0.41733257654759531

>  <r_epik_Ionization_Penalty>  (1) 
0.0069177268181324029

>  <r_epik_Ionization_Penalty_Charging>  (1) 
0.0066527375949913311

>  <r_epik_Ionization_Penalty_Neutral>  (1) 
0.00026498922314107146

>  <r_epik_State_Penalty>  (1) 
0.41067983895260396

>  <r_glide_ring_energy>  (1) 
0

>  <r_i_docking_score>  (1) 
-5.3730786661009624

>  <r_i_glide_ecoul>  (1) 
-0.31759331878046959

>  <r_i_glide_eff_state_penalty>  (1) 
0.41067983895260396

>  <r_i_glide_einternal>  (1) 
9.7333134932663619

>  <r_i_glide_emodel>  (1) 
-34.524682446376602

>  <r_i_glide_emodel_strain>  (1) 
8.2374394582973167

>  <r_i_glide_energy>  (1) 
-32.293669349474655

>  <r_i_glide_erotb>  (1) 
0.61440649929112812

>  <r_i_glide_esite>  (1) 
0

>  <r_i_glide_evdw>  (1) 
-31.976076030694188

>  <r_i_glide_gscore>  (1) 
-5.7837585050535667

>  <r_i_glide_gscore_strain>  (1) 
1.0593598645743292

>  <r_i_glide_hbond>  (1) 
0

>  <r_i_glide_ligand_efficiency>  (1) 
-0.2149231466440385

>  <r_i_glide_ligand_efficiency_ln>  (1) 
-1.2735806620401819

>  <r_i_glide_ligand_efficiency_sa>  (1) 
-0.62843909313969359

>  <r_i_glide_lipo>  (1) 
-2.757451598171671

>  <r_i_glide_metal>  (1) 
-0

>  <r_i_glide_rewards>  (1) 
-3.0536304713955729

>  <r_lp_Energy>  (1) 
9.5307370000000002

>  <r_lp_tautomer_probability>  (1) 
0.49999399997599986

>  <s_epik_Chemistry_Notes>  (1) 
This compound has an imine and may undergo hydrolysis. This compound contains an acetal/aminal-like group ( X-CH(R)-Y where X, Y are N, S, or O) that may be acid/base labile, releasing an aldehyde.

>  <s_epik_cmdline>  (1) 
J2VwaWtfcHl0aG9uJywgJy1waHQnLCAnMS4wJywgJy1waCcsICc3LjQnLCAnLXRuJywgJzgnLCAnLW1hJywgJzUwMCcsICctaW1hZScsICc8aW5maWxlLm1hZT4nLCAnLW9tYWUnLCAnPG91dGZpbGUubWFlPic=

>  <s_epik_input>  (1) 
W0NIM11bQ0BIXTFbQ0gyXVtDSDJdTihbQ0BASF0xW0NIM10pW0NAQEhdKFtPSF0pW0NAQEhdKFtDSDNdKS9DKFtDSDNdKT1OXFtDQEBIXShPW0NIM10pQzI9Qz1bQ0hdW0NIMl1bQ0BASF0oRilbQ0gyXVtDSDJdMg==

>  <s_glide_docking_method>  (1) 
confgen

>  <s_i_glide_gridfile>  (1) 
gpcr_5ht2c_6bqh_protein_autoprepared_prepared

>  <s_lp_Force_Field>  (1) 
S-OPLS

>  <s_lp_Variant>  (1) 
DiffSBDD_44_num_sample_100-7

>  <s_m_source_file>  (1) 
generated__ligand_DiffSBDD_2026-05-06_prepared.sdf

>  <GenAI_Model>  (1) 
DiffSBDD

>  <Protein>  (1) 
GPCR_5HT2C

$$$$
DiffSBDD_1_num_sample_100
     RDKit          3D

  0  0  0  0  0  0  0  0  0  0999 V3000
M  V30 BEGIN CTAB
M  V30 COUNTS 63 66 0 0 1
M  V30 BEGIN ATOM
M  V30 1 C 36.712922 37.257172 61.727770 0
M  V30 2 C 38.916482 28.602740 58.078629 0
M  V30 3 O 36.072788 37.564341 63.850218 0
M  V30 4 C 37.567326 30.727654 58.547635 0 CFG=1
M  V30 5 C 37.407569 36.568871 60.608564 0
M  V30 6 C 38.180638 33.037627 58.290945 0
M  V30 7 C 39.729555 30.550874 54.776511 0
M  V30 8 C 40.679983 27.122932 57.784335 0
M  V30 9 N 40.667861 28.078672 56.651807 0 CHG=1
M  V30 10 C 35.232585 32.911660 60.629275 0
M  V30 11 C 38.209917 35.286060 60.908945 0
M  V30 12 C 38.914302 29.571694 55.644869 0 CFG=2
M  V30 13 C 39.702975 29.178677 56.920335 0 CFG=1
M  V30 14 C 37.070280 33.480568 59.268863 0 CFG=2
M  V30 15 C 36.262276 33.592706 61.543874 0
M  V30 16 C 36.772390 36.854402 62.955291 0
M  V30 17 N 38.667260 31.689099 58.580556 0
M  V30 18 C 37.996781 29.290890 58.796264 0
M  V30 19 O 37.363139 36.984792 59.453503 0
M  V30 20 C 38.398616 28.358770 54.842978 0
M  V30 21 C 35.467636 38.602518 62.984825 0
M  V30 22 C 36.538259 31.098235 59.628173 0
M  V30 23 C 39.282493 27.187599 58.393652 0
M  V30 24 N 36.009876 32.467366 59.453514 0 CFG=1 CHG=1
M  V30 25 O 36.287665 34.460820 58.653511 0
M  V30 26 C 35.912414 38.448672 61.453391 0
M  V30 27 C 37.498923 33.914209 60.685733 0 CFG=2
M  V30 28 O 38.877992 31.182382 53.852628 0
M  V30 29 H 37.067423 30.771359 57.585977 0
M  V30 30 H 39.009151 33.741032 58.318447 0
M  V30 31 H 37.792427 33.061286 57.269853 0
M  V30 32 H 40.536024 30.045568 54.246849 0
M  V30 33 H 40.182307 31.333998 55.386569 0
M  V30 34 H 41.425208 27.452456 58.510883 0
M  V30 35 H 40.944295 26.116140 57.462170 0
M  V30 36 H 40.323917 27.575591 55.846854 0
M  V30 37 H 34.708017 32.096237 61.125731 0
M  V30 38 H 34.474795 33.629455 60.311061 0
M  V30 39 H 38.614498 35.326841 61.918212 0
M  V30 40 H 39.091291 35.317574 60.267459 0
M  V30 41 H 38.030353 30.122404 55.946715 0
M  V30 42 H 40.267180 30.021402 57.311829 0
M  V30 43 H 36.593053 32.849699 62.254883 0
M  V30 44 H 35.836249 34.437127 62.083270 0
M  V30 45 H 37.303332 36.021430 63.363921 0
M  V30 46 H 39.330753 31.453440 57.852426 0
M  V30 47 H 37.505569 28.802179 59.617672 0
M  V30 48 H 39.204479 27.815140 54.348621 0
M  V30 49 H 37.862161 27.659301 55.484351 0
M  V30 50 H 37.704012 28.677009 54.064797 0
M  V30 51 H 34.383160 38.520580 63.065002 0
M  V30 52 H 35.765710 39.582406 63.358706 0
M  V30 53 H 35.696887 30.405283 59.589120 0
M  V30 54 H 36.989736 30.994986 60.616789 0
M  V30 55 H 39.271547 26.967326 59.456517 0
M  V30 56 H 38.593808 26.514521 57.880617 0
M  V30 57 H 36.815482 35.218390 58.427844 0
M  V30 58 H 36.527902 39.276888 61.101370 0
M  V30 59 H 35.082079 38.261977 60.774446 0
M  V30 60 H 38.253887 33.183544 60.982524 0
M  V30 61 H 39.362345 31.848086 53.384654 0
M  V30 62 H 41.596520 28.421283 56.451020 0
M  V30 63 H 35.467601 32.441857 58.587342 0
M  V30 END ATOM
M  V30 BEGIN BOND
M  V30 1 1 5 1
M  V30 2 1 9 8
M  V30 3 1 11 5
M  V30 4 1 12 7
M  V30 5 1 13 2
M  V30 6 1 13 9
M  V30 7 1 13 12
M  V30 8 1 14 6
M  V30 9 1 15 10
M  V30 10 2 16 1
M  V30 11 1 16 3
M  V30 12 1 17 4
M  V30 13 1 17 6
M  V30 14 2 18 2
M  V30 15 1 18 4
M  V30 16 2 19 5
M  V30 17 1 20 12
M  V30 18 1 21 3
M  V30 19 1 22 4
M  V30 20 1 23 2
M  V30 21 1 23 8
M  V30 22 1 24 10
M  V30 23 1 24 14
M  V30 24 1 24 22
M  V30 25 1 14 25 CFG=3
M  V30 26 1 26 1
M  V30 27 1 26 21
M  V30 28 1 27 11
M  V30 29 1 27 14
M  V30 30 1 27 15
M  V30 31 1 28 7
M  V30 32 1 4 29 CFG=3
M  V30 33 1 30 6
M  V30 34 1 31 6
M  V30 35 1 32 7
M  V30 36 1 33 7
M  V30 37 1 34 8
M  V30 38 1 35 8
M  V30 39 1 36 9
M  V30 40 1 37 10
M  V30 41 1 38 10
M  V30 42 1 39 11
M  V30 43 1 40 11
M  V30 44 1 12 41 CFG=1
M  V30 45 1 13 42 CFG=1
M  V30 46 1 43 15
M  V30 47 1 44 15
M  V30 48 1 45 16
M  V30 49 1 46 17
M  V30 50 1 47 18
M  V30 51 1 48 20
M  V30 52 1 49 20
M  V30 53 1 50 20
M  V30 54 1 51 21
M  V30 55 1 52 21
M  V30 56 1 53 22
M  V30 57 1 54 22
M  V30 58 1 55 23
M  V30 59 1 56 23
M  V30 60 1 57 25
M  V30 61 1 58 26
M  V30 62 1 59 26
M  V30 63 1 27 60 CFG=1
M  V30 64 1 61 28
M  V30 65 1 62 9
M  V30 66 1 24 63 CFG=3
M  V30 END BOND
M  V30 END CTAB
M  END
>  <i_epik_Tot_Q>  (1) 
2

>  <i_epik_Tot_abs_Q>  (1) 
2

>  <i_i_glide_confnum>  (1) 
194

>  <i_i_glide_lignum>  (1) 
14

>  <i_i_glide_posenum>  (1) 
325

>  <i_i_glide_rotatable_bonds>  (1) 
8

>  <i_lp_mmshare_version>  (1) 
72125

>  <i_m_source_file_index>  (1) 
2

>  <i_f3d_flags>  (1) 
0

>  <num_sample>  (1) 
100

>  <b_lp_Chiralities_Consistent>  (1) 
1

>  <r_epik_Charging_Adjusted_Penalty>  (1) 
2.3622130296898831

>  <r_epik_Ionization_Penalty>  (1) 
1.4312966064593899

>  <r_epik_Ionization_Penalty_Charging>  (1) 
1.1852885594971458

>  <r_epik_Ionization_Penalty_Neutral>  (1) 
0.24600804696224418

>  <r_epik_State_Penalty>  (1) 
1.176924470192737

>  <r_glide_ring_energy>  (1) 
0

>  <r_i_docking_score>  (1) 
-5.3686217196889459

>  <r_i_glide_ecoul>  (1) 
-5.2214384583355757

>  <r_i_glide_eff_state_penalty>  (1) 
1.176924470192737

>  <r_i_glide_einternal>  (1) 
10.589335204656543

>  <r_i_glide_emodel>  (1) 
-49.966278115549088

>  <r_i_glide_emodel_strain>  (1) 
1.2698489261878336

>  <r_i_glide_energy>  (1) 
-35.908217082088015

>  <r_i_glide_erotb>  (1) 
0.75687532201182384

>  <r_i_glide_esite>  (1) 
-0.15188028623949068

>  <r_i_glide_evdw>  (1) 
-30.686778623752438

>  <r_i_glide_gscore>  (1) 
-6.5455461898816827

>  <r_i_glide_gscore_strain>  (1) 
0

>  <r_i_glide_hbond>  (1) 
-0.21489206413712139

>  <r_i_glide_ligand_efficiency>  (1) 
-0.19173648998889092

>  <r_i_glide_ligand_efficiency_ln>  (1) 
-1.2392355224873322

>  <r_i_glide_ligand_efficiency_sa>  (1) 
-0.5822249110064146

>  <r_i_glide_lipo>  (1) 
-2.7684176030429408

>  <r_i_glide_metal>  (1) 
-0

>  <r_i_glide_rewards>  (1) 
-1.8496768585359955

>  <r_lp_Energy>  (1) 
20.193497000000001

>  <s_epik_cmdline>  (1) 
J2VwaWtfcHl0aG9uJywgJy1waHQnLCAnMS4wJywgJy1waCcsICc3LjQnLCAnLXRuJywgJzgnLCAnLW1hJywgJzUwMCcsICctaW1hZScsICc8aW5maWxlLm1hZT4nLCAnLW9tYWUnLCAnPG91dGZpbGUubWFlPic=

>  <s_epik_input>  (1) 
W0NIMl0xW0NIMl1PW0NIXT1DMUMoPU8pW0NIMl1bQ0BIXTJbQ0gyXVtDSDJdTihbQ0BAXTIzW09IXSlbQ0gyXVtDQEBIXShbTkhdW0NIMl0zKS9bQ0hdPUM0XFtDQEBIXShbTkhdW0NIMl1bQ0gyXTQpW0NASF0oW0NIM10pW0NIMl1bT0hd

>  <s_glide_docking_method>  (1) 
confgen

>  <s_i_glide_gridfile>  (1) 
gpcr_5ht2c_6bqh_protein_autoprepared_prepared

>  <s_lp_Force_Field>  (1) 
S-OPLS

>  <s_lp_Variant>  (1) 
DiffSBDD_1_num_sample_100-8

>  <s_m_source_file>  (1) 
generated__ligand_DiffSBDD_2026-05-06_prepared.sdf

>  <GenAI_Model>  (1) 
DiffSBDD

>  <Protein>  (1) 
GPCR_5HT2C

$$$$
DiffSBDD_1_num_sample_100
     RDKit          3D

  0  0  0  0  0  0  0  0  0  0999 V3000
M  V30 BEGIN CTAB
M  V30 COUNTS 62 65 0 0 1
M  V30 BEGIN ATOM
M  V30 1 C 39.482679 29.554245 52.468790 0
M  V30 2 C 40.998616 29.513999 62.181979 0
M  V30 3 O 39.968774 29.759529 50.290230 0
M  V30 4 C 40.241658 28.103391 60.206568 0 CFG=1
M  V30 5 C 39.334269 30.039428 53.857774 0
M  V30 6 C 40.826097 28.576736 57.836968 0
M  V30 7 C 39.435660 32.271645 62.065341 0
M  V30 8 C 41.013009 29.136232 64.499489 0
M  V30 9 N 40.933754 30.589478 64.194415 0 CHG=1
M  V30 10 C 37.255169 29.400631 58.169631 0
M  V30 11 C 39.016661 29.007007 54.947363 0
M  V30 12 C 40.969434 32.136038 62.172841 0 CFG=2
M  V30 13 C 41.441782 30.806739 62.820921 0 CFG=2
M  V30 14 C 39.329307 28.624501 57.501298 0 CFG=2
M  V30 15 C 37.491115 30.039861 56.790331 0
M  V30 16 C 39.867413 30.325670 51.502691 0
M  V30 17 N 41.055305 27.746689 59.026670 0
M  V30 18 C 40.727930 29.387916 60.864503 0
M  V30 19 O 39.468178 31.221457 54.165259 0
M  V30 20 C 41.589700 33.344724 62.893464 0
M  V30 21 C 39.540951 28.369783 50.590133 0
M  V30 22 C 38.755110 28.271481 59.821069 0
M  V30 23 C 40.851019 28.390973 63.163011 0
M  V30 24 N 38.590397 29.108578 58.642953 0
M  V30 25 O 38.889285 27.306058 57.210812 0
M  V30 26 C 39.196770 28.154703 52.144566 0
M  V30 27 C 38.913662 29.585974 56.379343 0 CFG=2
M  V30 28 O 39.106085 33.325760 61.188337 0
M  V30 29 H 40.306508 27.292934 60.928988 0
M  V30 30 H 41.133066 29.592822 58.063874 0
M  V30 31 H 41.415139 28.221603 56.990297 0
M  V30 32 H 38.989765 32.462528 63.041407 0
M  V30 33 H 38.976835 31.363717 61.674244 0
M  V30 34 H 40.267543 28.840529 65.239118 0
M  V30 35 H 41.996847 28.925359 64.922030 0
M  V30 36 H 41.441489 31.140371 64.872067 0
M  V30 37 H 36.677148 28.481865 58.065399 0
M  V30 38 H 36.718056 30.064159 58.848143 0
M  V30 39 H 39.823653 28.275143 54.927206 0
M  V30 40 H 38.103234 28.469084 54.693454 0
M  V30 41 H 41.373821 32.156298 61.159392 0
M  V30 42 H 42.531294 30.786420 62.874238 0
M  V30 43 H 36.719394 29.746693 56.079118 0
M  V30 44 H 37.467415 31.127690 56.862806 0
M  V30 45 H 40.125700 31.375207 51.538982 0
M  V30 46 H 42.042526 27.724039 59.270633 0
M  V30 47 H 40.837726 30.241060 60.216713 0
M  V30 48 H 41.186392 33.471159 63.898317 0
M  V30 49 H 42.667431 33.224624 62.983213 0
M  V30 50 H 41.412803 34.271105 62.345838 0
M  V30 51 H 38.667413 28.151625 49.983546 0
M  V30 52 H 40.305856 27.666946 50.267142 0
M  V30 53 H 38.282664 27.300567 59.676145 0
M  V30 54 H 38.267395 28.755136 60.653493 0
M  V30 55 H 39.867608 27.939281 63.053508 0
M  V30 56 H 41.619751 27.628420 63.034356 0
M  V30 57 H 39.532286 26.726293 57.593783 0
M  V30 58 H 39.867375 27.453046 52.639772 0
M  V30 59 H 38.150597 27.893705 52.312541 0
M  V30 60 H 39.568129 30.452858 56.484546 0
M  V30 61 H 39.424099 34.141086 61.546468 0
M  V30 62 H 39.956881 30.844526 64.213929 0
M  V30 END ATOM
M  V30 BEGIN BOND
M  V30 1 1 5 1
M  V30 2 1 9 8
M  V30 3 1 11 5
M  V30 4 1 12 7
M  V30 5 1 13 2
M  V30 6 1 13 9
M  V30 7 1 13 12
M  V30 8 1 14 6
M  V30 9 1 15 10
M  V30 10 2 16 1
M  V30 11 1 16 3
M  V30 12 1 17 4
M  V30 13 1 17 6
M  V30 14 2 18 2
M  V30 15 1 18 4
M  V30 16 2 19 5
M  V30 17 1 20 12
M  V30 18 1 21 3
M  V30 19 1 22 4
M  V30 20 1 23 2
M  V30 21 1 23 8
M  V30 22 1 24 10
M  V30 23 1 24 14
M  V30 24 1 24 22
M  V30 25 1 14 25 CFG=3
M  V30 26 1 26 1
M  V30 27 1 26 21
M  V30 28 1 27 11
M  V30 29 1 27 14
M  V30 30 1 27 15
M  V30 31 1 28 7
M  V30 32 1 4 29 CFG=1
M  V30 33 1 30 6
M  V30 34 1 31 6
M  V30 35 1 32 7
M  V30 36 1 33 7
M  V30 37 1 34 8
M  V30 38 1 35 8
M  V30 39 1 36 9
M  V30 40 1 37 10
M  V30 41 1 38 10
M  V30 42 1 39 11
M  V30 43 1 40 11
M  V30 44 1 12 41 CFG=3
M  V30 45 1 13 42 CFG=1
M  V30 46 1 43 15
M  V30 47 1 44 15
M  V30 48 1 45 16
M  V30 49 1 46 17
M  V30 50 1 47 18
M  V30 51 1 48 20
M  V30 52 1 49 20
M  V30 53 1 50 20
M  V30 54 1 51 21
M  V30 55 1 52 21
M  V30 56 1 53 22
M  V30 57 1 54 22
M  V30 58 1 55 23
M  V30 59 1 56 23
M  V30 60 1 57 25
M  V30 61 1 58 26
M  V30 62 1 59 26
M  V30 63 1 27 60 CFG=3
M  V30 64 1 61 28
M  V30 65 1 62 9
M  V30 END BOND
M  V30 END CTAB
M  END
>  <i_epik_Tot_Q>  (1) 
1

>  <i_epik_Tot_abs_Q>  (1) 
1

>  <i_i_glide_confnum>  (1) 
20

>  <i_i_glide_lignum>  (1) 
9

>  <i_i_glide_posenum>  (1) 
209

>  <i_i_glide_rotatable_bonds>  (1) 
8

>  <i_lp_mmshare_version>  (1) 
72125

>  <i_m_source_file_index>  (1) 
2

>  <i_f3d_flags>  (1) 
0

>  <num_sample>  (1) 
100

>  <b_lp_Chiralities_Consistent>  (1) 
1

>  <r_epik_Charging_Adjusted_Penalty>  (1) 
0.089223518210420474

>  <r_epik_Ionization_Penalty>  (1) 
0.15303808439063821

>  <r_epik_Ionization_Penalty_Charging>  (1) 
0.0017986555257548985

>  <r_epik_Ionization_Penalty_Neutral>  (1) 
0.15123942886488331

>  <r_epik_State_Penalty>  (1) 
0.08742486268466558

>  <r_glide_ring_energy>  (1) 
0

>  <r_i_docking_score>  (1) 
-5.3668397545790461

>  <r_i_glide_ecoul>  (1) 
-1.2045246481606338

>  <r_i_glide_eff_state_penalty>  (1) 
0.08742486268466558

>  <r_i_glide_einternal>  (1) 
9.7764713261868046

>  <r_i_glide_emodel>  (1) 
-39.872888456952531

>  <r_i_glide_emodel_strain>  (1) 
0.56964620266396082

>  <r_i_glide_energy>  (1) 
-35.52746288222415

>  <r_i_glide_erotb>  (1) 
0.76037187950223806

>  <r_i_glide_esite>  (1) 
0

>  <r_i_glide_evdw>  (1) 
-34.322938234063514

>  <r_i_glide_gscore>  (1) 
-5.4542646172637115

>  <r_i_glide_gscore_strain>  (1) 
0

>  <r_i_glide_hbond>  (1) 
0

>  <r_i_glide_ligand_efficiency>  (1) 
-0.19167284837782309

>  <r_i_glide_ligand_efficiency_ln>  (1) 
-1.2388241926191981

>  <r_i_glide_ligand_efficiency_sa>  (1) 
-0.58203165759209363

>  <r_i_glide_lipo>  (1) 
-2.5845312410849317

>  <r_i_glide_metal>  (1) 
-0

>  <r_i_glide_rewards>  (1) 
-1.7332796467537468

>  <r_lp_Energy>  (1) 
16.245208999999999

>  <s_epik_cmdline>  (1) 
J2VwaWtfcHl0aG9uJywgJy1waHQnLCAnMS4wJywgJy1waCcsICc3LjQnLCAnLXRuJywgJzgnLCAnLW1hJywgJzUwMCcsICctaW1hZScsICc8aW5maWxlLm1hZT4nLCAnLW9tYWUnLCAnPG91dGZpbGUubWFlPic=

>  <s_epik_input>  (1) 
W0NIMl0xW0NIMl1PW0NIXT1DMUMoPU8pW0NIMl1bQ0BIXTJbQ0gyXVtDSDJdTihbQ0BAXTIzW09IXSlbQ0gyXVtDQEBIXShbTkhdW0NIMl0zKVxbQ0hdPUM0XFtDQEBIXShbTkhdW0NIMl1bQ0gyXTQpW0NASF0oW0NIM10pW0NIMl1bT0hd

>  <s_glide_docking_method>  (1) 
confgen

>  <s_i_glide_gridfile>  (1) 
gpcr_5ht2c_6bqh_protein_autoprepared_prepared

>  <s_lp_Force_Field>  (1) 
S-OPLS

>  <s_lp_Variant>  (1) 
DiffSBDD_1_num_sample_100-3

>  <s_m_source_file>  (1) 
generated__ligand_DiffSBDD_2026-05-06_prepared.sdf

>  <GenAI_Model>  (1) 
DiffSBDD

>  <Protein>  (1) 
GPCR_5HT2C

$$$$
DiffSBDD_1_num_sample_100
     RDKit          3D

  0  0  0  0  0  0  0  0  0  0999 V3000
M  V30 BEGIN CTAB
M  V30 COUNTS 62 65 0 0 1
M  V30 BEGIN ATOM
M  V30 1 C 39.718329 29.844171 52.549391 0
M  V30 2 C 41.060278 29.455067 62.212028 0
M  V30 3 O 39.858367 28.357400 50.876594 0
M  V30 4 C 40.285038 28.052139 60.231293 0 CFG=1
M  V30 5 C 39.461911 30.284573 53.942284 0
M  V30 6 C 40.950851 28.645067 57.920241 0
M  V30 7 C 40.860972 33.170679 63.443379 0
M  V30 8 C 41.420448 28.990165 64.478067 0
M  V30 9 N 42.071471 30.271791 64.108988 0 CHG=1
M  V30 10 C 37.347789 29.414373 58.179600 0
M  V30 11 C 39.191276 29.204904 55.001254 0
M  V30 12 C 40.307798 31.762493 63.144764 0 CFG=2
M  V30 13 C 41.467619 30.764532 62.848404 0 CFG=2
M  V30 14 C 39.458615 28.717532 57.536683 0 CFG=2
M  V30 15 C 37.610307 30.126791 56.841730 0
M  V30 16 C 39.591419 28.612282 52.167665 0
M  V30 17 N 41.123600 27.734252 59.053437 0
M  V30 18 C 40.715445 29.347635 60.911070 0
M  V30 19 O 39.467470 31.466556 54.275147 0
M  V30 20 C 39.202791 31.847248 62.069467 0
M  V30 21 C 40.183187 29.717929 50.376162 0
M  V30 22 C 38.808548 28.199600 59.805776 0
M  V30 23 C 41.099846 28.288903 63.156826 0
M  V30 24 N 38.671334 29.117769 58.681224 0
M  V30 25 O 39.045824 27.411867 57.154989 0
M  V30 26 C 40.147260 30.820227 51.543172 0
M  V30 27 C 39.055693 29.728881 56.450518 0 CFG=2
M  V30 28 O 41.466768 33.721941 62.293250 0
M  V30 29 H 40.347502 27.234562 60.944690 0
M  V30 30 H 41.298255 29.621307 58.251259 0
M  V30 31 H 41.566990 28.336581 57.074327 0
M  V30 32 H 41.596063 33.139025 64.247730 0
M  V30 33 H 40.066808 33.839999 63.770086 0
M  V30 34 H 40.494989 29.208800 65.013482 0
M  V30 35 H 42.050533 28.387580 65.133203 0
M  V30 36 H 43.046895 30.075704 63.930988 0
M  V30 37 H 36.787312 28.493566 58.013305 0
M  V30 38 H 36.781776 30.036793 58.872794 0
M  V30 39 H 40.026575 28.507915 54.978828 0
M  V30 40 H 38.306008 28.632680 54.724829 0
M  V30 41 H 39.808026 31.417352 64.049876 0
M  V30 42 H 42.242444 31.242258 62.250937 0
M  V30 43 H 36.871542 29.836008 56.095314 0
M  V30 44 H 37.540682 31.208981 56.956292 0
M  V30 45 H 39.293029 27.750921 52.747873 0
M  V30 46 H 42.102048 27.681361 59.325731 0
M  V30 47 H 40.718521 30.231241 60.291687 0
M  V30 48 H 39.602068 32.120138 61.092412 0
M  V30 49 H 38.667361 30.903481 61.961515 0
M  V30 50 H 38.456789 32.596709 62.334971 0
M  V30 51 H 41.161124 29.708755 49.899925 0
M  V30 52 H 39.468082 29.977150 49.596603 0
M  V30 53 H 38.379552 27.226231 59.566279 0
M  V30 54 H 38.267482 28.595375 60.653227 0
M  V30 55 H 40.168390 27.728020 63.189541 0
M  V30 56 H 41.915522 27.621430 62.877537 0
M  V30 57 H 39.661757 26.816705 57.559022 0
M  V30 58 H 39.467390 31.641177 51.353022 0
M  V30 59 H 41.128161 31.221448 51.769675 0
M  V30 60 H 39.693992 30.601502 56.599519 0
M  V30 61 H 40.789463 33.930021 61.666212 0
M  V30 62 H 41.997008 30.952691 64.851270 0
M  V30 END ATOM
M  V30 BEGIN BOND
M  V30 1 1 5 1
M  V30 2 1 9 8
M  V30 3 1 11 5
M  V30 4 1 12 7
M  V30 5 1 13 2
M  V30 6 1 13 9
M  V30 7 1 13 12
M  V30 8 1 14 6
M  V30 9 1 15 10
M  V30 10 2 16 1
M  V30 11 1 16 3
M  V30 12 1 17 4
M  V30 13 1 17 6
M  V30 14 2 18 2
M  V30 15 1 18 4
M  V30 16 2 19 5
M  V30 17 1 20 12
M  V30 18 1 21 3
M  V30 19 1 22 4
M  V30 20 1 23 2
M  V30 21 1 23 8
M  V30 22 1 24 10
M  V30 23 1 24 14
M  V30 24 1 24 22
M  V30 25 1 14 25 CFG=3
M  V30 26 1 26 1
M  V30 27 1 26 21
M  V30 28 1 27 11
M  V30 29 1 27 14
M  V30 30 1 27 15
M  V30 31 1 28 7
M  V30 32 1 4 29 CFG=1
M  V30 33 1 30 6
M  V30 34 1 31 6
M  V30 35 1 32 7
M  V30 36 1 33 7
M  V30 37 1 34 8
M  V30 38 1 35 8
M  V30 39 1 36 9
M  V30 40 1 37 10
M  V30 41 1 38 10
M  V30 42 1 39 11
M  V30 43 1 40 11
M  V30 44 1 12 41 CFG=1
M  V30 45 1 13 42 CFG=3
M  V30 46 1 43 15
M  V30 47 1 44 15
M  V30 48 1 45 16
M  V30 49 1 46 17
M  V30 50 1 47 18
M  V30 51 1 48 20
M  V30 52 1 49 20
M  V30 53 1 50 20
M  V30 54 1 51 21
M  V30 55 1 52 21
M  V30 56 1 53 22
M  V30 57 1 54 22
M  V30 58 1 55 23
M  V30 59 1 56 23
M  V30 60 1 57 25
M  V30 61 1 58 26
M  V30 62 1 59 26
M  V30 63 1 27 60 CFG=3
M  V30 64 1 61 28
M  V30 65 1 62 9
M  V30 END BOND
M  V30 END CTAB
M  END
>  <i_epik_Tot_Q>  (1) 
1

>  <i_epik_Tot_abs_Q>  (1) 
1

>  <i_i_glide_confnum>  (1) 
229

>  <i_i_glide_lignum>  (1) 
9

>  <i_i_glide_posenum>  (1) 
362

>  <i_i_glide_rotatable_bonds>  (1) 
8

>  <i_lp_mmshare_version>  (1) 
72125

>  <i_m_source_file_index>  (1) 
2

>  <i_f3d_flags>  (1) 
0

>  <num_sample>  (1) 
100

>  <b_lp_Chiralities_Consistent>  (1) 
1

>  <r_epik_Charging_Adjusted_Penalty>  (1) 
0.089223518210420474

>  <r_epik_Ionization_Penalty>  (1) 
0.15303808439063821

>  <r_epik_Ionization_Penalty_Charging>  (1) 
0.0017986555257548985

>  <r_epik_Ionization_Penalty_Neutral>  (1) 
0.15123942886488331

>  <r_epik_State_Penalty>  (1) 
0.08742486268466558

>  <r_glide_ring_energy>  (1) 
0.82438872872849178

>  <r_i_docking_score>  (1) 
-5.3653828234369012

>  <r_i_glide_ecoul>  (1) 
-1.5197036343528942

>  <r_i_glide_eff_state_penalty>  (1) 
0.08742486268466558

>  <r_i_glide_einternal>  (1) 
5.5181184349801615

>  <r_i_glide_emodel>  (1) 
-39.872129291861405

>  <r_i_glide_emodel_strain>  (1) 
0.75482822941962979

>  <r_i_glide_energy>  (1) 
-33.585327936160198

>  <r_i_glide_erotb>  (1) 
0.76037187950223806

>  <r_i_glide_esite>  (1) 
0

>  <r_i_glide_evdw>  (1) 
-32.065624301807304

>  <r_i_glide_gscore>  (1) 
-5.4528076861215666

>  <r_i_glide_gscore_strain>  (1) 
0

>  <r_i_glide_hbond>  (1) 
0

>  <r_i_glide_ligand_efficiency>  (1) 
-0.19162081512274648

>  <r_i_glide_ligand_efficiency_ln>  (1) 
-1.238487890134234

>  <r_i_glide_ligand_efficiency_sa>  (1) 
-0.58187365398355717

>  <r_i_glide_lipo>  (1) 
-2.5751646520928224

>  <r_i_glide_metal>  (1) 
-0

>  <r_i_glide_rewards>  (1) 
-1.8067781532876823

>  <r_lp_Energy>  (1) 
16.245208999999999

>  <s_epik_cmdline>  (1) 
J2VwaWtfcHl0aG9uJywgJy1waHQnLCAnMS4wJywgJy1waCcsICc3LjQnLCAnLXRuJywgJzgnLCAnLW1hJywgJzUwMCcsICctaW1hZScsICc8aW5maWxlLm1hZT4nLCAnLW9tYWUnLCAnPG91dGZpbGUubWFlPic=

>  <s_epik_input>  (1) 
W0NIMl0xW0NIMl1PW0NIXT1DMUMoPU8pW0NIMl1bQ0BIXTJbQ0gyXVtDSDJdTihbQ0BAXTIzW09IXSlbQ0gyXVtDQEBIXShbTkhdW0NIMl0zKVxbQ0hdPUM0XFtDQEBIXShbTkhdW0NIMl1bQ0gyXTQpW0NASF0oW0NIM10pW0NIMl1bT0hd

>  <s_glide_docking_method>  (1) 
confgen

>  <s_i_glide_gridfile>  (1) 
gpcr_5ht2c_6bqh_protein_autoprepared_prepared

>  <s_lp_Force_Field>  (1) 
S-OPLS

>  <s_lp_Variant>  (1) 
DiffSBDD_1_num_sample_100-3

>  <s_m_source_file>  (1) 
generated__ligand_DiffSBDD_2026-05-06_prepared.sdf

>  <GenAI_Model>  (1) 
DiffSBDD

>  <Protein>  (1) 
GPCR_5HT2C

$$$$
DiffSBDD_60_num_sample_100
     RDKit          3D

  0  0  0  0  0  0  0  0  0  0999 V3000
M  V30 BEGIN CTAB
M  V30 COUNTS 75 77 0 0 1
M  V30 BEGIN ATOM
M  V30 1 C 38.667226 28.800913 53.078907 0
M  V30 2 C 42.163589 32.502483 64.897656 0
M  V30 3 C 41.940328 33.817766 64.445992 0
M  V30 4 C 39.106316 28.464547 59.138240 0
M  V30 5 N 38.056177 26.909924 53.740560 0
M  V30 6 C 38.931958 31.305885 54.806835 0
M  V30 7 C 38.944718 33.762363 59.456991 0
M  V30 8 C 40.580227 28.612296 61.214973 0
M  V30 9 C 39.787612 29.408306 60.169718 0 CFG=2
M  V30 10 C 38.373181 26.919835 56.222491 0
M  V30 11 C 39.231057 32.640544 60.501239 0 CFG=1
M  V30 12 O 37.536282 29.768291 57.000880 0
M  V30 13 C 36.873596 31.561454 60.768811 0 CFG=1
M  V30 14 C 35.967855 30.496034 60.182970 0
M  V30 15 C 39.604269 28.604027 57.668697 0 CFG=1
M  V30 16 N 39.583792 27.281483 56.985651 0 CHG=1
M  V30 17 C 39.112189 33.287557 61.917824 0
M  V30 18 C 38.433396 27.561442 54.878569 0
M  V30 19 C 39.356228 29.935354 55.374117 0 CFG=1
M  V30 20 C 38.949722 29.780083 56.867588 0 CFG=1
M  V30 21 O 42.667408 34.848480 64.964220 0
M  V30 22 C 40.963045 34.068840 63.465701 0
M  V30 23 C 38.840072 28.808797 54.504992 0
M  V30 24 C 35.086828 33.222450 60.832125 0
M  V30 25 C 34.145457 33.255024 59.619498 0
M  V30 26 C 41.403604 31.438925 64.373296 0
M  V30 27 C 38.331514 31.376916 60.288673 0 CFG=2
M  V30 28 O 38.865216 30.210970 60.920496 0
M  V30 29 N 38.193114 27.642201 52.627386 0
M  V30 30 C 38.602291 33.355623 58.008629 0
M  V30 31 C 40.197020 33.005021 62.942495 0
M  V30 32 C 40.418141 31.690084 63.399311 0
M  V30 33 O 36.389630 32.850369 60.404569 0
M  V30 34 H 38.871695 29.590813 52.370724 0
M  V30 35 H 42.914701 32.310026 65.650109 0
M  V30 36 H 39.276575 27.437329 59.462662 0
M  V30 37 H 38.026018 28.563888 59.177355 0
M  V30 38 H 39.307074 31.454387 53.794195 0
M  V30 39 H 39.327566 32.125707 55.403499 0
M  V30 40 H 37.846436 31.411549 54.775734 0
M  V30 41 H 39.812404 34.421378 59.453371 0
M  V30 42 H 38.123507 34.391319 59.800242 0
M  V30 43 H 41.332798 27.978744 60.746060 0
M  V30 44 H 39.922489 27.980058 61.811984 0
M  V30 45 H 41.103196 29.276178 61.901811 0
M  V30 46 H 40.515260 30.023739 59.656568 0
M  V30 47 H 38.357117 25.835333 56.110512 0
M  V30 48 H 37.467381 27.192428 56.763393 0
M  V30 49 H 40.267298 32.348479 60.343082 0
M  V30 50 H 37.166904 30.602899 56.728304 0
M  V30 51 H 36.846661 31.464979 61.853521 0
M  V30 52 H 36.419226 29.516685 60.252677 0
M  V30 53 H 35.728997 30.682401 59.135327 0
M  V30 54 H 35.067404 30.485904 60.781471 0
M  V30 55 H 40.672021 28.820168 57.722222 0
M  V30 56 H 40.348098 27.262591 56.325287 0
M  V30 57 H 39.081821 34.372714 61.814523 0
M  V30 58 H 38.165263 33.060088 62.394641 0
M  V30 59 H 40.445884 29.922127 55.341065 0
M  V30 60 H 39.293214 30.683544 57.363293 0
M  V30 61 H 40.789764 35.079141 63.124181 0
M  V30 62 H 35.160788 34.224323 61.252526 0
M  V30 63 H 34.705226 32.585749 61.630534 0
M  V30 64 H 33.155582 33.621385 59.889752 0
M  V30 65 H 34.019794 32.268318 59.176462 0
M  V30 66 H 34.539697 33.913093 58.844459 0
M  V30 67 H 41.571052 30.431615 64.724299 0
M  V30 68 H 38.287734 31.130729 59.236767 0
M  V30 69 H 37.705271 25.962416 53.705120 0
M  V30 70 H 38.267386 34.212748 57.423145 0
M  V30 71 H 37.757776 32.671270 57.942559 0
M  V30 72 H 39.466384 32.920171 57.512443 0
M  V30 73 H 39.827113 30.877009 63.012045 0
M  V30 74 H 42.412614 35.706327 64.653182 0
M  V30 75 H 39.754444 26.571453 57.682589 0
M  V30 END ATOM
M  V30 BEGIN BOND
M  V30 1 2 3 2
M  V30 2 1 9 4
M  V30 3 1 9 8
M  V30 4 1 11 7
M  V30 5 1 14 13
M  V30 6 1 15 4
M  V30 7 1 16 10
M  V30 8 1 16 15
M  V30 9 1 17 11
M  V30 10 1 18 5
M  V30 11 1 18 10
M  V30 12 1 19 6
M  V30 13 1 20 12
M  V30 14 1 20 15
M  V30 15 1 20 19
M  V30 16 1 21 3
M  V30 17 1 22 3
M  V30 18 1 23 1
M  V30 19 2 23 18
M  V30 20 1 23 19
M  V30 21 1 25 24
M  V30 22 1 26 2
M  V30 23 1 27 11
M  V30 24 1 27 13
M  V30 25 1 28 9
M  V30 26 1 28 27
M  V30 27 2 29 1
M  V30 28 1 29 5
M  V30 29 1 30 7
M  V30 30 1 31 17
M  V30 31 2 31 22
M  V30 32 2 32 26
M  V30 33 1 32 31
M  V30 34 1 33 13
M  V30 35 1 33 24
M  V30 36 1 34 1
M  V30 37 1 35 2
M  V30 38 1 36 4
M  V30 39 1 37 4
M  V30 40 1 38 6
M  V30 41 1 39 6
M  V30 42 1 40 6
M  V30 43 1 41 7
M  V30 44 1 42 7
M  V30 45 1 43 8
M  V30 46 1 44 8
M  V30 47 1 45 8
M  V30 48 1 9 46 CFG=3
M  V30 49 1 47 10
M  V30 50 1 48 10
M  V30 51 1 11 49 CFG=3
M  V30 52 1 50 12
M  V30 53 1 13 51 CFG=1
M  V30 54 1 52 14
M  V30 55 1 53 14
M  V30 56 1 54 14
M  V30 57 1 15 55 CFG=1
M  V30 58 1 56 16
M  V30 59 1 57 17
M  V30 60 1 58 17
M  V30 61 1 19 59 CFG=1
M  V30 62 1 20 60 CFG=1
M  V30 63 1 61 22
M  V30 64 1 62 24
M  V30 65 1 63 24
M  V30 66 1 64 25
M  V30 67 1 65 25
M  V30 68 1 66 25
M  V30 69 1 67 26
M  V30 70 1 27 68 CFG=3
M  V30 71 1 69 5
M  V30 72 1 70 30
M  V30 73 1 71 30
M  V30 74 1 72 30
M  V30 75 1 73 32
M  V30 76 1 74 21
M  V30 77 1 75 16
M  V30 END BOND
M  V30 END CTAB
M  END
>  <i_epik_Tot_Q>  (1) 
1

>  <i_epik_Tot_abs_Q>  (1) 
1

>  <i_i_glide_confnum>  (1) 
2305

>  <i_i_glide_lignum>  (1) 
153

>  <i_i_glide_posenum>  (1) 
281

>  <i_i_glide_rotatable_bonds>  (1) 
13

>  <i_lp_mmshare_version>  (1) 
72125

>  <i_m_source_file_index>  (1) 
61

>  <i_f3d_flags>  (1) 
0

>  <num_sample>  (1) 
100

>  <b_lp_Chiralities_Consistent>  (1) 
1

>  <r_epik_Charging_Adjusted_Penalty>  (1) 
1.0909141645048002

>  <r_epik_Ionization_Penalty>  (1) 
0.35907651910540517

>  <r_epik_Ionization_Penalty_Charging>  (1) 
0.3574178230480502

>  <r_epik_Ionization_Penalty_Neutral>  (1) 
0.0016586960573549945

>  <r_epik_State_Penalty>  (1) 
0.73349634145674991

>  <r_glide_ring_energy>  (1) 
0

>  <r_i_docking_score>  (1) 
-5.3638382230933459

>  <r_i_glide_ecoul>  (1) 
-2.8918042189770023

>  <r_i_glide_eff_state_penalty>  (1) 
0.73349634145674991

>  <r_i_glide_einternal>  (1) 
23.261292464126818

>  <r_i_glide_emodel>  (1) 
-51.361064000974778

>  <r_i_glide_emodel_strain>  (1) 
4.0957047722836251

>  <r_i_glide_energy>  (1) 
-46.909684947446401

>  <r_i_glide_erotb>  (1) 
0.85380530184711001

>  <r_i_glide_esite>  (1) 
0

>  <r_i_glide_evdw>  (1) 
-44.0178807284694

>  <r_i_glide_gscore>  (1) 
-6.0973345645500956

>  <r_i_glide_gscore_strain>  (1) 
0.023926193070906265

>  <r_i_glide_hbond>  (1) 
-0.076982765615049437

>  <r_i_glide_ligand_efficiency>  (1) 
-0.16254055221494987

>  <r_i_glide_ligand_efficiency_ln>  (1) 
-1.1928898483479915

>  <r_i_glide_ligand_efficiency_sa>  (1) 
-0.52135440124593091

>  <r_i_glide_lipo>  (1) 
-3.6123502233979292

>  <r_i_glide_metal>  (1) 
-0

>  <r_i_glide_rewards>  (1) 
-0.65106840118511267

>  <r_lp_Energy>  (1) 
28.272465

>  <r_lp_tautomer_probability>  (1) 
0.49999999999868239

>  <s_epik_cmdline>  (1) 
J2VwaWtfcHl0aG9uJywgJy1waHQnLCAnMS4wJywgJy1waCcsICc3LjQnLCAnLXRuJywgJzgnLCAnLW1hJywgJzUwMCcsICctaW1hZScsICc8aW5maWxlLm1hZT4nLCAnLW9tYWUnLCAnPG91dGZpbGUubWFlPic=

>  <s_epik_input>  (1) 
bjFbbkhdW2NIXWMoYzEyKVtDQEBIXShbQ0gzXSlbQ0BASF0oW09IXSlbQ0BIXShbTkhdW0NIMl0yKVtDSDJdW0NASF0oW0NIM10pT1tDQEBIXShbQ0BIXShbQ0gzXSlPW0NIMl1bQ0gzXSlbQ0BASF0oW0NIMl1bQ0gzXSlbQ0gyXUMoPVtDSF0zKVtDSDJdW0NIXT1bQ0hdQzM9Tw==

>  <s_glide_docking_method>  (1) 
confgen

>  <s_i_glide_gridfile>  (1) 
gpcr_5ht2c_6bqh_protein_autoprepared_prepared

>  <s_lp_Force_Field>  (1) 
S-OPLS

>  <s_lp_Variant>  (1) 
DiffSBDD_60_num_sample_100-2

>  <s_m_source_file>  (1) 
generated__ligand_DiffSBDD_2026-05-06_prepared.sdf

>  <GenAI_Model>  (1) 
DiffSBDD

>  <Protein>  (1) 
GPCR_5HT2C

$$$$
DiffSBDD_93_num_sample_100
     RDKit          3D

  0  0  0  0  0  0  0  0  0  0999 V3000
M  V30 BEGIN CTAB
M  V30 COUNTS 74 77 0 0 1
M  V30 BEGIN ATOM
M  V30 1 C 41.727310 31.938127 66.303885 0
M  V30 2 S 38.996801 32.993657 59.832866 0
M  V30 3 C 42.497096 30.991877 68.542814 0 CFG=2
M  V30 4 O 39.087242 37.904156 61.853252 0
M  V30 5 C 39.910058 29.028085 57.374903 0
M  V30 6 C 39.916386 35.178502 62.313811 0 CFG=1
M  V30 7 C 37.635817 29.362325 59.265532 0
M  V30 8 C 39.254242 30.361657 60.852417 0
M  V30 9 C 41.732889 32.143400 69.205991 0
M  V30 10 N 39.099507 32.287902 62.441579 0 CHG=1
M  V30 11 C 38.584889 28.792047 56.653528 0
M  V30 12 C 42.235332 30.919262 67.044574 0
M  V30 13 C 41.504548 31.743539 64.846686 0
M  V30 14 C 40.526195 32.640271 62.655514 0 CFG=2
M  V30 15 C 41.937726 33.423119 68.416357 0
M  V30 16 Cl 42.080800 34.716566 66.122044 0
M  V30 17 O 37.968068 31.113033 56.176703 0
M  V30 18 C 41.405095 33.295863 66.978424 0 CFG=1
M  V30 19 C 42.058423 30.502197 64.132740 0
M  V30 20 C 38.181809 34.502028 60.465624 0
M  V30 21 C 40.668131 36.408917 62.856738 0
M  V30 22 C 40.808811 32.679948 64.151437 0
M  V30 23 C 36.988121 30.200372 58.180626 0
M  V30 24 C 39.132032 35.582212 61.035828 0 CFG=1
M  V30 25 C 38.626731 31.774577 61.135773 0 CFG=1
M  V30 26 C 37.521182 29.912480 56.765863 0 CFG=2
M  V30 27 C 38.288910 36.844792 61.341039 0
M  V30 28 C 39.716127 37.582386 63.080352 0
M  V30 29 C 40.042348 29.471006 58.647653 0
M  V30 30 S 36.857125 31.621517 61.453474 0 CHG=-1
M  V30 31 N 39.003498 29.766615 59.531853 0
M  V30 32 C 42.162538 29.655973 69.222211 0
M  V30 33 C 40.921615 34.022987 62.097125 0
M  V30 34 H 43.567427 31.168267 68.660164 0
M  V30 35 H 40.800508 28.821685 56.799439 0
M  V30 36 H 39.188888 34.896160 63.070807 0
M  V30 37 H 37.644348 28.317060 58.980559 0
M  V30 38 H 37.030150 29.399496 60.164173 0
M  V30 39 H 38.912911 29.656699 61.611499 0
M  V30 40 H 40.333480 30.406275 60.976183 0
M  V30 41 H 40.667495 31.928532 69.238610 0
M  V30 42 H 42.063429 32.274834 70.237167 0
M  V30 43 H 38.529360 33.089130 62.663679 0
M  V30 44 H 38.178078 27.827191 56.956574 0
M  V30 45 H 38.826835 28.671269 55.597180 0
M  V30 46 H 42.463144 29.976634 66.579234 0
M  V30 47 H 41.149152 31.916151 62.150167 0
M  V30 48 H 41.457219 34.261690 68.921556 0
M  V30 49 H 43.006243 33.645173 68.397761 0
M  V30 50 H 37.240042 31.723380 56.253278 0
M  V30 51 H 40.322783 33.420345 66.991950 0
M  V30 52 H 42.931216 30.076347 64.621929 0
M  V30 53 H 41.291559 29.730300 64.055716 0
M  V30 54 H 42.441304 30.714327 63.138756 0
M  V30 55 H 37.643836 34.923252 59.615085 0
M  V30 56 H 37.413161 34.258489 61.196637 0
M  V30 57 H 41.453647 36.708648 62.161165 0
M  V30 58 H 41.161990 36.172036 63.799021 0
M  V30 59 H 40.413516 33.534803 64.667728 0
M  V30 60 H 37.067542 31.258554 58.429558 0
M  V30 61 H 35.918118 29.992277 58.199836 0
M  V30 62 H 39.854607 35.836599 60.259551 0
M  V30 63 H 36.667708 29.621403 56.155439 0
M  V30 64 H 37.800988 37.200212 60.432969 0
M  V30 65 H 37.493550 36.615637 62.052741 0
M  V30 66 H 40.267395 38.455363 63.425773 0
M  V30 67 H 38.972905 37.347557 63.843929 0
M  V30 68 H 41.021329 29.621432 59.076744 0
M  V30 69 H 42.745360 28.839086 68.796099 0
M  V30 70 H 42.382850 29.691208 70.289616 0
M  V30 71 H 41.106907 29.404567 69.109113 0
M  V30 72 H 41.184458 33.949804 61.053513 0
M  V30 73 H 41.867460 34.289626 62.561949 0
M  V30 74 H 38.867721 31.559737 63.101035 0
M  V30 END ATOM
M  V30 BEGIN BOND
M  V30 1 1 9 3
M  V30 2 1 11 5
M  V30 3 2 12 1
M  V30 4 1 12 3
M  V30 5 1 13 1
M  V30 6 1 14 10
M  V30 7 1 15 9
M  V30 8 1 18 1
M  V30 9 1 18 15
M  V30 10 1 18 16
M  V30 11 1 19 13
M  V30 12 1 20 2
M  V30 13 1 21 6
M  V30 14 2 22 13
M  V30 15 1 22 14
M  V30 16 1 23 7
M  V30 17 1 24 6
M  V30 18 1 24 20
M  V30 19 1 25 2
M  V30 20 1 25 8
M  V30 21 1 25 10
M  V30 22 1 26 11
M  V30 23 1 26 17
M  V30 24 1 26 23
M  V30 25 1 27 4
M  V30 26 1 27 24
M  V30 27 1 28 4
M  V30 28 1 28 21
M  V30 29 2 29 5
M  V30 30 1 25 30 CFG=1
M  V30 31 1 31 7
M  V30 32 1 31 8
M  V30 33 1 31 29
M  V30 34 1 32 3
M  V30 35 1 33 6
M  V30 36 1 33 14
M  V30 37 1 3 34 CFG=3
M  V30 38 1 35 5
M  V30 39 1 6 36 CFG=1
M  V30 40 1 37 7
M  V30 41 1 38 7
M  V30 42 1 39 8
M  V30 43 1 40 8
M  V30 44 1 41 9
M  V30 45 1 42 9
M  V30 46 1 43 10
M  V30 47 1 44 11
M  V30 48 1 45 11
M  V30 49 1 46 12
M  V30 50 1 14 47 CFG=3
M  V30 51 1 48 15
M  V30 52 1 49 15
M  V30 53 1 50 17
M  V30 54 1 18 51 CFG=1
M  V30 55 1 52 19
M  V30 56 1 53 19
M  V30 57 1 54 19
M  V30 58 1 55 20
M  V30 59 1 56 20
M  V30 60 1 57 21
M  V30 61 1 58 21
M  V30 62 1 59 22
M  V30 63 1 60 23
M  V30 64 1 61 23
M  V30 65 1 24 62 CFG=3
M  V30 66 1 26 63 CFG=3
M  V30 67 1 64 27
M  V30 68 1 65 27
M  V30 69 1 66 28
M  V30 70 1 67 28
M  V30 71 1 68 29
M  V30 72 1 69 32
M  V30 73 1 70 32
M  V30 74 1 71 32
M  V30 75 1 72 33
M  V30 76 1 73 33
M  V30 77 1 74 10
M  V30 END BOND
M  V30 END CTAB
M  END
>  <i_epik_Tot_Q>  (1) 
0

>  <i_epik_Tot_abs_Q>  (1) 
2

>  <i_i_glide_confnum>  (1) 
85

>  <i_i_glide_lignum>  (1) 
263

>  <i_i_glide_posenum>  (1) 
249

>  <i_i_glide_rotatable_bonds>  (1) 
5

>  <i_lp_mmshare_version>  (1) 
72125

>  <i_m_source_file_index>  (1) 
94

>  <i_f3d_flags>  (1) 
0

>  <num_sample>  (1) 
100

>  <b_lp_Chiralities_Consistent>  (1) 
1

>  <r_epik_Charging_Adjusted_Penalty>  (1) 
0.80501984278308969

>  <r_epik_Ionization_Penalty>  (1) 
0.072421558423421364

>  <r_epik_Ionization_Penalty_Charging>  (1) 
0.072408791886815996

>  <r_epik_Ionization_Penalty_Neutral>  (1) 
1.2766536605372598e-05

>  <r_epik_State_Penalty>  (1) 
0.73261105089627365

>  <r_glide_ring_energy>  (1) 
0

>  <r_i_docking_score>  (1) 
-5.3633634100576115

>  <r_i_glide_ecoul>  (1) 
-5.3565306405632418

>  <r_i_glide_eff_state_penalty>  (1) 
0.73261105089627365

>  <r_i_glide_einternal>  (1) 
42.566730759020089

>  <r_i_glide_emodel>  (1) 
-20.598518294777975

>  <r_i_glide_emodel_strain>  (1) 
0.39618013380696482

>  <r_i_glide_energy>  (1) 
-36.624803128199609

>  <r_i_glide_erotb>  (1) 
0.31140238833871409

>  <r_i_glide_esite>  (1) 
0

>  <r_i_glide_evdw>  (1) 
-31.26827248763637

>  <r_i_glide_gscore>  (1) 
-6.0959744609538848

>  <r_i_glide_gscore_strain>  (1) 
0

>  <r_i_glide_hbond>  (1) 
-0.29499988639345803

>  <r_i_glide_ligand_efficiency>  (1) 
-0.16252616394113975

>  <r_i_glide_ligand_efficiency_ln>  (1) 
-1.1927842523872945

>  <r_i_glide_ligand_efficiency_sa>  (1) 
-0.52130825036373551

>  <r_i_glide_lipo>  (1) 
-3.294204924495054

>  <r_i_glide_metal>  (1) 
-0

>  <r_i_glide_rewards>  (1) 
-0.4512788179377818

>  <r_lp_Energy>  (1) 
38.618955

>  <s_epik_Chemistry_Notes>  (1) 
This compound has an imine and may undergo hydrolysis.

>  <s_epik_cmdline>  (1) 
J2VwaWtfcHl0aG9uJywgJy1waHQnLCAnMS4wJywgJy1waCcsICc3LjQnLCAnLXRuJywgJzgnLCAnLW1hJywgJzUwMCcsICctaW1hZScsICc8aW5maWxlLm1hZT4nLCAnLW9tYWUnLCAnPG91dGZpbGUubWFlPic=

>  <s_epik_input>  (1) 
Q2xbQ0BIXTFbQ0gyXVtDSDJdW0NAQEhdKFtDSDNdKVtDSF09QzEvQyhbQ0gzXSk9W0NIXS9bQ0BASF0oW0NIMl0yKVtOSF1bQ0BAXShbU0hdKShTW0NIMl1bQ0BIXShbQ0BASF0yMylbQ0gyXU9bQ0gyXVtDSDJdMylbQ0gyXU4oW0NIMl1bQ0gyXTQpW0NIXT1bQ0hdW0NIMl1bQ0BASF00W09IXQ==

>  <s_glide_docking_method>  (1) 
confgen

>  <s_i_glide_gridfile>  (1) 
gpcr_5ht2c_6bqh_protein_autoprepared_prepared

>  <s_lp_Force_Field>  (1) 
S-OPLS

>  <s_lp_Variant>  (1) 
DiffSBDD_93_num_sample_100-15

>  <s_m_source_file>  (1) 
generated__ligand_DiffSBDD_2026-05-06_prepared.sdf

>  <GenAI_Model>  (1) 
DiffSBDD

>  <Protein>  (1) 
GPCR_5HT2C

$$$$
DiffSBDD_26_num_sample_100
     RDKit          3D

  0  0  0  0  0  0  0  0  0  0999 V3000
M  V30 BEGIN CTAB
M  V30 COUNTS 63 66 0 0 1
M  V30 BEGIN ATOM
M  V30 1 C 40.782566 31.727829 61.318646 0
M  V30 2 C 39.027154 35.851943 62.208515 0
M  V30 3 N 38.987948 29.739097 58.501810 0
M  V30 4 C 39.002850 28.384317 58.858233 0
M  V30 5 C 37.459024 36.354291 60.396061 0
M  V30 6 O 36.587441 33.087967 60.739573 0
M  V30 7 C 39.257431 26.009492 57.992944 0
M  V30 8 C 38.556526 32.612781 62.047061 0
M  V30 9 C 39.714559 30.112229 54.792150 0
M  V30 10 C 40.721594 33.987702 62.447017 0
M  V30 11 C 38.734904 27.308174 57.795432 0
M  V30 12 C 38.282772 31.943940 55.516017 0
M  V30 13 C 37.161010 37.387243 62.577060 0
M  V30 14 O 38.723376 36.915468 64.340455 0
M  V30 15 C 40.100999 30.509519 60.678984 0
M  V30 16 C 37.496231 32.299328 60.983209 0
M  V30 17 C 37.607012 30.960088 60.244048 0
M  V30 18 C 38.162375 25.229650 55.961576 0
M  V30 19 O 37.866731 24.224346 55.090016 0
M  V30 20 C 38.307959 36.723231 63.053454 0
M  V30 21 C 38.602675 35.672235 60.867068 0
M  V30 22 N 36.581625 23.690911 55.443044 0
M  V30 23 C 38.994768 31.282991 54.501352 0
M  V30 24 N 40.215292 35.224918 62.740049 0
M  V30 25 O 39.214618 28.021258 60.012436 0
M  V30 26 C 38.994192 30.753170 59.606046 0 CFG=2
M  V30 27 C 36.743235 37.207304 61.250722 0
M  V30 28 C 37.635434 26.512447 55.754400 0
M  V30 29 C 38.985492 30.239890 57.128066 0
M  V30 30 C 39.718457 29.586213 56.100411 0
M  V30 31 C 38.282422 31.433126 56.826526 0
M  V30 32 O 37.049848 36.196491 59.107471 0
M  V30 33 C 39.943734 33.016261 61.496519 0 CFG=1
M  V30 34 O 41.778370 33.610562 62.950609 0
M  V30 35 C 37.906619 27.548838 56.671511 0
M  V30 36 C 38.977102 24.977994 57.076573 0
M  V30 37 H 41.663577 31.985003 60.727436 0
M  V30 38 H 41.170440 31.374383 62.276129 0
M  V30 39 H 39.867967 25.802886 58.857805 0
M  V30 40 H 38.647076 31.758264 62.717701 0
M  V30 41 H 38.178609 33.421153 62.653501 0
M  V30 42 H 40.267383 29.621359 54.011397 0
M  V30 43 H 37.732527 32.846350 55.289819 0
M  V30 44 H 36.607396 38.046232 63.228782 0
M  V30 45 H 38.179050 37.502960 64.840893 0
M  V30 46 H 39.683747 29.910254 61.489925 0
M  V30 47 H 40.906844 29.910359 60.252870 0
M  V30 48 H 37.373196 30.146341 60.926582 0
M  V30 49 H 36.837541 30.945191 59.470819 0
M  V30 50 H 39.152684 35.061184 60.194153 0
M  V30 51 H 37.391954 35.432743 58.667669 0
M  V30 52 H 36.761950 22.754700 55.773612 0
M  V30 53 H 36.294866 24.229803 56.248157 0
M  V30 54 H 38.994847 31.679894 53.496760 0
M  V30 55 H 40.687591 35.738303 63.471893 0
M  V30 56 H 39.250562 31.704518 59.147488 0
M  V30 57 H 35.870240 37.728523 60.884551 0
M  V30 58 H 37.003679 26.701793 54.899381 0
M  V30 59 H 40.287147 28.693819 56.315251 0
M  V30 60 H 37.728412 31.948837 57.596075 0
M  V30 61 H 39.919583 33.373292 60.480270 0
M  V30 62 H 37.467368 28.515437 56.515434 0
M  V30 63 H 39.379351 23.988736 57.238795 0
M  V30 END ATOM
M  V30 BEGIN BOND
M  V30 1 1 4 3
M  V30 2 1 11 4
M  V30 3 2 11 7
M  V30 4 1 15 1
M  V30 5 2 16 6
M  V30 6 1 16 8
M  V30 7 1 17 16
M  V30 8 1 19 18
M  V30 9 1 20 2
M  V30 10 2 20 13
M  V30 11 1 20 14
M  V30 12 2 21 2
M  V30 13 1 21 5
M  V30 14 1 22 19
M  V30 15 2 23 9
M  V30 16 1 23 12
M  V30 17 1 24 2
M  V30 18 1 24 10
M  V30 19 2 25 4
M  V30 20 1 26 3
M  V30 21 1 26 15
M  V30 22 1 26 17
M  V30 23 2 27 5
M  V30 24 1 27 13
M  V30 25 1 28 18
M  V30 26 1 29 3
M  V30 27 1 30 9
M  V30 28 2 30 29
M  V30 29 2 31 12
M  V30 30 1 31 29
M  V30 31 1 32 5
M  V30 32 1 33 1
M  V30 33 1 33 8
M  V30 34 1 33 10
M  V30 35 2 34 10
M  V30 36 1 35 11
M  V30 37 2 35 28
M  V30 38 1 36 7
M  V30 39 2 36 18
M  V30 40 1 37 1
M  V30 41 1 38 1
M  V30 42 1 39 7
M  V30 43 1 40 8
M  V30 44 1 41 8
M  V30 45 1 42 9
M  V30 46 1 43 12
M  V30 47 1 44 13
M  V30 48 1 45 14
M  V30 49 1 46 15
M  V30 50 1 47 15
M  V30 51 1 48 17
M  V30 52 1 49 17
M  V30 53 1 50 21
M  V30 54 1 51 32
M  V30 55 1 52 22
M  V30 56 1 53 22
M  V30 57 1 54 23
M  V30 58 1 55 24
M  V30 59 1 26 56 CFG=3
M  V30 60 1 57 27
M  V30 61 1 58 28
M  V30 62 1 59 30
M  V30 63 1 60 31
M  V30 64 1 33 61 CFG=3
M  V30 65 1 62 35
M  V30 66 1 63 36
M  V30 END BOND
M  V30 END CTAB
M  END
>  <i_epik_Tot_Q>  (1) 
0

>  <i_epik_Tot_abs_Q>  (1) 
0

>  <i_i_glide_confnum>  (1) 
877

>  <i_i_glide_lignum>  (1) 
67

>  <i_i_glide_posenum>  (1) 
64

>  <i_i_glide_rotatable_bonds>  (1) 
10

>  <i_lp_mmshare_version>  (1) 
72125

>  <i_m_source_file_index>  (1) 
27

>  <i_f3d_flags>  (1) 
0

>  <num_sample>  (1) 
100

>  <b_lp_Chiralities_Consistent>  (1) 
1

>  <r_epik_Charging_Adjusted_Penalty>  (1) 
0

>  <r_epik_Ionization_Penalty>  (1) 
0.0023635104904880574

>  <r_epik_Ionization_Penalty_Charging>  (1) 
0

>  <r_epik_Ionization_Penalty_Neutral>  (1) 
0.0023635104904880574

>  <r_epik_State_Penalty>  (1) 
-0

>  <r_glide_ring_energy>  (1) 
2.3478554396887601

>  <r_i_docking_score>  (1) 
-5.361792980512968

>  <r_i_glide_ecoul>  (1) 
1.0774208920667563

>  <r_i_glide_eff_state_penalty>  (1) 
-0

>  <r_i_glide_einternal>  (1) 
20.176855647482583

>  <r_i_glide_emodel>  (1) 
-54.015244871338261

>  <r_i_glide_emodel_strain>  (1) 
0.38315279436464778

>  <r_i_glide_energy>  (1) 
-47.21093394875701

>  <r_i_glide_erotb>  (1) 
0.59425720056655684

>  <r_i_glide_esite>  (1) 
0

>  <r_i_glide_evdw>  (1) 
-48.288354840823764

>  <r_i_glide_gscore>  (1) 
-5.361792980512968

>  <r_i_glide_gscore_strain>  (1) 
0

>  <r_i_glide_hbond>  (1) 
0

>  <r_i_glide_ligand_efficiency>  (1) 
-0.14893869390313799

>  <r_i_glide_ligand_efficiency_ln>  (1) 
-1.1697983694421055

>  <r_i_glide_ligand_efficiency_sa>  (1) 
-0.49178473181354748

>  <r_i_glide_lipo>  (1) 
-3.9216851111937601

>  <r_i_glide_metal>  (1) 
-0

>  <r_i_glide_rewards>  (1) 
0.21843953834540963

>  <r_lp_Energy>  (1) 
69.479281999999998

>  <r_lp_tautomer_probability>  (1) 
1

>  <s_epik_Chemistry_Notes>  (1) 
This compound has a N-S or N-O group and may undergo hydrolysis at high or low pH.

>  <s_epik_cmdline>  (1) 
J2VwaWtfcHl0aG9uJywgJy1waHQnLCAnMS4wJywgJy1waCcsICc3LjQnLCAnLXRuJywgJzgnLCAnLW1hJywgJzUwMCcsICctaW1hZScsICc8aW5maWxlLm1hZT4nLCAnLW9tYWUnLCAnPG91dGZpbGUubWFlPic=

>  <s_epik_input>  (1) 
W0NIMl0xQyg9TylbQ0hdPVtDSF1DKFtPSF0pPUMxW05IXUMoPU8pW0NASF0oW0NIMl1DMj1PKVtDSDJdW0NIMl1bQ0BIXShbQ0gyXTIpTihjM1tjSF1bY0hdW2NIXVtjSF1bY0hdMylDKD1PKWM0W2NIXVtjSF1jKE9bTkgyXSlbY0hdW2NIXTQ=

>  <s_glide_docking_method>  (1) 
confgen

>  <s_i_glide_gridfile>  (1) 
gpcr_5ht2c_6bqh_protein_autoprepared_prepared

>  <s_lp_Force_Field>  (1) 
S-OPLS

>  <s_lp_Variant>  (1) 
DiffSBDD_26_num_sample_100-1

>  <s_m_source_file>  (1) 
generated__ligand_DiffSBDD_2026-05-06_prepared.sdf

>  <GenAI_Model>  (1) 
DiffSBDD

>  <Protein>  (1) 
GPCR_5HT2C

$$$$
DiffSBDD_44_num_sample_100
     RDKit          3D

  0  0  0  0  0  0  0  0  0  0999 V3000
M  V30 BEGIN CTAB
M  V30 COUNTS 58 59 0 0 1
M  V30 BEGIN ATOM
M  V30 1 C 36.449549 24.611855 56.677046 0
M  V30 2 O 40.258618 26.790337 55.536252 0 CHG=-1
M  V30 3 C 39.273133 29.229564 52.544398 0
M  V30 4 C 37.912273 25.355250 54.921064 0 CFG=1
M  V30 5 N 38.587265 25.575678 56.238028 0 CFG=2 CHG=1
M  V30 6 C 40.512052 31.221152 51.949377 0
M  V30 7 N 39.806537 29.687455 55.409031 0
M  V30 8 C 39.823772 30.346951 52.945984 0
M  V30 9 O 39.416455 32.014609 54.893937 0
M  V30 10 C 36.694248 24.476579 55.202119 0 CFG=1
M  V30 11 C 36.845242 23.013194 54.874894 0
M  V30 12 C 38.546831 28.099928 56.791521 0 CFG=1
M  V30 13 C 38.679162 29.262548 55.796597 0
M  V30 14 C 37.717748 25.119717 57.334379 0
M  V30 15 C 38.265612 32.629596 54.312631 0
M  V30 16 C 39.516853 28.503173 50.202573 0
M  V30 17 C 39.400749 26.782587 56.524132 0 CFG=2
M  V30 18 C 39.942487 30.753451 54.441960 0 CFG=1
M  V30 19 F 40.923330 29.621430 48.760853 0
M  V30 20 C 40.160663 29.861462 49.804098 0 CFG=2
M  V30 21 C 39.030028 28.336552 51.625045 0
M  V30 22 C 38.847106 28.667387 58.194452 0
M  V30 23 C 37.371882 29.880148 55.327113 0
M  V30 24 C 37.465590 26.591855 54.146640 0
M  V30 25 C 41.153434 30.489965 50.758244 0
M  V30 26 H 36.267528 23.618217 57.053485 0
M  V30 27 H 35.581127 25.228498 56.887474 0
M  V30 28 H 38.621790 24.840417 54.282223 0
M  V30 29 H 39.849604 32.020397 51.624540 0
M  V30 30 H 41.321603 31.621392 52.501350 0
M  V30 31 H 35.867505 24.821429 54.616277 0
M  V30 32 H 37.867402 22.821403 55.053219 0
M  V30 33 H 36.219170 22.326257 55.449147 0
M  V30 34 H 36.667716 22.786486 53.853505 0
M  V30 35 H 37.495397 27.814738 56.810408 0
M  V30 36 H 38.234776 24.314499 57.860090 0
M  V30 37 H 37.495416 25.892028 58.067827 0
M  V30 38 H 38.256869 33.661384 54.654137 0
M  V30 39 H 38.267558 32.622818 53.225081 0
M  V30 40 H 37.302553 32.268213 54.645807 0
M  V30 41 H 40.241316 27.702024 50.051432 0
M  V30 42 H 38.674156 28.316645 49.545908 0
M  V30 43 H 39.808260 26.530079 57.503122 0
M  V30 44 H 41.005964 30.974548 54.519260 0
M  V30 45 H 39.432510 30.606870 49.493378 0
M  V30 46 H 38.536489 27.410791 51.856700 0
M  V30 47 H 38.210129 29.523357 58.421877 0
M  V30 48 H 38.684557 27.921818 58.971225 0
M  V30 49 H 39.884670 28.999314 58.260670 0
M  V30 50 H 36.553100 29.221596 55.244180 0
M  V30 51 H 37.069893 30.679005 56.000029 0
M  V30 52 H 37.445086 30.227335 54.304202 0
M  V30 53 H 37.069076 26.308718 53.173318 0
M  V30 54 H 36.679948 27.140149 54.652906 0
M  V30 55 H 38.303644 27.247996 53.979706 0
M  V30 56 H 41.744854 31.221401 50.208876 0
M  V30 57 H 41.863331 29.719986 51.053502 0
M  V30 58 H 39.317930 24.879211 56.206960 0
M  V30 END ATOM
M  V30 BEGIN BOND
M  V30 1 1 5 4
M  V30 2 2 8 3
M  V30 3 1 8 6
M  V30 4 1 10 1
M  V30 5 1 10 4
M  V30 6 1 11 10
M  V30 7 2 13 7
M  V30 8 1 13 12
M  V30 9 1 14 1
M  V30 10 1 14 5
M  V30 11 1 15 9
M  V30 12 1 17 2
M  V30 13 1 17 5
M  V30 14 1 17 12
M  V30 15 1 18 7
M  V30 16 1 18 8
M  V30 17 1 18 9
M  V30 18 1 20 16
M  V30 19 1 20 19
M  V30 20 2 21 3
M  V30 21 1 21 16
M  V30 22 1 22 12
M  V30 23 1 23 13
M  V30 24 1 24 4
M  V30 25 1 25 6
M  V30 26 1 25 20
M  V30 27 1 26 1
M  V30 28 1 27 1
M  V30 29 1 4 28 CFG=3
M  V30 30 1 29 6
M  V30 31 1 30 6
M  V30 32 1 10 31 CFG=3
M  V30 33 1 32 11
M  V30 34 1 33 11
M  V30 35 1 34 11
M  V30 36 1 12 35 CFG=1
M  V30 37 1 36 14
M  V30 38 1 37 14
M  V30 39 1 38 15
M  V30 40 1 39 15
M  V30 41 1 40 15
M  V30 42 1 41 16
M  V30 43 1 42 16
M  V30 44 1 17 43 CFG=1
M  V30 45 1 18 44 CFG=3
M  V30 46 1 20 45 CFG=3
M  V30 47 1 46 21
M  V30 48 1 47 22
M  V30 49 1 48 22
M  V30 50 1 49 22
M  V30 51 1 50 23
M  V30 52 1 51 23
M  V30 53 1 52 23
M  V30 54 1 53 24
M  V30 55 1 54 24
M  V30 56 1 55 24
M  V30 57 1 56 25
M  V30 58 1 57 25
M  V30 59 1 5 58 CFG=3
M  V30 END BOND
M  V30 END CTAB
M  END
>  <i_epik_Tot_Q>  (1) 
0

>  <i_epik_Tot_abs_Q>  (1) 
2

>  <i_i_glide_confnum>  (1) 
27

>  <i_i_glide_lignum>  (1) 
121

>  <i_i_glide_posenum>  (1) 
22

>  <i_i_glide_rotatable_bonds>  (1) 
6

>  <i_lp_mmshare_version>  (1) 
72125

>  <i_m_source_file_index>  (1) 
45

>  <i_f3d_flags>  (1) 
0

>  <num_sample>  (1) 
100

>  <b_lp_Chiralities_Consistent>  (1) 
1

>  <r_epik_Charging_Adjusted_Penalty>  (1) 
0.41733257654759531

>  <r_epik_Ionization_Penalty>  (1) 
0.0069177268181324029

>  <r_epik_Ionization_Penalty_Charging>  (1) 
0.0066527375949913311

>  <r_epik_Ionization_Penalty_Neutral>  (1) 
0.00026498922314107146

>  <r_epik_State_Penalty>  (1) 
0.41067983895260396

>  <r_glide_ring_energy>  (1) 
0

>  <r_i_docking_score>  (1) 
-5.3586464801724576

>  <r_i_glide_ecoul>  (1) 
-1.6455596491391371

>  <r_i_glide_eff_state_penalty>  (1) 
0.41067983895260396

>  <r_i_glide_einternal>  (1) 
11.941226008400715

>  <r_i_glide_emodel>  (1) 
-5.6625660375591043

>  <r_i_glide_emodel_strain>  (1) 
5.5709105627800142

>  <r_i_glide_energy>  (1) 
-1.3134353668268262

>  <r_i_glide_erotb>  (1) 
0.61440649929112812

>  <r_i_glide_esite>  (1) 
0

>  <r_i_glide_evdw>  (1) 
0.332124282312311

>  <r_i_glide_gscore>  (1) 
-5.7693263191250619

>  <r_i_glide_gscore_strain>  (1) 
0.39272764069500354

>  <r_i_glide_hbond>  (1) 
0

>  <r_i_glide_ligand_efficiency>  (1) 
-0.2143458592068983

>  <r_i_glide_ligand_efficiency_ln>  (1) 
-1.2701598014774145

>  <r_i_glide_ligand_efficiency_sa>  (1) 
-0.62675109443344823

>  <r_i_glide_lipo>  (1) 
-3.8542947454639189

>  <r_i_glide_metal>  (1) 
-0

>  <r_i_glide_rewards>  (1) 
-2.6919379803920198

>  <r_lp_Energy>  (1) 
12.967366999999999

>  <r_lp_tautomer_probability>  (1) 
0.49999399997599986

>  <s_epik_Chemistry_Notes>  (1) 
This compound has an imine and may undergo hydrolysis. This compound contains an acetal/aminal-like group ( X-CH(R)-Y where X, Y are N, S, or O) that may be acid/base labile, releasing an aldehyde.

>  <s_epik_cmdline>  (1) 
J2VwaWtfcHl0aG9uJywgJy1waHQnLCAnMS4wJywgJy1waCcsICc3LjQnLCAnLXRuJywgJzgnLCAnLW1hJywgJzUwMCcsICctaW1hZScsICc8aW5maWxlLm1hZT4nLCAnLW9tYWUnLCAnPG91dGZpbGUubWFlPic=

>  <s_epik_input>  (1) 
W0NIM11bQ0BIXTFbQ0gyXVtDSDJdTihbQ0BASF0xW0NIM10pW0NAQEhdKFtPSF0pW0NAQEhdKFtDSDNdKVxDKFtDSDNdKT1OXFtDQEBIXShPW0NIM10pQzI9Qz1bQ0hdW0NIMl1bQ0BASF0oRilbQ0gyXVtDSDJdMg==

>  <s_glide_docking_method>  (1) 
confgen

>  <s_i_glide_gridfile>  (1) 
gpcr_5ht2c_6bqh_protein_autoprepared_prepared

>  <s_lp_Force_Field>  (1) 
S-OPLS

>  <s_lp_Variant>  (1) 
DiffSBDD_44_num_sample_100-14

>  <s_m_source_file>  (1) 
generated__ligand_DiffSBDD_2026-05-06_prepared.sdf

>  <GenAI_Model>  (1) 
DiffSBDD

>  <Protein>  (1) 
GPCR_5HT2C

$$$$
DiffSBDD_25_num_sample_100
     RDKit          3D

  0  0  0  0  0  0  0  0  0  0999 V3000
M  V30 BEGIN CTAB
M  V30 COUNTS 57 59 0 0 1
M  V30 BEGIN ATOM
M  V30 1 C 38.350573 30.619121 56.830487 0
M  V30 2 C 38.301747 31.250804 60.613697 0
M  V30 3 C 38.757434 29.144542 59.290488 0
M  V30 4 C 40.103574 36.168230 63.843861 0
M  V30 5 C 40.982875 36.355563 61.508284 0
M  V30 6 C 41.650601 35.221433 61.267520 0
M  V30 7 C 37.400949 34.805275 59.494154 0 CFG=2
M  V30 8 N 37.252828 25.062001 55.659834 0
M  V30 9 O 37.788690 33.256285 61.853481 0
M  V30 10 C 37.954225 32.622429 60.652578 0
M  V30 11 C 39.858567 36.820825 66.313398 0
M  V30 12 C 37.998117 26.275971 55.945334 0 CFG=2
M  V30 13 C 38.578423 35.536224 61.780041 0 CFG=2
M  V30 14 O 40.266913 35.687172 66.653472 0
M  V30 15 O 38.934242 34.187937 62.104619 0
M  V30 16 C 38.166334 29.092572 56.872023 0
M  V30 17 O 39.867372 37.848235 67.029737 0 CHG=-1
M  V30 18 C 39.038905 26.987970 58.194113 0
M  V30 19 C 37.757724 33.333411 59.455413 0
M  V30 20 N 39.467385 26.821443 53.838589 0
M  V30 21 O 37.352245 36.021440 62.284303 0
M  V30 22 C 37.888397 32.677972 58.219316 0
M  V30 23 C 38.828358 26.584161 54.771001 0
M  V30 24 C 39.294619 36.966902 64.889377 0
M  V30 25 C 38.654519 28.418400 58.153399 0
M  V30 26 O 38.497107 30.568425 61.783325 0
M  V30 27 C 38.437149 35.667796 60.253501 0
M  V30 28 O 36.088037 35.021567 59.947772 0
M  V30 29 C 38.785147 26.049222 57.233035 0
M  V30 30 C 38.425606 30.584895 59.362469 0
M  V30 31 C 38.212483 31.309835 58.171131 0
M  V30 32 C 39.725172 36.437464 62.357668 0 CFG=1
M  V30 33 F 39.246171 24.806644 57.453495 0
M  V30 34 H 37.650940 31.055471 56.115743 0
M  V30 35 H 39.349474 30.847096 56.458134 0
M  V30 36 H 39.087550 28.667049 60.200339 0
M  V30 37 H 41.153993 36.421476 63.989487 0
M  V30 38 H 40.067194 35.103514 64.059622 0
M  V30 39 H 41.338694 37.278098 61.080106 0
M  V30 40 H 41.323331 34.279970 61.681744 0
M  V30 41 H 42.533470 35.221442 60.653002 0
M  V30 42 H 37.403507 35.157321 58.462933 0
M  V30 43 H 37.902103 24.301972 55.511758 0
M  V30 44 H 36.683865 24.813566 56.456275 0
M  V30 45 H 37.222597 27.016748 56.055390 0
M  V30 46 H 37.092276 28.926909 56.827537 0
M  V30 47 H 38.644447 28.702520 55.981248 0
M  V30 48 H 39.575626 26.651717 59.068520 0
M  V30 49 H 36.666497 35.628526 61.756526 0
M  V30 50 H 37.731665 33.224593 57.299878 0
M  V30 51 H 39.330788 38.021428 64.627577 0
M  V30 52 H 38.246706 36.670732 64.886753 0
M  V30 53 H 38.727159 29.659676 61.673554 0
M  V30 54 H 39.401838 35.387084 59.853505 0
M  V30 55 H 38.267433 36.716203 60.003466 0
M  V30 56 H 35.496059 34.595634 59.343077 0
M  V30 57 H 39.411262 37.479171 62.269965 0
M  V30 END ATOM
M  V30 BEGIN BOND
M  V30 1 2 6 5
M  V30 2 1 10 2
M  V30 3 1 10 9
M  V30 4 1 12 8
M  V30 5 2 14 11
M  V30 6 1 15 9
M  V30 7 1 15 13
M  V30 8 1 16 1
M  V30 9 1 17 11
M  V30 10 1 19 7
M  V30 11 2 19 10
M  V30 12 1 13 21 CFG=1
M  V30 13 1 22 19
M  V30 14 1 23 12
M  V30 15 3 23 20
M  V30 16 1 24 4
M  V30 17 1 24 11
M  V30 18 2 25 3
M  V30 19 1 25 16
M  V30 20 1 25 18
M  V30 21 1 26 2
M  V30 22 1 27 7
M  V30 23 1 27 13
M  V30 24 1 28 7
M  V30 25 1 29 12
M  V30 26 2 29 18
M  V30 27 2 30 2
M  V30 28 1 30 3
M  V30 29 1 31 1
M  V30 30 2 31 22
M  V30 31 1 31 30
M  V30 32 1 32 4
M  V30 33 1 32 5
M  V30 34 1 32 13
M  V30 35 1 33 29
M  V30 36 1 34 1
M  V30 37 1 35 1
M  V30 38 1 36 3
M  V30 39 1 37 4
M  V30 40 1 38 4
M  V30 41 1 39 5
M  V30 42 1 40 6
M  V30 43 1 41 6
M  V30 44 1 7 42 CFG=3
M  V30 45 1 43 8
M  V30 46 1 44 8
M  V30 47 1 12 45 CFG=1
M  V30 48 1 46 16
M  V30 49 1 47 16
M  V30 50 1 48 18
M  V30 51 1 49 21
M  V30 52 1 50 22
M  V30 53 1 51 24
M  V30 54 1 52 24
M  V30 55 1 53 26
M  V30 56 1 54 27
M  V30 57 1 55 27
M  V30 58 1 56 28
M  V30 59 1 32 57 CFG=1
M  V30 END BOND
M  V30 END CTAB
M  END
>  <i_epik_Tot_Q>  (1) 
-1

>  <i_epik_Tot_abs_Q>  (1) 
1

>  <i_i_glide_confnum>  (1) 
190

>  <i_i_glide_lignum>  (1) 
66

>  <i_i_glide_posenum>  (1) 
139

>  <i_i_glide_rotatable_bonds>  (1) 
10

>  <i_lp_mmshare_version>  (1) 
72125

>  <i_m_source_file_index>  (1) 
26

>  <i_f3d_flags>  (1) 
0

>  <num_sample>  (1) 
100

>  <b_lp_Chiralities_Consistent>  (1) 
1

>  <r_epik_Charging_Adjusted_Penalty>  (1) 
0.0056011124489286045

>  <r_epik_Ionization_Penalty>  (1) 
0.0056278004124673013

>  <r_epik_Ionization_Penalty_Charging>  (1) 
0.0010502183284910153

>  <r_epik_Ionization_Penalty_Neutral>  (1) 
0.0045775820839762862

>  <r_epik_State_Penalty>  (1) 
0.0045508941204375894

>  <r_glide_ring_energy>  (1) 
0

>  <r_i_docking_score>  (1) 
-5.3582193537219212

>  <r_i_glide_ecoul>  (1) 
-1.6010617679337118

>  <r_i_glide_eff_state_penalty>  (1) 
0.0045508941204375894

>  <r_i_glide_einternal>  (1) 
11.008777322403375

>  <r_i_glide_emodel>  (1) 
-38.862643943667706

>  <r_i_glide_emodel_strain>  (1) 
0.70137344115083522

>  <r_i_glide_energy>  (1) 
-35.705331058012447

>  <r_i_glide_erotb>  (1) 
0.57188489385704211

>  <r_i_glide_esite>  (1) 
0

>  <r_i_glide_evdw>  (1) 
-34.104269290078733

>  <r_i_glide_gscore>  (1) 
-5.3627702478423585

>  <r_i_glide_gscore_strain>  (1) 
0

>  <r_i_glide_hbond>  (1) 
0

>  <r_i_glide_ligand_efficiency>  (1) 
-0.16237028344611881

>  <r_i_glide_ligand_efficiency_ln>  (1) 
-1.1916402408927351

>  <r_i_glide_ligand_efficiency_sa>  (1) 
-0.52080825832457922

>  <r_i_glide_lipo>  (1) 
-2.0340150619140616

>  <r_i_glide_metal>  (1) 
-0

>  <r_i_glide_rewards>  (1) 
-1.9552673500913458

>  <r_lp_Energy>  (1) 
30.738761

>  <s_epik_cmdline>  (1) 
J2VwaWtfcHl0aG9uJywgJy1waHQnLCAnMS4wJywgJy1waCcsICc3LjQnLCAnLXRuJywgJzgnLCAnLW1hJywgJzUwMCcsICctaW1hZScsICc8aW5maWxlLm1hZT4nLCAnLW9tYWUnLCAnPG91dGZpbGUubWFlPic=

>  <s_epik_input>  (1) 
TiNDW0NAQEhdKFtOSDJdKS9DKEYpPVtDSF1cQyhbQ0gyXVtDSDJdMSk9W0NIXWMoYzJbT0hdKWMxW2NIXWMoYzIzKVtDQEBIXShbT0hdKVtDSDJdW0NAXShPTzMpKFtPSF0pW0NASF0oW0NIXT1bQ0gyXSlbQ0gyXVtDSDJdQyg9TylbT0hd

>  <s_glide_docking_method>  (1) 
confgen

>  <s_i_glide_gridfile>  (1) 
gpcr_5ht2c_6bqh_protein_autoprepared_prepared

>  <s_lp_Force_Field>  (1) 
S-OPLS

>  <s_lp_Variant>  (1) 
DiffSBDD_25_num_sample_100-2

>  <s_m_source_file>  (1) 
generated__ligand_DiffSBDD_2026-05-06_prepared.sdf

>  <GenAI_Model>  (1) 
DiffSBDD

>  <Protein>  (1) 
GPCR_5HT2C

$$$$
DiffSBDD_2_num_sample_100
     RDKit          3D

  0  0  0  0  0  0  0  0  0  0999 V3000
M  V30 BEGIN CTAB
M  V30 COUNTS 51 51 0 0 1
M  V30 BEGIN ATOM
M  V30 1 C 37.247508 31.339788 60.622600 0
M  V30 2 C 38.356782 27.027398 54.480540 0
M  V30 3 O 39.867344 25.221461 57.410173 0
M  V30 4 O 36.667401 24.821418 55.736857 0
M  V30 5 C 39.363496 26.174826 55.280303 0
M  V30 6 F 38.952959 36.805799 61.751599 0
M  V30 7 C 38.283566 35.847940 61.067574 0
M  V30 8 C 38.281506 32.030607 55.377208 0
M  V30 9 O 37.867407 31.763599 54.253541 0
M  V30 10 C 38.122575 30.876606 57.707871 0
M  V30 11 C 37.470897 33.782916 59.992601 0
M  V30 12 S 38.864105 34.234663 60.969519 0
M  V30 13 C 39.561154 29.292746 54.747241 0
M  V30 14 O 37.504312 24.021454 57.741317 0
M  V30 15 O 36.142421 31.621422 61.453501 0
M  V30 16 N 38.327689 32.091431 58.505245 0
M  V30 17 C 38.782806 25.651046 56.607891 0 CFG=1
M  V30 18 C 38.315716 33.465779 55.880581 0
M  V30 19 C 38.806189 30.927672 56.324012 0 CFG=1
M  V30 20 O 38.590503 29.658211 55.717071 0
M  V30 21 C 37.819119 24.457311 56.447708 0
M  V30 22 C 37.116042 36.065482 60.407677 0
M  V30 23 C 38.966167 28.249742 53.780353 0
M  V30 24 C 36.637706 34.869869 59.780536 0
M  V30 25 C 37.290238 32.382424 59.490482 0 CFG=1
M  V30 26 H 37.128014 30.329481 60.231305 0
M  V30 27 H 38.165804 31.353570 61.210142 0
M  V30 28 H 37.864351 26.395268 53.740361 0
M  V30 29 H 37.556750 27.379658 55.132332 0
M  V30 30 H 40.504877 25.919548 57.452256 0
M  V30 31 H 36.148420 24.043675 55.602851 0
M  V30 32 H 40.246870 26.767977 55.508273 0
M  V30 33 H 39.728763 25.349695 54.667325 0
M  V30 34 H 37.067368 30.701960 57.542076 0
M  V30 35 H 38.480861 30.008449 58.261155 0
M  V30 36 H 40.431527 28.923614 55.285850 0
M  V30 37 H 39.906996 30.146653 54.163447 0
M  V30 38 H 38.304456 24.114084 58.241526 0
M  V30 39 H 36.104587 32.560506 61.568346 0
M  V30 40 H 38.386589 32.890165 57.881820 0
M  V30 41 H 38.289943 26.466051 57.141476 0
M  V30 42 H 39.239959 33.621385 56.430018 0
M  V30 43 H 38.267519 34.170981 55.053564 0
M  V30 44 H 37.465947 33.660281 56.533801 0
M  V30 45 H 39.874189 31.078123 56.472593 0
M  V30 46 H 38.300295 23.646665 55.905839 0
M  V30 47 H 36.594966 37.009688 60.349970 0
M  V30 48 H 39.710375 27.923600 53.053816 0
M  V30 49 H 38.182499 28.735916 53.197307 0
M  V30 50 H 35.721212 34.843906 59.208080 0
M  V30 51 H 36.323310 32.345536 58.986765 0
M  V30 END ATOM
M  V30 BEGIN BOND
M  V30 1 1 5 2
M  V30 2 1 7 6
M  V30 3 2 9 8
M  V30 4 1 12 7
M  V30 5 1 12 11
M  V30 6 1 15 1
M  V30 7 1 16 10
M  V30 8 1 17 3
M  V30 9 1 17 5
M  V30 10 1 18 8
M  V30 11 1 19 8
M  V30 12 1 19 10
M  V30 13 1 20 13
M  V30 14 1 20 19
M  V30 15 1 21 4
M  V30 16 1 21 14
M  V30 17 1 21 17
M  V30 18 2 22 7
M  V30 19 1 23 2
M  V30 20 1 23 13
M  V30 21 2 24 11
M  V30 22 1 24 22
M  V30 23 1 25 1
M  V30 24 1 25 11
M  V30 25 1 25 16
M  V30 26 1 26 1
M  V30 27 1 27 1
M  V30 28 1 28 2
M  V30 29 1 29 2
M  V30 30 1 30 3
M  V30 31 1 31 4
M  V30 32 1 32 5
M  V30 33 1 33 5
M  V30 34 1 34 10
M  V30 35 1 35 10
M  V30 36 1 36 13
M  V30 37 1 37 13
M  V30 38 1 38 14
M  V30 39 1 39 15
M  V30 40 1 40 16
M  V30 41 1 17 41 CFG=1
M  V30 42 1 42 18
M  V30 43 1 43 18
M  V30 44 1 44 18
M  V30 45 1 19 45 CFG=1
M  V30 46 1 46 21
M  V30 47 1 47 22
M  V30 48 1 48 23
M  V30 49 1 49 23
M  V30 50 1 50 24
M  V30 51 1 25 51 CFG=3
M  V30 END BOND
M  V30 END CTAB
M  END
>  <i_epik_Tot_Q>  (1) 
0

>  <i_epik_Tot_abs_Q>  (1) 
0

>  <i_i_glide_confnum>  (1) 
1757

>  <i_i_glide_lignum>  (1) 
19

>  <i_i_glide_posenum>  (1) 
278

>  <i_i_glide_rotatable_bonds>  (1) 
17

>  <i_lp_mmshare_version>  (1) 
72125

>  <i_m_source_file_index>  (1) 
3

>  <i_f3d_flags>  (1) 
0

>  <num_sample>  (1) 
100

>  <b_lp_Chiralities_Consistent>  (1) 
1

>  <r_epik_Charging_Adjusted_Penalty>  (1) 
0.24690330696891949

>  <r_epik_Ionization_Penalty>  (1) 
0.24690406667086767

>  <r_epik_Ionization_Penalty_Charging>  (1) 
0

>  <r_epik_Ionization_Penalty_Neutral>  (1) 
0.24690406667086767

>  <r_epik_State_Penalty>  (1) 
0.24690330696891949

>  <r_glide_ring_energy>  (1) 
0

>  <r_i_docking_score>  (1) 
-5.3577048899836193

>  <r_i_glide_ecoul>  (1) 
-5.6194828197865982

>  <r_i_glide_eff_state_penalty>  (1) 
0.24690330696891949

>  <r_i_glide_einternal>  (1) 
18.193419104462794

>  <r_i_glide_emodel>  (1) 
-46.919083040685955

>  <r_i_glide_emodel_strain>  (1) 
2.4420823565182559

>  <r_i_glide_energy>  (1) 
-43.155689488019362

>  <r_i_glide_erotb>  (1) 
1.4813531079748476

>  <r_i_glide_esite>  (1) 
-0.05973182575478099

>  <r_i_glide_evdw>  (1) 
-37.536206668232765

>  <r_i_glide_gscore>  (1) 
-5.6046081969525385

>  <r_i_glide_gscore_strain>  (1) 
0

>  <r_i_glide_hbond>  (1) 
-0.32000000000000001

>  <r_i_glide_ligand_efficiency>  (1) 
-0.21430819559934478

>  <r_i_glide_ligand_efficiency_ln>  (1) 
-1.2699366163854788

>  <r_i_glide_ligand_efficiency_sa>  (1) 
-0.62664096537687664

>  <r_i_glide_lipo>  (1) 
-1.9788442470415786

>  <r_i_glide_metal>  (1) 
-0

>  <r_i_glide_rewards>  (1) 
-2.0076524757513985

>  <r_lp_Energy>  (1) 
16.825317999999999

>  <r_lp_tautomer_probability>  (1) 
0.9999999700000004

>  <s_epik_Chemistry_Notes>  (1) 
This compound contains an acetal/aminal-like group ( X-CH(R)-Y where X, Y are N, S, or O) that may be acid/base labile, releasing an aldehyde.

>  <s_epik_cmdline>  (1) 
J2VwaWtfcHl0aG9uJywgJy1waHQnLCAnMS4wJywgJy1waCcsICc3LjQnLCAnLXRuJywgJzgnLCAnLW1hJywgJzUwMCcsICctaW1hZScsICc8aW5maWxlLm1hZT4nLCAnLW9tYWUnLCAnPG91dGZpbGUubWFlPic=

>  <s_epik_input>  (1) 
RmMxc2MoW2NIXVtjSF0xKVtDQEhdKFtDSDJdW09IXSlbTkhdW0NIMl1bQ0BIXShDKD1PKVtDSDNdKU9bQ0gyXVtDSDJdW0NIMl1bQ0gyXVtDQEhdKFtPSF0pW0NIXShbT0hdKVtPSF0=

>  <s_glide_docking_method>  (1) 
confgen

>  <s_i_glide_gridfile>  (1) 
gpcr_5ht2c_6bqh_protein_autoprepared_prepared

>  <s_lp_Force_Field>  (1) 
S-OPLS

>  <s_lp_Variant>  (1) 
DiffSBDD_2_num_sample_100-1

>  <s_m_source_file>  (1) 
generated__ligand_DiffSBDD_2026-05-06_prepared.sdf

>  <GenAI_Model>  (1) 
DiffSBDD

>  <Protein>  (1) 
GPCR_5HT2C

$$$$
DiffSBDD_47_num_sample_100
     RDKit          3D

  0  0  0  0  0  0  0  0  0  0999 V3000
M  V30 BEGIN CTAB
M  V30 COUNTS 32 32 0 0 1
M  V30 BEGIN ATOM
M  V30 1 S 40.244719 28.530070 58.285811 0
M  V30 2 C 36.570802 31.184469 59.345142 0
M  V30 3 N 38.547987 27.752968 56.259522 0
M  V30 4 C 38.852583 27.894021 53.841774 0
M  V30 5 C 37.525909 29.341511 57.921989 0
M  V30 6 O 37.589867 31.222639 61.879904 0 CHG=-1
M  V30 7 C 38.563356 28.216434 57.647925 0 CFG=2
M  V30 8 C 38.897051 29.120540 52.891463 0 CFG=2
M  V30 9 C 37.613390 30.059650 59.276323 0
M  V30 10 C 39.446428 28.796157 51.492972 0
M  V30 11 O 39.467452 27.646340 51.051443 0
M  V30 12 O 35.067404 31.621222 61.533653 0
M  V30 13 S 36.491721 31.889613 61.052018 0
M  V30 14 C 38.895244 28.445948 55.239602 0
M  V30 15 C 39.613020 30.317507 53.572110 0
M  V30 16 O 39.867384 29.889882 50.827644 0
M  V30 17 O 40.263173 29.621437 49.455604 0
M  V30 18 S 39.465147 30.135880 55.358811 0
M  V30 19 H 40.431234 29.661529 57.600866 0
M  V30 20 H 36.819442 31.988047 58.653515 0
M  V30 21 H 35.580608 30.821400 59.066732 0
M  V30 22 H 37.941107 27.313726 53.691130 0
M  V30 23 H 39.700893 27.222592 53.698449 0
M  V30 24 H 37.536130 30.109023 57.153573 0
M  V30 25 H 36.532758 28.898947 57.853961 0
M  V30 26 H 38.235470 27.370932 58.253463 0
M  V30 27 H 37.862599 29.426019 52.747114 0
M  V30 28 H 37.460157 29.342070 60.078515 0
M  V30 29 H 38.599264 30.497121 59.430259 0
M  V30 30 H 40.667542 30.355078 53.320137 0
M  V30 31 H 39.175560 31.268577 53.266599 0
M  V30 32 H 39.412146 29.624606 49.033928 0
M  V30 END ATOM
M  V30 BEGIN BOND
M  V30 1 1 7 1
M  V30 2 1 7 3
M  V30 3 1 7 5
M  V30 4 1 8 4
M  V30 5 1 9 2
M  V30 6 1 9 5
M  V30 7 1 10 8
M  V30 8 2 11 10
M  V30 9 1 13 2
M  V30 10 1 13 6
M  V30 11 2 13 12
M  V30 12 2 14 3
M  V30 13 1 14 4
M  V30 14 1 15 8
M  V30 15 1 16 10
M  V30 16 1 17 16
M  V30 17 1 18 14
M  V30 18 1 18 15
M  V30 19 1 19 1
M  V30 20 1 20 2
M  V30 21 1 21 2
M  V30 22 1 22 4
M  V30 23 1 23 4
M  V30 24 1 24 5
M  V30 25 1 25 5
M  V30 26 1 7 26 CFG=1
M  V30 27 1 8 27 CFG=3
M  V30 28 1 28 9
M  V30 29 1 29 9
M  V30 30 1 30 15
M  V30 31 1 31 15
M  V30 32 1 32 17
M  V30 END BOND
M  V30 END CTAB
M  END
>  <i_epik_Tot_Q>  (1) 
-1

>  <i_epik_Tot_abs_Q>  (1) 
1

>  <i_i_glide_confnum>  (1) 
103

>  <i_i_glide_lignum>  (1) 
129

>  <i_i_glide_posenum>  (1) 
161

>  <i_i_glide_rotatable_bonds>  (1) 
9

>  <i_lp_mmshare_version>  (1) 
72125

>  <i_m_source_file_index>  (1) 
48

>  <i_f3d_flags>  (1) 
0

>  <num_sample>  (1) 
100

>  <b_lp_Chiralities_Consistent>  (1) 
1

>  <r_epik_Charging_Adjusted_Penalty>  (1) 
0.41068401557064588

>  <r_epik_Ionization_Penalty>  (1) 
0.088233061061265911

>  <r_epik_Ionization_Penalty_Charging>  (1) 
4.1766180419441644e-06

>  <r_epik_Ionization_Penalty_Neutral>  (1) 
0.088228884443223965

>  <r_epik_State_Penalty>  (1) 
0.41067983895260396

>  <r_glide_ring_energy>  (1) 
0

>  <r_i_docking_score>  (1) 
-5.353345137033056

>  <r_i_glide_ecoul>  (1) 
-4.3882219431400449

>  <r_i_glide_eff_state_penalty>  (1) 
0.41067983895260396

>  <r_i_glide_einternal>  (1) 
3.843920414951004

>  <r_i_glide_emodel>  (1) 
-52.198838998710954

>  <r_i_glide_emodel_strain>  (1) 
1.0303192819004501

>  <r_i_glide_energy>  (1) 
-40.956045414411058

>  <r_i_glide_erotb>  (1) 
1.1409563005043168

>  <r_i_glide_esite>  (1) 
-0.050183434340551683

>  <r_i_glide_evdw>  (1) 
-36.567823471271012

>  <r_i_glide_gscore>  (1) 
-5.7640249759856603

>  <r_i_glide_gscore_strain>  (1) 
0

>  <r_i_glide_hbond>  (1) 
-0.64597304861677718

>  <r_i_glide_ligand_efficiency>  (1) 
-0.2974080631685031

>  <r_i_glide_ligand_efficiency_ln>  (1) 
-1.3760497634107951

>  <r_i_glide_ligand_efficiency_sa>  (1) 
-0.77942962211719047

>  <r_i_glide_lipo>  (1) 
-1.1356163580392256

>  <r_i_glide_metal>  (1) 
-0

>  <r_i_glide_rewards>  (1) 
-2.5865839704588653

>  <r_lp_Energy>  (1) 
-2.9983

>  <r_lp_tautomer_probability>  (1) 
0.49990026989615577

>  <s_epik_Chemistry_Notes>  (1) 
This compound has an imine and may undergo hydrolysis. This compound contains an acetal/aminal-like group ( X-CH(R)-Y where X, Y are N, S, or O) that may be acid/base labile, releasing an aldehyde.

>  <s_epik_cmdline>  (1) 
J2VwaWtfcHl0aG9uJywgJy1waHQnLCAnMS4wJywgJy1waCcsICc3LjQnLCAnLXRuJywgJzgnLCAnLW1hJywgJzUwMCcsICctaW1hZScsICc8aW5maWxlLm1hZT4nLCAnLW9tYWUnLCAnPG91dGZpbGUubWFlPic=

>  <s_epik_input>  (1) 
W09IXVtTQEBdKD1PKVtDSDJdW0NIMl1bQ0gyXVtDQEhdKFtTSF0pL049QyhTW0NIMl0xKS9bQ0gyXVtDQEBIXTFDKD1PKU9bT0hd

>  <s_glide_docking_method>  (1) 
confgen

>  <s_i_glide_gridfile>  (1) 
gpcr_5ht2c_6bqh_protein_autoprepared_prepared

>  <s_lp_Force_Field>  (1) 
S-OPLS

>  <s_lp_Variant>  (1) 
DiffSBDD_47_num_sample_100-1

>  <s_m_source_file>  (1) 
generated__ligand_DiffSBDD_2026-05-06_prepared.sdf

>  <GenAI_Model>  (1) 
DiffSBDD

>  <Protein>  (1) 
GPCR_5HT2C

$$$$
DiffSBDD_90_num_sample_100
     RDKit          3D

  0  0  0  0  0  0  0  0  0  0999 V3000
M  V30 BEGIN CTAB
M  V30 COUNTS 85 88 0 0 1
M  V30 BEGIN ATOM
M  V30 1 C 38.198910 33.597638 55.995583 0
M  V30 2 O 40.879998 27.179793 57.618889 0
M  V30 3 F 35.467440 37.309591 60.253496 0
M  V30 4 C 39.673785 33.017109 61.753671 0 CFG=1
M  V30 5 C 38.466669 25.647439 56.261669 0 CFG=2
M  V30 6 C 38.181250 27.987315 55.691982 0 CFG=1
M  V30 7 C 39.770944 30.289660 63.253383 0
M  V30 8 C 39.908448 29.765482 55.321103 0
M  V30 9 C 40.897580 32.298953 62.415766 0
M  V30 10 N 39.864831 26.383734 58.284152 0
M  V30 11 C 35.412326 35.128952 59.081931 0
M  V30 12 C 42.197808 32.483650 61.623346 0
M  V30 13 C 37.902364 26.581716 55.181179 0
M  V30 14 C 38.104874 27.911693 57.221240 0
M  V30 15 O 37.467728 23.976655 57.636412 0
M  V30 16 N 38.254418 32.699797 57.155383 0
M  V30 17 C 39.557371 28.477378 55.323283 0
M  V30 18 F 36.081982 37.221412 58.265777 0
M  V30 19 C 37.531923 35.320238 61.066330 0 CFG=1
M  V30 20 N 38.392794 33.500190 58.439532 0 CHG=1
M  V30 21 C 35.565866 34.062728 60.180569 0
M  V30 22 C 39.340694 31.750545 56.889922 0
M  V30 23 O 40.739254 30.878670 62.397029 0
M  V30 24 C 41.139565 32.791284 63.862631 0
M  V30 25 C 37.867413 32.827734 54.697236 0
M  V30 26 C 37.452339 36.310373 59.898500 0
M  V30 27 C 38.962575 30.890038 55.665668 0 CFG=1
M  V30 28 C 38.591085 26.503060 57.563687 0 CFG=1
M  V30 29 C 39.972216 34.497851 61.415378 0
M  V30 30 O 36.988096 23.950976 55.464329 0 CHG=-1
M  V30 31 C 37.907958 32.939785 59.744617 0 CFG=1
M  V30 32 C 38.849610 31.713995 54.403736 0
M  V30 33 O 39.735014 25.221339 55.803179 0
M  V30 34 C 39.068902 32.265348 60.533101 0
M  V30 35 C 37.024697 33.897540 60.655116 0 CFG=1
M  V30 36 C 38.850399 35.430835 61.849023 0
M  V30 37 C 36.057803 36.513180 59.385530 0
M  V30 38 C 37.560163 24.421464 56.473287 0
M  V30 39 H 37.467409 34.379387 56.164115 0
M  V30 40 H 39.152994 34.090397 55.852912 0
M  V30 41 H 41.480896 26.516431 57.302347 0
M  V30 42 H 38.905355 33.004657 62.525155 0
M  V30 43 H 37.434956 28.647632 55.261627 0
M  V30 44 H 39.761267 29.221686 63.046609 0
M  V30 45 H 40.017025 30.407726 64.309269 0
M  V30 46 H 38.767365 30.676804 63.078576 0
M  V30 47 H 40.917349 30.042421 55.053557 0
M  V30 48 H 39.855468 26.775195 59.215486 0
M  V30 49 H 34.381635 35.221231 58.742896 0
M  V30 50 H 35.940364 34.686260 58.253460 0
M  V30 51 H 42.452946 33.523988 61.453673 0
M  V30 52 H 43.040120 32.021583 62.136462 0
M  V30 53 H 42.112872 32.021451 60.652327 0
M  V30 54 H 36.823511 26.461522 55.079815 0
M  V30 55 H 38.320355 26.403395 54.188815 0
M  V30 56 H 37.067789 28.016279 57.533605 0
M  V30 57 H 38.661231 28.697496 57.735639 0
M  V30 58 H 40.281211 27.724068 55.056744 0
M  V30 59 H 36.801036 35.698831 61.783815 0
M  V30 60 H 39.363468 33.762775 58.513522 0
M  V30 61 H 34.965173 34.342626 61.040058 0
M  V30 62 H 35.160157 33.108666 59.839136 0
M  V30 63 H 39.467390 31.101000 57.753501 0
M  V30 64 H 40.266270 32.276888 56.653447 0
M  V30 65 H 41.452282 33.834772 63.888661 0
M  V30 66 H 40.245710 32.714096 64.480906 0
M  V30 67 H 41.924944 32.209894 64.347904 0
M  V30 68 H 36.932247 32.295928 54.787831 0
M  V30 69 H 37.739931 33.496319 53.853405 0
M  V30 70 H 37.949000 37.262332 60.086160 0
M  V30 71 H 37.867400 35.843417 59.053473 0
M  V30 72 H 37.970197 30.510957 55.895710 0
M  V30 73 H 37.871985 26.156906 58.304675 0
M  V30 74 H 40.846850 34.850938 61.958717 0
M  V30 75 H 40.214543 34.635617 60.362965 0
M  V30 76 H 37.246173 32.123985 59.448925 0
M  V30 77 H 39.844746 32.023663 54.103028 0
M  V30 78 H 38.471030 31.105210 53.581362 0
M  V30 79 H 40.099957 24.691761 56.495388 0
M  V30 80 H 38.699620 31.300382 60.878314 0
M  V30 81 H 39.867354 32.010659 59.853558 0
M  V30 82 H 36.909764 33.348257 61.591253 0
M  V30 83 H 38.667452 35.267575 62.909466 0
M  V30 84 H 39.211619 36.459598 61.804288 0
M  V30 85 H 37.843251 34.327756 58.260132 0
M  V30 END ATOM
M  V30 BEGIN BOND
M  V30 1 1 9 4
M  V30 2 1 10 2
M  V30 3 1 12 9
M  V30 4 1 13 5
M  V30 5 1 13 6
M  V30 6 1 14 6
M  V30 7 1 16 1
M  V30 8 1 17 6
M  V30 9 2 17 8
M  V30 10 1 20 16
M  V30 11 1 21 11
M  V30 12 1 22 16
M  V30 13 1 23 7
M  V30 14 1 23 9
M  V30 15 1 24 9
M  V30 16 1 25 1
M  V30 17 1 26 19
M  V30 18 1 27 8
M  V30 19 1 27 22
M  V30 20 1 28 5
M  V30 21 1 28 10
M  V30 22 1 28 14
M  V30 23 1 29 4
M  V30 24 1 31 20
M  V30 25 1 32 25
M  V30 26 1 32 27
M  V30 27 1 5 33 CFG=3
M  V30 28 1 34 4
M  V30 29 1 34 31
M  V30 30 1 35 19
M  V30 31 1 35 21
M  V30 32 1 35 31
M  V30 33 1 36 19
M  V30 34 1 36 29
M  V30 35 1 37 3
M  V30 36 1 37 11
M  V30 37 1 37 18
M  V30 38 1 37 26
M  V30 39 1 38 5
M  V30 40 2 38 15
M  V30 41 1 38 30
M  V30 42 1 39 1
M  V30 43 1 40 1
M  V30 44 1 41 2
M  V30 45 1 4 42 CFG=1
M  V30 46 1 6 43 CFG=3
M  V30 47 1 44 7
M  V30 48 1 45 7
M  V30 49 1 46 7
M  V30 50 1 47 8
M  V30 51 1 48 10
M  V30 52 1 49 11
M  V30 53 1 50 11
M  V30 54 1 51 12
M  V30 55 1 52 12
M  V30 56 1 53 12
M  V30 57 1 54 13
M  V30 58 1 55 13
M  V30 59 1 56 14
M  V30 60 1 57 14
M  V30 61 1 58 17
M  V30 62 1 19 59 CFG=1
M  V30 63 1 60 20
M  V30 64 1 61 21
M  V30 65 1 62 21
M  V30 66 1 63 22
M  V30 67 1 64 22
M  V30 68 1 65 24
M  V30 69 1 66 24
M  V30 70 1 67 24
M  V30 71 1 68 25
M  V30 72 1 69 25
M  V30 73 1 70 26
M  V30 74 1 71 26
M  V30 75 1 27 72 CFG=1
M  V30 76 1 28 73 CFG=1
M  V30 77 1 74 29
M  V30 78 1 75 29
M  V30 79 1 31 76 CFG=3
M  V30 80 1 77 32
M  V30 81 1 78 32
M  V30 82 1 79 33
M  V30 83 1 80 34
M  V30 84 1 81 34
M  V30 85 1 35 82 CFG=1
M  V30 86 1 83 36
M  V30 87 1 84 36
M  V30 88 1 85 20
M  V30 END BOND
M  V30 END CTAB
M  END
>  <i_epik_Tot_Q>  (1) 
0

>  <i_epik_Tot_abs_Q>  (1) 
2

>  <i_i_glide_confnum>  (1) 
366

>  <i_i_glide_lignum>  (1) 
235

>  <i_i_glide_posenum>  (1) 
383

>  <i_i_glide_rotatable_bonds>  (1) 
10

>  <i_lp_mmshare_version>  (1) 
72125

>  <i_m_source_file_index>  (1) 
91

>  <i_f3d_flags>  (1) 
0

>  <num_sample>  (1) 
100

>  <b_lp_Chiralities_Consistent>  (1) 
1

>  <r_epik_Charging_Adjusted_Penalty>  (1) 
1.3235823108087639

>  <r_epik_Ionization_Penalty>  (1) 
0.58520961668590687

>  <r_epik_Ionization_Penalty_Charging>  (1) 
0.5818654171532841

>  <r_epik_Ionization_Penalty_Neutral>  (1) 
0.0033441995326227757

>  <r_epik_State_Penalty>  (1) 
0.74171689365547977

>  <r_glide_ring_energy>  (1) 
0.16952212376529802

>  <r_i_docking_score>  (1) 
-5.351906334677798

>  <r_i_glide_ecoul>  (1) 
-3.65757366037362

>  <r_i_glide_eff_state_penalty>  (1) 
0.74171689365547977

>  <r_i_glide_einternal>  (1) 
11.914289814446347

>  <r_i_glide_emodel>  (1) 
-22.423509176963353

>  <r_i_glide_emodel_strain>  (1) 
1.6395463891434758

>  <r_i_glide_energy>  (1) 
-25.883392332011724

>  <r_i_glide_erotb>  (1) 
0.42002339013477186

>  <r_i_glide_esite>  (1) 
-0.04836181692253777

>  <r_i_glide_evdw>  (1) 
-22.225818671638105

>  <r_i_glide_gscore>  (1) 
-6.0936232283332776

>  <r_i_glide_gscore_strain>  (1) 
0

>  <r_i_glide_hbond>  (1) 
-0.15616383032275155

>  <r_i_glide_ligand_efficiency>  (1) 
-0.14083964038625785

>  <r_i_glide_ligand_efficiency_ln>  (1) 
-1.1540284428901169

>  <r_i_glide_ligand_efficiency_sa>  (1) 
-0.47349940728100903

>  <r_i_glide_lipo>  (1) 
-3.2991939885848121

>  <r_i_glide_metal>  (1) 
-0

>  <r_i_glide_rewards>  (1) 
-1.3500000000000001

>  <r_lp_Energy>  (1) 
57.103046999999997

>  <s_epik_Chemistry_Notes>  (1) 
This compound has a N-S or N-O group and may undergo hydrolysis at high or low pH.

>  <s_epik_cmdline>  (1) 
J2VwaWtfcHl0aG9uJywgJy1waHQnLCAnMS4wJywgJy1waCcsICc3LjQnLCAnLXRuJywgJzgnLCAnLW1hJywgJzUwMCcsICctaW1hZScsICc8aW5maWxlLm1hZT4nLCAnLW9tYWUnLCAnPG91dGZpbGUubWFlPic=

>  <s_epik_input>  (1) 
RkMoRikoW0NIMl0xKVtDSDJdW0NIMl1bQ0BIXShbQ0BASF0xMilbQ0BIXShbQ0gyXVtDQEhdKFtDSDJdW0NIMl0yKUMoW0NIM10pKFtDSDNdKU9bQ0gzXSlbTkhdTjNbQ0gyXVtDSDJdW0NIMl1bQ0BIXShbQ0gyXTMpL1tDSF09W0NIXVxbQ0BASF0oW0NIMl1bQ0BdNChbT0hdKUMoPU8pW09IXSlbQ0gyXVtDQEBIXTRbTkhdW09IXQ==

>  <s_glide_docking_method>  (1) 
confgen

>  <s_i_glide_gridfile>  (1) 
gpcr_5ht2c_6bqh_protein_autoprepared_prepared

>  <s_lp_Force_Field>  (1) 
S-OPLS

>  <s_lp_Variant>  (1) 
DiffSBDD_90_num_sample_100-7

>  <s_m_source_file>  (1) 
generated__ligand_DiffSBDD_2026-05-06_prepared.sdf

>  <GenAI_Model>  (1) 
DiffSBDD

>  <Protein>  (1) 
GPCR_5HT2C

$$$$
DiffSBDD_85_num_sample_100
     RDKit          3D

  0  0  0  0  0  0  0  0  0  0999 V3000
M  V30 BEGIN CTAB
M  V30 COUNTS 83 87 0 0 1
M  V30 BEGIN ATOM
M  V30 1 C 39.345776 37.201531 65.044890 0
M  V30 2 N 38.616081 29.866510 54.616785 0
M  V30 3 C 39.925058 29.927107 51.066215 0
M  V30 4 Cl 37.449742 36.161947 61.628881 0
M  V30 5 C 40.818317 35.356613 63.958088 0 CFG=1
M  V30 6 C 38.267444 27.928292 58.811054 0
M  V30 7 C 38.644887 29.435440 53.230995 0
M  V30 8 C 40.166068 28.422841 50.912110 0
M  V30 9 O 42.231893 33.221450 62.587288 0
M  V30 10 S 38.064405 30.930550 60.931083 0
M  V30 11 C 39.062285 27.581886 51.571440 0
M  V30 12 O 40.916977 31.805660 61.510781 0 CHG=-1
M  V30 13 C 39.720012 30.298550 52.542215 0
M  V30 14 C 37.872803 32.703030 61.301868 0 CFG=1
M  V30 15 C 36.414717 32.364253 59.321023 0 CFG=2
M  V30 16 C 37.637784 30.315774 58.160650 0 CFG=1
M  V30 17 C 40.312346 36.024343 65.261221 0
M  V30 18 N 37.541034 29.221373 55.368625 0 CHG=1
M  V30 19 C 39.690785 34.948618 62.945261 0 CFG=2
M  V30 20 C 39.644590 28.137373 58.211672 0 CFG=1
M  V30 21 C 38.929086 27.928310 53.063571 0
M  V30 22 C 41.883511 36.242893 63.298229 0
M  V30 23 C 37.921418 28.330763 56.505801 0 CFG=2
M  V30 24 C 39.132854 30.641450 57.986328 0
M  V30 25 C 37.399168 28.798653 57.897379 0 CFG=1
M  V30 26 C 38.295763 36.922788 63.978613 0
M  V30 27 C 41.193571 32.937845 61.959815 0
M  V30 28 C 40.172307 34.101517 61.679802 0 CFG=1
M  V30 29 C 39.426204 27.998708 56.698378 0
M  V30 30 O 37.068618 33.182350 58.365971 0
M  V30 31 C 39.035613 33.587013 60.730790 0
M  V30 32 C 36.514026 33.059004 60.672185 0 CFG=1
M  V30 33 C 38.864688 36.277308 62.691253 0 CFG=2
M  V30 34 C 40.088151 29.557232 58.582595 0
M  V30 35 C 36.994509 30.926308 59.453795 0 CFG=1
M  V30 36 O 35.447937 32.569622 61.453423 0
M  V30 37 H 38.864993 37.463660 65.988358 0
M  V30 38 H 39.867403 38.100642 64.739194 0
M  V30 39 H 39.422386 29.512031 55.110982 0
M  V30 40 H 39.067118 30.227089 50.469344 0
M  V30 41 H 40.773651 30.481028 50.659257 0
M  V30 42 H 41.310022 34.461186 64.330424 0
M  V30 43 H 37.981621 26.880585 58.715167 0
M  V30 44 H 38.236775 28.200597 59.865814 0
M  V30 45 H 37.675146 29.621378 52.781967 0
M  V30 46 H 40.266883 28.163919 49.858450 0
M  V30 47 H 41.112239 28.196561 51.391427 0
M  V30 48 H 38.112259 27.758369 51.065116 0
M  V30 49 H 39.284734 26.521030 51.452935 0
M  V30 50 H 39.467227 31.357088 52.612738 0
M  V30 51 H 40.666834 30.188072 53.067526 0
M  V30 52 H 37.817875 32.818659 62.381658 0
M  V30 53 H 35.360654 32.316893 59.053530 0
M  V30 54 H 37.113765 30.820479 57.355287 0
M  V30 55 H 39.867501 35.282750 65.918166 0
M  V30 56 H 41.165278 36.384069 65.838380 0
M  V30 57 H 37.017482 28.687421 54.690510 0
M  V30 58 H 39.067424 34.237002 63.453494 0
M  V30 59 H 40.361677 27.405614 58.584665 0
M  V30 60 H 39.837591 27.632951 53.592044 0
M  V30 61 H 38.121000 27.333989 53.489650 0
M  V30 62 H 41.484940 37.221257 63.053238 0
M  V30 63 H 42.733322 36.400820 63.959634 0
M  V30 64 H 42.267340 35.826928 62.374397 0
M  V30 65 H 37.467338 27.366071 56.284149 0
M  V30 66 H 39.365448 30.760529 56.932819 0
M  V30 67 H 39.303674 31.634908 58.384482 0
M  V30 68 H 36.342656 28.566983 58.033816 0
M  V30 69 H 37.458924 36.398800 64.411857 0
M  V30 70 H 37.799225 37.848735 63.724052 0
M  V30 71 H 40.744922 34.794607 61.064062 0
M  V30 72 H 40.137226 28.620084 56.156519 0
M  V30 73 H 39.620543 26.972019 56.382182 0
M  V30 74 H 36.720001 32.914217 57.520292 0
M  V30 75 H 39.503254 33.058523 59.907834 0
M  V30 76 H 38.627931 34.440383 60.201168 0
M  V30 77 H 36.354280 34.125401 60.561567 0
M  V30 78 H 39.510775 36.999416 62.194527 0
M  V30 79 H 41.118194 29.633839 58.253573 0
M  V30 80 H 40.144141 29.648950 59.666483 0
M  V30 81 H 36.153027 30.293010 59.734677 0
M  V30 82 H 34.657376 33.014401 61.185601 0
M  V30 83 H 36.959790 29.975360 55.717240 0
M  V30 END ATOM
M  V30 BEGIN BOND
M  V30 1 1 7 2
M  V30 2 1 8 3
M  V30 3 1 11 8
M  V30 4 1 13 3
M  V30 5 1 13 7
M  V30 6 1 14 10
M  V30 7 1 17 1
M  V30 8 1 17 5
M  V30 9 1 18 2
M  V30 10 1 19 5
M  V30 11 1 20 6
M  V30 12 1 21 7
M  V30 13 1 21 11
M  V30 14 1 22 5
M  V30 15 1 23 18
M  V30 16 1 24 16
M  V30 17 1 25 6
M  V30 18 1 25 16
M  V30 19 1 25 23
M  V30 20 1 26 1
M  V30 21 2 27 9
M  V30 22 1 27 12
M  V30 23 1 28 19
M  V30 24 1 28 27
M  V30 25 1 29 20
M  V30 26 1 29 23
M  V30 27 1 30 15
M  V30 28 1 31 14
M  V30 29 1 31 28
M  V30 30 1 32 14
M  V30 31 1 32 15
M  V30 32 1 33 4
M  V30 33 1 33 19
M  V30 34 1 33 26
M  V30 35 1 34 20
M  V30 36 1 34 24
M  V30 37 1 35 10
M  V30 38 1 35 15
M  V30 39 1 35 16
M  V30 40 1 36 32
M  V30 41 1 37 1
M  V30 42 1 38 1
M  V30 43 1 39 2
M  V30 44 1 40 3
M  V30 45 1 41 3
M  V30 46 1 5 42 CFG=1
M  V30 47 1 43 6
M  V30 48 1 44 6
M  V30 49 1 45 7
M  V30 50 1 46 8
M  V30 51 1 47 8
M  V30 52 1 48 11
M  V30 53 1 49 11
M  V30 54 1 50 13
M  V30 55 1 51 13
M  V30 56 1 14 52 CFG=1
M  V30 57 1 15 53 CFG=3
M  V30 58 1 16 54 CFG=3
M  V30 59 1 55 17
M  V30 60 1 56 17
M  V30 61 1 57 18
M  V30 62 1 19 58 CFG=1
M  V30 63 1 20 59 CFG=1
M  V30 64 1 60 21
M  V30 65 1 61 21
M  V30 66 1 62 22
M  V30 67 1 63 22
M  V30 68 1 64 22
M  V30 69 1 23 65 CFG=3
M  V30 70 1 66 24
M  V30 71 1 67 24
M  V30 72 1 25 68 CFG=3
M  V30 73 1 69 26
M  V30 74 1 70 26
M  V30 75 1 28 71 CFG=3
M  V30 76 1 72 29
M  V30 77 1 73 29
M  V30 78 1 74 30
M  V30 79 1 75 31
M  V30 80 1 76 31
M  V30 81 1 32 77 CFG=3
M  V30 82 1 33 78 CFG=3
M  V30 83 1 79 34
M  V30 84 1 80 34
M  V30 85 1 35 81 CFG=1
M  V30 86 1 82 36
M  V30 87 1 83 18
M  V30 END BOND
M  V30 END CTAB
M  END
>  <i_epik_Tot_Q>  (1) 
0

>  <i_epik_Tot_abs_Q>  (1) 
2

>  <i_i_glide_confnum>  (1) 
968

>  <i_i_glide_lignum>  (1) 
221

>  <i_i_glide_posenum>  (1) 
15

>  <i_i_glide_rotatable_bonds>  (1) 
10

>  <i_lp_mmshare_version>  (1) 
72125

>  <i_m_source_file_index>  (1) 
86

>  <i_f3d_flags>  (1) 
0

>  <num_sample>  (1) 
100

>  <b_lp_Chiralities_Consistent>  (1) 
1

>  <r_epik_Charging_Adjusted_Penalty>  (1) 
0.24139881983135253

>  <r_epik_Ionization_Penalty>  (1) 
0.013577590547947769

>  <r_epik_Ionization_Penalty_Charging>  (1) 
0.013577468157686226

>  <r_epik_Ionization_Penalty_Neutral>  (1) 
1.223902615442005e-07

>  <r_epik_State_Penalty>  (1) 
0.22782135167366629

>  <r_glide_ring_energy>  (1) 
0.99272498419856225

>  <r_i_docking_score>  (1) 
-5.3503188545836924

>  <r_i_glide_ecoul>  (1) 
-7.2777170901923087

>  <r_i_glide_eff_state_penalty>  (1) 
0.22782135167366629

>  <r_i_glide_einternal>  (1) 
34.557267588372056

>  <r_i_glide_emodel>  (1) 
-14.701589260561654

>  <r_i_glide_emodel_strain>  (1) 
10.23991895818142

>  <r_i_glide_energy>  (1) 
-36.778295989330715

>  <r_i_glide_erotb>  (1) 
0.49083612240102314

>  <r_i_glide_esite>  (1) 
-9.3484316113292418e-05

>  <r_i_glide_evdw>  (1) 
-29.500578899138404

>  <r_i_glide_gscore>  (1) 
-5.5781402062573591

>  <r_i_glide_gscore_strain>  (1) 
1.559979739545355

>  <r_i_glide_hbond>  (1) 
-0.1187334306998785

>  <r_i_glide_ligand_efficiency>  (1) 
-0.14861996818288034

>  <r_i_glide_ligand_efficiency_ln>  (1) 
-1.1672950251593959

>  <r_i_glide_ligand_efficiency_sa>  (1) 
-0.49073232267290512

>  <r_i_glide_lipo>  (1) 
-4.054319370393304

>  <r_i_glide_metal>  (1) 
-0

>  <r_i_glide_rewards>  (1) 
-0.8891232743086761

>  <r_lp_Energy>  (1) 
69.175754999999995

>  <s_epik_cmdline>  (1) 
J2VwaWtfcHl0aG9uJywgJy1waHQnLCAnMS4wJywgJy1waCcsICc3LjQnLCAnLXRuJywgJzgnLCAnLW1hJywgJzUwMCcsICctaW1hZScsICc8aW5maWxlLm1hZT4nLCAnLW9tYWUnLCAnPG91dGZpbGUubWFlPic=

>  <s_epik_input>  (1) 
W0NIM11bQ0BIXTFbQ0gyXVtDSDJdW0NIMl1bQ0BIXShDbClbQ0BIXTFbQ0BASF0oQyg9TylbT0hdKVtDSDJdW0NAQEhdMlNbQ0BASF0oW0NAQEhdKFtPSF0pW0NASF0yW09IXSlbQ0BASF0oW0NIMl1bQ0gyXTMpW0NASF0oW0NIMl1bQ0BIXTM0KVtDQEhdKFtDSDJdNClbTkhdW05IXVtDSF01W0NIMl1bQ0gyXVtDSDJdW0NIMl1bQ0gyXTU=

>  <s_glide_docking_method>  (1) 
confgen

>  <s_i_glide_gridfile>  (1) 
gpcr_5ht2c_6bqh_protein_autoprepared_prepared

>  <s_lp_Force_Field>  (1) 
S-OPLS

>  <s_lp_Variant>  (1) 
DiffSBDD_85_num_sample_100-2

>  <s_m_source_file>  (1) 
generated__ligand_DiffSBDD_2026-05-06_prepared.sdf

>  <GenAI_Model>  (1) 
DiffSBDD

>  <Protein>  (1) 
GPCR_5HT2C

$$$$
DiffSBDD_1_num_sample_100
     RDKit          3D

  0  0  0  0  0  0  0  0  0  0999 V3000
M  V30 BEGIN CTAB
M  V30 COUNTS 63 66 0 0 1
M  V30 BEGIN ATOM
M  V30 1 C 39.336346 35.852082 61.668884 0
M  V30 2 C 38.236019 28.589995 55.628550 0
M  V30 3 O 39.466971 38.079125 61.853613 0
M  V30 4 C 37.988611 29.675495 57.951489 0 CFG=1
M  V30 5 C 39.873948 34.475099 61.679660 0
M  V30 6 C 37.115265 31.200747 59.645889 0
M  V30 7 C 38.959902 25.705382 57.935576 0
M  V30 8 C 37.538002 27.540366 53.693426 0
M  V30 9 N 37.467251 26.573191 54.822066 0 CHG=1
M  V30 10 C 40.363255 29.853179 60.974297 0
M  V30 11 C 38.884480 33.318427 61.488314 0
M  V30 12 C 39.193777 26.333835 56.553132 0 CFG=1
M  V30 13 C 37.961754 27.173232 56.092182 0 CFG=1
M  V30 14 C 38.338281 30.995245 60.549257 0 CFG=2
M  V30 15 C 40.620727 31.360421 61.192228 0
M  V30 16 C 40.081186 36.886491 61.880882 0
M  V30 17 N 37.467519 31.013086 58.250195 0
M  V30 18 C 38.254013 29.677116 56.441175 0
M  V30 19 O 41.067471 34.227604 61.851864 0
M  V30 20 C 40.558818 27.038733 56.443480 0
M  V30 21 C 38.066873 37.672522 61.561568 0
M  V30 22 C 39.252078 29.445941 58.816062 0
M  V30 23 C 38.433550 28.692788 54.150546 0
M  V30 24 N 39.064989 29.734438 60.271877 0 CFG=1 CHG=1
M  V30 25 O 37.866684 30.759306 61.853515 0
M  V30 26 C 37.911506 36.084793 61.418529 0
M  V30 27 C 39.381967 32.111031 60.654267 0 CFG=2
M  V30 28 O 37.918094 24.752413 57.853766 0
M  V30 29 H 37.235968 28.924825 58.192680 0
M  V30 30 H 36.690466 32.193696 59.795814 0
M  V30 31 H 36.329902 30.491350 59.912522 0
M  V30 32 H 38.686452 26.447859 58.681464 0
M  V30 33 H 39.871176 25.219838 58.281453 0
M  V30 34 H 36.533150 27.906665 53.487690 0
M  V30 35 H 37.899999 27.064038 52.781189 0
M  V30 36 H 38.049351 25.779540 54.597227 0
M  V30 37 H 41.170388 29.359110 60.432823 0
M  V30 38 H 40.280171 29.351838 61.940655 0
M  V30 39 H 37.969316 33.675655 61.022590 0
M  V30 40 H 38.606639 33.008316 62.494604 0
M  V30 41 H 39.305012 25.478119 55.883557 0
M  V30 42 H 37.161375 27.145479 56.833758 0
M  V30 43 H 41.523314 31.695015 60.682958 0
M  V30 44 H 40.765630 31.553008 62.256755 0
M  V30 45 H 41.142020 36.923114 62.083855 0
M  V30 46 H 36.623344 31.221134 57.681342 0
M  V30 47 H 38.447063 30.646332 56.001219 0
M  V30 48 H 40.812228 27.198240 55.398599 0
M  V30 49 H 40.602967 28.006726 56.932208 0
M  V30 50 H 41.351210 26.426380 56.870234 0
M  V30 51 H 37.413270 38.021524 62.359821 0
M  V30 52 H 37.734582 38.166055 60.647628 0
M  V30 53 H 39.569381 28.410995 58.756328 0
M  V30 54 H 40.078391 30.021472 58.409509 0
M  V30 55 H 38.135102 29.658061 53.739695 0
M  V30 56 H 39.467432 28.498855 53.889122 0
M  V30 57 H 38.265812 31.394255 62.430361 0
M  V30 58 H 37.603701 35.786108 60.414969 0
M  V30 59 H 37.269882 35.649357 62.185296 0
M  V30 60 H 39.571174 32.466393 59.642909 0
M  V30 61 H 38.285994 23.914112 57.611470 0
M  V30 62 H 36.517653 26.250157 54.940225 0
M  V30 63 H 38.526132 28.981368 60.672610 0
M  V30 END ATOM
M  V30 BEGIN BOND
M  V30 1 1 5 1
M  V30 2 1 9 8
M  V30 3 1 11 5
M  V30 4 1 12 7
M  V30 5 1 13 2
M  V30 6 1 13 9
M  V30 7 1 13 12
M  V30 8 1 14 6
M  V30 9 1 15 10
M  V30 10 2 16 1
M  V30 11 1 16 3
M  V30 12 1 17 4
M  V30 13 1 17 6
M  V30 14 2 18 2
M  V30 15 1 18 4
M  V30 16 2 19 5
M  V30 17 1 20 12
M  V30 18 1 21 3
M  V30 19 1 22 4
M  V30 20 1 23 2
M  V30 21 1 23 8
M  V30 22 1 24 10
M  V30 23 1 24 14
M  V30 24 1 24 22
M  V30 25 1 14 25 CFG=1
M  V30 26 1 26 1
M  V30 27 1 26 21
M  V30 28 1 27 11
M  V30 29 1 27 14
M  V30 30 1 27 15
M  V30 31 1 28 7
M  V30 32 1 4 29 CFG=3
M  V30 33 1 30 6
M  V30 34 1 31 6
M  V30 35 1 32 7
M  V30 36 1 33 7
M  V30 37 1 34 8
M  V30 38 1 35 8
M  V30 39 1 36 9
M  V30 40 1 37 10
M  V30 41 1 38 10
M  V30 42 1 39 11
M  V30 43 1 40 11
M  V30 44 1 12 41 CFG=3
M  V30 45 1 13 42 CFG=1
M  V30 46 1 43 15
M  V30 47 1 44 15
M  V30 48 1 45 16
M  V30 49 1 46 17
M  V30 50 1 47 18
M  V30 51 1 48 20
M  V30 52 1 49 20
M  V30 53 1 50 20
M  V30 54 1 51 21
M  V30 55 1 52 21
M  V30 56 1 53 22
M  V30 57 1 54 22
M  V30 58 1 55 23
M  V30 59 1 56 23
M  V30 60 1 57 25
M  V30 61 1 58 26
M  V30 62 1 59 26
M  V30 63 1 27 60 CFG=3
M  V30 64 1 61 28
M  V30 65 1 62 9
M  V30 66 1 24 63 CFG=1
M  V30 END BOND
M  V30 END CTAB
M  END
>  <i_epik_Tot_Q>  (1) 
2

>  <i_epik_Tot_abs_Q>  (1) 
2

>  <i_i_glide_confnum>  (1) 
50

>  <i_i_glide_lignum>  (1) 
14

>  <i_i_glide_posenum>  (1) 
371

>  <i_i_glide_rotatable_bonds>  (1) 
8

>  <i_lp_mmshare_version>  (1) 
72125

>  <i_m_source_file_index>  (1) 
2

>  <i_f3d_flags>  (1) 
0

>  <num_sample>  (1) 
100

>  <b_lp_Chiralities_Consistent>  (1) 
1

>  <r_epik_Charging_Adjusted_Penalty>  (1) 
2.3622130296898831

>  <r_epik_Ionization_Penalty>  (1) 
1.4312966064593899

>  <r_epik_Ionization_Penalty_Charging>  (1) 
1.1852885594971458

>  <r_epik_Ionization_Penalty_Neutral>  (1) 
0.24600804696224418

>  <r_epik_State_Penalty>  (1) 
1.176924470192737

>  <r_glide_ring_energy>  (1) 
0

>  <r_i_docking_score>  (1) 
-5.3496108616263474

>  <r_i_glide_ecoul>  (1) 
-6.1103668878713382

>  <r_i_glide_eff_state_penalty>  (1) 
1.176924470192737

>  <r_i_glide_einternal>  (1) 
5.4068755245387212

>  <r_i_glide_emodel>  (1) 
-51.845782681506577

>  <r_i_glide_emodel_strain>  (1) 
2.0720820044345203

>  <r_i_glide_energy>  (1) 
-36.058621017670205

>  <r_i_glide_erotb>  (1) 
0.75687532201182384

>  <r_i_glide_esite>  (1) 
0

>  <r_i_glide_evdw>  (1) 
-29.948254129798869

>  <r_i_glide_gscore>  (1) 
-6.5265353318190842

>  <r_i_glide_gscore_strain>  (1) 
0

>  <r_i_glide_hbond>  (1) 
-0.37555132042505934

>  <r_i_glide_ligand_efficiency>  (1) 
-0.19105753077236956

>  <r_i_glide_ligand_efficiency_ln>  (1) 
-1.2348472582634371

>  <r_i_glide_ligand_efficiency_sa>  (1) 
-0.5801631909371725

>  <r_i_glide_lipo>  (1) 
-2.8282463045994239

>  <r_i_glide_metal>  (1) 
-0

>  <r_i_glide_rewards>  (1) 
-1.6656452891357807

>  <r_lp_Energy>  (1) 
20.193497000000001

>  <s_epik_cmdline>  (1) 
J2VwaWtfcHl0aG9uJywgJy1waHQnLCAnMS4wJywgJy1waCcsICc3LjQnLCAnLXRuJywgJzgnLCAnLW1hJywgJzUwMCcsICctaW1hZScsICc8aW5maWxlLm1hZT4nLCAnLW9tYWUnLCAnPG91dGZpbGUubWFlPic=

>  <s_epik_input>  (1) 
W0NIMl0xW0NIMl1PW0NIXT1DMUMoPU8pW0NIMl1bQ0BIXTJbQ0gyXVtDSDJdTihbQ0BAXTIzW09IXSlbQ0gyXVtDQEBIXShbTkhdW0NIMl0zKS9bQ0hdPUM0XFtDQEBIXShbTkhdW0NIMl1bQ0gyXTQpW0NASF0oW0NIM10pW0NIMl1bT0hd

>  <s_glide_docking_method>  (1) 
confgen

>  <s_i_glide_gridfile>  (1) 
gpcr_5ht2c_6bqh_protein_autoprepared_prepared

>  <s_lp_Force_Field>  (1) 
S-OPLS

>  <s_lp_Variant>  (1) 
DiffSBDD_1_num_sample_100-8

>  <s_m_source_file>  (1) 
generated__ligand_DiffSBDD_2026-05-06_prepared.sdf

>  <GenAI_Model>  (1) 
DiffSBDD

>  <Protein>  (1) 
GPCR_5HT2C

$$$$
DiffSBDD_93_num_sample_100
     RDKit          3D

  0  0  0  0  0  0  0  0  0  0999 V3000
M  V30 BEGIN CTAB
M  V30 COUNTS 74 77 0 0 1
M  V30 BEGIN ATOM
M  V30 1 C 38.777646 30.548957 58.015522 0
M  V30 2 S 40.668332 34.195682 63.799972 0
M  V30 3 C 38.854309 30.913433 55.489868 0 CFG=2
M  V30 4 O 37.761547 38.021479 61.853565 0
M  V30 5 C 44.038569 30.760384 65.919057 0
M  V30 6 C 38.340616 35.361794 61.123219 0 CFG=1
M  V30 7 C 41.380413 32.111556 66.309064 0
M  V30 8 C 40.869390 31.412087 63.982938 0
M  V30 9 C 38.076980 29.599250 55.333648 0
M  V30 10 N 39.637015 32.244098 62.173990 0
M  V30 11 C 43.865736 31.210744 67.357806 0
M  V30 12 C 38.992527 31.360399 56.940792 0
M  V30 13 C 38.905813 31.061357 59.413181 0
M  V30 14 C 39.323699 33.048346 61.003313 0 CFG=1
M  V30 15 C 38.558278 28.580842 56.357291 0
M  V30 16 Cl 36.667614 29.040797 58.253183 0
M  V30 17 O 43.463130 32.953889 68.928869 0
M  V30 18 C 38.373918 29.105111 57.789229 0 CFG=2
M  V30 19 C 38.742167 30.090819 60.590713 0
M  V30 20 C 40.524414 35.535178 62.576858 0
M  V30 21 C 37.003832 36.046495 60.818658 0
M  V30 22 C 39.161285 32.383106 59.640148 0
M  V30 23 C 42.314687 33.217714 66.828845 0
M  V30 24 C 39.063762 36.012542 62.335692 0 CFG=1
M  V30 25 C 40.821669 32.586657 62.956369 0 CFG=1
M  V30 26 C 43.582070 32.707323 67.541600 0 CFG=2
M  V30 27 C 39.062862 37.538599 62.179900 0
M  V30 28 C 37.217764 37.538394 60.646342 0
M  V30 29 C 43.115028 30.900632 64.943226 0
M  V30 30 S 42.263845 32.421420 61.897790 0
M  V30 31 N 41.855866 31.494976 65.066017 0
M  V30 32 C 38.214973 32.019176 54.641597 0
M  V30 33 C 38.073057 33.866461 61.282720 0
M  V30 34 H 39.874079 30.760194 55.134753 0
M  V30 35 H 44.975865 30.275206 65.686049 0
M  V30 36 H 38.972852 35.515937 60.251510 0
M  V30 37 H 40.405695 32.566679 66.126005 0
M  V30 38 H 41.186639 31.352298 67.067234 0
M  V30 39 H 41.023072 30.464361 63.461476 0
M  V30 40 H 39.888337 31.303208 64.445662 0
M  V30 41 H 37.007243 29.777015 55.466638 0
M  V30 42 H 38.200228 29.207241 54.321941 0
M  V30 43 H 39.730844 31.289480 61.861400 0
M  V30 44 H 44.790478 30.963861 67.879638 0
M  V30 45 H 43.101241 30.600831 67.835936 0
M  V30 46 H 39.273615 32.385103 57.072201 0
M  V30 47 H 40.162664 33.703898 60.808536 0
M  V30 48 H 38.035277 27.631067 56.233993 0
M  V30 49 H 39.616321 28.382904 56.180548 0
M  V30 50 H 44.288566 32.755686 69.347383 0
M  V30 51 H 38.931472 28.436441 58.443231 0
M  V30 52 H 38.344170 29.116311 60.331249 0
M  V30 53 H 39.700254 29.897210 61.075462 0
M  V30 54 H 38.020544 30.478022 61.309373 0
M  V30 55 H 41.077986 36.350410 63.048508 0
M  V30 56 H 41.084374 35.341817 61.662909 0
M  V30 57 H 36.278820 35.865886 61.616608 0
M  V30 58 H 36.555099 35.650018 59.907320 0
M  V30 59 H 39.264097 33.056029 58.815768 0
M  V30 60 H 41.746766 33.864768 67.502105 0
M  V30 61 H 42.606631 33.859425 65.997982 0
M  V30 62 H 38.476912 35.821288 63.231324 0
M  V30 63 H 44.444339 33.271622 67.183944 0
M  V30 64 H 39.387370 37.992072 63.118085 0
M  V30 65 H 39.797471 37.865641 61.453359 0
M  V30 66 H 36.260074 38.021208 60.462831 0
M  V30 67 H 37.867542 37.769764 59.803333 0
M  V30 68 H 43.310919 30.530775 63.948316 0
M  V30 69 H 43.159079 32.469541 62.890153 0
M  V30 70 H 38.681795 32.983460 54.835542 0
M  V30 71 H 38.315935 31.803903 53.577313 0
M  V30 72 H 37.153599 32.124737 54.863743 0
M  V30 73 H 37.653581 33.634849 62.252751 0
M  V30 74 H 37.282590 33.558579 60.593605 0
M  V30 END ATOM
M  V30 BEGIN BOND
M  V30 1 1 9 3
M  V30 2 1 11 5
M  V30 3 2 12 1
M  V30 4 1 12 3
M  V30 5 1 13 1
M  V30 6 1 14 10
M  V30 7 1 15 9
M  V30 8 1 18 1
M  V30 9 1 18 15
M  V30 10 1 18 16
M  V30 11 1 19 13
M  V30 12 1 20 2
M  V30 13 1 21 6
M  V30 14 2 22 13
M  V30 15 1 22 14
M  V30 16 1 23 7
M  V30 17 1 24 6
M  V30 18 1 24 20
M  V30 19 1 25 2
M  V30 20 1 25 8
M  V30 21 1 25 10
M  V30 22 1 26 11
M  V30 23 1 26 17
M  V30 24 1 26 23
M  V30 25 1 27 4
M  V30 26 1 27 24
M  V30 27 1 28 4
M  V30 28 1 28 21
M  V30 29 2 29 5
M  V30 30 1 25 30 CFG=3
M  V30 31 1 31 7
M  V30 32 1 31 8
M  V30 33 1 31 29
M  V30 34 1 32 3
M  V30 35 1 33 6
M  V30 36 1 33 14
M  V30 37 1 3 34 CFG=3
M  V30 38 1 35 5
M  V30 39 1 6 36 CFG=3
M  V30 40 1 37 7
M  V30 41 1 38 7
M  V30 42 1 39 8
M  V30 43 1 40 8
M  V30 44 1 41 9
M  V30 45 1 42 9
M  V30 46 1 43 10
M  V30 47 1 44 11
M  V30 48 1 45 11
M  V30 49 1 46 12
M  V30 50 1 14 47 CFG=3
M  V30 51 1 48 15
M  V30 52 1 49 15
M  V30 53 1 50 17
M  V30 54 1 18 51 CFG=1
M  V30 55 1 52 19
M  V30 56 1 53 19
M  V30 57 1 54 19
M  V30 58 1 55 20
M  V30 59 1 56 20
M  V30 60 1 57 21
M  V30 61 1 58 21
M  V30 62 1 59 22
M  V30 63 1 60 23
M  V30 64 1 61 23
M  V30 65 1 24 62 CFG=1
M  V30 66 1 26 63 CFG=3
M  V30 67 1 64 27
M  V30 68 1 65 27
M  V30 69 1 66 28
M  V30 70 1 67 28
M  V30 71 1 68 29
M  V30 72 1 69 30
M  V30 73 1 70 32
M  V30 74 1 71 32
M  V30 75 1 72 32
M  V30 76 1 73 33
M  V30 77 1 74 33
M  V30 END BOND
M  V30 END CTAB
M  END
>  <i_epik_Tot_Q>  (1) 
0

>  <i_epik_Tot_abs_Q>  (1) 
0

>  <i_i_glide_confnum>  (1) 
61

>  <i_i_glide_lignum>  (1) 
249

>  <i_i_glide_posenum>  (1) 
180

>  <i_i_glide_rotatable_bonds>  (1) 
6

>  <i_lp_mmshare_version>  (1) 
72125

>  <i_m_source_file_index>  (1) 
94

>  <i_f3d_flags>  (1) 
0

>  <num_sample>  (1) 
100

>  <b_lp_Chiralities_Consistent>  (1) 
1

>  <r_epik_Charging_Adjusted_Penalty>  (1) 
0.20325292957253988

>  <r_epik_Ionization_Penalty>  (1) 
0.031936562948065232

>  <r_epik_Ionization_Penalty_Charging>  (1) 
3.6030848355623751e-07

>  <r_epik_Ionization_Penalty_Neutral>  (1) 
0.031936202639581676

>  <r_epik_State_Penalty>  (1) 
0.20325256926405633

>  <r_glide_ring_energy>  (1) 
0

>  <r_i_docking_score>  (1) 
-5.3473270583306256

>  <r_i_glide_ecoul>  (1) 
-1.4921713215654877

>  <r_i_glide_eff_state_penalty>  (1) 
0.20325256926405633

>  <r_i_glide_einternal>  (1) 
14.717862234118176

>  <r_i_glide_emodel>  (1) 
-21.716566145827137

>  <r_i_glide_emodel_strain>  (1) 
1.3549152111646663

>  <r_i_glide_energy>  (1) 
-29.187915462143465

>  <r_i_glide_erotb>  (1) 
0.31140238833871409

>  <r_i_glide_esite>  (1) 
0

>  <r_i_glide_evdw>  (1) 
-27.695744140577979

>  <r_i_glide_gscore>  (1) 
-5.5505796275946819

>  <r_i_glide_gscore_strain>  (1) 
0

>  <r_i_glide_hbond>  (1) 
0

>  <r_i_glide_ligand_efficiency>  (1) 
-0.16204021388880685

>  <r_i_glide_ligand_efficiency_ln>  (1) 
-1.1892178507949982

>  <r_i_glide_ligand_efficiency_sa>  (1) 
-0.51974954888821445

>  <r_i_glide_lipo>  (1) 
-3.1837770288751681

>  <r_i_glide_metal>  (1) 
-0

>  <r_i_glide_rewards>  (1) 
-1.0695920817945057

>  <r_lp_Energy>  (1) 
26.366080999999998

>  <s_epik_Chemistry_Notes>  (1) 
This compound has an imine and may undergo hydrolysis.

>  <s_epik_cmdline>  (1) 
J2VwaWtfcHl0aG9uJywgJy1waHQnLCAnMS4wJywgJy1waCcsICc3LjQnLCAnLXRuJywgJzgnLCAnLW1hJywgJzUwMCcsICctaW1hZScsICc8aW5maWxlLm1hZT4nLCAnLW9tYWUnLCAnPG91dGZpbGUubWFlPic=

>  <s_epik_input>  (1) 
Q2xbQ0BIXTFbQ0gyXVtDSDJdW0NAQEhdKFtDSDNdKVtDSF09QzEvQyhbQ0gzXSk9W0NIXS9bQ0BASF0oW0NIMl0yKVtOSF1bQ0BAXShbU0hdKShTW0NIMl1bQ0BIXShbQ0BASF0yMylbQ0gyXU9bQ0gyXVtDSDJdMylbQ0gyXU4oW0NIMl1bQ0gyXTQpW0NIXT1bQ0hdW0NIMl1bQ0BASF00W09IXQ==

>  <s_glide_docking_method>  (1) 
confgen

>  <s_i_glide_gridfile>  (1) 
gpcr_5ht2c_6bqh_protein_autoprepared_prepared

>  <s_lp_Force_Field>  (1) 
S-OPLS

>  <s_lp_Variant>  (1) 
DiffSBDD_93_num_sample_100-1

>  <s_m_source_file>  (1) 
generated__ligand_DiffSBDD_2026-05-06_prepared.sdf

>  <GenAI_Model>  (1) 
DiffSBDD

>  <Protein>  (1) 
GPCR_5HT2C

$$$$
DiffSBDD_30_num_sample_100
     RDKit          3D

  0  0  0  0  0  0  0  0  0  0999 V3000
M  V30 BEGIN CTAB
M  V30 COUNTS 70 73 0 0 1
M  V30 BEGIN ATOM
M  V30 1 C 38.769762 36.087829 62.101739 0
M  V30 2 C 40.623294 32.097640 62.691279 0 CFG=1
M  V30 3 O 40.947694 35.884334 63.004410 0
M  V30 4 C 38.547316 25.753407 57.213653 0
M  V30 5 C 37.832025 24.784114 56.490725 0
M  V30 6 N 39.145049 33.454407 60.787451 0
M  V30 7 C 37.480007 26.385971 54.685180 0
M  V30 8 C 40.267791 34.111648 61.492469 0 CFG=1
M  V30 9 O 38.009192 30.945199 61.853235 0
M  V30 10 O 42.084895 30.474380 63.731867 0
M  V30 11 C 39.467770 27.938965 52.679513 0
M  V30 12 C 41.652458 31.626189 63.725419 0
M  V30 13 C 42.120231 32.652035 64.751032 0
M  V30 14 C 38.758708 27.797420 51.353524 0
M  V30 15 C 39.723951 29.396274 54.706972 0 CFG=2
M  V30 16 C 38.784709 33.329589 57.115082 0
M  V30 17 N 38.358878 33.005405 58.498032 0 CHG=1
M  V30 18 C 40.086598 28.515577 51.430888 0
M  V30 19 C 38.539342 31.080515 55.941922 0 CFG=1
M  V30 20 C 37.301015 25.098030 55.227192 0
M  V30 21 C 39.725977 30.868218 55.003504 0
M  V30 22 N 38.943615 29.018561 53.529783 0 CFG=2 CHG=1
M  V30 23 C 38.731051 27.042343 56.677250 0
M  V30 24 C 38.916768 33.993838 59.453518 0
M  V30 25 C 38.196389 27.370427 55.403946 0
M  V30 26 C 38.110385 32.535535 56.022210 0
M  V30 27 C 39.224607 30.296890 62.158247 0
M  V30 28 C 39.840678 35.102635 62.602277 0 CFG=2
M  V30 29 C 38.376995 28.753378 54.833677 0 CFG=1
M  V30 30 O 39.424032 27.979195 57.391631 0
M  V30 31 S 37.209334 30.021434 55.324873 0
M  V30 32 O 41.182746 33.188123 62.019244 0
M  V30 33 O 40.337507 31.056789 61.795887 0
M  V30 34 H 37.844615 35.577138 61.834613 0
M  V30 35 H 38.517759 36.817057 62.872552 0
M  V30 36 H 39.112322 36.640009 61.225998 0
M  V30 37 H 39.723572 32.415772 63.217817 0
M  V30 38 H 40.691526 36.467681 63.705171 0
M  V30 39 H 38.954847 25.508809 58.184312 0
M  V30 40 H 37.689487 23.797747 56.906768 0
M  V30 41 H 39.373010 32.462254 60.734503 0
M  V30 42 H 37.066684 26.621506 53.715609 0
M  V30 43 H 40.865002 34.683485 60.782921 0
M  V30 44 H 37.897442 31.665387 62.455539 0
M  V30 45 H 39.885499 27.062288 53.170017 0
M  V30 46 H 41.264511 33.085678 65.268953 0
M  V30 47 H 42.771387 32.187343 65.491070 0
M  V30 48 H 42.667226 33.456768 64.260292 0
M  V30 49 H 38.755979 26.819476 50.877582 0
M  V30 50 H 37.867606 28.395940 51.181188 0
M  V30 51 H 40.545052 28.779433 55.053532 0
M  V30 52 H 39.866057 33.221409 57.019363 0
M  V30 53 H 38.497768 34.360801 56.916565 0
M  V30 54 H 37.346811 33.019131 58.544465 0
M  V30 55 H 40.076361 29.596020 51.291552 0
M  V30 56 H 40.970600 28.021453 51.053567 0
M  V30 57 H 38.786553 30.698884 56.934152 0
M  V30 58 H 36.750751 24.351129 54.672198 0
M  V30 59 H 39.615950 31.431022 54.074490 0
M  V30 60 H 40.667069 31.172701 55.453423 0
M  V30 61 H 39.869839 34.329212 59.053664 0
M  V30 62 H 38.258977 34.860931 59.499839 0
M  V30 63 H 38.245516 33.027162 55.057442 0
M  V30 64 H 37.067413 32.610253 56.221263 0
M  V30 65 H 39.246396 29.370038 61.582781 0
M  V30 66 H 39.227299 30.033374 63.218253 0
M  V30 67 H 39.467318 34.546054 63.453427 0
M  V30 68 H 39.752422 27.650568 58.215768 0
M  V30 69 H 38.678489 32.074403 58.719773 0
M  V30 70 H 38.532751 29.812884 53.063431 0
M  V30 END ATOM
M  V30 BEGIN BOND
M  V30 1 1 5 4
M  V30 2 1 8 6
M  V30 3 1 12 2
M  V30 4 2 12 10
M  V30 5 1 13 12
M  V30 6 1 14 11
M  V30 7 1 17 16
M  V30 8 1 18 11
M  V30 9 1 18 14
M  V30 10 2 20 5
M  V30 11 1 20 7
M  V30 12 1 21 15
M  V30 13 1 21 19
M  V30 14 1 22 11
M  V30 15 1 22 15
M  V30 16 2 23 4
M  V30 17 1 24 6
M  V30 18 1 24 17
M  V30 19 2 25 7
M  V30 20 1 25 23
M  V30 21 1 26 16
M  V30 22 1 26 19
M  V30 23 1 27 9
M  V30 24 1 28 1
M  V30 25 1 28 3
M  V30 26 1 28 8
M  V30 27 1 29 15
M  V30 28 1 29 22
M  V30 29 1 29 25 CFG=1
M  V30 30 1 30 23
M  V30 31 1 31 19
M  V30 32 1 31 29
M  V30 33 1 32 2
M  V30 34 1 32 8
M  V30 35 1 33 2
M  V30 36 1 33 27
M  V30 37 1 34 1
M  V30 38 1 35 1
M  V30 39 1 36 1
M  V30 40 1 2 37 CFG=1
M  V30 41 1 38 3
M  V30 42 1 39 4
M  V30 43 1 40 5
M  V30 44 1 41 6
M  V30 45 1 42 7
M  V30 46 1 8 43 CFG=3
M  V30 47 1 44 9
M  V30 48 1 45 11
M  V30 49 1 46 13
M  V30 50 1 47 13
M  V30 51 1 48 13
M  V30 52 1 49 14
M  V30 53 1 50 14
M  V30 54 1 15 51 CFG=1
M  V30 55 1 52 16
M  V30 56 1 53 16
M  V30 57 1 54 17
M  V30 58 1 55 18
M  V30 59 1 56 18
M  V30 60 1 19 57 CFG=1
M  V30 61 1 58 20
M  V30 62 1 59 21
M  V30 63 1 60 21
M  V30 64 1 61 24
M  V30 65 1 62 24
M  V30 66 1 63 26
M  V30 67 1 64 26
M  V30 68 1 65 27
M  V30 69 1 66 27
M  V30 70 1 28 67 CFG=1
M  V30 71 1 68 30
M  V30 72 1 69 17
M  V30 73 1 22 70 CFG=3
M  V30 END BOND
M  V30 END CTAB
M  END
>  <i_epik_Tot_Q>  (1) 
2

>  <i_epik_Tot_abs_Q>  (1) 
2

>  <i_i_glide_confnum>  (1) 
6492

>  <i_i_glide_lignum>  (1) 
82

>  <i_i_glide_posenum>  (1) 
143

>  <i_i_glide_rotatable_bonds>  (1) 
17

>  <i_lp_mmshare_version>  (1) 
72125

>  <i_m_source_file_index>  (1) 
31

>  <i_f3d_flags>  (1) 
0

>  <num_sample>  (1) 
100

>  <b_lp_Chiralities_Consistent>  (1) 
1

>  <r_epik_Charging_Adjusted_Penalty>  (1) 
1.979093595035226

>  <r_epik_Ionization_Penalty>  (1) 
0.79989620662071081

>  <r_epik_Ionization_Penalty_Charging>  (1) 
0.66086891892205935

>  <r_epik_Ionization_Penalty_Neutral>  (1) 
0.13902728769865147

>  <r_epik_State_Penalty>  (1) 
1.3182246761131666

>  <r_glide_ring_energy>  (1) 
0

>  <r_i_docking_score>  (1) 
-5.3434453097772447

>  <r_i_glide_ecoul>  (1) 
-3.4403003678674864

>  <r_i_glide_eff_state_penalty>  (1) 
1.3182246761131666

>  <r_i_glide_einternal>  (1) 
17.738780951720198

>  <r_i_glide_emodel>  (1) 
-52.874854795838182

>  <r_i_glide_emodel_strain>  (1) 
2.6135389207629132

>  <r_i_glide_energy>  (1) 
-40.637193139910117

>  <r_i_glide_erotb>  (1) 
1.1283805066766976

>  <r_i_glide_esite>  (1) 
-0.030338322851414454

>  <r_i_glide_evdw>  (1) 
-37.196892772042631

>  <r_i_glide_gscore>  (1) 
-6.6616699858904109

>  <r_i_glide_gscore_strain>  (1) 
0

>  <r_i_glide_hbond>  (1) 
-0.15378981688936608

>  <r_i_glide_ligand_efficiency>  (1) 
-0.16192258514476499

>  <r_i_glide_ligand_efficiency_ln>  (1) 
-1.1883545700153446

>  <r_i_glide_ligand_efficiency_sa>  (1) 
-0.51937225065350601

>  <r_i_glide_lipo>  (1) 
-3.5988465912648686

>  <r_i_glide_metal>  (1) 
-0

>  <r_i_glide_rewards>  (1) 
-1.6311860677792056

>  <r_lp_Energy>  (1) 
33.25723

>  <r_lp_tautomer_probability>  (1) 
0.99999996999736518

>  <s_epik_Chemistry_Notes>  (1) 
This compound contains an acetal/aminal-like group ( X-CH(R)-Y where X, Y are N, S, or O) that may be acid/base labile, releasing an aldehyde.

>  <s_epik_cmdline>  (1) 
J2VwaWtfcHl0aG9uJywgJy1waHQnLCAnMS4wJywgJy1waCcsICc3LjQnLCAnLXRuJywgJzgnLCAnLW1hJywgJzUwMCcsICctaW1hZScsICc8aW5maWxlLm1hZT4nLCAnLW9tYWUnLCAnPG91dGZpbGUubWFlPic=

>  <s_epik_input>  (1) 
W09IXVtDSDJdT1tDQEBIXShDKD1PKVtDSDNdKU9bQ0BIXShbQ0BIXShbQ0gzXSlbT0hdKVtOSF1bQ0gyXVtOSF1bQ0gyXVtDSDJdW0NAQEhdKFMxKVtDSDJdW0NASF0oTjJbQ0hdM1tDSDJdW0NIMl0zKVtDQEBdMTJjNFtjSF1bY0hdW2NIXVtjSF1jNFtPSF0=

>  <s_glide_docking_method>  (1) 
confgen

>  <s_i_glide_gridfile>  (1) 
gpcr_5ht2c_6bqh_protein_autoprepared_prepared

>  <s_lp_Force_Field>  (1) 
S-OPLS

>  <s_lp_Variant>  (1) 
DiffSBDD_30_num_sample_100-4

>  <s_m_source_file>  (1) 
generated__ligand_DiffSBDD_2026-05-06_prepared.sdf

>  <GenAI_Model>  (1) 
DiffSBDD

>  <Protein>  (1) 
GPCR_5HT2C

$$$$
DiffSBDD_47_num_sample_100
     RDKit          3D

  0  0  0  0  0  0  0  0  0  0999 V3000
M  V30 BEGIN CTAB
M  V30 COUNTS 32 32 0 0 1
M  V30 BEGIN ATOM
M  V30 1 S 36.463701 29.621430 58.653506 0
M  V30 2 C 40.021588 29.105866 61.611688 0
M  V30 3 N 38.299731 28.713425 56.930210 0
M  V30 4 C 38.666424 28.353085 54.548865 0
M  V30 5 C 38.999970 28.829333 59.271091 0
M  V30 6 O 39.398214 31.560200 62.653610 0 CHG=-1
M  V30 7 C 38.199169 29.509666 58.143945 0 CFG=2
M  V30 8 C 38.649130 29.358744 53.373397 0 CFG=2
M  V30 9 C 39.216396 29.753476 60.479742 0
M  V30 10 C 39.149755 28.778735 52.044129 0
M  V30 11 O 39.188979 27.565589 51.833995 0
M  V30 12 O 41.867406 30.795081 62.653488 0
M  V30 13 S 40.399181 30.421256 62.863681 0
M  V30 14 C 38.613293 29.197003 55.792160 0
M  V30 15 C 39.384676 30.655426 53.800025 0
M  V30 16 O 39.514497 29.728768 51.165995 0
M  V30 17 O 39.867413 29.221427 49.853496 0
M  V30 18 S 39.022744 30.920613 55.546550 0
M  V30 19 H 36.095442 30.585336 57.785000 0
M  V30 20 H 39.466159 28.297951 62.088375 0
M  V30 21 H 40.959572 28.692867 61.240012 0
M  V30 22 H 37.809541 27.679213 54.507591 0
M  V30 23 H 39.574474 27.749784 54.565293 0
M  V30 24 H 38.511626 27.905237 59.582098 0
M  V30 25 H 39.979201 28.538756 58.887709 0
M  V30 26 H 38.570278 30.527854 58.046071 0
M  V30 27 H 37.603809 29.621495 53.215789 0
M  V30 28 H 39.734894 30.654020 60.149430 0
M  V30 29 H 38.256366 30.084221 60.875870 0
M  V30 30 H 40.464649 30.551665 53.686825 0
M  V30 31 H 39.067699 31.522138 53.218913 0
M  V30 32 H 39.025438 29.273065 49.414936 0
M  V30 END ATOM
M  V30 BEGIN BOND
M  V30 1 1 7 1
M  V30 2 1 7 3
M  V30 3 1 7 5
M  V30 4 1 8 4
M  V30 5 1 9 2
M  V30 6 1 9 5
M  V30 7 1 10 8
M  V30 8 2 11 10
M  V30 9 1 13 2
M  V30 10 1 13 6
M  V30 11 2 13 12
M  V30 12 2 14 3
M  V30 13 1 14 4
M  V30 14 1 15 8
M  V30 15 1 16 10
M  V30 16 1 17 16
M  V30 17 1 18 14
M  V30 18 1 18 15
M  V30 19 1 19 1
M  V30 20 1 20 2
M  V30 21 1 21 2
M  V30 22 1 22 4
M  V30 23 1 23 4
M  V30 24 1 24 5
M  V30 25 1 25 5
M  V30 26 1 7 26 CFG=3
M  V30 27 1 8 27 CFG=3
M  V30 28 1 28 9
M  V30 29 1 29 9
M  V30 30 1 30 15
M  V30 31 1 31 15
M  V30 32 1 32 17
M  V30 END BOND
M  V30 END CTAB
M  END
>  <i_epik_Tot_Q>  (1) 
-1

>  <i_epik_Tot_abs_Q>  (1) 
1

>  <i_i_glide_confnum>  (1) 
103

>  <i_i_glide_lignum>  (1) 
129

>  <i_i_glide_posenum>  (1) 
161

>  <i_i_glide_rotatable_bonds>  (1) 
9

>  <i_lp_mmshare_version>  (1) 
72125

>  <i_m_source_file_index>  (1) 
48

>  <i_f3d_flags>  (1) 
0

>  <num_sample>  (1) 
100

>  <b_lp_Chiralities_Consistent>  (1) 
1

>  <r_epik_Charging_Adjusted_Penalty>  (1) 
0.41068401557064588

>  <r_epik_Ionization_Penalty>  (1) 
0.088233061061265911

>  <r_epik_Ionization_Penalty_Charging>  (1) 
4.1766180419441644e-06

>  <r_epik_Ionization_Penalty_Neutral>  (1) 
0.088228884443223965

>  <r_epik_State_Penalty>  (1) 
0.41067983895260396

>  <r_glide_ring_energy>  (1) 
0

>  <r_i_docking_score>  (1) 
-5.3431568081807956

>  <r_i_glide_ecoul>  (1) 
-7.1636163498775645

>  <r_i_glide_eff_state_penalty>  (1) 
0.41067983895260396

>  <r_i_glide_einternal>  (1) 
3.0767154820518501

>  <r_i_glide_emodel>  (1) 
-52.138370165312757

>  <r_i_glide_emodel_strain>  (1) 
1.0491378506174627

>  <r_i_glide_energy>  (1) 
-40.555883496238089

>  <r_i_glide_erotb>  (1) 
1.1409563005043168

>  <r_i_glide_esite>  (1) 
-0.088177883525228817

>  <r_i_glide_evdw>  (1) 
-33.392267146360524

>  <r_i_glide_gscore>  (1) 
-5.7538366471333999

>  <r_i_glide_gscore_strain>  (1) 
0

>  <r_i_glide_hbond>  (1) 
-0.65256702720854276

>  <r_i_glide_ligand_efficiency>  (1) 
-0.29684204489893307

>  <r_i_glide_ligand_efficiency_ln>  (1) 
-1.3734309060145626

>  <r_i_glide_ligand_efficiency_sa>  (1) 
-0.77794623460824985

>  <r_i_glide_lipo>  (1) 
-1.2475907319840853

>  <r_i_glide_metal>  (1) 
-0

>  <r_i_glide_rewards>  (1) 
-2.162301495120198

>  <r_lp_Energy>  (1) 
-2.9983

>  <r_lp_tautomer_probability>  (1) 
0.49990026989615577

>  <s_epik_Chemistry_Notes>  (1) 
This compound has an imine and may undergo hydrolysis. This compound contains an acetal/aminal-like group ( X-CH(R)-Y where X, Y are N, S, or O) that may be acid/base labile, releasing an aldehyde.

>  <s_epik_cmdline>  (1) 
J2VwaWtfcHl0aG9uJywgJy1waHQnLCAnMS4wJywgJy1waCcsICc3LjQnLCAnLXRuJywgJzgnLCAnLW1hJywgJzUwMCcsICctaW1hZScsICc8aW5maWxlLm1hZT4nLCAnLW9tYWUnLCAnPG91dGZpbGUubWFlPic=

>  <s_epik_input>  (1) 
W09IXVtTQEBdKD1PKVtDSDJdW0NIMl1bQ0gyXVtDQEhdKFtTSF0pL049QyhTW0NIMl0xKS9bQ0gyXVtDQEBIXTFDKD1PKU9bT0hd

>  <s_glide_docking_method>  (1) 
confgen

>  <s_i_glide_gridfile>  (1) 
gpcr_5ht2c_6bqh_protein_autoprepared_prepared

>  <s_lp_Force_Field>  (1) 
S-OPLS

>  <s_lp_Variant>  (1) 
DiffSBDD_47_num_sample_100-1

>  <s_m_source_file>  (1) 
generated__ligand_DiffSBDD_2026-05-06_prepared.sdf

>  <GenAI_Model>  (1) 
DiffSBDD

>  <Protein>  (1) 
GPCR_5HT2C

$$$$
DiffSBDD_1_num_sample_100
     RDKit          3D

  0  0  0  0  0  0  0  0  0  0999 V3000
M  V30 BEGIN CTAB
M  V30 COUNTS 63 66 0 0 1
M  V30 BEGIN ATOM
M  V30 1 C 38.433291 26.578874 57.319326 0
M  V30 2 C 39.750075 34.562125 61.891955 0
M  V30 3 O 37.587474 25.091648 55.870954 0
M  V30 4 C 37.915693 33.026998 60.978741 0 CFG=1
M  V30 5 C 38.766832 27.929283 57.817267 0
M  V30 6 C 38.472151 30.721050 60.181683 0
M  V30 7 C 40.982454 33.525189 64.531371 0
M  V30 8 C 39.843729 36.848450 62.382657 0
M  V30 9 N 41.069195 36.189847 62.888921 0 CHG=1
M  V30 10 C 38.089693 32.882819 57.133823 0
M  V30 11 C 38.319160 29.131197 56.979405 0
M  V30 12 C 41.836649 33.827118 63.285630 0 CFG=2
M  V30 13 C 41.182701 34.836641 62.291845 0 CFG=1
M  V30 14 C 38.054995 31.096673 58.741400 0 CFG=2
M  V30 15 C 38.525133 31.599078 56.409578 0
M  V30 16 C 37.819360 26.372653 56.196585 0
M  V30 17 N 37.732483 31.568794 61.158213 0
M  V30 18 C 39.352530 33.383703 61.359163 0
M  V30 19 O 39.385397 28.116674 58.864645 0
M  V30 20 C 42.311354 32.522282 62.611587 0
M  V30 21 C 38.205855 24.391006 57.024741 0
M  V30 22 C 37.492089 33.413588 59.540036 0
M  V30 23 C 38.826737 35.728240 62.138315 0
M  V30 24 N 38.206495 32.562592 58.563385 0 CFG=2 CHG=1
M  V30 25 O 36.667403 30.821430 58.670246 0
M  V30 26 C 38.803752 25.410871 58.107317 0
M  V30 27 C 38.766353 30.517568 57.492950 0 CFG=2
M  V30 28 O 41.735716 32.820207 65.492946 0
M  V30 29 H 37.259332 33.553381 61.672765 0
M  V30 30 H 39.550089 30.810004 60.303266 0
M  V30 31 H 38.238214 29.675063 60.378053 0
M  V30 32 H 40.090051 32.951672 64.276444 0
M  V30 33 H 40.667399 34.455435 65.002080 0
M  V30 34 H 40.090546 37.355455 61.453501 0
M  V30 35 H 39.482133 37.601285 63.083997 0
M  V30 36 H 40.967105 36.093951 63.889913 0
M  V30 37 H 38.712204 33.732812 56.869237 0
M  V30 38 H 37.067403 33.164139 56.889411 0
M  V30 39 H 37.234734 29.104672 56.876823 0
M  V30 40 H 38.727320 28.990529 55.978364 0
M  V30 41 H 42.729216 34.321529 63.660235 0
M  V30 42 H 41.778281 34.932212 61.383136 0
M  V30 43 H 39.423806 31.761451 55.812757 0
M  V30 44 H 37.733577 31.300001 55.720134 0
M  V30 45 H 37.467404 27.094758 55.474338 0
M  V30 46 H 36.747990 31.367592 60.996691 0
M  V30 47 H 40.084181 32.614150 61.204011 0
M  V30 48 H 41.507621 31.798400 62.489916 0
M  V30 49 H 42.759738 32.712965 61.636271 0
M  V30 50 H 43.066457 32.021360 63.217678 0
M  V30 51 H 37.470383 23.730227 57.485837 0
M  V30 52 H 39.012031 23.760861 56.653505 0
M  V30 53 H 36.412985 33.304670 59.412750 0
M  V30 54 H 37.721126 34.461895 59.346339 0
M  V30 55 H 38.152227 35.939596 61.308466 0
M  V30 56 H 38.257268 35.621428 63.053490 0
M  V30 57 H 36.227275 31.242330 57.916655 0
M  V30 58 H 39.882857 25.319292 58.246739 0
M  V30 59 H 38.267473 25.384928 59.053494 0
M  V30 60 H 39.837779 30.466840 57.686694 0
M  V30 61 H 41.912912 31.948567 65.170520 0
M  V30 62 H 41.889306 36.754615 62.712783 0
M  V30 63 H 39.181036 32.719408 58.767656 0
M  V30 END ATOM
M  V30 BEGIN BOND
M  V30 1 1 5 1
M  V30 2 1 9 8
M  V30 3 1 11 5
M  V30 4 1 12 7
M  V30 5 1 13 2
M  V30 6 1 13 9
M  V30 7 1 13 12
M  V30 8 1 14 6
M  V30 9 1 15 10
M  V30 10 2 16 1
M  V30 11 1 16 3
M  V30 12 1 17 4
M  V30 13 1 17 6
M  V30 14 2 18 2
M  V30 15 1 18 4
M  V30 16 2 19 5
M  V30 17 1 20 12
M  V30 18 1 21 3
M  V30 19 1 22 4
M  V30 20 1 23 2
M  V30 21 1 23 8
M  V30 22 1 24 10
M  V30 23 1 24 14
M  V30 24 1 24 22
M  V30 25 1 14 25 CFG=3
M  V30 26 1 26 1
M  V30 27 1 26 21
M  V30 28 1 27 11
M  V30 29 1 27 14
M  V30 30 1 27 15
M  V30 31 1 28 7
M  V30 32 1 4 29 CFG=1
M  V30 33 1 30 6
M  V30 34 1 31 6
M  V30 35 1 32 7
M  V30 36 1 33 7
M  V30 37 1 34 8
M  V30 38 1 35 8
M  V30 39 1 36 9
M  V30 40 1 37 10
M  V30 41 1 38 10
M  V30 42 1 39 11
M  V30 43 1 40 11
M  V30 44 1 12 41 CFG=1
M  V30 45 1 13 42 CFG=3
M  V30 46 1 43 15
M  V30 47 1 44 15
M  V30 48 1 45 16
M  V30 49 1 46 17
M  V30 50 1 47 18
M  V30 51 1 48 20
M  V30 52 1 49 20
M  V30 53 1 50 20
M  V30 54 1 51 21
M  V30 55 1 52 21
M  V30 56 1 53 22
M  V30 57 1 54 22
M  V30 58 1 55 23
M  V30 59 1 56 23
M  V30 60 1 57 25
M  V30 61 1 58 26
M  V30 62 1 59 26
M  V30 63 1 27 60 CFG=1
M  V30 64 1 61 28
M  V30 65 1 62 9
M  V30 66 1 24 63 CFG=1
M  V30 END BOND
M  V30 END CTAB
M  END
>  <i_epik_Tot_Q>  (1) 
2

>  <i_epik_Tot_abs_Q>  (1) 
2

>  <i_i_glide_confnum>  (1) 
119

>  <i_i_glide_lignum>  (1) 
11

>  <i_i_glide_posenum>  (1) 
266

>  <i_i_glide_rotatable_bonds>  (1) 
8

>  <i_lp_mmshare_version>  (1) 
72125

>  <i_m_source_file_index>  (1) 
2

>  <i_f3d_flags>  (1) 
0

>  <num_sample>  (1) 
100

>  <b_lp_Chiralities_Consistent>  (1) 
1

>  <r_epik_Charging_Adjusted_Penalty>  (1) 
2.3622130296898831

>  <r_epik_Ionization_Penalty>  (1) 
1.4312966064593899

>  <r_epik_Ionization_Penalty_Charging>  (1) 
1.1852885594971458

>  <r_epik_Ionization_Penalty_Neutral>  (1) 
0.24600804696224418

>  <r_epik_State_Penalty>  (1) 
1.176924470192737

>  <r_glide_ring_energy>  (1) 
0

>  <r_i_docking_score>  (1) 
-5.3355689679967817

>  <r_i_glide_ecoul>  (1) 
-8.3457225218485078

>  <r_i_glide_eff_state_penalty>  (1) 
1.176924470192737

>  <r_i_glide_einternal>  (1) 
5.6617284774297953

>  <r_i_glide_emodel>  (1) 
-52.141258720433981

>  <r_i_glide_emodel_strain>  (1) 
0.19310471827753872

>  <r_i_glide_energy>  (1) 
-36.201044013182717

>  <r_i_glide_erotb>  (1) 
0.75687532201182384

>  <r_i_glide_esite>  (1) 
-0.10766667521561205

>  <r_i_glide_evdw>  (1) 
-27.855321491334209

>  <r_i_glide_gscore>  (1) 
-6.5124934381895185

>  <r_i_glide_gscore_strain>  (1) 
0

>  <r_i_glide_hbond>  (1) 
-0.13261038019806368

>  <r_i_glide_ligand_efficiency>  (1) 
-0.19055603457131362

>  <r_i_glide_ligand_efficiency_ln>  (1) 
-1.2316059769258214

>  <r_i_glide_ligand_efficiency_sa>  (1) 
-0.57864035310360851

>  <r_i_glide_lipo>  (1) 
-2.8410672033984863

>  <r_i_glide_metal>  (1) 
-0

>  <r_i_glide_rewards>  (1) 
-1.5434000485451951

>  <r_lp_Energy>  (1) 
17.137563

>  <s_epik_cmdline>  (1) 
J2VwaWtfcHl0aG9uJywgJy1waHQnLCAnMS4wJywgJy1waCcsICc3LjQnLCAnLXRuJywgJzgnLCAnLW1hJywgJzUwMCcsICctaW1hZScsICc8aW5maWxlLm1hZT4nLCAnLW9tYWUnLCAnPG91dGZpbGUubWFlPic=

>  <s_epik_input>  (1) 
W0NIMl0xW0NIMl1PW0NIXT1DMUMoPU8pW0NIMl1bQ0BIXTJbQ0gyXVtDSDJdTihbQ0BAXTIzW09IXSlbQ0gyXVtDQEBIXShbTkhdW0NIMl0zKVxbQ0hdPUM0XFtDQEBIXShbTkhdW0NIMl1bQ0gyXTQpW0NASF0oW0NIM10pW0NIMl1bT0hd

>  <s_glide_docking_method>  (1) 
confgen

>  <s_i_glide_gridfile>  (1) 
gpcr_5ht2c_6bqh_protein_autoprepared_prepared

>  <s_lp_Force_Field>  (1) 
S-OPLS

>  <s_lp_Variant>  (1) 
DiffSBDD_1_num_sample_100-5

>  <s_m_source_file>  (1) 
generated__ligand_DiffSBDD_2026-05-06_prepared.sdf

>  <GenAI_Model>  (1) 
DiffSBDD

>  <Protein>  (1) 
GPCR_5HT2C

$$$$
DiffSBDD_82_num_sample_100
     RDKit          3D

  0  0  0  0  0  0  0  0  0  0999 V3000
M  V30 BEGIN CTAB
M  V30 COUNTS 57 59 0 0 1
M  V30 BEGIN ATOM
M  V30 1 C 37.180530 34.009357 60.514839 0 CFG=1
M  V30 2 N 37.484550 29.698763 56.357211 0
M  V30 3 F 37.074583 34.920498 59.560908 0
M  V30 4 C 39.047577 35.560732 61.470025 0
M  V30 5 N 36.921459 32.738413 59.842934 0
M  V30 6 C 38.554214 31.754932 57.271809 0
M  V30 7 C 39.132730 37.221049 63.390797 0
M  V30 8 C 37.532083 38.065933 60.416514 0
M  V30 9 N 38.226139 30.995100 60.949770 0
M  V30 10 O 35.383125 38.953632 62.210280 0
M  V30 11 C 39.456379 29.074099 54.910301 0 CFG=1
M  V30 12 C 39.223824 27.638497 54.457951 0
M  V30 13 C 40.578279 27.617746 57.906645 0
M  V30 14 S 38.270908 39.625877 60.651661 0 CHG=-1
M  V30 15 C 38.212405 36.478736 62.405694 0 CFG=1
M  V30 16 C 40.129345 31.031470 62.507861 0
M  V30 17 C 37.327753 31.500882 59.965160 0
M  V30 18 C 38.200295 29.895802 55.101193 0 CFG=1
M  V30 19 C 38.273906 28.760337 54.089055 0 CFG=1
M  V30 20 C 38.488890 34.151585 61.248743 0
M  V30 21 O 37.331805 37.499839 59.348707 0
M  V30 22 C 38.124421 30.280186 57.518497 0 CFG=2
M  V30 23 C 39.090071 33.092372 61.681761 0
M  V30 24 O 35.956483 37.530857 63.815549 0 CHG=-1
M  V30 25 O 39.338096 29.632498 57.842218 0
M  V30 26 C 39.262520 28.307067 58.288287 0 CFG=2
M  V30 27 S 36.836740 30.169589 58.847517 0
M  V30 28 C 37.096989 37.336611 61.703249 0 CFG=1
M  V30 29 O 39.123792 28.231398 59.690089 0
M  V30 30 C 36.059424 38.008393 62.662796 0
M  V30 31 C 39.088373 31.793474 61.714570 0
M  V30 32 H 36.368510 34.224641 61.209548 0
M  V30 33 H 36.562868 30.123137 56.276204 0
M  V30 34 H 39.213474 36.025437 60.499578 0
M  V30 35 H 40.053391 35.454402 61.882510 0
M  V30 36 H 39.264568 31.826834 56.448466 0
M  V30 37 H 39.066712 32.173678 58.134389 0
M  V30 38 H 37.687559 32.376071 57.039050 0
M  V30 39 H 39.690203 38.018968 62.905232 0
M  V30 40 H 39.859986 36.548934 63.846103 0
M  V30 41 H 38.558568 37.624376 64.221236 0
M  V30 42 H 38.405605 30.001591 60.999150 0
M  V30 43 H 40.269630 29.622117 54.437993 0
M  V30 44 H 39.846191 27.216902 53.671402 0
M  V30 45 H 38.884757 26.928724 55.210198 0
M  V30 46 H 41.420008 28.124231 58.379673 0
M  V30 47 H 40.728811 27.650504 56.829876 0
M  V30 48 H 40.562425 26.575691 58.225895 0
M  V30 49 H 37.668677 35.812576 63.050392 0
M  V30 50 H 40.098409 31.337574 63.555548 0
M  V30 51 H 41.129500 31.235660 62.120755 0
M  V30 52 H 39.956792 29.953724 62.469936 0
M  V30 53 H 38.205950 30.892177 54.663081 0
M  V30 54 H 38.357933 29.071401 53.045842 0
M  V30 55 H 38.415889 27.780275 57.844164 0
M  V30 56 H 36.453525 36.568368 61.288168 0
M  V30 57 H 39.969385 28.428949 60.062904 0
M  V30 END ATOM
M  V30 BEGIN BOND
M  V30 1 1 3 1
M  V30 2 1 5 1
M  V30 3 1 12 11
M  V30 4 1 14 8
M  V30 5 1 15 4
M  V30 6 1 15 7
M  V30 7 2 17 5
M  V30 8 1 17 9
M  V30 9 1 18 2
M  V30 10 1 18 11
M  V30 11 1 19 11
M  V30 12 1 19 12
M  V30 13 1 19 18
M  V30 14 1 20 1
M  V30 15 1 20 4
M  V30 16 2 21 8
M  V30 17 1 22 2
M  V30 18 1 22 6
M  V30 19 2 23 20
M  V30 20 1 22 25 CFG=1
M  V30 21 1 26 13
M  V30 22 1 26 25
M  V30 23 1 27 17
M  V30 24 1 27 22
M  V30 25 1 28 8
M  V30 26 1 28 15
M  V30 27 1 29 26
M  V30 28 2 30 10
M  V30 29 1 30 24
M  V30 30 1 30 28
M  V30 31 1 31 9
M  V30 32 1 31 16
M  V30 33 2 31 23
M  V30 34 1 1 32 CFG=1
M  V30 35 1 33 2
M  V30 36 1 34 4
M  V30 37 1 35 4
M  V30 38 1 36 6
M  V30 39 1 37 6
M  V30 40 1 38 6
M  V30 41 1 39 7
M  V30 42 1 40 7
M  V30 43 1 41 7
M  V30 44 1 42 9
M  V30 45 1 11 43 CFG=3
M  V30 46 1 44 12
M  V30 47 1 45 12
M  V30 48 1 46 13
M  V30 49 1 47 13
M  V30 50 1 48 13
M  V30 51 1 15 49 CFG=1
M  V30 52 1 50 16
M  V30 53 1 51 16
M  V30 54 1 52 16
M  V30 55 1 18 53 CFG=3
M  V30 56 1 19 54 CFG=3
M  V30 57 1 26 55 CFG=3
M  V30 58 1 28 56 CFG=3
M  V30 59 1 57 29
M  V30 END BOND
M  V30 END CTAB
M  END
>  <i_epik_Tot_Q>  (1) 
-2

>  <i_epik_Tot_abs_Q>  (1) 
2

>  <i_i_glide_confnum>  (1) 
945

>  <i_i_glide_lignum>  (1) 
216

>  <i_i_glide_posenum>  (1) 
314

>  <i_i_glide_rotatable_bonds>  (1) 
12

>  <i_lp_mmshare_version>  (1) 
72125

>  <i_m_source_file_index>  (1) 
83

>  <i_f3d_flags>  (1) 
0

>  <num_sample>  (1) 
100

>  <b_lp_Chiralities_Consistent>  (1) 
1

>  <r_epik_Charging_Adjusted_Penalty>  (1) 
0.00013622687110547772

>  <r_epik_Ionization_Penalty>  (1) 
0.0015792256383976989

>  <r_epik_Ionization_Penalty_Charging>  (1) 
0.00013622687110547772

>  <r_epik_Ionization_Penalty_Neutral>  (1) 
0.0014429987672922213

>  <r_epik_State_Penalty>  (1) 
-0

>  <r_glide_ring_energy>  (1) 
0

>  <r_i_docking_score>  (1) 
-5.3348952054954495

>  <r_i_glide_ecoul>  (1) 
-1.7535786747367523

>  <r_i_glide_eff_state_penalty>  (1) 
-0

>  <r_i_glide_einternal>  (1) 
25.361751342362055

>  <r_i_glide_emodel>  (1) 
-37.124491873004388

>  <r_i_glide_emodel_strain>  (1) 
1.198241236007334

>  <r_i_glide_energy>  (1) 
-34.079426163996544

>  <r_i_glide_erotb>  (1) 
0.72716710484865599

>  <r_i_glide_esite>  (1) 
-0.10297897776381393

>  <r_i_glide_evdw>  (1) 
-32.325847489259793

>  <r_i_glide_gscore>  (1) 
-5.3348952054954495

>  <r_i_glide_gscore_strain>  (1) 
0

>  <r_i_glide_hbond>  (1) 
-0.13939907443755034

>  <r_i_glide_ligand_efficiency>  (1) 
-0.17209339372565965

>  <r_i_glide_ligand_efficiency_ln>  (1) 
-1.2031823637422772

>  <r_i_glide_ligand_efficiency_sa>  (1) 
-0.54061085745416171

>  <r_i_glide_lipo>  (1) 
-2.4035466072071254

>  <r_i_glide_metal>  (1) 
-0

>  <r_i_glide_rewards>  (1) 
-1.5368084752621138

>  <r_lp_Energy>  (1) 
27.993948

>  <r_lp_tautomer_probability>  (1) 
1

>  <s_epik_Chemistry_Notes>  (1) 
This compound has an imine and may undergo hydrolysis. This compound contains an acetal/aminal-like group ( X-CH(R)-Y where X, Y are N, S, or O) that may be acid/base labile, releasing an aldehyde.

>  <s_epik_cmdline>  (1) 
J2VwaWtfcHl0aG9uJywgJy1waHQnLCAnMS4wJywgJy1waCcsICc3LjQnLCAnLXRuJywgJzgnLCAnLW1hJywgJzUwMCcsICctaW1hZScsICc8aW5maWxlLm1hZT4nLCAnLW9tYWUnLCAnPG91dGZpbGUubWFlPic=

>  <s_epik_input>  (1) 
W0NAQEhdMTJbQ0BASF0oW0NIMl0xKVtDQEhdMltOSF1bQ0BdKFtDSDNdKShPW0NAQEhdKFtDSDNdKVtPSF0pU0MoPU5bQ0BASF0zRilbTkhdQyhbQ0gzXSk9Qz1DM1tDSDJdW0NAQEhdKFtDSDNdKVtDQEhdKEMoPU8pW1NIXSlDKD1PKVtPSF0=

>  <s_glide_docking_method>  (1) 
confgen

>  <s_i_glide_gridfile>  (1) 
gpcr_5ht2c_6bqh_protein_autoprepared_prepared

>  <s_lp_Force_Field>  (1) 
S-OPLS

>  <s_lp_Variant>  (1) 
DiffSBDD_82_num_sample_100-2

>  <s_m_source_file>  (1) 
generated__ligand_DiffSBDD_2026-05-06_prepared.sdf

>  <GenAI_Model>  (1) 
DiffSBDD

>  <Protein>  (1) 
GPCR_5HT2C

$$$$
DiffSBDD_44_num_sample_100
     RDKit          3D

  0  0  0  0  0  0  0  0  0  0999 V3000
M  V30 BEGIN CTAB
M  V30 COUNTS 58 59 0 0 1
M  V30 BEGIN ATOM
M  V30 1 C 35.143743 33.633188 61.093612 0
M  V30 2 O 38.636232 32.102391 60.720049 0 CHG=-1
M  V30 3 C 38.937282 29.313319 54.412805 0
M  V30 4 C 36.626360 33.875231 59.228931 0 CFG=1
M  V30 5 N 36.679514 32.457724 59.666010 0 CFG=2 CHG=1
M  V30 6 C 38.848473 27.563384 56.138215 0
M  V30 7 N 39.575430 29.621414 57.912455 0
M  V30 8 C 38.867318 29.025507 55.685662 0
M  V30 9 O 39.345764 31.360921 56.332387 0
M  V30 10 C 35.278232 34.361227 59.750248 0 CFG=1
M  V30 11 C 34.109357 34.038634 58.812967 0
M  V30 12 C 37.873307 30.225693 59.618318 0 CFG=1
M  V30 13 C 39.181840 29.589154 59.127824 0
M  V30 14 C 35.832915 32.288535 60.874900 0
M  V30 15 C 38.402987 32.252964 55.742036 0
M  V30 16 C 39.278912 27.575545 52.696601 0
M  V30 17 C 38.000201 31.775154 59.616579 0 CFG=2
M  V30 18 C 38.814377 30.107517 56.766631 0 CFG=2
M  V30 19 F 37.929932 26.021448 53.858448 0
M  V30 20 C 39.188950 26.456431 53.789048 0 CFG=2
M  V30 21 C 39.067382 29.010119 53.151731 0
M  V30 22 C 36.590250 29.621349 58.994588 0
M  V30 23 C 40.004088 28.914476 60.208687 0
M  V30 24 C 37.761335 34.763861 59.787057 0
M  V30 25 C 39.707682 26.667235 55.227423 0
M  V30 26 H 34.115357 33.510824 61.418787 0
M  V30 27 H 35.664961 34.191089 61.872769 0
M  V30 28 H 36.662654 33.916629 58.139961 0
M  V30 29 H 39.215988 27.398681 57.147464 0
M  V30 30 H 37.814150 27.220314 56.155559 0
M  V30 31 H 35.326639 35.442699 59.853433 0
M  V30 32 H 33.992354 32.967191 58.653507 0
M  V30 33 H 33.167507 34.419425 59.204960 0
M  V30 34 H 34.267473 34.522655 57.853418 0
M  V30 35 H 37.780201 29.923219 60.658964 0
M  V30 36 H 35.096005 31.510409 60.677281 0
M  V30 37 H 36.385077 31.995853 61.767641 0
M  V30 38 H 38.908651 33.172916 55.449985 0
M  V30 39 H 37.931294 31.836476 54.852828 0
M  V30 40 H 37.614435 32.522051 56.443534 0
M  V30 41 H 38.579898 27.354339 51.888528 0
M  V30 42 H 40.267382 27.549262 52.245715 0
M  V30 43 H 38.389769 32.065004 58.643185 0
M  V30 44 H 37.764786 30.247349 56.973501 0
M  V30 45 H 39.818633 25.637044 53.453488 0
M  V30 46 H 39.111500 29.775698 52.391616 0
M  V30 47 H 36.788558 28.673482 58.495914 0
M  V30 48 H 35.845143 29.434112 59.763996 0
M  V30 49 H 36.115858 30.271140 58.263071 0
M  V30 50 H 39.462052 28.062690 60.620191 0
M  V30 51 H 40.954124 28.556217 59.809803 0
M  V30 52 H 40.214544 29.617136 61.015510 0
M  V30 53 H 37.644209 35.796194 59.456859 0
M  V30 54 H 37.778475 34.765721 60.877062 0
M  V30 55 H 38.740237 34.421354 59.453435 0
M  V30 56 H 40.727746 27.042419 55.207053 0
M  V30 57 H 39.772015 25.686995 55.702881 0
M  V30 58 H 36.153020 32.009471 58.923455 0
M  V30 END ATOM
M  V30 BEGIN BOND
M  V30 1 1 5 4
M  V30 2 2 8 3
M  V30 3 1 8 6
M  V30 4 1 10 1
M  V30 5 1 10 4
M  V30 6 1 11 10
M  V30 7 2 13 7
M  V30 8 1 13 12
M  V30 9 1 14 1
M  V30 10 1 14 5
M  V30 11 1 15 9
M  V30 12 1 17 2
M  V30 13 1 17 5
M  V30 14 1 17 12
M  V30 15 1 18 7
M  V30 16 1 18 8
M  V30 17 1 18 9
M  V30 18 1 20 16
M  V30 19 1 20 19
M  V30 20 2 21 3
M  V30 21 1 21 16
M  V30 22 1 22 12
M  V30 23 1 23 13
M  V30 24 1 24 4
M  V30 25 1 25 6
M  V30 26 1 25 20
M  V30 27 1 26 1
M  V30 28 1 27 1
M  V30 29 1 4 28 CFG=3
M  V30 30 1 29 6
M  V30 31 1 30 6
M  V30 32 1 10 31 CFG=1
M  V30 33 1 32 11
M  V30 34 1 33 11
M  V30 35 1 34 11
M  V30 36 1 12 35 CFG=1
M  V30 37 1 36 14
M  V30 38 1 37 14
M  V30 39 1 38 15
M  V30 40 1 39 15
M  V30 41 1 40 15
M  V30 42 1 41 16
M  V30 43 1 42 16
M  V30 44 1 17 43 CFG=3
M  V30 45 1 18 44 CFG=1
M  V30 46 1 20 45 CFG=3
M  V30 47 1 46 21
M  V30 48 1 47 22
M  V30 49 1 48 22
M  V30 50 1 49 22
M  V30 51 1 50 23
M  V30 52 1 51 23
M  V30 53 1 52 23
M  V30 54 1 53 24
M  V30 55 1 54 24
M  V30 56 1 55 24
M  V30 57 1 56 25
M  V30 58 1 57 25
M  V30 59 1 5 58 CFG=3
M  V30 END BOND
M  V30 END CTAB
M  END
>  <i_epik_Tot_Q>  (1) 
0

>  <i_epik_Tot_abs_Q>  (1) 
2

>  <i_i_glide_confnum>  (1) 
14

>  <i_i_glide_lignum>  (1) 
119

>  <i_i_glide_posenum>  (1) 
301

>  <i_i_glide_rotatable_bonds>  (1) 
6

>  <i_lp_mmshare_version>  (1) 
72125

>  <i_m_source_file_index>  (1) 
45

>  <i_f3d_flags>  (1) 
0

>  <num_sample>  (1) 
100

>  <b_lp_Chiralities_Consistent>  (1) 
1

>  <r_epik_Charging_Adjusted_Penalty>  (1) 
0.41733257654759531

>  <r_epik_Ionization_Penalty>  (1) 
0.0069177268181324029

>  <r_epik_Ionization_Penalty_Charging>  (1) 
0.0066527375949913311

>  <r_epik_Ionization_Penalty_Neutral>  (1) 
0.00026498922314107146

>  <r_epik_State_Penalty>  (1) 
0.41067983895260396

>  <r_glide_ring_energy>  (1) 
0

>  <r_i_docking_score>  (1) 
-5.3258311765258846

>  <r_i_glide_ecoul>  (1) 
-2.3365254471486443

>  <r_i_glide_eff_state_penalty>  (1) 
0.41067983895260396

>  <r_i_glide_einternal>  (1) 
6.5550958656527136

>  <r_i_glide_emodel>  (1) 
-40.515544742225288

>  <r_i_glide_emodel_strain>  (1) 
4.3806400053267396

>  <r_i_glide_energy>  (1) 
-31.612361078465891

>  <r_i_glide_erotb>  (1) 
0.61440649929112812

>  <r_i_glide_esite>  (1) 
-0.13050573477424993

>  <r_i_glide_evdw>  (1) 
-29.275835631317246

>  <r_i_glide_gscore>  (1) 
-5.7365110154784889

>  <r_i_glide_gscore_strain>  (1) 
0.095160001331684896

>  <r_i_glide_hbond>  (1) 
-0.13588429239302308

>  <r_i_glide_ligand_efficiency>  (1) 
-0.21303324706103538

>  <r_i_glide_ligand_efficiency_ln>  (1) 
-1.2623815911178815

>  <r_i_glide_ligand_efficiency_sa>  (1) 
-0.62291299323555138

>  <r_i_glide_lipo>  (1) 
-2.2035455255476251

>  <r_i_glide_metal>  (1) 
-0

>  <r_i_glide_rewards>  (1) 
-2.1618713647482455

>  <r_lp_Energy>  (1) 
16.849003

>  <r_lp_tautomer_probability>  (1) 
0.49999399997599986

>  <s_epik_Chemistry_Notes>  (1) 
This compound has an imine and may undergo hydrolysis. This compound contains an acetal/aminal-like group ( X-CH(R)-Y where X, Y are N, S, or O) that may be acid/base labile, releasing an aldehyde.

>  <s_epik_cmdline>  (1) 
J2VwaWtfcHl0aG9uJywgJy1waHQnLCAnMS4wJywgJy1waCcsICc3LjQnLCAnLXRuJywgJzgnLCAnLW1hJywgJzUwMCcsICctaW1hZScsICc8aW5maWxlLm1hZT4nLCAnLW9tYWUnLCAnPG91dGZpbGUubWFlPic=

>  <s_epik_input>  (1) 
W0NIM11bQ0BIXTFbQ0gyXVtDSDJdTihbQ0BASF0xW0NIM10pW0NAQEhdKFtPSF0pW0NAQEhdKFtDSDNdKS9DKFtDSDNdKT1OXFtDQEBIXShPW0NIM10pQzI9Qz1bQ0hdW0NIMl1bQ0BASF0oRilbQ0gyXVtDSDJdMg==

>  <s_glide_docking_method>  (1) 
confgen

>  <s_i_glide_gridfile>  (1) 
gpcr_5ht2c_6bqh_protein_autoprepared_prepared

>  <s_lp_Force_Field>  (1) 
S-OPLS

>  <s_lp_Variant>  (1) 
DiffSBDD_44_num_sample_100-12

>  <s_m_source_file>  (1) 
generated__ligand_DiffSBDD_2026-05-06_prepared.sdf

>  <GenAI_Model>  (1) 
DiffSBDD

>  <Protein>  (1) 
GPCR_5HT2C

$$$$
DiffSBDD_47_num_sample_100
     RDKit          3D

  0  0  0  0  0  0  0  0  0  0999 V3000
M  V30 BEGIN CTAB
M  V30 COUNTS 32 32 0 0 1
M  V30 BEGIN ATOM
M  V30 1 S 38.651560 32.299952 56.519020 0
M  V30 2 C 39.867435 30.890233 52.259721 0
M  V30 3 N 39.467405 29.864152 57.179178 0
M  V30 4 C 38.505616 27.683967 56.556404 0
M  V30 5 C 39.730050 30.473748 54.813470 0
M  V30 6 O 40.267191 29.263906 50.112552 0 CHG=-1
M  V30 7 C 38.833848 30.550426 56.072886 0 CFG=2
M  V30 8 C 39.001315 26.253431 56.883960 0 CFG=2
M  V30 9 C 39.022527 30.977259 53.547992 0
M  V30 10 C 37.948291 25.171325 56.614129 0
M  V30 11 O 37.481994 24.473378 57.517355 0
M  V30 12 O 38.485000 28.562967 51.853502 0
M  V30 13 S 39.867286 29.161542 51.585155 0
M  V30 14 C 39.371320 28.611823 57.383312 0
M  V30 15 C 39.535896 26.218546 58.335018 0
M  V30 16 O 37.612953 25.079492 55.320097 0
M  V30 17 O 36.667410 24.004487 55.053477 0
M  V30 18 S 40.267778 27.828649 58.692057 0
M  V30 19 H 37.314975 32.262732 56.650528 0
M  V30 20 H 39.467403 31.548028 51.488701 0
M  V30 21 H 40.886852 31.221442 52.436744 0
M  V30 22 H 38.588983 27.884535 55.488123 0
M  V30 23 H 37.467444 27.821879 56.853945 0
M  V30 24 H 40.653181 31.033013 54.972356 0
M  V30 25 H 40.034119 29.442564 54.645929 0
M  V30 26 H 37.835821 30.157105 55.868522 0
M  V30 27 H 39.848104 26.048426 56.227064 0
M  V30 28 H 38.081603 30.436647 53.453496 0
M  V30 29 H 38.743021 32.021209 53.686811 0
M  V30 30 H 38.730964 26.061597 59.053508 0
M  V30 31 H 40.267463 25.422748 58.468237 0
M  V30 32 H 35.846418 24.448250 55.199435 0
M  V30 END ATOM
M  V30 BEGIN BOND
M  V30 1 1 7 1
M  V30 2 1 7 3
M  V30 3 1 7 5
M  V30 4 1 8 4
M  V30 5 1 9 2
M  V30 6 1 9 5
M  V30 7 1 10 8
M  V30 8 2 11 10
M  V30 9 1 13 2
M  V30 10 1 13 6
M  V30 11 2 13 12
M  V30 12 2 14 3
M  V30 13 1 14 4
M  V30 14 1 15 8
M  V30 15 1 16 10
M  V30 16 1 17 16
M  V30 17 1 18 14
M  V30 18 1 18 15
M  V30 19 1 19 1
M  V30 20 1 20 2
M  V30 21 1 21 2
M  V30 22 1 22 4
M  V30 23 1 23 4
M  V30 24 1 24 5
M  V30 25 1 25 5
M  V30 26 1 7 26 CFG=3
M  V30 27 1 8 27 CFG=3
M  V30 28 1 28 9
M  V30 29 1 29 9
M  V30 30 1 30 15
M  V30 31 1 31 15
M  V30 32 1 32 17
M  V30 END BOND
M  V30 END CTAB
M  END
>  <i_epik_Tot_Q>  (1) 
-1

>  <i_epik_Tot_abs_Q>  (1) 
1

>  <i_i_glide_confnum>  (1) 
7

>  <i_i_glide_lignum>  (1) 
130

>  <i_i_glide_posenum>  (1) 
254

>  <i_i_glide_rotatable_bonds>  (1) 
9

>  <i_lp_mmshare_version>  (1) 
72125

>  <i_m_source_file_index>  (1) 
48

>  <i_f3d_flags>  (1) 
0

>  <num_sample>  (1) 
100

>  <b_lp_Chiralities_Consistent>  (1) 
1

>  <r_epik_Charging_Adjusted_Penalty>  (1) 
0.41068401557064588

>  <r_epik_Ionization_Penalty>  (1) 
0.088233061061265911

>  <r_epik_Ionization_Penalty_Charging>  (1) 
4.1766180419441644e-06

>  <r_epik_Ionization_Penalty_Neutral>  (1) 
0.088228884443223965

>  <r_epik_State_Penalty>  (1) 
0.41067983895260396

>  <r_glide_ring_energy>  (1) 
0

>  <r_i_docking_score>  (1) 
-5.3107292915414757

>  <r_i_glide_ecoul>  (1) 
-1.4221925999740295

>  <r_i_glide_eff_state_penalty>  (1) 
0.41067983895260396

>  <r_i_glide_einternal>  (1) 
1.7980447798421382

>  <r_i_glide_emodel>  (1) 
-53.875138644416005

>  <r_i_glide_emodel_strain>  (1) 
1.1885660654375751

>  <r_i_glide_energy>  (1) 
-40.719678448663295

>  <r_i_glide_erotb>  (1) 
1.1409563005043168

>  <r_i_glide_esite>  (1) 
-0.046345928347879373

>  <r_i_glide_evdw>  (1) 
-39.297485848689263

>  <r_i_glide_gscore>  (1) 
-5.72140913049408

>  <r_i_glide_gscore_strain>  (1) 
0

>  <r_i_glide_hbond>  (1) 
-0.16

>  <r_i_glide_ligand_efficiency>  (1) 
-0.29504051619674865

>  <r_i_glide_ligand_efficiency_ln>  (1) 
-1.3650955800721245

>  <r_i_glide_ligand_efficiency_sa>  (1) 
-0.77322489376557968

>  <r_i_glide_lipo>  (1) 
-1.7037750513738237

>  <r_i_glide_metal>  (1) 
-0

>  <r_i_glide_rewards>  (1) 
-2.7740412688461258

>  <r_lp_Energy>  (1) 
-2.1524229999999998

>  <r_lp_tautomer_probability>  (1) 
0.49990026989615577

>  <s_epik_Chemistry_Notes>  (1) 
This compound has an imine and may undergo hydrolysis. This compound contains an acetal/aminal-like group ( X-CH(R)-Y where X, Y are N, S, or O) that may be acid/base labile, releasing an aldehyde.

>  <s_epik_cmdline>  (1) 
J2VwaWtfcHl0aG9uJywgJy1waHQnLCAnMS4wJywgJy1waCcsICc3LjQnLCAnLXRuJywgJzgnLCAnLW1hJywgJzUwMCcsICctaW1hZScsICc8aW5maWxlLm1hZT4nLCAnLW9tYWUnLCAnPG91dGZpbGUubWFlPic=

>  <s_epik_input>  (1) 
W09IXVtTQEBdKD1PKVtDSDJdW0NIMl1bQ0gyXVtDQEhdKFtTSF0pL049QyhTW0NIMl0xKVxbQ0gyXVtDQEBIXTFDKD1PKU9bT0hd

>  <s_glide_docking_method>  (1) 
confgen

>  <s_i_glide_gridfile>  (1) 
gpcr_5ht2c_6bqh_protein_autoprepared_prepared

>  <s_lp_Force_Field>  (1) 
S-OPLS

>  <s_lp_Variant>  (1) 
DiffSBDD_47_num_sample_100-2

>  <s_m_source_file>  (1) 
generated__ligand_DiffSBDD_2026-05-06_prepared.sdf

>  <GenAI_Model>  (1) 
DiffSBDD

>  <Protein>  (1) 
GPCR_5HT2C

$$$$
DiffSBDD_93_num_sample_100
     RDKit          3D

  0  0  0  0  0  0  0  0  0  0999 V3000
M  V30 BEGIN CTAB
M  V30 COUNTS 74 77 0 0 1
M  V30 BEGIN ATOM
M  V30 1 C 41.793539 31.884935 63.982331 0
M  V30 2 S 37.067369 34.269605 59.109839 0
M  V30 3 C 43.403913 30.587858 65.458591 0 CFG=2
M  V30 4 O 37.451596 37.621425 63.203436 0
M  V30 5 C 38.531710 28.841295 56.529863 0
M  V30 6 C 38.758389 35.493120 61.893607 0 CFG=1
M  V30 7 C 39.342517 29.976738 59.355328 0
M  V30 8 C 38.501292 32.108694 58.421727 0
M  V30 9 C 42.223285 30.405146 66.420505 0
M  V30 10 N 38.269561 32.669414 60.899205 0
M  V30 11 C 39.643740 27.904813 56.982568 0
M  V30 12 C 42.902641 31.117900 64.127101 0
M  V30 13 C 41.375811 32.326746 62.627277 0
M  V30 14 C 39.604318 33.245233 61.057475 0 CFG=2
M  V30 15 C 41.489477 31.733991 66.567622 0
M  V30 16 Cl 41.067446 34.083711 65.382927 0
M  V30 17 O 38.721355 27.217756 59.053634 0
M  V30 18 C 40.988608 32.304155 65.221997 0 CFG=1
M  V30 19 C 42.329248 32.265679 61.460131 0
M  V30 20 C 36.476087 35.035659 60.633527 0
M  V30 21 C 39.526072 36.581012 62.649986 0
M  V30 22 C 40.130928 32.798404 62.423135 0
M  V30 23 C 40.435203 28.951972 59.100270 0
M  V30 24 C 37.439043 36.053581 61.305286 0 CFG=1
M  V30 25 C 37.597719 32.598949 59.596372 0 CFG=1
M  V30 26 C 39.902268 27.690242 58.453413 0 CFG=2
M  V30 27 C 36.667412 36.722982 62.459832 0
M  V30 28 C 38.650020 37.125915 63.771658 0
M  V30 29 C 38.187425 30.034657 57.082046 0
M  V30 30 S 36.230759 31.431770 59.853453 0
M  V30 31 N 38.723154 30.670390 58.218968 0
M  V30 32 C 44.180056 29.275286 65.276214 0
M  V30 33 C 39.678378 34.770732 60.905239 0
M  V30 34 H 44.092235 31.330909 65.863658 0
M  V30 35 H 38.006012 28.526355 55.641312 0
M  V30 36 H 38.481503 34.780629 62.653517 0
M  V30 37 H 39.785590 30.721605 60.009958 0
M  V30 38 H 38.546837 29.540205 59.959598 0
M  V30 39 H 39.453405 32.635292 58.404037 0
M  V30 40 H 38.024209 32.460979 57.505440 0
M  V30 41 H 41.536855 29.642683 66.045464 0
M  V30 42 H 42.571278 30.063054 67.395239 0
M  V30 43 H 37.639252 33.100788 61.556323 0
M  V30 44 H 40.563487 28.216861 56.487231 0
M  V30 45 H 39.409435 26.931282 56.549344 0
M  V30 46 H 43.467379 30.819855 63.265410 0
M  V30 47 H 40.234969 32.824553 60.285435 0
M  V30 48 H 40.657027 31.636510 67.264498 0
M  V30 49 H 42.180091 32.438158 67.032323 0
M  V30 50 H 38.042559 27.854536 58.879680 0
M  V30 51 H 39.945058 32.013287 65.105850 0
M  V30 52 H 43.355177 32.024098 61.690897 0
M  V30 53 H 41.920751 31.621538 60.683930 0
M  V30 54 H 42.406342 33.268035 61.053523 0
M  V30 55 H 35.614951 35.579121 60.253502 0
M  V30 56 H 36.098019 34.289839 61.332321 0
M  V30 57 H 39.821624 37.384451 61.974196 0
M  V30 58 H 40.441654 36.178844 63.083369 0
M  V30 59 H 39.439248 32.865357 63.245228 0
M  V30 60 H 40.872873 28.683457 60.062737 0
M  V30 61 H 41.248978 29.376337 58.515408 0
M  V30 62 H 37.692917 36.818118 60.570782 0
M  V30 63 H 40.658865 26.911896 58.555704 0
M  V30 64 H 35.867409 37.341679 62.064261 0
M  V30 65 H 36.221002 35.995533 63.134749 0
M  V30 66 H 39.177588 37.926401 64.291592 0
M  V30 67 H 38.423570 36.379680 64.527123 0
M  V30 68 H 37.413714 30.626980 56.612265 0
M  V30 69 H 35.394335 32.311252 60.409056 0
M  V30 70 H 45.040058 29.418140 64.621915 0
M  V30 71 H 44.553364 28.902418 66.230146 0
M  V30 72 H 43.553737 28.497927 64.839963 0
M  V30 73 H 39.499122 35.086720 59.882183 0
M  V30 74 H 40.714694 35.065282 61.079211 0
M  V30 END ATOM
M  V30 BEGIN BOND
M  V30 1 1 9 3
M  V30 2 1 11 5
M  V30 3 2 12 1
M  V30 4 1 12 3
M  V30 5 1 13 1
M  V30 6 1 14 10
M  V30 7 1 15 9
M  V30 8 1 18 1
M  V30 9 1 18 15
M  V30 10 1 18 16
M  V30 11 1 19 13
M  V30 12 1 20 2
M  V30 13 1 21 6
M  V30 14 2 22 13
M  V30 15 1 22 14
M  V30 16 1 23 7
M  V30 17 1 24 6
M  V30 18 1 24 20
M  V30 19 1 25 2
M  V30 20 1 25 8
M  V30 21 1 25 10
M  V30 22 1 26 11
M  V30 23 1 26 17
M  V30 24 1 26 23
M  V30 25 1 27 4
M  V30 26 1 27 24
M  V30 27 1 28 4
M  V30 28 1 28 21
M  V30 29 2 29 5
M  V30 30 1 25 30 CFG=1
M  V30 31 1 31 7
M  V30 32 1 31 8
M  V30 33 1 31 29
M  V30 34 1 32 3
M  V30 35 1 33 6
M  V30 36 1 33 14
M  V30 37 1 3 34 CFG=1
M  V30 38 1 35 5
M  V30 39 1 6 36 CFG=1
M  V30 40 1 37 7
M  V30 41 1 38 7
M  V30 42 1 39 8
M  V30 43 1 40 8
M  V30 44 1 41 9
M  V30 45 1 42 9
M  V30 46 1 43 10
M  V30 47 1 44 11
M  V30 48 1 45 11
M  V30 49 1 46 12
M  V30 50 1 14 47 CFG=3
M  V30 51 1 48 15
M  V30 52 1 49 15
M  V30 53 1 50 17
M  V30 54 1 18 51 CFG=3
M  V30 55 1 52 19
M  V30 56 1 53 19
M  V30 57 1 54 19
M  V30 58 1 55 20
M  V30 59 1 56 20
M  V30 60 1 57 21
M  V30 61 1 58 21
M  V30 62 1 59 22
M  V30 63 1 60 23
M  V30 64 1 61 23
M  V30 65 1 24 62 CFG=3
M  V30 66 1 26 63 CFG=3
M  V30 67 1 64 27
M  V30 68 1 65 27
M  V30 69 1 66 28
M  V30 70 1 67 28
M  V30 71 1 68 29
M  V30 72 1 69 30
M  V30 73 1 70 32
M  V30 74 1 71 32
M  V30 75 1 72 32
M  V30 76 1 73 33
M  V30 77 1 74 33
M  V30 END BOND
M  V30 END CTAB
M  END
>  <i_epik_Tot_Q>  (1) 
0

>  <i_epik_Tot_abs_Q>  (1) 
0

>  <i_i_glide_confnum>  (1) 
42

>  <i_i_glide_lignum>  (1) 
255

>  <i_i_glide_posenum>  (1) 
397

>  <i_i_glide_rotatable_bonds>  (1) 
6

>  <i_lp_mmshare_version>  (1) 
72125

>  <i_m_source_file_index>  (1) 
94

>  <i_f3d_flags>  (1) 
0

>  <num_sample>  (1) 
100

>  <b_lp_Chiralities_Consistent>  (1) 
1

>  <r_epik_Charging_Adjusted_Penalty>  (1) 
0.20325292957253988

>  <r_epik_Ionization_Penalty>  (1) 
0.031936562948065232

>  <r_epik_Ionization_Penalty_Charging>  (1) 
3.6030848355623751e-07

>  <r_epik_Ionization_Penalty_Neutral>  (1) 
0.031936202639581676

>  <r_epik_State_Penalty>  (1) 
0.20325256926405633

>  <r_glide_ring_energy>  (1) 
0

>  <r_i_docking_score>  (1) 
-5.3096265121669086

>  <r_i_glide_ecoul>  (1) 
-0.39863506692675699

>  <r_i_glide_eff_state_penalty>  (1) 
0.20325256926405633

>  <r_i_glide_einternal>  (1) 
12.153476081527531

>  <r_i_glide_emodel>  (1) 
-32.26822662992538

>  <r_i_glide_emodel_strain>  (1) 
1.4826416236795978

>  <r_i_glide_energy>  (1) 
-27.740958139019302

>  <r_i_glide_erotb>  (1) 
0.31140238833871409

>  <r_i_glide_esite>  (1) 
-0.11411625512307073

>  <r_i_glide_evdw>  (1) 
-27.342323072092544

>  <r_i_glide_gscore>  (1) 
-5.5128790814309649

>  <r_i_glide_gscore_strain>  (1) 
0

>  <r_i_glide_hbond>  (1) 
0

>  <r_i_glide_ligand_efficiency>  (1) 
-0.16089777309596692

>  <r_i_glide_ligand_efficiency_ln>  (1) 
-1.1808334445311686

>  <r_i_glide_ligand_efficiency_sa>  (1) 
-0.51608513082519281

>  <r_i_glide_lipo>  (1) 
-3.9330885574711179

>  <r_i_glide_metal>  (1) 
-0

>  <r_i_glide_rewards>  (1) 
-0.35016524353184986

>  <r_lp_Energy>  (1) 
30.005939999999999

>  <s_epik_Chemistry_Notes>  (1) 
This compound has an imine and may undergo hydrolysis.

>  <s_epik_cmdline>  (1) 
J2VwaWtfcHl0aG9uJywgJy1waHQnLCAnMS4wJywgJy1waCcsICc3LjQnLCAnLXRuJywgJzgnLCAnLW1hJywgJzUwMCcsICctaW1hZScsICc8aW5maWxlLm1hZT4nLCAnLW9tYWUnLCAnPG91dGZpbGUubWFlPic=

>  <s_epik_input>  (1) 
Q2xbQ0BIXTFbQ0gyXVtDSDJdW0NAQEhdKFtDSDNdKVtDSF09QzEvQyhbQ0gzXSk9W0NIXS9bQ0BASF0oW0NIMl0yKVtOSF1bQ0BAXShbU0hdKShTW0NIMl1bQ0BIXShbQ0BASF0yMylbQ0gyXU9bQ0gyXVtDSDJdMylbQ0gyXU4oW0NIMl1bQ0gyXTQpW0NIXT1bQ0hdW0NIMl1bQ0BASF00W09IXQ==

>  <s_glide_docking_method>  (1) 
confgen

>  <s_i_glide_gridfile>  (1) 
gpcr_5ht2c_6bqh_protein_autoprepared_prepared

>  <s_lp_Force_Field>  (1) 
S-OPLS

>  <s_lp_Variant>  (1) 
DiffSBDD_93_num_sample_100-7

>  <s_m_source_file>  (1) 
generated__ligand_DiffSBDD_2026-05-06_prepared.sdf

>  <GenAI_Model>  (1) 
DiffSBDD

>  <Protein>  (1) 
GPCR_5HT2C

$$$$
DiffSBDD_59_num_sample_100
     RDKit          3D

  0  0  0  0  0  0  0  0  0  0999 V3000
M  V30 BEGIN CTAB
M  V30 COUNTS 54 55 0 0 1
M  V30 BEGIN ATOM
M  V30 1 O 40.745285 36.421626 62.166523 0
M  V30 2 N 38.342908 29.305387 56.391420 0 CFG=1 CHG=1
M  V30 3 C 39.467404 30.602095 53.167247 0
M  V30 4 C 37.552836 29.559174 57.639554 0
M  V30 5 C 38.820646 35.395879 61.177831 0
M  V30 6 C 39.037789 27.999533 52.171184 0
M  V30 7 C 38.440381 28.389764 53.386837 0
M  V30 8 C 38.645971 29.702949 53.892252 0
M  V30 9 C 37.132996 33.304915 59.654458 0
M  V30 10 C 37.418920 30.759636 59.955581 0
M  V30 11 Cl 37.467408 27.261028 54.253481 0
M  V30 12 C 38.285194 30.383285 58.729367 0
M  V30 13 O 37.926156 33.580933 58.754262 0
M  V30 14 N 36.774464 34.107622 60.630806 0
M  V30 15 N 35.912565 33.606107 61.512344 0
M  V30 16 C 39.358949 36.595456 61.967161 0
M  V30 17 C 36.464919 31.965052 59.772052 0 CFG=1
M  V30 18 C 37.969232 30.152698 55.214641 0 CFG=2
M  V30 19 C 39.799891 29.120834 56.597242 0
M  V30 20 C 37.306179 35.460745 60.868244 0 CFG=2
M  V30 21 C 40.056386 30.201536 51.951154 0
M  V30 22 C 35.747306 32.400004 61.053501 0
M  V30 23 C 36.942655 36.440439 59.734849 0
M  V30 24 C 38.103915 31.664858 55.517521 0
M  V30 25 C 39.840177 28.904391 51.453791 0
M  V30 26 H 41.191431 36.509759 61.337034 0
M  V30 27 H 39.638752 31.601626 53.533866 0
M  V30 28 H 37.297888 28.587256 58.063623 0
M  V30 29 H 36.598780 30.021386 57.389869 0
M  V30 30 H 39.385919 35.278852 60.253497 0
M  V30 31 H 39.023758 34.500224 61.767362 0
M  V30 32 H 38.877449 27.001937 51.787787 0
M  V30 33 H 38.090593 30.971111 60.789780 0
M  V30 34 H 36.838628 29.887650 60.253491 0
M  V30 35 H 38.733954 31.274333 58.295894 0
M  V30 36 H 39.122330 29.794140 59.104204 0
M  V30 37 H 38.869123 36.660092 62.939303 0
M  V30 38 H 39.179166 37.538750 61.453466 0
M  V30 39 H 35.686324 31.781356 59.053496 0
M  V30 40 H 36.902314 29.985147 55.052689 0
M  V30 41 H 40.267370 30.065312 56.863451 0
M  V30 42 H 39.988778 28.402162 57.395127 0
M  V30 43 H 40.293935 28.737501 55.704891 0
M  V30 44 H 36.815565 35.836373 61.768583 0
M  V30 45 H 40.675200 30.894534 51.398698 0
M  V30 46 H 35.098207 31.690629 61.566767 0
M  V30 47 H 37.216161 37.462445 59.995502 0
M  V30 48 H 37.448436 36.195692 58.802224 0
M  V30 49 H 35.870121 36.429281 59.537902 0
M  V30 50 H 37.740872 32.266353 54.683022 0
M  V30 51 H 37.502625 31.967610 56.373782 0
M  V30 52 H 39.133874 31.955698 55.725209 0
M  V30 53 H 40.292515 28.601733 50.521206 0
M  V30 54 H 38.025864 28.391548 56.096662 0
M  V30 END ATOM
M  V30 BEGIN BOND
M  V30 1 1 4 2
M  V30 2 2 7 6
M  V30 3 2 8 3
M  V30 4 1 8 7
M  V30 5 1 11 7
M  V30 6 1 12 4
M  V30 7 1 12 10
M  V30 8 2 13 9
M  V30 9 1 14 9
M  V30 10 1 15 14
M  V30 11 1 16 1
M  V30 12 1 16 5
M  V30 13 1 17 9
M  V30 14 1 17 10
M  V30 15 1 18 2
M  V30 16 1 18 8
M  V30 17 1 19 2
M  V30 18 1 20 5
M  V30 19 1 20 14
M  V30 20 1 21 3
M  V30 21 2 22 15
M  V30 22 1 22 17
M  V30 23 1 23 20
M  V30 24 1 24 18
M  V30 25 1 25 6
M  V30 26 2 25 21
M  V30 27 1 26 1
M  V30 28 1 27 3
M  V30 29 1 28 4
M  V30 30 1 29 4
M  V30 31 1 30 5
M  V30 32 1 31 5
M  V30 33 1 32 6
M  V30 34 1 33 10
M  V30 35 1 34 10
M  V30 36 1 35 12
M  V30 37 1 36 12
M  V30 38 1 37 16
M  V30 39 1 38 16
M  V30 40 1 17 39 CFG=3
M  V30 41 1 18 40 CFG=3
M  V30 42 1 41 19
M  V30 43 1 42 19
M  V30 44 1 43 19
M  V30 45 1 20 44 CFG=1
M  V30 46 1 45 21
M  V30 47 1 46 22
M  V30 48 1 47 23
M  V30 49 1 48 23
M  V30 50 1 49 23
M  V30 51 1 50 24
M  V30 52 1 51 24
M  V30 53 1 52 24
M  V30 54 1 53 25
M  V30 55 1 2 54 CFG=3
M  V30 END BOND
M  V30 END CTAB
M  END
>  <i_epik_Tot_Q>  (1) 
1

>  <i_epik_Tot_abs_Q>  (1) 
1

>  <i_i_glide_confnum>  (1) 
140

>  <i_i_glide_lignum>  (1) 
150

>  <i_i_glide_posenum>  (1) 
251

>  <i_i_glide_rotatable_bonds>  (1) 
10

>  <i_lp_mmshare_version>  (1) 
72125

>  <i_m_source_file_index>  (1) 
60

>  <i_f3d_flags>  (1) 
0

>  <num_sample>  (1) 
100

>  <b_lp_Chiralities_Consistent>  (1) 
1

>  <r_epik_Charging_Adjusted_Penalty>  (1) 
0.90698054963472508

>  <r_epik_Ionization_Penalty>  (1) 
0.11890783771570668

>  <r_epik_Ionization_Penalty_Charging>  (1) 
0.11890771087092902

>  <r_epik_Ionization_Penalty_Neutral>  (1) 
1.2684477765112781e-07

>  <r_epik_State_Penalty>  (1) 
0.78807283876379608

>  <r_glide_ring_energy>  (1) 
0

>  <r_i_docking_score>  (1) 
-5.3092593781689414

>  <r_i_glide_ecoul>  (1) 
-0.57988572197589328

>  <r_i_glide_eff_state_penalty>  (1) 
0.78807283876379608

>  <r_i_glide_einternal>  (1) 
8.8456148177899099

>  <r_i_glide_emodel>  (1) 
-57.993437325013524

>  <r_i_glide_emodel_strain>  (1) 
0.23712923550358056

>  <r_i_glide_energy>  (1) 
-43.516320690577935

>  <r_i_glide_erotb>  (1) 
1.1440711446639862

>  <r_i_glide_esite>  (1) 
-0.06576166552076361

>  <r_i_glide_evdw>  (1) 
-42.936434968602043

>  <r_i_glide_gscore>  (1) 
-6.0973322169327373

>  <r_i_glide_gscore_strain>  (1) 
0

>  <r_i_glide_hbond>  (1) 
0

>  <r_i_glide_ligand_efficiency>  (1) 
-0.21237037512675766

>  <r_i_glide_ligand_efficiency_ln>  (1) 
-1.2584535782905637

>  <r_i_glide_ligand_efficiency_sa>  (1) 
-0.62097474394155983

>  <r_i_glide_lipo>  (1) 
-3.0822093617705297

>  <r_i_glide_metal>  (1) 
-0

>  <r_i_glide_rewards>  (1) 
-1.8596277275789437

>  <r_lp_Energy>  (1) 
23.407125000000001

>  <r_lp_tautomer_probability>  (1) 
0.26444745842670125

>  <s_epik_Chemistry_Notes>  (1) 
This compound has an imine and may undergo hydrolysis.

>  <s_epik_cmdline>  (1) 
J2VwaWtfcHl0aG9uJywgJy1waHQnLCAnMS4wJywgJy1waCcsICc3LjQnLCAnLXRuJywgJzgnLCAnLW1hJywgJzUwMCcsICctaW1hZScsICc8aW5maWxlLm1hZT4nLCAnLW9tYWUnLCAnPG91dGZpbGUubWFlPic=

>  <s_epik_input>  (1) 
W09IXVtDSDJdW0NIMl1bQ0BASF0oW0NIM10pTihDMT1PKU49W0NIXVtDQEBIXTFbQ0gyXVtDSDJdW0NIMl1OKFtDSDNdKVtDQEBIXShbQ0gzXSljMltjSF1bY0hdW2NIXVtjSF1jMkNs

>  <s_glide_docking_method>  (1) 
confgen

>  <s_i_glide_gridfile>  (1) 
gpcr_5ht2c_6bqh_protein_autoprepared_prepared

>  <s_lp_Force_Field>  (1) 
S-OPLS

>  <s_lp_Variant>  (1) 
DiffSBDD_59_num_sample_100-3

>  <s_m_source_file>  (1) 
generated__ligand_DiffSBDD_2026-05-06_prepared.sdf

>  <GenAI_Model>  (1) 
DiffSBDD

>  <Protein>  (1) 
GPCR_5HT2C

$$$$
DiffSBDD_42_num_sample_100
     RDKit          3D

  0  0  0  0  0  0  0  0  0  0999 V3000
M  V30 BEGIN CTAB
M  V30 COUNTS 69 73 0 0 1
M  V30 BEGIN ATOM
M  V30 1 O 38.020206 36.717007 62.743627 0
M  V30 2 C 37.067404 35.913495 59.265675 0
M  V30 3 C 39.604753 29.042792 56.198234 0
M  V30 4 C 40.796227 30.166076 64.368543 0
M  V30 5 O 38.118818 28.732302 59.317200 0
M  V30 6 C 37.316675 36.436504 60.645635 0
M  V30 7 C 40.010156 28.847268 60.986551 0
M  V30 8 C 37.370116 31.686806 61.535416 0
M  V30 9 C 39.084880 34.780630 61.664837 0
M  V30 10 C 40.402996 31.229735 63.362748 0 CFG=2
M  V30 11 C 37.067439 37.621324 62.373092 0
M  V30 12 C 38.146645 35.946018 61.618129 0
M  V30 13 O 40.195863 30.964943 61.981554 0
M  V30 14 C 39.867398 27.221434 54.657386 0
M  V30 15 C 39.244533 29.941950 61.705008 0 CFG=1
M  V30 16 C 39.825669 26.740723 53.407249 0
M  V30 17 C 41.237537 33.811950 61.973728 0
M  V30 18 Cl 38.594572 31.085933 54.184459 0
M  V30 19 C 39.829067 29.419339 57.433026 0
M  V30 20 O 41.067409 28.421442 61.437312 0
M  V30 21 N 40.439295 35.032798 62.153320 0
M  V30 22 C 39.050006 29.443961 53.871528 0
M  V30 23 C 38.026330 30.451412 60.956287 0
M  V30 24 C 35.921645 31.885602 61.053730 0
M  V30 25 C 39.498576 28.588689 54.971976 0
M  V30 26 P 41.412276 32.724205 63.454754 0 CFG=2
M  V30 27 C 39.377437 27.556990 52.207415 0
M  V30 28 C 36.319538 30.315807 59.087870 0
M  V30 29 C 38.993589 28.973313 52.608286 0
M  V30 30 O 42.267415 33.082334 64.619085 0
M  V30 31 C 39.425832 28.290662 59.684994 0 CFG=2
M  V30 32 C 35.829870 31.706687 59.534890 0
M  V30 33 C 37.539836 29.850214 59.853498 0
M  V30 34 C 40.381071 28.473521 58.485108 0
M  V30 35 C 41.061783 36.102152 61.397233 0
M  V30 36 N 36.666467 37.559552 61.108186 0
M  V30 37 O 39.867398 32.454600 63.853277 0
M  V30 38 H 37.502959 34.926884 59.112264 0
M  V30 39 H 37.467356 36.588847 58.511649 0
M  V30 40 H 35.998376 35.817172 59.075301 0
M  V30 41 H 39.914318 29.621477 64.701070 0
M  V30 42 H 41.259313 30.614812 65.248285 0
M  V30 43 H 41.502551 29.465178 63.924345 0
M  V30 44 H 37.968285 32.505724 61.162124 0
M  V30 45 H 37.436903 31.690647 62.623523 0
M  V30 46 H 38.657838 34.038516 62.333060 0
M  V30 47 H 39.134997 34.344203 60.666871 0
M  V30 48 H 36.684854 38.342498 63.081744 0
M  V30 49 H 40.206008 26.573527 55.454118 0
M  V30 50 H 38.876653 29.523539 62.640143 0
M  V30 51 H 40.133753 25.726118 53.219658 0
M  V30 52 H 42.259594 34.022908 61.671956 0
M  V30 53 H 40.848500 33.212095 61.151081 0
M  V30 54 H 39.622482 30.428521 57.751314 0
M  V30 55 H 35.249430 31.175422 61.534158 0
M  V30 56 H 35.570989 32.878227 61.336834 0
M  V30 57 H 40.182654 27.621347 51.476313 0
M  V30 58 H 38.528246 27.070008 51.726292 0
M  V30 59 H 36.565848 30.318792 58.025854 0
M  V30 60 H 35.529899 29.577360 59.226678 0
M  V30 61 H 38.667275 29.621427 51.812416 0
M  V30 62 H 39.328280 27.221434 59.853531 0
M  V30 63 H 36.433951 32.475728 59.053128 0
M  V30 64 H 34.804877 31.866287 59.196521 0
M  V30 65 H 40.571209 27.496468 58.036032 0
M  V30 66 H 41.359477 28.843960 58.797098 0
M  V30 67 H 42.048988 36.285496 61.809974 0
M  V30 68 H 40.503551 37.035110 61.476610 0
M  V30 69 H 41.142803 35.827915 60.348184 0
M  V30 END ATOM
M  V30 BEGIN BOND
M  V30 1 1 6 2
M  V30 2 1 10 4
M  V30 3 1 11 1
M  V30 4 1 12 1
M  V30 5 2 12 6
M  V30 6 1 12 9
M  V30 7 1 10 13 CFG=3
M  V30 8 1 15 7
M  V30 9 1 15 13
M  V30 10 2 16 14
M  V30 11 2 19 3
M  V30 12 2 20 7
M  V30 13 1 21 9
M  V30 14 1 21 17
M  V30 15 1 22 18
M  V30 16 1 23 8
M  V30 17 1 23 15
M  V30 18 1 24 8
M  V30 19 2 25 3
M  V30 20 1 25 14
M  V30 21 1 25 22
M  V30 22 1 26 10
M  V30 23 1 26 17 CFG=1
M  V30 24 1 27 16
M  V30 25 2 29 22
M  V30 26 1 29 27
M  V30 27 2 30 26
M  V30 28 1 31 5
M  V30 29 1 31 7
M  V30 30 1 32 24
M  V30 31 1 32 28
M  V30 32 1 33 5
M  V30 33 2 33 23
M  V30 34 1 33 28
M  V30 35 1 34 19
M  V30 36 1 34 31
M  V30 37 1 35 21
M  V30 38 1 36 6
M  V30 39 2 36 11
M  V30 40 1 37 10
M  V30 41 1 37 26
M  V30 42 1 38 2
M  V30 43 1 39 2
M  V30 44 1 40 2
M  V30 45 1 41 4
M  V30 46 1 42 4
M  V30 47 1 43 4
M  V30 48 1 44 8
M  V30 49 1 45 8
M  V30 50 1 46 9
M  V30 51 1 47 9
M  V30 52 1 48 11
M  V30 53 1 49 14
M  V30 54 1 15 50 CFG=1
M  V30 55 1 51 16
M  V30 56 1 52 17
M  V30 57 1 53 17
M  V30 58 1 54 19
M  V30 59 1 55 24
M  V30 60 1 56 24
M  V30 61 1 57 27
M  V30 62 1 58 27
M  V30 63 1 59 28
M  V30 64 1 60 28
M  V30 65 1 61 29
M  V30 66 1 31 62 CFG=1
M  V30 67 1 63 32
M  V30 68 1 64 32
M  V30 69 1 65 34
M  V30 70 1 66 34
M  V30 71 1 67 35
M  V30 72 1 68 35
M  V30 73 1 69 35
M  V30 END BOND
M  V30 END CTAB
M  END
>  <i_epik_Tot_Q>  (1) 
0

>  <i_epik_Tot_abs_Q>  (1) 
0

>  <i_i_glide_confnum>  (1) 
1079

>  <i_i_glide_lignum>  (1) 
106

>  <i_i_glide_posenum>  (1) 
3

>  <i_i_glide_rotatable_bonds>  (1) 
8

>  <i_lp_mmshare_version>  (1) 
72125

>  <i_m_source_file_index>  (1) 
43

>  <i_f3d_flags>  (1) 
0

>  <num_sample>  (1) 
100

>  <b_lp_Chiralities_Consistent>  (1) 
1

>  <r_epik_Charging_Adjusted_Penalty>  (1) 
1.0635715053523389

>  <r_epik_Ionization_Penalty>  (1) 
1.0635723392520104

>  <r_epik_Ionization_Penalty_Charging>  (1) 
0

>  <r_epik_Ionization_Penalty_Neutral>  (1) 
1.0635723392520104

>  <r_epik_State_Penalty>  (1) 
1.0635715053523389

>  <r_glide_ring_energy>  (1) 
0

>  <r_i_docking_score>  (1) 
-5.3064866262213073

>  <r_i_glide_ecoul>  (1) 
-0.066628912172951527

>  <r_i_glide_eff_state_penalty>  (1) 
1.0635715053523389

>  <r_i_glide_einternal>  (1) 
10.455153871456808

>  <r_i_glide_emodel>  (1) 
-50.378931720189762

>  <r_i_glide_emodel_strain>  (1) 
5.3669076096224231

>  <r_i_glide_energy>  (1) 
-44.188997767470489

>  <r_i_glide_erotb>  (1) 
0.55382833966271061

>  <r_i_glide_esite>  (1) 
0

>  <r_i_glide_evdw>  (1) 
-44.122368855297537

>  <r_i_glide_gscore>  (1) 
-6.3700581315736464

>  <r_i_glide_gscore_strain>  (1) 
0.34172690240560577

>  <r_i_glide_hbond>  (1) 
-0.10710170896560264

>  <r_i_glide_ligand_efficiency>  (1) 
-0.14341855746544074

>  <r_i_glide_ligand_efficiency_ln>  (1) 
-1.150852547530649

>  <r_i_glide_ligand_efficiency_sa>  (1) 
-0.47790245111788254

>  <r_i_glide_lipo>  (1) 
-3.6494243906500818

>  <r_i_glide_metal>  (1) 
-0

>  <r_i_glide_rewards>  (1) 
-1.2929744944354584

>  <r_lp_Energy>  (1) 
8.4432150000000004

>  <r_lp_tautomer_probability>  (1) 
0.99995000000000001

>  <s_epik_cmdline>  (1) 
J2VwaWtfcHl0aG9uJywgJy1waHQnLCAnMS4wJywgJy1waCcsICc3LjQnLCAnLXRuJywgJzgnLCAnLW1hJywgJzUwMCcsICctaW1hZScsICc8aW5maWxlLm1hZT4nLCAnLW9tYWUnLCAnPG91dGZpbGUubWFlPic=

>  <s_epik_input>  (1) 
bjFbY0hdb2MoYzFbQ0gzXSlbQ0gyXU4oW0NIM10pW0NIMl1bUEBAXSg9TykoTzIpW0NAXTIoW0NIM10pT1tDQEBIXTNDKD1PKVtDQEBIXShPQyg9QzM0KVtDSDJdW0NIMl1bQ0gyXVtDSDJdNClbQ0gyXVtDSF09Qz1DNVtDSF09W0NIXVtDSDJdW0NIXT1DNUNs

>  <s_glide_docking_method>  (1) 
confgen

>  <s_i_glide_gridfile>  (1) 
gpcr_5ht2c_6bqh_protein_autoprepared_prepared

>  <s_lp_Force_Field>  (1) 
S-OPLS

>  <s_lp_Variant>  (1) 
DiffSBDD_42_num_sample_100-3

>  <s_m_source_file>  (1) 
generated__ligand_DiffSBDD_2026-05-06_prepared.sdf

>  <GenAI_Model>  (1) 
DiffSBDD

>  <Protein>  (1) 
GPCR_5HT2C

$$$$
DiffSBDD_66_num_sample_100
     RDKit          3D

  0  0  0  0  0  0  0  0  0  0999 V3000
M  V30 BEGIN CTAB
M  V30 COUNTS 111 115 0 0 1
M  V30 BEGIN ATOM
M  V30 1 C 43.366708 26.436880 68.902894 0
M  V30 2 C 38.809555 30.724427 62.540959 0
M  V30 3 C 45.467442 28.477246 67.402696 0
M  V30 4 C 41.453194 35.889970 61.108130 0
M  V30 5 C 40.316563 30.462565 52.236100 0
M  V30 6 C 40.842832 30.082521 49.825284 0
M  V30 7 C 44.433973 28.012190 65.245703 0
M  V30 8 S 40.443364 33.027610 63.814117 0
M  V30 9 C 40.049600 30.365255 63.294096 0 CFG=1
M  V30 10 C 42.485250 27.615925 68.932338 0
M  V30 11 C 41.728544 26.302675 66.223755 0
M  V30 12 C 41.462392 27.568586 66.577481 0
M  V30 13 C 38.742324 29.811092 54.264373 0
M  V30 14 C 44.975599 25.113835 69.364428 0
M  V30 15 C 37.679778 32.749987 59.805023 0 CFG=2
M  V30 16 C 42.178100 25.221443 67.117452 0
M  V30 17 C 40.891803 28.505824 65.529539 0
M  V30 18 O 36.656673 30.821485 54.653500 0
M  V30 19 C 42.798882 29.641642 64.167736 0 CFG=1
M  V30 20 N 44.384630 26.317584 69.750316 0
M  V30 21 C 45.277193 27.622913 66.300498 0
M  V30 22 C 43.770233 29.257400 65.292507 0
M  V30 23 C 39.416607 30.893587 53.407506 0
M  V30 24 C 44.476774 23.238864 67.617259 0
M  V30 25 C 41.669538 28.094758 67.946104 0
M  V30 26 C 38.303172 33.848997 60.727117 0
M  V30 27 C 39.728864 30.135220 50.866378 0 CFG=1
M  V30 28 C 38.414568 32.633754 58.438759 0
M  V30 29 C 41.622350 28.616985 64.133082 0 CFG=2
M  V30 30 C 40.612690 28.959350 63.000156 0 CFG=2
M  V30 31 C 39.446944 35.869527 62.514249 0
M  V30 32 C 37.892605 31.552338 57.506752 0
M  V30 33 N 43.219472 25.419063 68.061979 0
M  V30 34 C 43.984689 30.123363 66.395669 0
M  V30 35 C 44.266025 24.536596 68.336469 0
M  V30 36 C 36.222067 33.191769 59.533330 0
M  V30 37 O 39.103331 28.867891 50.928471 0
M  V30 38 C 37.604717 31.382179 60.543453 0
M  V30 39 C 39.844648 34.014876 60.720493 0
M  V30 40 C 40.475373 34.959037 61.802605 0
M  V30 41 C 41.137374 31.452146 63.270052 0 CFG=2
M  V30 42 N 38.819745 30.983609 61.277871 0 CHG=1
M  V30 43 C 38.298293 31.395966 56.238638 0
M  V30 44 C 41.358540 34.202031 62.819042 0
M  V30 45 C 44.831856 29.729205 67.444446 0
M  V30 46 C 41.093008 28.776073 61.549803 0
M  V30 47 C 38.984541 28.495877 54.104274 0
M  V30 48 C 37.766879 30.313855 55.315219 0 CFG=2
M  V30 49 C 42.260347 31.095425 64.252796 0
M  V30 50 H 37.867401 30.783191 63.053258 0
M  V30 51 H 46.114416 28.175121 68.211817 0
M  V30 52 H 42.268178 35.338912 60.653525 0
M  V30 53 H 41.867400 36.618727 61.804545 0
M  V30 54 H 40.941758 36.421368 60.326835 0
M  V30 55 H 41.013258 31.281359 52.077096 0
M  V30 56 H 40.925053 29.621497 52.519922 0
M  V30 57 H 41.143462 31.085004 49.517098 0
M  V30 58 H 40.545957 29.528815 48.934402 0
M  V30 59 H 41.720898 29.621439 50.261483 0
M  V30 60 H 44.280979 27.348490 64.407700 0
M  V30 61 H 42.535158 28.191291 69.844687 0
M  V30 62 H 41.535011 26.000982 65.204965 0
M  V30 63 H 45.857536 24.747144 69.868873 0
M  V30 64 H 41.288160 24.913732 67.669457 0
M  V30 65 H 42.451982 24.421520 66.437629 0
M  V30 66 H 39.867510 28.156051 65.440937 0
M  V30 67 H 40.797712 29.488578 65.987079 0
M  V30 68 H 36.148735 31.306303 55.302206 0
M  V30 69 H 43.355572 29.553572 63.233678 0
M  V30 70 H 45.775019 26.666954 66.267787 0
M  V30 71 H 40.072581 31.437233 54.085543 0
M  V30 72 H 38.686597 31.629820 53.071456 0
M  V30 73 H 45.511994 22.912607 67.720872 0
M  V30 74 H 44.267651 23.304630 66.551019 0
M  V30 75 H 43.851155 22.457301 68.044298 0
M  V30 76 H 41.148093 29.010836 68.179914 0
M  V30 77 H 37.891589 34.817901 60.442035 0
M  V30 78 H 37.953528 33.673707 61.744075 0
M  V30 79 H 39.067426 30.921574 50.532444 0
M  V30 80 H 38.361674 33.586043 57.908291 0
M  V30 81 H 39.467366 32.430289 58.583256 0
M  V30 82 H 42.031401 27.642321 63.873859 0
M  V30 83 H 39.851447 28.195158 63.055026 0
M  V30 84 H 38.694230 35.303419 63.053509 0
M  V30 85 H 38.925295 36.516333 61.807573 0
M  V30 86 H 39.929005 36.518496 63.246581 0
M  V30 87 H 37.147531 30.881208 57.904370 0
M  V30 88 H 43.495622 31.080238 66.447368 0
M  V30 89 H 35.702276 33.447442 60.457096 0
M  V30 90 H 35.639795 32.407029 59.053578 0
M  V30 91 H 36.178214 34.070346 58.886733 0
M  V30 92 H 38.409239 28.901097 51.569770 0
M  V30 93 H 36.790057 31.427418 61.269889 0
M  V30 94 H 37.354890 30.546359 59.893490 0
M  V30 95 H 40.337464 33.046268 60.757008 0
M  V30 96 H 40.084872 34.407922 59.732649 0
M  V30 97 H 41.537190 31.559445 62.263953 0
M  V30 98 H 39.037097 32.067170 55.832793 0
M  V30 99 H 42.172174 33.675494 62.319735 0
M  V30 100 H 41.830412 34.907202 63.505668 0
M  V30 101 H 44.989603 30.386334 68.286411 0
M  V30 102 H 41.467347 29.693700 61.114890 0
M  V30 103 H 40.275074 28.445693 60.907289 0
M  V30 104 H 41.867350 28.020322 61.481090 0
M  V30 105 H 38.490834 27.763312 54.725894 0
M  V30 106 H 39.668222 28.135285 53.357418 0
M  V30 107 H 37.412379 29.481600 55.924614 0
M  V30 108 H 43.067560 31.811532 64.140594 0
M  V30 109 H 41.843936 31.272381 65.242916 0
M  V30 110 H 39.678410 30.359295 64.316674 0
M  V30 111 H 39.690259 30.932151 60.759551 0
M  V30 END ATOM
M  V30 BEGIN BOND
M  V30 1 1 9 2
M  V30 2 1 10 1
M  V30 3 2 12 11
M  V30 4 1 16 11
M  V30 5 1 17 12
M  V30 6 2 20 1
M  V30 7 1 20 14
M  V30 8 2 21 3
M  V30 9 1 21 7
M  V30 10 2 22 7
M  V30 11 1 22 19
M  V30 12 1 23 5
M  V30 13 1 23 13
M  V30 14 2 25 10
M  V30 15 1 25 12
M  V30 16 1 26 15
M  V30 17 1 27 5
M  V30 18 1 27 6
M  V30 19 1 15 28 CFG=3
M  V30 20 1 29 17
M  V30 21 1 29 19
M  V30 22 1 30 9
M  V30 23 1 30 29
M  V30 24 1 32 28
M  V30 25 1 33 1
M  V30 26 1 33 16
M  V30 27 1 34 22
M  V30 28 2 35 14
M  V30 29 1 35 24
M  V30 30 1 35 33
M  V30 31 1 36 15
M  V30 32 1 37 27
M  V30 33 1 38 15
M  V30 34 1 39 26
M  V30 35 1 40 4
M  V30 36 1 40 31
M  V30 37 1 40 39
M  V30 38 1 41 8
M  V30 39 1 41 9
M  V30 40 2 42 2
M  V30 41 1 42 38
M  V30 42 2 43 32
M  V30 43 1 44 8
M  V30 44 1 44 40
M  V30 45 1 45 3
M  V30 46 2 45 34
M  V30 47 1 46 30
M  V30 48 2 47 13
M  V30 49 1 48 13
M  V30 50 1 48 18
M  V30 51 1 48 43
M  V30 52 1 49 19
M  V30 53 1 49 41
M  V30 54 1 50 2
M  V30 55 1 51 3
M  V30 56 1 52 4
M  V30 57 1 53 4
M  V30 58 1 54 4
M  V30 59 1 55 5
M  V30 60 1 56 5
M  V30 61 1 57 6
M  V30 62 1 58 6
M  V30 63 1 59 6
M  V30 64 1 60 7
M  V30 65 1 61 10
M  V30 66 1 62 11
M  V30 67 1 63 14
M  V30 68 1 64 16
M  V30 69 1 65 16
M  V30 70 1 66 17
M  V30 71 1 67 17
M  V30 72 1 68 18
M  V30 73 1 19 69 CFG=3
M  V30 74 1 70 21
M  V30 75 1 71 23
M  V30 76 1 72 23
M  V30 77 1 73 24
M  V30 78 1 74 24
M  V30 79 1 75 24
M  V30 80 1 76 25
M  V30 81 1 77 26
M  V30 82 1 78 26
M  V30 83 1 27 79 CFG=3
M  V30 84 1 80 28
M  V30 85 1 81 28
M  V30 86 1 29 82 CFG=3
M  V30 87 1 30 83 CFG=1
M  V30 88 1 84 31
M  V30 89 1 85 31
M  V30 90 1 86 31
M  V30 91 1 87 32
M  V30 92 1 88 34
M  V30 93 1 89 36
M  V30 94 1 90 36
M  V30 95 1 91 36
M  V30 96 1 92 37
M  V30 97 1 93 38
M  V30 98 1 94 38
M  V30 99 1 95 39
M  V30 100 1 96 39
M  V30 101 1 41 97 CFG=3
M  V30 102 1 98 43
M  V30 103 1 99 44
M  V30 104 1 100 44
M  V30 105 1 101 45
M  V30 106 1 102 46
M  V30 107 1 103 46
M  V30 108 1 104 46
M  V30 109 1 105 47
M  V30 110 1 106 47
M  V30 111 1 48 107 CFG=1
M  V30 112 1 108 49
M  V30 113 1 109 49
M  V30 114 1 9 110 CFG=1
M  V30 115 1 111 42
M  V30 END BOND
M  V30 END CTAB
M  END
>  <i_epik_Tot_Q>  (1) 
1

>  <i_epik_Tot_abs_Q>  (1) 
1

>  <i_i_glide_confnum>  (1) 
349

>  <i_i_glide_lignum>  (1) 
168

>  <i_i_glide_posenum>  (1) 
163

>  <i_i_glide_rotatable_bonds>  (1) 
12

>  <i_lp_mmshare_version>  (1) 
72125

>  <i_m_source_file_index>  (1) 
67

>  <i_f3d_flags>  (1) 
0

>  <num_sample>  (1) 
100

>  <b_lp_Chiralities_Consistent>  (1) 
1

>  <r_epik_Charging_Adjusted_Penalty>  (1) 
1.5687136755604425

>  <r_epik_Ionization_Penalty>  (1) 
3.7043048325211934

>  <r_epik_Ionization_Penalty_Charging>  (1) 
0.78327048387713327

>  <r_epik_Ionization_Penalty_Neutral>  (1) 
2.92103434864406

>  <r_epik_State_Penalty>  (1) 
0.78544319168330923

>  <r_glide_ring_energy>  (1) 
0

>  <r_i_docking_score>  (1) 
-5.3020632096211573

>  <r_i_glide_ecoul>  (1) 
-0.81237323539920947

>  <r_i_glide_eff_state_penalty>  (1) 
0.78544319168330923

>  <r_i_glide_einternal>  (1) 
6.5939233326876714

>  <r_i_glide_emodel>  (1) 
-44.814257579088135

>  <r_i_glide_emodel_strain>  (1) 
6.7979168326759094

>  <r_i_glide_energy>  (1) 
-37.255500730756253

>  <r_i_glide_erotb>  (1) 
0.28694684240539414

>  <r_i_glide_esite>  (1) 
0

>  <r_i_glide_evdw>  (1) 
-36.443127495357047

>  <r_i_glide_gscore>  (1) 
-6.0875064013044664

>  <r_i_glide_gscore_strain>  (1) 
0.69947920816897735

>  <r_i_glide_hbond>  (1) 
-0.20446324161090032

>  <r_i_glide_ligand_efficiency>  (1) 
-0.10820537162492158

>  <r_i_glide_ligand_efficiency_ln>  (1) 
-1.0838630379920087

>  <r_i_glide_ligand_efficiency_sa>  (1) 
-0.3959565342422332

>  <r_i_glide_lipo>  (1) 
-4.1288546765676735

>  <r_i_glide_metal>  (1) 
-0

>  <r_i_glide_rewards>  (1) 
-0.79660217362252927

>  <r_lp_Energy>  (1) 
57.418498999999997

>  <s_epik_Chemistry_Notes>  (1) 
This compound has an imine and may undergo hydrolysis.

>  <s_epik_cmdline>  (1) 
J2VwaWtfcHl0aG9uJywgJy1waHQnLCAnMS4wJywgJy1waCcsICc3LjQnLCAnLXRuJywgJzgnLCAnLW1hJywgJzUwMCcsICctaW1hZScsICc8aW5maWxlLm1hZT4nLCAnLW9tYWUnLCAnPG91dGZpbGUubWFlPic=

>  <s_epik_input>  (1) 
bjFbY0hdYyhbQ0gzXSluKGMxMilbQ0gyXVtDSF09QyhbQ0hdPVtDSF0yKVtDSDJdW0NAQEhdKFtDQEBIXTNbQ0gzXSlbQ0BIXShjNFtjSF1bY0hdW2NIXVtjSF1bY0hdNClbQ0gyXVtDQEBIXShbQ0BIXTM1KVNbQ0gyXUMoW0NIM10pKFtDSDNdKVtDSDJdW0NIMl1bQ0BdKFtDSDNdKShbQ0gyXVxOPVtDSF1cNSlbQ0gyXS9bQ0hdPVtDSF0vW0NAQEhdKFtPSF0pQyg9W0NIMl0pW0NIMl1bQ0gyXVtDQEBIXShbQ0gzXSlbT0hd

>  <s_glide_docking_method>  (1) 
confgen

>  <s_i_glide_gridfile>  (1) 
gpcr_5ht2c_6bqh_protein_autoprepared_prepared

>  <s_lp_Force_Field>  (1) 
S-OPLS

>  <s_lp_Variant>  (1) 
DiffSBDD_66_num_sample_100-5

>  <s_m_source_file>  (1) 
generated__ligand_DiffSBDD_2026-05-06_prepared.sdf

>  <GenAI_Model>  (1) 
DiffSBDD

>  <Protein>  (1) 
GPCR_5HT2C

$$$$
DiffSBDD_1_num_sample_100
     RDKit          3D

  0  0  0  0  0  0  0  0  0  0999 V3000
M  V30 BEGIN CTAB
M  V30 COUNTS 62 65 0 0 1
M  V30 BEGIN ATOM
M  V30 1 C 39.700045 29.658442 52.173313 0
M  V30 2 C 40.808358 29.490837 61.756957 0
M  V30 3 O 39.865320 28.229146 50.457982 0
M  V30 4 C 40.158582 27.975963 59.825458 0 CFG=1
M  V30 5 C 39.409338 30.056535 53.567709 0
M  V30 6 C 40.711440 28.235565 57.387335 0
M  V30 7 C 39.049936 32.130248 61.654947 0
M  V30 8 C 40.903756 29.176921 64.077018 0
M  V30 9 N 40.710438 30.610824 63.749929 0 CHG=1
M  V30 10 C 37.222713 29.379231 57.847342 0
M  V30 11 C 39.026496 28.956527 54.570324 0
M  V30 12 C 40.594381 32.102747 61.697589 0 CFG=2
M  V30 13 C 41.176367 30.827407 62.360510 0 CFG=2
M  V30 14 C 39.211153 28.415619 57.103257 0 CFG=2
M  V30 15 C 37.467410 29.951276 56.432121 0
M  V30 16 C 39.574003 28.442013 51.749559 0
M  V30 17 N 40.967215 27.555091 58.659782 0
M  V30 18 C 40.590997 29.299429 60.437999 0
M  V30 19 O 39.467738 31.221581 53.946032 0
M  V30 20 C 41.176717 33.365965 62.355684 0
M  V30 21 C 40.188169 29.606899 50.005445 0
M  V30 22 C 38.669099 28.084527 59.435677 0
M  V30 23 C 40.666869 28.404290 62.772316 0
M  V30 24 N 38.531358 28.935489 58.266962 0
M  V30 25 O 38.617439 27.171834 56.763041 0
M  V30 26 C 40.153695 30.665903 51.209641 0
M  V30 27 C 38.876065 29.451910 56.029228 0 CFG=2
M  V30 28 O 38.600336 33.194946 60.847528 0
M  V30 29 H 40.267025 27.221439 60.594799 0
M  V30 30 H 41.129071 29.221400 57.471592 0
M  V30 31 H 41.218266 27.731119 56.564346 0
M  V30 32 H 38.626071 32.237678 62.653483 0
M  V30 33 H 38.648758 31.207170 61.234888 0
M  V30 34 H 40.267450 28.847070 64.897510 0
M  V30 35 H 41.937403 29.037641 64.397424 0
M  V30 36 H 41.187760 31.209515 64.408591 0
M  V30 37 H 36.525489 28.542146 57.853462 0
M  V30 38 H 36.824856 30.137900 58.522488 0
M  V30 39 H 39.811728 28.201957 54.545442 0
M  V30 40 H 38.113306 28.460648 54.241861 0
M  V30 41 H 40.950796 32.119225 60.667819 0
M  V30 42 H 42.263077 30.894478 62.402940 0
M  V30 43 H 36.691860 29.631487 55.736446 0
M  V30 44 H 37.467403 31.041906 56.444052 0
M  V30 45 H 39.256436 27.564135 52.294284 0
M  V30 46 H 41.958439 27.558363 58.882769 0
M  V30 47 H 40.692318 30.119349 59.761915 0
M  V30 48 H 40.809148 33.494598 63.373740 0
M  V30 49 H 42.266269 33.321617 62.394871 0
M  V30 50 H 40.916328 34.263696 61.794090 0
M  V30 51 H 41.158644 29.621863 49.517019 0
M  V30 52 H 39.467427 29.892791 49.243016 0
M  V30 53 H 38.267638 27.090072 59.246743 0
M  V30 54 H 38.097813 28.511359 60.253505 0
M  V30 55 H 39.664900 27.989511 62.671251 0
M  V30 56 H 41.409978 27.621422 62.642031 0
M  V30 57 H 37.872139 27.051191 57.327954 0
M  V30 58 H 39.467370 31.493384 51.054563 0
M  V30 59 H 41.141476 31.049422 51.453470 0
M  V30 60 H 39.562750 30.282281 56.206855 0
M  V30 61 H 38.866658 34.015197 61.235417 0
M  V30 62 H 39.717105 30.788651 63.785605 0
M  V30 END ATOM
M  V30 BEGIN BOND
M  V30 1 1 5 1
M  V30 2 1 9 8
M  V30 3 1 11 5
M  V30 4 1 12 7
M  V30 5 1 13 2
M  V30 6 1 13 9
M  V30 7 1 13 12
M  V30 8 1 14 6
M  V30 9 1 15 10
M  V30 10 2 16 1
M  V30 11 1 16 3
M  V30 12 1 17 4
M  V30 13 1 17 6
M  V30 14 2 18 2
M  V30 15 1 18 4
M  V30 16 2 19 5
M  V30 17 1 20 12
M  V30 18 1 21 3
M  V30 19 1 22 4
M  V30 20 1 23 2
M  V30 21 1 23 8
M  V30 22 1 24 10
M  V30 23 1 24 14
M  V30 24 1 24 22
M  V30 25 1 14 25 CFG=3
M  V30 26 1 26 1
M  V30 27 1 26 21
M  V30 28 1 27 11
M  V30 29 1 27 14
M  V30 30 1 27 15
M  V30 31 1 28 7
M  V30 32 1 4 29 CFG=1
M  V30 33 1 30 6
M  V30 34 1 31 6
M  V30 35 1 32 7
M  V30 36 1 33 7
M  V30 37 1 34 8
M  V30 38 1 35 8
M  V30 39 1 36 9
M  V30 40 1 37 10
M  V30 41 1 38 10
M  V30 42 1 39 11
M  V30 43 1 40 11
M  V30 44 1 12 41 CFG=3
M  V30 45 1 13 42 CFG=1
M  V30 46 1 43 15
M  V30 47 1 44 15
M  V30 48 1 45 16
M  V30 49 1 46 17
M  V30 50 1 47 18
M  V30 51 1 48 20
M  V30 52 1 49 20
M  V30 53 1 50 20
M  V30 54 1 51 21
M  V30 55 1 52 21
M  V30 56 1 53 22
M  V30 57 1 54 22
M  V30 58 1 55 23
M  V30 59 1 56 23
M  V30 60 1 57 25
M  V30 61 1 58 26
M  V30 62 1 59 26
M  V30 63 1 27 60 CFG=3
M  V30 64 1 61 28
M  V30 65 1 62 9
M  V30 END BOND
M  V30 END CTAB
M  END
>  <i_epik_Tot_Q>  (1) 
1

>  <i_epik_Tot_abs_Q>  (1) 
1

>  <i_i_glide_confnum>  (1) 
129

>  <i_i_glide_lignum>  (1) 
9

>  <i_i_glide_posenum>  (1) 
306

>  <i_i_glide_rotatable_bonds>  (1) 
8

>  <i_lp_mmshare_version>  (1) 
72125

>  <i_m_source_file_index>  (1) 
2

>  <i_f3d_flags>  (1) 
0

>  <num_sample>  (1) 
100

>  <b_lp_Chiralities_Consistent>  (1) 
1

>  <r_epik_Charging_Adjusted_Penalty>  (1) 
0.089223518210420474

>  <r_epik_Ionization_Penalty>  (1) 
0.15303808439063821

>  <r_epik_Ionization_Penalty_Charging>  (1) 
0.0017986555257548985

>  <r_epik_Ionization_Penalty_Neutral>  (1) 
0.15123942886488331

>  <r_epik_State_Penalty>  (1) 
0.08742486268466558

>  <r_glide_ring_energy>  (1) 
0

>  <r_i_docking_score>  (1) 
-5.296608299830698

>  <r_i_glide_ecoul>  (1) 
0.27991228364826837

>  <r_i_glide_eff_state_penalty>  (1) 
0.08742486268466558

>  <r_i_glide_einternal>  (1) 
4.3614211314846507

>  <r_i_glide_emodel>  (1) 
-40.086622280160952

>  <r_i_glide_emodel_strain>  (1) 
0.25551162188180854

>  <r_i_glide_energy>  (1) 
-32.845768626094788

>  <r_i_glide_erotb>  (1) 
0.76037187950223806

>  <r_i_glide_esite>  (1) 
0

>  <r_i_glide_evdw>  (1) 
-33.125680909743053

>  <r_i_glide_gscore>  (1) 
-5.3840331625153635

>  <r_i_glide_gscore_strain>  (1) 
0

>  <r_i_glide_hbond>  (1) 
0

>  <r_i_glide_ligand_efficiency>  (1) 
-0.18916458213681064

>  <r_i_glide_ligand_efficiency_ln>  (1) 
-1.2226127107781648

>  <r_i_glide_ligand_efficiency_sa>  (1) 
-0.57441508398610719

>  <r_i_glide_lipo>  (1) 
-2.8399824228858583

>  <r_i_glide_metal>  (1) 
-0

>  <r_i_glide_rewards>  (1) 
-1.6901254161918302

>  <r_lp_Energy>  (1) 
16.245208999999999

>  <s_epik_cmdline>  (1) 
J2VwaWtfcHl0aG9uJywgJy1waHQnLCAnMS4wJywgJy1waCcsICc3LjQnLCAnLXRuJywgJzgnLCAnLW1hJywgJzUwMCcsICctaW1hZScsICc8aW5maWxlLm1hZT4nLCAnLW9tYWUnLCAnPG91dGZpbGUubWFlPic=

>  <s_epik_input>  (1) 
W0NIMl0xW0NIMl1PW0NIXT1DMUMoPU8pW0NIMl1bQ0BIXTJbQ0gyXVtDSDJdTihbQ0BAXTIzW09IXSlbQ0gyXVtDQEBIXShbTkhdW0NIMl0zKVxbQ0hdPUM0XFtDQEBIXShbTkhdW0NIMl1bQ0gyXTQpW0NASF0oW0NIM10pW0NIMl1bT0hd

>  <s_glide_docking_method>  (1) 
confgen

>  <s_i_glide_gridfile>  (1) 
gpcr_5ht2c_6bqh_protein_autoprepared_prepared

>  <s_lp_Force_Field>  (1) 
S-OPLS

>  <s_lp_Variant>  (1) 
DiffSBDD_1_num_sample_100-3

>  <s_m_source_file>  (1) 
generated__ligand_DiffSBDD_2026-05-06_prepared.sdf

>  <GenAI_Model>  (1) 
DiffSBDD

>  <Protein>  (1) 
GPCR_5HT2C

$$$$
DiffSBDD_82_num_sample_100
     RDKit          3D

  0  0  0  0  0  0  0  0  0  0999 V3000
M  V30 BEGIN CTAB
M  V30 COUNTS 57 59 0 0 1
M  V30 BEGIN ATOM
M  V30 1 C 38.018638 29.586650 57.585666 0 CFG=1
M  V30 2 N 38.378796 28.814529 51.736571 0
M  V30 3 F 37.867491 30.905589 57.543144 0
M  V30 4 C 39.481355 30.210886 59.647433 0
M  V30 5 N 38.369716 29.114579 56.242386 0
M  V30 6 C 36.674462 28.038236 53.234201 0
M  V30 7 C 39.366947 29.346334 62.018981 0
M  V30 8 C 37.805780 32.712998 60.703856 0
M  V30 9 N 39.057391 26.815074 56.570142 0
M  V30 10 O 40.031504 33.355531 62.769710 0
M  V30 11 C 40.052019 29.362965 49.986142 0 CFG=1
M  V30 12 C 40.630697 30.739854 50.235271 0
M  V30 13 C 38.365013 32.143912 54.440526 0
M  V30 14 S 36.087003 32.610554 61.034736 0 CHG=-1
M  V30 15 C 38.747162 30.318847 60.995514 0 CFG=1
M  V30 16 C 40.143746 25.650243 58.378882 0
M  V30 17 C 38.779673 27.952469 55.786598 0
M  V30 18 C 39.702617 28.553891 51.222630 0 CFG=1
M  V30 19 C 40.760476 29.628585 51.258839 0 CFG=1
M  V30 20 C 39.019480 29.175020 58.628852 0
M  V30 21 O 38.367663 33.434965 59.884427 0
M  V30 22 C 38.038350 28.717764 53.137314 0 CFG=2
M  V30 23 C 39.477453 27.969474 58.608096 0
M  V30 24 O 41.086512 31.884994 61.471560 0 CHG=-1
M  V30 25 O 37.867414 29.978181 53.738438 0
M  V30 26 C 38.895936 30.934626 53.674695 0 CFG=2
M  V30 27 S 39.115363 27.566653 54.031929 0
M  V30 28 C 38.682265 31.780423 61.566670 0 CFG=1
M  V30 29 O 40.110846 30.535492 54.263415 0
M  V30 30 C 40.054207 32.394697 61.967939 0
M  V30 31 C 39.486208 26.883208 57.890549 0
M  V30 32 H 37.036392 29.205465 57.869499 0
M  V30 33 H 37.972009 29.619085 51.288945 0
M  V30 34 H 39.466899 31.180680 59.165655 0
M  V30 35 H 40.539417 30.021442 59.832906 0
M  V30 36 H 35.956424 28.533998 52.587478 0
M  V30 37 H 36.312484 28.021564 54.253476 0
M  V30 38 H 36.768287 26.996775 52.943430 0
M  V30 39 H 40.456925 29.375472 62.006723 0
M  V30 40 H 39.067496 28.315179 61.834627 0
M  V30 41 H 39.067395 29.621424 63.029097 0
M  V30 42 H 39.238915 25.932962 56.116802 0
M  V30 43 H 40.553444 28.821491 49.191406 0
M  V30 44 H 41.517452 31.029448 49.675039 0
M  V30 45 H 39.925824 31.542182 50.442017 0
M  V30 46 H 37.910342 31.829364 55.375411 0
M  V30 47 H 37.611087 32.663452 53.854570 0
M  V30 48 H 39.176610 32.825346 54.670427 0
M  V30 49 H 37.714578 30.021414 60.825311 0
M  V30 50 H 39.867399 25.621502 59.430487 0
M  V30 51 H 41.221159 25.738444 58.253508 0
M  V30 52 H 39.790441 24.761073 57.853643 0
M  V30 53 H 40.065932 27.530780 51.237580 0
M  V30 54 H 41.760272 29.221526 51.372292 0
M  V30 55 H 39.120184 31.227006 52.653843 0
M  V30 56 H 38.187433 31.695603 62.535377 0
M  V30 57 H 40.445522 29.812970 53.758485 0
M  V30 END ATOM
M  V30 BEGIN BOND
M  V30 1 1 3 1
M  V30 2 1 5 1
M  V30 3 1 12 11
M  V30 4 1 14 8
M  V30 5 1 15 4
M  V30 6 1 15 7
M  V30 7 2 17 5
M  V30 8 1 17 9
M  V30 9 1 18 2
M  V30 10 1 18 11
M  V30 11 1 19 11
M  V30 12 1 19 12
M  V30 13 1 19 18
M  V30 14 1 20 1
M  V30 15 1 20 4
M  V30 16 2 21 8
M  V30 17 1 22 2
M  V30 18 1 22 6
M  V30 19 2 23 20
M  V30 20 1 22 25 CFG=1
M  V30 21 1 26 13
M  V30 22 1 26 25
M  V30 23 1 27 17
M  V30 24 1 27 22
M  V30 25 1 28 8
M  V30 26 1 28 15
M  V30 27 1 29 26
M  V30 28 2 30 10
M  V30 29 1 30 24
M  V30 30 1 30 28
M  V30 31 1 31 9
M  V30 32 1 31 16
M  V30 33 2 31 23
M  V30 34 1 1 32 CFG=1
M  V30 35 1 33 2
M  V30 36 1 34 4
M  V30 37 1 35 4
M  V30 38 1 36 6
M  V30 39 1 37 6
M  V30 40 1 38 6
M  V30 41 1 39 7
M  V30 42 1 40 7
M  V30 43 1 41 7
M  V30 44 1 42 9
M  V30 45 1 11 43 CFG=3
M  V30 46 1 44 12
M  V30 47 1 45 12
M  V30 48 1 46 13
M  V30 49 1 47 13
M  V30 50 1 48 13
M  V30 51 1 15 49 CFG=3
M  V30 52 1 50 16
M  V30 53 1 51 16
M  V30 54 1 52 16
M  V30 55 1 18 53 CFG=3
M  V30 56 1 19 54 CFG=3
M  V30 57 1 26 55 CFG=3
M  V30 58 1 28 56 CFG=1
M  V30 59 1 57 29
M  V30 END BOND
M  V30 END CTAB
M  END
>  <i_epik_Tot_Q>  (1) 
-2

>  <i_epik_Tot_abs_Q>  (1) 
2

>  <i_i_glide_confnum>  (1) 
193

>  <i_i_glide_lignum>  (1) 
216

>  <i_i_glide_posenum>  (1) 
384

>  <i_i_glide_rotatable_bonds>  (1) 
12

>  <i_lp_mmshare_version>  (1) 
72125

>  <i_m_source_file_index>  (1) 
83

>  <i_f3d_flags>  (1) 
0

>  <num_sample>  (1) 
100

>  <b_lp_Chiralities_Consistent>  (1) 
1

>  <r_epik_Charging_Adjusted_Penalty>  (1) 
0.00013622687110547772

>  <r_epik_Ionization_Penalty>  (1) 
0.0015792256383976989

>  <r_epik_Ionization_Penalty_Charging>  (1) 
0.00013622687110547772

>  <r_epik_Ionization_Penalty_Neutral>  (1) 
0.0014429987672922213

>  <r_epik_State_Penalty>  (1) 
-0

>  <r_glide_ring_energy>  (1) 
0

>  <r_i_docking_score>  (1) 
-5.295734084309931

>  <r_i_glide_ecoul>  (1) 
1.4261969213112344

>  <r_i_glide_eff_state_penalty>  (1) 
-0

>  <r_i_glide_einternal>  (1) 
6.8704499318668661

>  <r_i_glide_emodel>  (1) 
-38.610689927619752

>  <r_i_glide_emodel_strain>  (1) 
5.3810928673945

>  <r_i_glide_energy>  (1) 
-30.627058131693008

>  <r_i_glide_erotb>  (1) 
0.72716710484865599

>  <r_i_glide_esite>  (1) 
-0.10000000000000001

>  <r_i_glide_evdw>  (1) 
-32.053255053004243

>  <r_i_glide_gscore>  (1) 
-5.295734084309931

>  <r_i_glide_gscore_strain>  (1) 
0.345273216848625

>  <r_i_glide_hbond>  (1) 
0

>  <r_i_glide_ligand_efficiency>  (1) 
-0.17083013175193326

>  <r_i_glide_ligand_efficiency_ln>  (1) 
-1.1943503307707102

>  <r_i_glide_ligand_efficiency_sa>  (1) 
-0.5366424707309958

>  <r_i_glide_lipo>  (1) 
-2.9512093204760816

>  <r_i_glide_metal>  (1) 
-0

>  <r_i_glide_rewards>  (1) 
-1.9282318710776041

>  <r_lp_Energy>  (1) 
27.993948

>  <r_lp_tautomer_probability>  (1) 
1

>  <s_epik_Chemistry_Notes>  (1) 
This compound has an imine and may undergo hydrolysis. This compound contains an acetal/aminal-like group ( X-CH(R)-Y where X, Y are N, S, or O) that may be acid/base labile, releasing an aldehyde.

>  <s_epik_cmdline>  (1) 
J2VwaWtfcHl0aG9uJywgJy1waHQnLCAnMS4wJywgJy1waCcsICc3LjQnLCAnLXRuJywgJzgnLCAnLW1hJywgJzUwMCcsICctaW1hZScsICc8aW5maWxlLm1hZT4nLCAnLW9tYWUnLCAnPG91dGZpbGUubWFlPic=

>  <s_epik_input>  (1) 
W0NAQEhdMTJbQ0BASF0oW0NIMl0xKVtDQEhdMltOSF1bQ0BdKFtDSDNdKShPW0NAQEhdKFtDSDNdKVtPSF0pU0MoPU5bQ0BASF0zRilbTkhdQyhbQ0gzXSk9Qz1DM1tDSDJdW0NAQEhdKFtDSDNdKVtDQEhdKEMoPU8pW1NIXSlDKD1PKVtPSF0=

>  <s_glide_docking_method>  (1) 
confgen

>  <s_i_glide_gridfile>  (1) 
gpcr_5ht2c_6bqh_protein_autoprepared_prepared

>  <s_lp_Force_Field>  (1) 
S-OPLS

>  <s_lp_Variant>  (1) 
DiffSBDD_82_num_sample_100-2

>  <s_m_source_file>  (1) 
generated__ligand_DiffSBDD_2026-05-06_prepared.sdf

>  <GenAI_Model>  (1) 
DiffSBDD

>  <Protein>  (1) 
GPCR_5HT2C

$$$$
DiffSBDD_25_num_sample_100
     RDKit          3D

  0  0  0  0  0  0  0  0  0  0999 V3000
M  V30 BEGIN CTAB
M  V30 COUNTS 57 59 0 0 1
M  V30 BEGIN ATOM
M  V30 1 C 38.760447 31.863155 55.287857 0
M  V30 2 C 38.262991 31.169920 59.018510 0
M  V30 3 C 38.966136 29.638389 57.143977 0
M  V30 4 C 40.173194 35.920778 62.103579 0
M  V30 5 C 38.021494 37.146555 62.592873 0
M  V30 6 C 37.002201 37.424816 63.418183 0
M  V30 7 C 37.138190 34.836632 58.969429 0 CFG=2
M  V30 8 N 37.248380 28.022067 53.056258 0
M  V30 9 O 37.494222 32.625992 60.781586 0
M  V30 10 C 37.811893 32.435470 59.462195 0
M  V30 11 C 41.429348 34.743509 64.028429 0
M  V30 12 C 38.693035 28.140543 52.977275 0 CFG=2
M  V30 13 C 37.849820 34.876085 61.477366 0 CFG=2
M  V30 14 O 41.506555 33.720912 63.311242 0
M  V30 15 O 38.462541 33.593588 61.409409 0
M  V30 16 C 38.797191 30.423737 54.791105 0
M  V30 17 O 41.599576 34.783647 65.266003 0 CHG=-1
M  V30 18 C 39.454560 27.974454 55.436560 0
M  V30 19 C 37.666981 33.492261 58.535713 0
M  V30 20 N 39.467371 27.221454 50.653503 0
M  V30 21 O 36.482151 34.828765 61.852799 0
M  V30 22 C 37.990971 33.292029 57.189234 0
M  V30 23 C 39.131337 27.614504 51.682969 0
M  V30 24 C 41.104419 36.068650 63.327864 0
M  V30 25 C 39.064303 29.343697 55.829982 0
M  V30 26 O 38.384618 30.139738 59.911220 0
M  V30 27 C 37.864174 35.537892 60.108750 0
M  V30 28 O 35.731236 34.836011 59.085352 0
M  V30 29 C 39.324520 27.436621 54.187257 0
M  V30 30 C 38.560978 30.966330 57.643717 0
M  V30 31 C 38.429198 32.044114 56.742183 0
M  V30 32 C 38.670609 35.771939 62.467601 0 CFG=1
M  V30 33 F 39.771907 26.183567 54.009001 0
M  V30 34 H 38.078031 32.452858 54.673498 0
M  V30 35 H 39.749785 32.301788 55.156489 0
M  V30 36 H 39.154870 28.871836 57.877854 0
M  V30 37 H 40.322041 36.782937 61.454193 0
M  V30 38 H 40.504650 35.078407 61.499518 0
M  V30 39 H 38.419384 37.929044 61.962457 0
M  V30 40 H 36.581589 36.667810 64.062945 0
M  V30 41 H 36.574556 38.415019 63.453124 0
M  V30 42 H 37.363995 35.503586 58.149553 0
M  V30 43 H 36.981563 27.071033 52.835137 0
M  V30 44 H 36.931368 28.220272 53.993445 0
M  V30 45 H 38.978335 29.162071 52.813054 0
M  V30 46 H 37.844087 30.222115 54.308310 0
M  V30 47 H 39.620336 30.434597 54.080569 0
M  V30 48 H 39.880571 27.340374 56.202620 0
M  V30 49 H 36.419456 34.601354 62.766673 0
M  V30 50 H 37.883485 34.102926 56.484810 0
M  V30 51 H 42.056940 36.497462 63.020416 0
M  V30 52 H 40.666560 36.764043 64.043266 0
M  V30 53 H 38.688318 29.340321 59.513579 0
M  V30 54 H 38.905474 35.685150 59.853509 0
M  V30 55 H 37.441048 36.539074 60.167286 0
M  V30 56 H 35.376830 34.544338 58.258155 0
M  V30 57 H 38.667440 35.317476 63.448895 0
M  V30 END ATOM
M  V30 BEGIN BOND
M  V30 1 2 6 5
M  V30 2 1 10 2
M  V30 3 1 10 9
M  V30 4 1 12 8
M  V30 5 2 14 11
M  V30 6 1 15 9
M  V30 7 1 15 13
M  V30 8 1 16 1
M  V30 9 1 17 11
M  V30 10 1 19 7
M  V30 11 2 19 10
M  V30 12 1 13 21 CFG=1
M  V30 13 1 22 19
M  V30 14 1 23 12
M  V30 15 3 23 20
M  V30 16 1 24 4
M  V30 17 1 24 11
M  V30 18 2 25 3
M  V30 19 1 25 16
M  V30 20 1 25 18
M  V30 21 1 26 2
M  V30 22 1 27 7
M  V30 23 1 27 13
M  V30 24 1 28 7
M  V30 25 1 29 12
M  V30 26 2 29 18
M  V30 27 2 30 2
M  V30 28 1 30 3
M  V30 29 1 31 1
M  V30 30 2 31 22
M  V30 31 1 31 30
M  V30 32 1 32 4
M  V30 33 1 32 5
M  V30 34 1 32 13
M  V30 35 1 33 29
M  V30 36 1 34 1
M  V30 37 1 35 1
M  V30 38 1 36 3
M  V30 39 1 37 4
M  V30 40 1 38 4
M  V30 41 1 39 5
M  V30 42 1 40 6
M  V30 43 1 41 6
M  V30 44 1 7 42 CFG=3
M  V30 45 1 43 8
M  V30 46 1 44 8
M  V30 47 1 12 45 CFG=3
M  V30 48 1 46 16
M  V30 49 1 47 16
M  V30 50 1 48 18
M  V30 51 1 49 21
M  V30 52 1 50 22
M  V30 53 1 51 24
M  V30 54 1 52 24
M  V30 55 1 53 26
M  V30 56 1 54 27
M  V30 57 1 55 27
M  V30 58 1 56 28
M  V30 59 1 32 57 CFG=1
M  V30 END BOND
M  V30 END CTAB
M  END
>  <i_epik_Tot_Q>  (1) 
-1

>  <i_epik_Tot_abs_Q>  (1) 
1

>  <i_i_glide_confnum>  (1) 
312

>  <i_i_glide_lignum>  (1) 
66

>  <i_i_glide_posenum>  (1) 
19

>  <i_i_glide_rotatable_bonds>  (1) 
10

>  <i_lp_mmshare_version>  (1) 
72125

>  <i_m_source_file_index>  (1) 
26

>  <i_f3d_flags>  (1) 
0

>  <num_sample>  (1) 
100

>  <b_lp_Chiralities_Consistent>  (1) 
1

>  <r_epik_Charging_Adjusted_Penalty>  (1) 
0.0056011124489286045

>  <r_epik_Ionization_Penalty>  (1) 
0.0056278004124673013

>  <r_epik_Ionization_Penalty_Charging>  (1) 
0.0010502183284910153

>  <r_epik_Ionization_Penalty_Neutral>  (1) 
0.0045775820839762862

>  <r_epik_State_Penalty>  (1) 
0.0045508941204375894

>  <r_glide_ring_energy>  (1) 
0

>  <r_i_docking_score>  (1) 
-5.2933102503039908

>  <r_i_glide_ecoul>  (1) 
-0.56427175809032815

>  <r_i_glide_eff_state_penalty>  (1) 
0.0045508941204375894

>  <r_i_glide_einternal>  (1) 
5.5798846340738688

>  <r_i_glide_emodel>  (1) 
-37.953057669034841

>  <r_i_glide_emodel_strain>  (1) 
2.7578973561857794

>  <r_i_glide_energy>  (1) 
-34.251149753078941

>  <r_i_glide_erotb>  (1) 
0.57188489385704211

>  <r_i_glide_esite>  (1) 
0

>  <r_i_glide_evdw>  (1) 
-33.686877994988613

>  <r_i_glide_gscore>  (1) 
-5.2978611444244281

>  <r_i_glide_gscore_strain>  (1) 
0

>  <r_i_glide_hbond>  (1) 
-0.12081539097311651

>  <r_i_glide_ligand_efficiency>  (1) 
-0.16040334091830274

>  <r_i_glide_ligand_efficiency_ln>  (1) 
-1.1772047923739384

>  <r_i_glide_ligand_efficiency_sa>  (1) 
-0.5144992226414804

>  <r_i_glide_lipo>  (1) 
-1.9358569815572229

>  <r_i_glide_metal>  (1) 
-0

>  <r_i_glide_rewards>  (1) 
-2.0440890022881515

>  <r_lp_Energy>  (1) 
30.738761

>  <s_epik_cmdline>  (1) 
J2VwaWtfcHl0aG9uJywgJy1waHQnLCAnMS4wJywgJy1waCcsICc3LjQnLCAnLXRuJywgJzgnLCAnLW1hJywgJzUwMCcsICctaW1hZScsICc8aW5maWxlLm1hZT4nLCAnLW9tYWUnLCAnPG91dGZpbGUubWFlPic=

>  <s_epik_input>  (1) 
TiNDW0NAQEhdKFtOSDJdKS9DKEYpPVtDSF1cQyhbQ0gyXVtDSDJdMSk9W0NIXWMoYzJbT0hdKWMxW2NIXWMoYzIzKVtDQEBIXShbT0hdKVtDSDJdW0NAXShPTzMpKFtPSF0pW0NASF0oW0NIXT1bQ0gyXSlbQ0gyXVtDSDJdQyg9TylbT0hd

>  <s_glide_docking_method>  (1) 
confgen

>  <s_i_glide_gridfile>  (1) 
gpcr_5ht2c_6bqh_protein_autoprepared_prepared

>  <s_lp_Force_Field>  (1) 
S-OPLS

>  <s_lp_Variant>  (1) 
DiffSBDD_25_num_sample_100-2

>  <s_m_source_file>  (1) 
generated__ligand_DiffSBDD_2026-05-06_prepared.sdf

>  <GenAI_Model>  (1) 
DiffSBDD

>  <Protein>  (1) 
GPCR_5HT2C

$$$$
DiffSBDD_39_num_sample_100
     RDKit          3D

  0  0  0  0  0  0  0  0  0  0999 V3000
M  V30 BEGIN CTAB
M  V30 COUNTS 61 64 0 0 1
M  V30 BEGIN ATOM
M  V30 1 C 40.275246 31.266435 64.214624 0
M  V30 2 C 37.199885 30.065344 59.378504 0
M  V30 3 C 37.018757 34.515100 61.435593 0
M  V30 4 C 37.343395 31.602653 59.346038 0
M  V30 5 C 38.991440 31.890777 62.113519 0
M  V30 6 C 38.096019 29.793593 57.010581 0
M  V30 7 N 38.357115 27.188633 54.196551 0
M  V30 8 O 36.672597 35.699798 61.238496 0 CHG=-1
M  V30 9 C 38.357240 29.078225 55.716092 0
M  V30 10 C 40.928252 33.360927 63.103028 0
M  V30 11 O 36.267421 33.606484 61.852160 0
M  V30 12 C 41.898195 33.565718 64.105856 0
M  V30 13 C 42.059830 32.638676 65.146294 0
M  V30 14 N 38.847377 32.751250 61.070390 0
M  V30 15 C 41.435718 30.477817 66.331517 0
M  V30 16 C 39.421786 35.000936 62.034141 0
M  V30 17 C 39.113862 27.262725 51.872844 0
M  V30 18 C 38.742691 32.139343 59.723941 0
M  V30 19 C 43.808214 29.768874 65.650990 0
M  V30 20 C 38.951070 29.910441 54.605651 0
M  V30 21 C 38.495293 34.193991 61.140146 0 CFG=2
M  V30 22 C 39.809039 28.365193 50.998485 0
M  V30 23 O 44.823979 30.466681 65.437197 0 CHG=-1
M  V30 24 C 40.086623 32.191113 63.156238 0
M  V30 25 S 39.867408 29.983192 51.902885 0
M  V30 26 C 39.191183 29.228594 53.307431 0
M  V30 27 O 39.226301 31.100901 54.764012 0
M  V30 28 C 41.255532 31.487613 65.200538 0
M  V30 29 Cl 37.467855 26.636679 56.614260 0
M  V30 30 C 42.888880 30.213060 66.791676 0
M  V30 31 C 38.101523 27.738602 55.440788 0
M  V30 32 C 37.448206 29.292620 58.090767 0
M  V30 33 C 40.799832 34.391375 62.010609 0
M  V30 34 O 38.307698 30.871949 62.225819 0
M  V30 35 C 38.883646 27.953437 53.183467 0
M  V30 36 O 43.477263 28.740836 65.020120 0
M  V30 37 H 39.657725 30.380422 64.268965 0
M  V30 38 H 36.166064 29.847640 59.646681 0
M  V30 39 H 37.806859 29.621302 60.164156 0
M  V30 40 H 37.067002 31.983672 58.364813 0
M  V30 41 H 36.592649 32.019277 60.012888 0
M  V30 42 H 38.453649 30.810394 57.084882 0
M  V30 43 H 42.524556 34.444418 64.073776 0
M  V30 44 H 42.807779 32.811043 65.904877 0
M  V30 45 H 40.853466 30.832588 67.181939 0
M  V30 46 H 40.988089 29.527697 66.032276 0
M  V30 47 H 39.061231 35.082531 63.057855 0
M  V30 48 H 39.467558 36.022481 61.651379 0
M  V30 49 H 39.738731 26.378516 51.993953 0
M  V30 50 H 38.161285 26.964102 51.434520 0
M  V30 51 H 39.458094 31.321046 59.645889 0
M  V30 52 H 39.061757 32.856742 58.967217 0
M  V30 53 H 38.658079 34.603007 60.144028 0
M  V30 54 H 39.318311 28.482513 50.032161 0
M  V30 55 H 40.829181 28.047894 50.811335 0
M  V30 56 H 43.311455 31.100831 67.262394 0
M  V30 57 H 42.895595 29.438718 67.558337 0
M  V30 58 H 37.064550 28.311382 58.091518 0
M  V30 59 H 41.521678 35.187885 62.188513 0
M  V30 60 H 41.076085 33.966581 61.053510 0
M  V30 61 H 38.151365 26.214269 54.031879 0
M  V30 END ATOM
M  V30 BEGIN BOND
M  V30 1 1 4 2
M  V30 2 1 8 3
M  V30 3 1 9 6
M  V30 4 2 11 3
M  V30 5 1 12 10
M  V30 6 2 13 12
M  V30 7 1 14 5
M  V30 8 1 18 4
M  V30 9 1 18 14
M  V30 10 1 20 9
M  V30 11 1 21 3
M  V30 12 1 21 14
M  V30 13 1 21 16
M  V30 14 1 22 17
M  V30 15 1 23 19
M  V30 16 1 24 1
M  V30 17 1 24 5
M  V30 18 2 24 10
M  V30 19 1 25 22
M  V30 20 1 26 20
M  V30 21 1 26 25
M  V30 22 2 27 20
M  V30 23 2 28 1
M  V30 24 1 28 13
M  V30 25 1 28 15
M  V30 26 1 30 15
M  V30 27 1 30 19
M  V30 28 1 31 7
M  V30 29 2 31 9
M  V30 30 1 31 29
M  V30 31 1 32 2
M  V30 32 2 32 6
M  V30 33 1 33 10
M  V30 34 1 33 16
M  V30 35 2 34 5
M  V30 36 1 35 7
M  V30 37 1 35 17
M  V30 38 2 35 26
M  V30 39 2 36 19
M  V30 40 1 37 1
M  V30 41 1 38 2
M  V30 42 1 39 2
M  V30 43 1 40 4
M  V30 44 1 41 4
M  V30 45 1 42 6
M  V30 46 1 43 12
M  V30 47 1 44 13
M  V30 48 1 45 15
M  V30 49 1 46 15
M  V30 50 1 47 16
M  V30 51 1 48 16
M  V30 52 1 49 17
M  V30 53 1 50 17
M  V30 54 1 51 18
M  V30 55 1 52 18
M  V30 56 1 21 53 CFG=3
M  V30 57 1 54 22
M  V30 58 1 55 22
M  V30 59 1 56 30
M  V30 60 1 57 30
M  V30 61 1 58 32
M  V30 62 1 59 33
M  V30 63 1 60 33
M  V30 64 1 61 7
M  V30 END BOND
M  V30 END CTAB
M  END
>  <i_epik_Tot_Q>  (1) 
-2

>  <i_epik_Tot_abs_Q>  (1) 
2

>  <i_i_glide_confnum>  (1) 
110

>  <i_i_glide_lignum>  (1) 
98

>  <i_i_glide_posenum>  (1) 
150

>  <i_i_glide_rotatable_bonds>  (1) 
9

>  <i_lp_mmshare_version>  (1) 
72125

>  <i_m_source_file_index>  (1) 
40

>  <i_f3d_flags>  (1) 
0

>  <num_sample>  (1) 
100

>  <b_lp_Chiralities_Consistent>  (1) 
1

>  <r_epik_Charging_Adjusted_Penalty>  (1) 
2.4833595310622814

>  <r_epik_Ionization_Penalty>  (1) 
1.1966221344959846

>  <r_epik_Ionization_Penalty_Charging>  (1) 
1.1966221333468745

>  <r_epik_Ionization_Penalty_Neutral>  (1) 
1.1491101627543943e-09

>  <r_epik_State_Penalty>  (1) 
1.2867373977154066

>  <r_glide_ring_energy>  (1) 
0

>  <r_i_docking_score>  (1) 
-5.2796450595192841

>  <r_i_glide_ecoul>  (1) 
0.17311124319058302

>  <r_i_glide_eff_state_penalty>  (1) 
1.2867373977154066

>  <r_i_glide_einternal>  (1) 
22.750621807773538

>  <r_i_glide_emodel>  (1) 
-47.848628453651187

>  <r_i_glide_emodel_strain>  (1) 
1.7759463181639603

>  <r_i_glide_energy>  (1) 
-44.059456546765063

>  <r_i_glide_erotb>  (1) 
0.44176053004123106

>  <r_i_glide_esite>  (1) 
0

>  <r_i_glide_evdw>  (1) 
-44.232567789955645

>  <r_i_glide_gscore>  (1) 
-6.5663824572346909

>  <r_i_glide_gscore_strain>  (1) 
0

>  <r_i_glide_hbond>  (1) 
-0.064722083696574673

>  <r_i_glide_ligand_efficiency>  (1) 
-0.14665680720886901

>  <r_i_glide_ligand_efficiency_ln>  (1) 
-1.151875912461628

>  <r_i_glide_ligand_efficiency_sa>  (1) 
-0.4842501079588506

>  <r_i_glide_lipo>  (1) 
-3.6883861911208178

>  <r_i_glide_metal>  (1) 
-0

>  <r_i_glide_rewards>  (1) 
-1.0693730094393343

>  <r_lp_Energy>  (1) 
53.030488999999996

>  <s_epik_cmdline>  (1) 
J2VwaWtfcHl0aG9uJywgJy1waHQnLCAnMS4wJywgJy1waCcsICc3LjQnLCAnLXRuJywgJzgnLCAnLW1hJywgJzUwMCcsICctaW1hZScsICc8aW5maWxlLm1hZT4nLCAnLW9tYWUnLCAnPG91dGZpbGUubWFlPic=

>  <s_epik_input>  (1) 
W09IXUMoPU8pW0NIMl1bQ0gyXWMoW2NIXVtjSF0xKVtjSF1jKGMxMilDKD1PKU4oW0NAQEhdKEMoPU8pW09IXSlbQ0gyXVtDSDJdMilbQ0gyXVtDSDJdW0NIMl1cW0NIXT1bQ0hdXGMoYzNbT0hdKWMoQ2wpbmMoYzM0KVtDSDJdW0NIMl1TNA==

>  <s_glide_docking_method>  (1) 
confgen

>  <s_i_glide_gridfile>  (1) 
gpcr_5ht2c_6bqh_protein_autoprepared_prepared

>  <s_lp_Force_Field>  (1) 
S-OPLS

>  <s_lp_Variant>  (1) 
DiffSBDD_39_num_sample_100-5

>  <s_m_source_file>  (1) 
generated__ligand_DiffSBDD_2026-05-06_prepared.sdf

>  <GenAI_Model>  (1) 
DiffSBDD

>  <Protein>  (1) 
GPCR_5HT2C

$$$$
DiffSBDD_79_num_sample_100
     RDKit          3D

  0  0  0  0  0  0  0  0  0  0999 V3000
M  V30 BEGIN CTAB
M  V30 COUNTS 84 86 0 0 1
M  V30 BEGIN ATOM
M  V30 1 C 37.173478 35.161343 60.197557 0
M  V30 2 C 39.514824 32.476065 62.442029 0
M  V30 3 C 38.957979 30.518284 53.787063 0
M  V30 4 C 42.234368 30.125984 69.382818 0
M  V30 5 C 36.965544 33.621405 58.316640 0
M  V30 6 C 38.986127 28.335986 52.628165 0
M  V30 7 C 36.967170 33.685537 59.841237 0
M  V30 8 C 39.396178 30.106045 58.365911 0
M  V30 9 F 39.397827 27.120581 52.991990 0
M  V30 10 C 42.869304 31.526815 69.442192 0
M  V30 11 C 38.048435 32.831846 62.136263 0
M  V30 12 C 38.227494 28.964347 56.364338 0
M  V30 13 F 37.871447 28.192271 51.915722 0
M  V30 14 C 38.698981 29.203967 53.850982 0
M  V30 15 C 39.117283 31.265101 56.193750 0
M  V30 16 C 40.848464 30.985779 63.750934 0
M  V30 17 C 43.899040 28.815948 68.122454 0
M  V30 18 N 42.650708 29.356683 68.198073 0
M  V30 19 C 35.940981 32.869912 60.586775 0
M  V30 20 C 38.909451 30.151653 56.914394 0
M  V30 21 C 41.639717 29.173505 67.136389 0
M  V30 22 C 39.579609 30.150818 61.816815 0 CFG=2
M  V30 23 C 37.427424 32.515135 60.775515 0
M  V30 24 C 34.984240 31.946450 59.871623 0
M  V30 25 O 38.310377 30.183879 61.209545 0
M  V30 26 O 44.737610 28.955301 69.013704 0
M  V30 27 C 39.859320 28.660901 62.059683 0
M  V30 28 C 35.090745 33.491375 61.674396 0
M  V30 29 C 44.248963 28.001155 66.872310 0
M  V30 30 N 39.645451 31.094452 62.915343 0
M  V30 31 F 39.912779 28.871942 51.832253 0
M  V30 32 C 38.137655 28.559303 55.055453 0
M  V30 33 C 41.738050 30.232022 66.019640 0
M  V30 34 C 38.629892 31.510148 54.826111 0
M  V30 35 C 40.598229 30.112664 64.993649 0
M  V30 36 C 39.067345 31.363307 59.224200 0
M  V30 37 C 37.951947 31.167506 60.225458 0 CFG=2
M  V30 38 H 36.542169 35.794801 59.572644 0
M  V30 39 H 36.929497 35.409883 61.227266 0
M  V30 40 H 38.210393 35.444553 60.024769 0
M  V30 41 H 39.798831 33.151981 63.249181 0
M  V30 42 H 40.198311 32.716552 61.629739 0
M  V30 43 H 39.369831 30.925886 52.873350 0
M  V30 44 H 41.150520 30.224961 69.423526 0
M  V30 45 H 42.498718 29.567381 70.281737 0
M  V30 46 H 36.032240 34.022757 57.928161 0
M  V30 47 H 37.787494 34.201438 57.899437 0
M  V30 48 H 37.067113 32.606000 57.939990 0
M  V30 49 H 39.013483 29.206762 58.850628 0
M  V30 50 H 40.473248 29.969138 58.320991 0
M  V30 51 H 42.552342 32.048996 70.344398 0
M  V30 52 H 43.958500 31.479633 69.465114 0
M  V30 53 H 42.577115 32.134981 68.587054 0
M  V30 54 H 37.406468 32.403293 62.895823 0
M  V30 55 H 38.007680 33.907211 62.253452 0
M  V30 56 H 37.792255 28.294214 57.090573 0
M  V30 57 H 39.631142 32.093903 56.651573 0
M  V30 58 H 41.690065 30.609643 63.167764 0
M  V30 59 H 41.165930 31.963210 64.116005 0
M  V30 60 H 40.642645 29.222815 67.574675 0
M  V30 61 H 41.680557 28.171578 66.710251 0
M  V30 62 H 40.383526 30.405455 61.136278 0
M  V30 63 H 34.118963 32.485006 59.485832 0
M  V30 64 H 35.421619 31.403229 59.053664 0
M  V30 65 H 34.667404 31.221760 60.607372 0
M  V30 66 H 40.828254 28.506768 62.532002 0
M  V30 67 H 39.077760 28.208747 62.653500 0
M  V30 68 H 39.872163 28.138693 61.103789 0
M  V30 69 H 34.283700 34.021238 61.187305 0
M  V30 70 H 34.611629 32.710467 62.253511 0
M  V30 71 H 35.627002 34.161355 62.341965 0
M  V30 72 H 44.117311 28.566878 65.952848 0
M  V30 73 H 45.299747 27.711174 66.910166 0
M  V30 74 H 43.662752 27.083945 66.824339 0
M  V30 75 H 37.643001 27.613432 54.893007 0
M  V30 76 H 42.691777 30.148784 65.501641 0
M  V30 77 H 41.719536 31.231138 66.456076 0
M  V30 78 H 37.550497 31.671071 54.851849 0
M  V30 79 H 39.057970 32.455193 54.500295 0
M  V30 80 H 39.661137 30.405280 65.468507 0
M  V30 81 H 40.473473 29.071096 64.702097 0
M  V30 82 H 39.866905 31.719814 59.853494 0
M  V30 83 H 38.959317 32.236933 58.605743 0
M  V30 84 H 37.168237 30.659994 59.682145 0
M  V30 END ATOM
M  V30 BEGIN BOND
M  V30 1 1 7 1
M  V30 2 1 7 5
M  V30 3 1 9 6
M  V30 4 1 10 4
M  V30 5 1 11 2
M  V30 6 1 13 6
M  V30 7 2 14 3
M  V30 8 1 14 6
M  V30 9 1 18 4
M  V30 10 1 18 17
M  V30 11 1 19 7
M  V30 12 1 20 8
M  V30 13 1 20 12
M  V30 14 2 20 15
M  V30 15 1 21 18
M  V30 16 1 23 7
M  V30 17 1 23 11
M  V30 18 1 23 19
M  V30 19 1 24 19
M  V30 20 1 25 22
M  V30 21 2 26 17
M  V30 22 1 27 22
M  V30 23 1 28 19
M  V30 24 1 29 17
M  V30 25 1 30 2
M  V30 26 1 30 16
M  V30 27 1 30 22
M  V30 28 1 31 6
M  V30 29 2 32 12
M  V30 30 1 32 14
M  V30 31 1 33 21
M  V30 32 1 34 3
M  V30 33 1 34 15
M  V30 34 1 35 16
M  V30 35 1 35 33
M  V30 36 1 36 8
M  V30 37 1 37 23
M  V30 38 1 37 25
M  V30 39 1 37 36
M  V30 40 1 38 1
M  V30 41 1 39 1
M  V30 42 1 40 1
M  V30 43 1 41 2
M  V30 44 1 42 2
M  V30 45 1 43 3
M  V30 46 1 44 4
M  V30 47 1 45 4
M  V30 48 1 46 5
M  V30 49 1 47 5
M  V30 50 1 48 5
M  V30 51 1 49 8
M  V30 52 1 50 8
M  V30 53 1 51 10
M  V30 54 1 52 10
M  V30 55 1 53 10
M  V30 56 1 54 11
M  V30 57 1 55 11
M  V30 58 1 56 12
M  V30 59 1 57 15
M  V30 60 1 58 16
M  V30 61 1 59 16
M  V30 62 1 60 21
M  V30 63 1 61 21
M  V30 64 1 22 62 CFG=3
M  V30 65 1 63 24
M  V30 66 1 64 24
M  V30 67 1 65 24
M  V30 68 1 66 27
M  V30 69 1 67 27
M  V30 70 1 68 27
M  V30 71 1 69 28
M  V30 72 1 70 28
M  V30 73 1 71 28
M  V30 74 1 72 29
M  V30 75 1 73 29
M  V30 76 1 74 29
M  V30 77 1 75 32
M  V30 78 1 76 33
M  V30 79 1 77 33
M  V30 80 1 78 34
M  V30 81 1 79 34
M  V30 82 1 80 35
M  V30 83 1 81 35
M  V30 84 1 82 36
M  V30 85 1 83 36
M  V30 86 1 37 84 CFG=3
M  V30 END BOND
M  V30 END CTAB
M  END
>  <i_epik_Tot_Q>  (1) 
0

>  <i_epik_Tot_abs_Q>  (1) 
0

>  <i_i_glide_confnum>  (1) 
1099

>  <i_i_glide_lignum>  (1) 
200

>  <i_i_glide_posenum>  (1) 
94

>  <i_i_glide_rotatable_bonds>  (1) 
11

>  <i_lp_mmshare_version>  (1) 
72125

>  <i_m_source_file_index>  (1) 
80

>  <i_f3d_flags>  (1) 
0

>  <num_sample>  (1) 
100

>  <b_lp_Chiralities_Consistent>  (1) 
1

>  <r_epik_Charging_Adjusted_Penalty>  (1) 
0.2050768058510691

>  <r_epik_Ionization_Penalty>  (1) 
0.20507783400789523

>  <r_epik_Ionization_Penalty_Charging>  (1) 
0

>  <r_epik_Ionization_Penalty_Neutral>  (1) 
0.20507783400789523

>  <r_epik_State_Penalty>  (1) 
0.2050768058510691

>  <r_glide_ring_energy>  (1) 
0

>  <r_i_docking_score>  (1) 
-5.2790367017385371

>  <r_i_glide_ecoul>  (1) 
-0.78174249637354065

>  <r_i_glide_eff_state_penalty>  (1) 
0.2050768058510691

>  <r_i_glide_einternal>  (1) 
203.16523998426271

>  <r_i_glide_emodel>  (1) 
60.237145166176923

>  <r_i_glide_emodel_strain>  (1) 
1.4574847201470504

>  <r_i_glide_energy>  (1) 
-32.20982035570141

>  <r_i_glide_erotb>  (1) 
0.59792730839384334

>  <r_i_glide_esite>  (1) 
-0.00074919601994612509

>  <r_i_glide_evdw>  (1) 
-31.428077859327871

>  <r_i_glide_gscore>  (1) 
-5.4841135075896066

>  <r_i_glide_gscore_strain>  (1) 
0

>  <r_i_glide_hbond>  (1) 
0

>  <r_i_glide_ligand_efficiency>  (1) 
-0.14267666761455505

>  <r_i_glide_ligand_efficiency_ln>  (1) 
-1.1448993024278689

>  <r_i_glide_ligand_efficiency_sa>  (1) 
-0.47543030954524695

>  <r_i_glide_lipo>  (1) 
-2.0392523330884256

>  <r_i_glide_metal>  (1) 
-0

>  <r_i_glide_rewards>  (1) 
-2.3533740194526529

>  <r_lp_Energy>  (1) 
53.665700999999999

>  <s_epik_Chemistry_Notes>  (1) 
This compound contains an acetal/aminal-like group ( X-CH(R)-Y where X, Y are N, S, or O) that may be acid/base labile, releasing an aldehyde.

>  <s_epik_cmdline>  (1) 
J2VwaWtfcHl0aG9uJywgJy1waHQnLCAnMS4wJywgJy1waCcsICc3LjQnLCAnLXRuJywgJzgnLCAnLW1hJywgJzUwMCcsICctaW1hZScsICc8aW5maWxlLm1hZT4nLCAnLW9tYWUnLCAnPG91dGZpbGUubWFlPic=

>  <s_epik_input>  (1) 
W0NIM11bQ0gyXU4oQyg9TylbQ0gzXSlbQ0gyXVtDSDJdW0NIMl1bQ0gyXU4oW0NIMl1bQ0gyXUMxMkMoW0NIM10pKFtDSDNdKUMxKFtDSDNdKVtDSDNdKVtDQEBIXShbQ0gzXSlPW0NASF0yW0NIMl1bQ0gyXUMoW0NIXT1bQ0hdMyk9W0NIXVtDSDJdW0NIXT1DM0MoRikoRilG

>  <s_glide_docking_method>  (1) 
confgen

>  <s_i_glide_gridfile>  (1) 
gpcr_5ht2c_6bqh_protein_autoprepared_prepared

>  <s_lp_Force_Field>  (1) 
S-OPLS

>  <s_lp_Variant>  (1) 
DiffSBDD_79_num_sample_100-2

>  <s_m_source_file>  (1) 
generated__ligand_DiffSBDD_2026-05-06_prepared.sdf

>  <GenAI_Model>  (1) 
DiffSBDD

>  <Protein>  (1) 
GPCR_5HT2C

$$$$
DiffSBDD_90_num_sample_100
     RDKit          3D

  0  0  0  0  0  0  0  0  0  0999 V3000
M  V30 BEGIN CTAB
M  V30 COUNTS 85 88 0 0 1
M  V30 BEGIN ATOM
M  V30 1 C 39.302000 33.435968 59.421188 0
M  V30 2 O 39.443097 29.216877 51.319263 0
M  V30 3 F 43.190042 33.517037 67.027593 0
M  V30 4 C 39.343087 36.009600 61.862306 0 CFG=1
M  V30 5 C 38.257451 27.301759 54.239321 0 CFG=2
M  V30 6 C 38.897054 29.074780 55.804010 0 CFG=1
M  V30 7 C 37.502830 39.152884 61.002517 0
M  V30 8 C 38.086021 30.176834 57.939502 0
M  V30 9 C 38.017953 36.840473 61.694672 0
M  V30 10 N 38.409514 28.821366 52.258840 0
M  V30 11 C 41.888031 32.303108 65.506332 0
M  V30 12 C 37.159883 36.237582 60.550896 0
M  V30 13 C 37.782083 28.127127 55.416653 0
M  V30 14 C 39.467364 29.465101 54.426090 0
M  V30 15 O 40.267434 26.189805 54.905125 0
M  V30 16 N 39.277330 32.194718 60.253540 0 CFG=1 CHG=1
M  V30 17 C 38.282038 30.208767 56.602601 0
M  V30 18 F 41.118372 34.076120 66.831200 0
M  V30 19 C 41.503572 34.839924 64.032379 0 CFG=2
M  V30 20 N 39.817895 32.281313 61.661065 0
M  V30 21 C 40.844053 32.421325 64.381475 0
M  V30 22 C 37.963580 31.494778 60.192201 0
M  V30 23 O 38.461659 38.150056 61.318924 0
M  V30 24 C 37.184142 36.968049 62.990407 0
M  V30 25 C 38.877526 33.157159 57.987868 0
M  V30 26 C 42.587830 34.714219 65.106902 0
M  V30 27 C 37.432350 31.309189 58.742434 0 CFG=1
M  V30 28 C 39.104394 28.308327 53.434971 0 CFG=1
M  V30 29 C 40.392782 36.755051 62.720099 0
M  V30 30 O 38.353433 25.061115 55.053647 0 CHG=-1
M  V30 31 C 40.304736 33.597571 62.099025 0 CFG=1
M  V30 32 C 37.467379 32.671959 58.029006 0
M  V30 33 O 37.172697 26.797752 53.499793 0
M  V30 34 C 39.134765 34.566510 62.376113 0
M  V30 35 C 41.262357 33.473684 63.324264 0 CFG=1
M  V30 36 C 41.700905 36.007414 63.039964 0
M  V30 37 C 42.192487 33.661567 66.157015 0
M  V30 38 C 39.031028 26.078934 54.777939 0
M  V30 39 H 40.267403 33.912723 59.386890 0
M  V30 40 H 38.617400 34.163039 59.834047 0
M  V30 41 H 39.213844 30.114862 51.131250 0
M  V30 42 H 39.777396 35.936482 60.865049 0
M  V30 43 H 39.648533 28.546434 56.393348 0
M  V30 44 H 37.968883 39.912947 60.375705 0
M  V30 45 H 36.667390 38.740688 60.468176 0
M  V30 46 H 37.067392 39.659886 61.853485 0
M  V30 47 H 38.390051 29.303424 58.498237 0
M  V30 48 H 37.931179 28.067383 51.777240 0
M  V30 49 H 42.809482 31.890808 65.094073 0
M  V30 50 H 41.544729 31.593917 66.260404 0
M  V30 51 H 36.871681 35.206795 60.745067 0
M  V30 52 H 36.217332 36.751873 60.399398 0
M  V30 53 H 37.694354 36.272248 59.601502 0
M  V30 54 H 37.467422 27.522154 56.267344 0
M  V30 55 H 36.963373 28.749307 55.053492 0
M  V30 56 H 40.533137 29.657111 54.509994 0
M  V30 57 H 39.021083 30.399660 54.085789 0
M  V30 58 H 37.980245 31.075961 56.037306 0
M  V30 59 H 40.640280 35.102681 64.639990 0
M  V30 60 H 40.598251 31.644706 61.583874 0
M  V30 61 H 40.729428 31.436325 63.930496 0
M  V30 62 H 39.872807 32.679630 64.803052 0
M  V30 63 H 37.239105 32.074734 60.767364 0
M  V30 64 H 38.038685 30.525953 60.689150 0
M  V30 65 H 36.744338 36.021430 63.282336 0
M  V30 66 H 37.770746 37.332062 63.831756 0
M  V30 67 H 36.342849 37.649427 62.866107 0
M  V30 68 H 39.523642 32.446450 57.481527 0
M  V30 69 H 38.858348 34.021431 57.354221 0
M  V30 70 H 43.527973 34.424421 64.653503 0
M  V30 71 H 42.733441 35.681225 65.591374 0
M  V30 72 H 36.388672 31.003393 58.832371 0
M  V30 73 H 39.935603 27.738674 53.043175 0
M  V30 74 H 40.667405 37.621470 62.140373 0
M  V30 75 H 39.961177 37.132022 63.647259 0
M  V30 76 H 40.930691 34.004751 61.310671 0
M  V30 77 H 37.083288 32.697825 57.013930 0
M  V30 78 H 36.834168 33.382160 58.563337 0
M  V30 79 H 37.035790 25.929081 53.863762 0
M  V30 80 H 38.193579 34.140458 62.039100 0
M  V30 81 H 39.067412 34.645385 63.445793 0
M  V30 82 H 42.220764 33.143732 62.919604 0
M  V30 83 H 42.152814 35.680142 62.108808 0
M  V30 84 H 42.405944 36.723300 63.453537 0
M  V30 85 H 39.908943 31.556300 59.794667 0
M  V30 END ATOM
M  V30 BEGIN BOND
M  V30 1 1 9 4
M  V30 2 1 10 2
M  V30 3 1 12 9
M  V30 4 1 13 5
M  V30 5 1 13 6
M  V30 6 1 14 6
M  V30 7 1 16 1
M  V30 8 1 17 6
M  V30 9 2 17 8
M  V30 10 1 20 16
M  V30 11 1 21 11
M  V30 12 1 22 16
M  V30 13 1 23 7
M  V30 14 1 23 9
M  V30 15 1 24 9
M  V30 16 1 25 1
M  V30 17 1 26 19
M  V30 18 1 27 8
M  V30 19 1 27 22
M  V30 20 1 28 5
M  V30 21 1 28 10
M  V30 22 1 28 14
M  V30 23 1 29 4
M  V30 24 1 31 20
M  V30 25 1 32 25
M  V30 26 1 32 27
M  V30 27 1 5 33 CFG=3
M  V30 28 1 34 4
M  V30 29 1 34 31
M  V30 30 1 35 19
M  V30 31 1 35 21
M  V30 32 1 35 31
M  V30 33 1 36 19
M  V30 34 1 36 29
M  V30 35 1 37 3
M  V30 36 1 37 11
M  V30 37 1 37 18
M  V30 38 1 37 26
M  V30 39 1 38 5
M  V30 40 2 38 15
M  V30 41 1 38 30
M  V30 42 1 39 1
M  V30 43 1 40 1
M  V30 44 1 41 2
M  V30 45 1 4 42 CFG=3
M  V30 46 1 6 43 CFG=1
M  V30 47 1 44 7
M  V30 48 1 45 7
M  V30 49 1 46 7
M  V30 50 1 47 8
M  V30 51 1 48 10
M  V30 52 1 49 11
M  V30 53 1 50 11
M  V30 54 1 51 12
M  V30 55 1 52 12
M  V30 56 1 53 12
M  V30 57 1 54 13
M  V30 58 1 55 13
M  V30 59 1 56 14
M  V30 60 1 57 14
M  V30 61 1 58 17
M  V30 62 1 19 59 CFG=1
M  V30 63 1 60 20
M  V30 64 1 61 21
M  V30 65 1 62 21
M  V30 66 1 63 22
M  V30 67 1 64 22
M  V30 68 1 65 24
M  V30 69 1 66 24
M  V30 70 1 67 24
M  V30 71 1 68 25
M  V30 72 1 69 25
M  V30 73 1 70 26
M  V30 74 1 71 26
M  V30 75 1 27 72 CFG=1
M  V30 76 1 28 73 CFG=3
M  V30 77 1 74 29
M  V30 78 1 75 29
M  V30 79 1 31 76 CFG=3
M  V30 80 1 77 32
M  V30 81 1 78 32
M  V30 82 1 79 33
M  V30 83 1 80 34
M  V30 84 1 81 34
M  V30 85 1 35 82 CFG=3
M  V30 86 1 83 36
M  V30 87 1 84 36
M  V30 88 1 16 85 CFG=3
M  V30 END BOND
M  V30 END CTAB
M  END
>  <i_epik_Tot_Q>  (1) 
0

>  <i_epik_Tot_abs_Q>  (1) 
2

>  <i_i_glide_confnum>  (1) 
291

>  <i_i_glide_lignum>  (1) 
239

>  <i_i_glide_posenum>  (1) 
231

>  <i_i_glide_rotatable_bonds>  (1) 
10

>  <i_lp_mmshare_version>  (1) 
72125

>  <i_m_source_file_index>  (1) 
91

>  <i_f3d_flags>  (1) 
0

>  <num_sample>  (1) 
100

>  <b_lp_Chiralities_Consistent>  (1) 
1

>  <r_epik_Charging_Adjusted_Penalty>  (1) 
1.5083745474312953

>  <r_epik_Ionization_Penalty>  (1) 
0.65750586125956467

>  <r_epik_Ionization_Penalty_Charging>  (1) 
0.6544614066189578

>  <r_epik_Ionization_Penalty_Neutral>  (1) 
0.0030444546406068235

>  <r_epik_State_Penalty>  (1) 
0.8539131408123376

>  <r_glide_ring_energy>  (1) 
0.52270073413302542

>  <r_i_docking_score>  (1) 
-5.2775253127793436

>  <r_i_glide_ecoul>  (1) 
0.11108729811638463

>  <r_i_glide_eff_state_penalty>  (1) 
0.8539131408123376

>  <r_i_glide_einternal>  (1) 
25.082135925085527

>  <r_i_glide_emodel>  (1) 
-13.606955946982026

>  <r_i_glide_emodel_strain>  (1) 
3.6953701847442773

>  <r_i_glide_energy>  (1) 
-25.343754497528465

>  <r_i_glide_erotb>  (1) 
0.42002339013477186

>  <r_i_glide_esite>  (1) 
0

>  <r_i_glide_evdw>  (1) 
-25.45484179564485

>  <r_i_glide_gscore>  (1) 
-6.1314384535916808

>  <r_i_glide_gscore_strain>  (1) 
0

>  <r_i_glide_hbond>  (1) 
0

>  <r_i_glide_ligand_efficiency>  (1) 
-0.13888224507314062

>  <r_i_glide_ligand_efficiency_ln>  (1) 
-1.1379897065008306

>  <r_i_glide_ligand_efficiency_sa>  (1) 
-0.46691869237692535

>  <r_i_glide_lipo>  (1) 
-3.7304275007052152

>  <r_i_glide_metal>  (1) 
-0

>  <r_i_glide_rewards>  (1) 
-1.5649553479564531

>  <r_lp_Energy>  (1) 
48.876987999999997

>  <s_epik_Chemistry_Notes>  (1) 
This compound has a N-S or N-O group and may undergo hydrolysis at high or low pH.

>  <s_epik_cmdline>  (1) 
J2VwaWtfcHl0aG9uJywgJy1waHQnLCAnMS4wJywgJy1waCcsICc3LjQnLCAnLXRuJywgJzgnLCAnLW1hJywgJzUwMCcsICctaW1hZScsICc8aW5maWxlLm1hZT4nLCAnLW9tYWUnLCAnPG91dGZpbGUubWFlPic=

>  <s_epik_input>  (1) 
RkMoRikoW0NIMl0xKVtDSDJdW0NIMl1bQ0BIXShbQ0BASF0xMilbQ0BIXShbQ0gyXVtDQEhdKFtDSDJdW0NIMl0yKUMoW0NIM10pKFtDSDNdKU9bQ0gzXSlbTkhdTjNbQ0gyXVtDSDJdW0NIMl1bQ0BIXShbQ0gyXTMpL1tDSF09W0NIXS9bQ0BASF0oW0NIMl1bQ0BdNChbT0hdKUMoPU8pW09IXSlbQ0gyXVtDQEBIXTRbTkhdW09IXQ==

>  <s_glide_docking_method>  (1) 
confgen

>  <s_i_glide_gridfile>  (1) 
gpcr_5ht2c_6bqh_protein_autoprepared_prepared

>  <s_lp_Force_Field>  (1) 
S-OPLS

>  <s_lp_Variant>  (1) 
DiffSBDD_90_num_sample_100-11

>  <s_m_source_file>  (1) 
generated__ligand_DiffSBDD_2026-05-06_prepared.sdf

>  <GenAI_Model>  (1) 
DiffSBDD

>  <Protein>  (1) 
GPCR_5HT2C

$$$$
DiffSBDD_29_num_sample_100
     RDKit          3D

  0  0  0  0  0  0  0  0  0  0999 V3000
M  V30 BEGIN CTAB
M  V30 COUNTS 86 90 0 0 1
M  V30 BEGIN ATOM
M  V30 1 F 41.113912 31.353535 63.736830 0
M  V30 2 C 35.350762 33.063812 59.674246 0
M  V30 3 C 39.197662 32.885945 62.150066 0
M  V30 4 C 39.158515 28.199172 57.043533 0 CFG=2
M  V30 5 C 39.067421 30.670168 53.515124 0
M  V30 6 C 40.063038 29.397504 56.817371 0
M  V30 7 C 41.858992 33.372360 64.544836 0
M  V30 8 N 36.768211 32.666759 59.723844 0
M  V30 9 C 38.664302 25.880793 55.784206 0 CFG=1
M  V30 10 C 39.251692 28.664346 51.160846 0
M  V30 11 C 37.956545 30.479955 60.441204 0
M  V30 12 C 38.259076 28.668699 52.297770 0 CFG=1
M  V30 13 C 41.101104 32.695816 63.737444 0
M  V30 14 C 36.811091 30.096397 59.530349 0 CFG=2
M  V30 15 C 36.128205 35.464845 59.355987 0
M  V30 16 C 37.220155 25.111394 57.783899 0
M  V30 17 C 38.969713 27.426317 55.680761 0 CFG=1
M  V30 18 C 37.190397 29.886933 58.058927 0 CFG=1
M  V30 19 C 40.403782 34.904026 63.123783 0
M  V30 20 N 37.467555 34.889645 59.471259 0 CHG=1
M  V30 21 N 40.300822 33.432314 62.937091 0
M  V30 22 F 42.701229 32.813957 65.429578 0
M  V30 23 S 37.866974 27.158095 53.127035 0
M  V30 24 C 37.529272 33.737867 60.389706 0 CFG=2
M  V30 25 C 35.176794 34.368105 58.885549 0
M  V30 26 C 36.699548 24.280749 55.451876 0
M  V30 27 O 37.867409 31.012951 57.545983 0
M  V30 28 C 38.147284 28.211044 54.594066 0 CFG=2
M  V30 29 C 37.878288 28.490101 57.906105 0
M  V30 30 C 39.752020 30.115254 50.954572 0
M  V30 31 C 39.867423 31.035372 52.221598 0
M  V30 32 C 39.021488 33.457825 60.724755 0
M  V30 33 O 39.684277 25.205757 56.487913 0
M  V30 34 C 38.884990 29.169135 53.584533 0 CFG=2
M  V30 35 C 36.746805 31.371096 60.383121 0 CFG=2
M  V30 36 C 37.265658 25.446564 56.280331 0
M  V30 37 O 40.004841 27.431039 57.888874 0
M  V30 38 S 41.736974 35.097067 64.482132 0
M  V30 39 H 34.763050 32.281612 59.191962 0
M  V30 40 H 34.949023 33.185637 60.681563 0
M  V30 41 H 38.280833 33.016061 62.718791 0
M  V30 42 H 39.346127 31.810744 62.091871 0
M  V30 43 H 39.611437 31.079342 54.359350 0
M  V30 44 H 38.097985 31.162491 53.518506 0
M  V30 45 H 39.613469 30.123108 56.157624 0
M  V30 46 H 40.279217 29.911518 57.754427 0
M  V30 47 H 40.986831 29.079510 56.336171 0
M  V30 48 H 38.802654 25.441027 54.799523 0
M  V30 49 H 40.099674 28.020178 51.398865 0
M  V30 50 H 38.814753 28.269110 50.244632 0
M  V30 51 H 38.100865 30.021361 61.409672 0
M  V30 52 H 38.877911 30.765720 59.942673 0
M  V30 53 H 37.341599 29.194112 52.064602 0
M  V30 54 H 36.133742 29.314595 59.853479 0
M  V30 55 H 36.144371 36.301514 58.655804 0
M  V30 56 H 35.867488 35.863853 60.328225 0
M  V30 57 H 37.551697 24.090632 57.977118 0
M  V30 58 H 37.862770 25.762581 58.371229 0
M  V30 59 H 36.210776 25.218182 58.174106 0
M  V30 60 H 39.981144 27.379707 55.276881 0
M  V30 61 H 36.265620 29.842998 57.490181 0
M  V30 62 H 40.742416 35.400767 62.215055 0
M  V30 63 H 39.460236 35.338441 63.452886 0
M  V30 64 H 37.757348 34.567339 58.558470 0
M  V30 65 H 37.021404 34.022457 61.313600 0
M  V30 66 H 35.408800 34.147731 57.853487 0
M  V30 67 H 34.140425 34.703687 58.913028 0
M  V30 68 H 37.339820 23.400051 55.516692 0
M  V30 69 H 35.704592 23.995112 55.800262 0
M  V30 70 H 36.615558 24.550262 54.398997 0
M  V30 71 H 37.177302 31.627510 57.310620 0
M  V30 72 H 37.192959 28.611986 54.936633 0
M  V30 73 H 37.090122 27.804664 57.614226 0
M  V30 74 H 38.108960 28.160063 58.921039 0
M  V30 75 H 40.708308 30.098946 50.430456 0
M  V30 76 H 39.067335 30.595938 50.254669 0
M  V30 77 H 40.914416 31.171519 52.474780 0
M  V30 78 H 39.534236 32.021407 51.917008 0
M  V30 79 H 39.498009 32.828035 59.975545 0
M  V30 80 H 39.567093 34.398022 60.655423 0
M  V30 81 H 39.974624 25.800574 57.176986 0
M  V30 82 H 39.867388 28.758687 53.597897 0
M  V30 83 H 36.135222 31.287639 61.280204 0
M  V30 84 H 36.606297 26.285728 56.091608 0
M  V30 85 H 40.294161 27.985332 58.598881 0
M  V30 86 H 38.108869 35.604323 59.786065 0
M  V30 END ATOM
M  V30 BEGIN BOND
M  V30 1 1 6 4
M  V30 2 1 8 2
M  V30 3 1 12 10
M  V30 4 1 13 1
M  V30 5 2 13 7
M  V30 6 1 14 11
M  V30 7 1 17 4
M  V30 8 1 17 9
M  V30 9 1 18 14
M  V30 10 1 20 15
M  V30 11 1 21 3
M  V30 12 1 21 13
M  V30 13 1 21 19
M  V30 14 1 22 7
M  V30 15 1 23 12
M  V30 16 1 24 8
M  V30 17 1 24 20
M  V30 18 1 25 2
M  V30 19 1 25 15
M  V30 20 1 27 18
M  V30 21 1 28 17
M  V30 22 1 28 23
M  V30 23 1 29 4
M  V30 24 1 29 18
M  V30 25 1 30 10
M  V30 26 1 31 5
M  V30 27 1 31 30
M  V30 28 1 32 3
M  V30 29 1 32 24
M  V30 30 1 33 9
M  V30 31 1 34 5
M  V30 32 1 34 12
M  V30 33 1 34 28
M  V30 34 1 35 8
M  V30 35 1 35 11
M  V30 36 1 35 14
M  V30 37 1 36 9
M  V30 38 1 36 16
M  V30 39 1 36 26
M  V30 40 1 4 37 CFG=1
M  V30 41 1 38 7
M  V30 42 1 38 19
M  V30 43 1 39 2
M  V30 44 1 40 2
M  V30 45 1 41 3
M  V30 46 1 42 3
M  V30 47 1 43 5
M  V30 48 1 44 5
M  V30 49 1 45 6
M  V30 50 1 46 6
M  V30 51 1 47 6
M  V30 52 1 9 48 CFG=3
M  V30 53 1 49 10
M  V30 54 1 50 10
M  V30 55 1 51 11
M  V30 56 1 52 11
M  V30 57 1 12 53 CFG=3
M  V30 58 1 14 54 CFG=1
M  V30 59 1 55 15
M  V30 60 1 56 15
M  V30 61 1 57 16
M  V30 62 1 58 16
M  V30 63 1 59 16
M  V30 64 1 17 60 CFG=3
M  V30 65 1 18 61 CFG=3
M  V30 66 1 62 19
M  V30 67 1 63 19
M  V30 68 1 64 20
M  V30 69 1 24 65 CFG=1
M  V30 70 1 66 25
M  V30 71 1 67 25
M  V30 72 1 68 26
M  V30 73 1 69 26
M  V30 74 1 70 26
M  V30 75 1 71 27
M  V30 76 1 28 72 CFG=1
M  V30 77 1 73 29
M  V30 78 1 74 29
M  V30 79 1 75 30
M  V30 80 1 76 30
M  V30 81 1 77 31
M  V30 82 1 78 31
M  V30 83 1 79 32
M  V30 84 1 80 32
M  V30 85 1 81 33
M  V30 86 1 34 82 CFG=3
M  V30 87 1 35 83 CFG=1
M  V30 88 1 84 36
M  V30 89 1 85 37
M  V30 90 1 86 20
M  V30 END BOND
M  V30 END CTAB
M  END
>  <i_epik_Tot_Q>  (1) 
1

>  <i_epik_Tot_abs_Q>  (1) 
1

>  <i_i_glide_confnum>  (1) 
405

>  <i_i_glide_lignum>  (1) 
72

>  <i_i_glide_posenum>  (1) 
38

>  <i_i_glide_rotatable_bonds>  (1) 
14

>  <i_lp_mmshare_version>  (1) 
72125

>  <i_m_source_file_index>  (1) 
30

>  <i_f3d_flags>  (1) 
0

>  <num_sample>  (1) 
100

>  <b_lp_Chiralities_Consistent>  (1) 
1

>  <r_epik_Charging_Adjusted_Penalty>  (1) 
0.43533657855592212

>  <r_epik_Ionization_Penalty>  (1) 
0.17417288321429925

>  <r_epik_Ionization_Penalty_Charging>  (1) 
0.17415579174197784

>  <r_epik_Ionization_Penalty_Neutral>  (1) 
1.7091472321405907e-05

>  <r_epik_State_Penalty>  (1) 
0.2611807868139443

>  <r_glide_ring_energy>  (1) 
0.53215094814158026

>  <r_i_docking_score>  (1) 
-5.2750622156038078

>  <r_i_glide_ecoul>  (1) 
-1.7541703192081801

>  <r_i_glide_eff_state_penalty>  (1) 
0.2611807868139443

>  <r_i_glide_einternal>  (1) 
81.225688943365071

>  <r_i_glide_emodel>  (1) 
-4.8164404154069587

>  <r_i_glide_emodel_strain>  (1) 
17.015884233806673

>  <r_i_glide_energy>  (1) 
-48.859852068599714

>  <r_i_glide_erotb>  (1) 
0.46833353265868582

>  <r_i_glide_esite>  (1) 
0

>  <r_i_glide_evdw>  (1) 
-47.105681749391536

>  <r_i_glide_gscore>  (1) 
-5.536243002417752

>  <r_i_glide_gscore_strain>  (1) 
3.2539710584516683

>  <r_i_glide_hbond>  (1) 
-0.14707577145542391

>  <r_i_glide_ligand_efficiency>  (1) 
-0.138817426726416

>  <r_i_glide_ligand_efficiency_ln>  (1) 
-1.1374585902928072

>  <r_i_glide_ligand_efficiency_sa>  (1) 
-0.4667007746893278

>  <r_i_glide_lipo>  (1) 
-5.1644264814890999

>  <r_i_glide_metal>  (1) 
-0

>  <r_i_glide_rewards>  (1) 
-1.3286357052327775

>  <r_lp_Energy>  (1) 
47.870706999999996

>  <s_epik_Chemistry_Notes>  (1) 
This compound has an imine and may undergo hydrolysis. This compound contains an acetal/aminal-like group ( X-CH(R)-Y where X, Y are N, S, or O) that may be acid/base labile, releasing an aldehyde.

>  <s_epik_cmdline>  (1) 
J2VwaWtfcHl0aG9uJywgJy1waHQnLCAnMS4wJywgJy1waCcsICc3LjQnLCAnLXRuJywgJzgnLCAnLW1hJywgJzUwMCcsICctaW1hZScsICc8aW5maWxlLm1hZT4nLCAnLW9tYWUnLCAnPG91dGZpbGUubWFlPic=

>  <s_epik_input>  (1) 
RkMxPUMoRilOKFtDSDJdUzEpW0NIMl1bQ0gyXVtDQEhdMltOSF1bQ0gyXVtDSDJdW0NIMl1OMltDQEBIXTNbQ0gyXVtDQEBIXTNbQ0BASF0oW09IXSlbQ0gyXVtDQEBdKFtDSDNdKShbT0hdKVtDQEBIXShbQ0BASF0oW09IXSlbQ0hdKFtDSDNdKVtDSDNdKVtDQEhdKFM0KVtDQEBIXShbQ0BASF00NSlbQ0gyXVtDSDJdW0NIMl1bQ0gyXTU=

>  <s_glide_docking_method>  (1) 
confgen

>  <s_i_glide_gridfile>  (1) 
gpcr_5ht2c_6bqh_protein_autoprepared_prepared

>  <s_lp_Force_Field>  (1) 
S-OPLS

>  <s_lp_Variant>  (1) 
DiffSBDD_29_num_sample_100-2

>  <s_m_source_file>  (1) 
generated__ligand_DiffSBDD_2026-05-06_prepared.sdf

>  <GenAI_Model>  (1) 
DiffSBDD

>  <Protein>  (1) 
GPCR_5HT2C

$$$$
DiffSBDD_30_num_sample_100
     RDKit          3D

  0  0  0  0  0  0  0  0  0  0999 V3000
M  V30 BEGIN CTAB
M  V30 COUNTS 70 73 0 0 1
M  V30 BEGIN ATOM
M  V30 1 C 40.912403 35.459295 65.236698 0
M  V30 2 C 41.838840 31.475843 64.502359 0 CFG=1
M  V30 3 O 41.468058 36.022346 62.961734 0
M  V30 4 C 40.398030 26.216344 57.833883 0
M  V30 5 C 39.560037 25.155407 57.453964 0
M  V30 6 N 40.129646 33.263143 63.333569 0
M  V30 7 C 37.704158 26.697856 57.230823 0
M  V30 8 C 41.537915 33.627769 63.544617 0 CFG=1
M  V30 9 O 39.544723 30.421778 63.050946 0
M  V30 10 O 43.383915 29.700040 65.065208 0
M  V30 11 C 38.551725 29.447063 55.128116 0
M  V30 12 C 42.828989 30.739255 65.416079 0
M  V30 13 C 43.096852 31.352760 66.784574 0
M  V30 14 C 37.710003 29.374200 53.886424 0
M  V30 15 C 38.773460 30.483791 57.327036 0 CFG=2
M  V30 16 C 37.534288 33.379059 60.654482 0
M  V30 17 N 38.324152 32.979125 61.839792 0 CHG=1
M  V30 18 C 38.690163 30.509915 54.059441 0
M  V30 19 C 37.633172 31.161219 59.350196 0 CFG=1
M  V30 20 C 38.215989 25.394531 57.164238 0
M  V30 21 C 38.258908 31.695724 58.059277 0
M  V30 22 N 37.849092 29.939024 56.344651 0 CFG=2 CHG=1
M  V30 23 C 39.902051 27.526329 57.899206 0
M  V30 24 C 39.492551 33.826587 62.146261 0
M  V30 25 C 38.545811 27.790348 57.581628 0
M  V30 26 C 36.738262 32.186183 60.075995 0
M  V30 27 C 40.863856 29.910230 63.066308 0
M  V30 28 C 41.734743 35.098150 63.992136 0 CFG=2
M  V30 29 C 38.003836 29.212995 57.609422 0 CFG=1
M  V30 30 O 40.736967 28.539602 58.270672 0
M  V30 31 S 36.775705 29.623269 58.880891 0
M  V30 32 O 42.179676 32.833514 64.506598 0
M  V30 33 O 41.833580 30.906375 63.218560 0
M  V30 34 H 40.974829 34.685145 66.002386 0
M  V30 35 H 41.270720 36.387153 65.683403 0
M  V30 36 H 39.867365 35.621749 64.982125 0
M  V30 37 H 40.846708 31.402952 64.950486 0
M  V30 38 H 41.672024 36.886895 63.298065 0
M  V30 39 H 41.433036 26.024147 58.074304 0
M  V30 40 H 39.949818 24.150039 57.403185 0
M  V30 41 H 40.106361 32.244386 63.262710 0
M  V30 42 H 36.668838 26.852720 57.011197 0
M  V30 43 H 42.083739 33.444778 62.618066 0
M  V30 44 H 38.993246 29.758145 63.458779 0
M  V30 45 H 39.382182 28.757789 55.274839 0
M  V30 46 H 42.210296 31.874472 67.147903 0
M  V30 47 H 43.358416 30.575036 67.501995 0
M  V30 48 H 43.920623 32.064360 66.723038 0
M  V30 49 H 37.952206 28.610380 53.149552 0
M  V30 50 H 36.665487 29.621365 53.979864 0
M  V30 51 H 39.787896 30.501393 56.930132 0
M  V30 52 H 38.184306 33.808429 59.890721 0
M  V30 53 H 36.850923 34.174655 60.953897 0
M  V30 54 H 37.718364 32.988075 62.648365 0
M  V30 55 H 38.282509 31.501672 54.253617 0
M  V30 56 H 39.585713 30.490550 53.441383 0
M  V30 57 H 38.440745 30.851700 60.015793 0
M  V30 58 H 37.569536 24.573941 56.888408 0
M  V30 59 H 37.526087 32.222534 57.446724 0
M  V30 60 H 39.068132 32.393438 58.258746 0
M  V30 61 H 40.176120 33.822396 61.296152 0
M  V30 62 H 39.179560 34.856635 62.323640 0
M  V30 63 H 35.987588 32.558712 59.375976 0
M  V30 64 H 36.179119 31.695244 60.873724 0
M  V30 65 H 41.027511 29.389094 62.121323 0
M  V30 66 H 40.929172 29.169572 63.865941 0
M  V30 67 H 42.787667 35.201194 64.253254 0
M  V30 68 H 40.296483 29.286275 58.640336 0
M  V30 69 H 38.664813 32.037156 61.702118 0
M  V30 70 H 37.003237 30.496059 56.253436 0
M  V30 END ATOM
M  V30 BEGIN BOND
M  V30 1 1 5 4
M  V30 2 1 8 6
M  V30 3 1 12 2
M  V30 4 2 12 10
M  V30 5 1 13 12
M  V30 6 1 14 11
M  V30 7 1 17 16
M  V30 8 1 18 11
M  V30 9 1 18 14
M  V30 10 2 20 5
M  V30 11 1 20 7
M  V30 12 1 21 15
M  V30 13 1 21 19
M  V30 14 1 22 11
M  V30 15 1 22 15
M  V30 16 2 23 4
M  V30 17 1 24 6
M  V30 18 1 24 17
M  V30 19 2 25 7
M  V30 20 1 25 23
M  V30 21 1 26 16
M  V30 22 1 26 19
M  V30 23 1 27 9
M  V30 24 1 28 1
M  V30 25 1 28 3
M  V30 26 1 28 8
M  V30 27 1 29 15
M  V30 28 1 29 22
M  V30 29 1 29 25 CFG=3
M  V30 30 1 30 23
M  V30 31 1 31 19
M  V30 32 1 31 29
M  V30 33 1 32 2
M  V30 34 1 32 8
M  V30 35 1 33 2
M  V30 36 1 33 27
M  V30 37 1 34 1
M  V30 38 1 35 1
M  V30 39 1 36 1
M  V30 40 1 2 37 CFG=1
M  V30 41 1 38 3
M  V30 42 1 39 4
M  V30 43 1 40 5
M  V30 44 1 41 6
M  V30 45 1 42 7
M  V30 46 1 8 43 CFG=3
M  V30 47 1 44 9
M  V30 48 1 45 11
M  V30 49 1 46 13
M  V30 50 1 47 13
M  V30 51 1 48 13
M  V30 52 1 49 14
M  V30 53 1 50 14
M  V30 54 1 15 51 CFG=3
M  V30 55 1 52 16
M  V30 56 1 53 16
M  V30 57 1 54 17
M  V30 58 1 55 18
M  V30 59 1 56 18
M  V30 60 1 19 57 CFG=1
M  V30 61 1 58 20
M  V30 62 1 59 21
M  V30 63 1 60 21
M  V30 64 1 61 24
M  V30 65 1 62 24
M  V30 66 1 63 26
M  V30 67 1 64 26
M  V30 68 1 65 27
M  V30 69 1 66 27
M  V30 70 1 28 67 CFG=1
M  V30 71 1 68 30
M  V30 72 1 69 17
M  V30 73 1 22 70 CFG=3
M  V30 END BOND
M  V30 END CTAB
M  END
>  <i_epik_Tot_Q>  (1) 
2

>  <i_epik_Tot_abs_Q>  (1) 
2

>  <i_i_glide_confnum>  (1) 
6492

>  <i_i_glide_lignum>  (1) 
82

>  <i_i_glide_posenum>  (1) 
342

>  <i_i_glide_rotatable_bonds>  (1) 
17

>  <i_lp_mmshare_version>  (1) 
72125

>  <i_m_source_file_index>  (1) 
31

>  <i_f3d_flags>  (1) 
0

>  <num_sample>  (1) 
100

>  <b_lp_Chiralities_Consistent>  (1) 
1

>  <r_epik_Charging_Adjusted_Penalty>  (1) 
1.979093595035226

>  <r_epik_Ionization_Penalty>  (1) 
0.79989620662071081

>  <r_epik_Ionization_Penalty_Charging>  (1) 
0.66086891892205935

>  <r_epik_Ionization_Penalty_Neutral>  (1) 
0.13902728769865147

>  <r_epik_State_Penalty>  (1) 
1.3182246761131666

>  <r_glide_ring_energy>  (1) 
0

>  <r_i_docking_score>  (1) 
-5.2734807003745487

>  <r_i_glide_ecoul>  (1) 
-8.1867932338262737

>  <r_i_glide_eff_state_penalty>  (1) 
1.3182246761131666

>  <r_i_glide_einternal>  (1) 
24.968921416775267

>  <r_i_glide_emodel>  (1) 
-53.022614648598612

>  <r_i_glide_emodel_strain>  (1) 
4.0644967866857726

>  <r_i_glide_energy>  (1) 
-46.100108095506897

>  <r_i_glide_erotb>  (1) 
1.1283805066766976

>  <r_i_glide_esite>  (1) 
-0.091468833190383764

>  <r_i_glide_evdw>  (1) 
-37.913314861680625

>  <r_i_glide_gscore>  (1) 
-6.5917053764877158

>  <r_i_glide_gscore_strain>  (1) 
0.016124196671443158

>  <r_i_glide_hbond>  (1) 
-0.66530260083295412

>  <r_i_glide_ligand_efficiency>  (1) 
-0.15980244546589542

>  <r_i_glide_ligand_efficiency_ln>  (1) 
-1.1727948031415449

>  <r_i_glide_ligand_efficiency_sa>  (1) 
-0.51257182984914551

>  <r_i_glide_lipo>  (1) 
-2.3224886401866116

>  <r_i_glide_metal>  (1) 
-0

>  <r_i_glide_rewards>  (1) 
-1.5332652774679347

>  <r_lp_Energy>  (1) 
33.25723

>  <r_lp_tautomer_probability>  (1) 
0.99999996999736518

>  <s_epik_Chemistry_Notes>  (1) 
This compound contains an acetal/aminal-like group ( X-CH(R)-Y where X, Y are N, S, or O) that may be acid/base labile, releasing an aldehyde.

>  <s_epik_cmdline>  (1) 
J2VwaWtfcHl0aG9uJywgJy1waHQnLCAnMS4wJywgJy1waCcsICc3LjQnLCAnLXRuJywgJzgnLCAnLW1hJywgJzUwMCcsICctaW1hZScsICc8aW5maWxlLm1hZT4nLCAnLW9tYWUnLCAnPG91dGZpbGUubWFlPic=

>  <s_epik_input>  (1) 
W09IXVtDSDJdT1tDQEBIXShDKD1PKVtDSDNdKU9bQ0BIXShbQ0BIXShbQ0gzXSlbT0hdKVtOSF1bQ0gyXVtOSF1bQ0gyXVtDSDJdW0NAQEhdKFMxKVtDSDJdW0NASF0oTjJbQ0hdM1tDSDJdW0NIMl0zKVtDQEBdMTJjNFtjSF1bY0hdW2NIXVtjSF1jNFtPSF0=

>  <s_glide_docking_method>  (1) 
confgen

>  <s_i_glide_gridfile>  (1) 
gpcr_5ht2c_6bqh_protein_autoprepared_prepared

>  <s_lp_Force_Field>  (1) 
S-OPLS

>  <s_lp_Variant>  (1) 
DiffSBDD_30_num_sample_100-4

>  <s_m_source_file>  (1) 
generated__ligand_DiffSBDD_2026-05-06_prepared.sdf

>  <GenAI_Model>  (1) 
DiffSBDD

>  <Protein>  (1) 
GPCR_5HT2C

$$$$
DiffSBDD_20_num_sample_100
     RDKit          3D

  0  0  0  0  0  0  0  0  0  0999 V3000
M  V30 BEGIN CTAB
M  V30 COUNTS 55 55 0 0 1
M  V30 BEGIN ATOM
M  V30 1 C 38.510186 26.537692 56.798654 0 CFG=1
M  V30 2 C 38.689606 27.623111 54.367195 0 CFG=2
M  V30 3 C 38.880980 29.845376 58.055656 0
M  V30 4 C 38.738799 24.021429 57.308275 0
M  V30 5 N 39.173764 27.135161 53.111399 0
M  V30 6 C 39.599181 27.020809 50.751802 0
M  V30 7 O 35.858066 34.421433 62.007176 0
M  V30 8 C 37.139254 34.042646 60.057904 0
M  V30 9 C 38.230103 31.926033 59.140854 0
M  V30 10 C 39.471218 30.235162 52.927524 0
M  V30 11 N 38.085656 30.913885 58.115198 0
M  V30 12 O 39.786068 29.621016 58.860171 0
M  V30 13 C 37.403235 26.610462 57.853499 0
M  V30 14 C 39.455709 25.354700 57.109208 0
M  V30 15 C 39.250922 27.755611 52.003101 0
M  V30 16 C 36.353499 33.547950 61.275945 0
M  V30 17 O 40.897204 30.021435 50.462781 0
M  V30 18 N 38.591154 29.050585 57.022365 0
M  V30 19 C 39.860784 27.947508 55.302110 0
M  V30 20 S 37.767613 26.299762 55.161923 0
M  V30 21 C 39.493001 29.846366 50.466659 0
M  V30 22 O 36.267343 32.309704 61.453493 0 CHG=-1
M  V30 23 C 39.350058 27.834984 56.726886 0 CFG=2
M  V30 24 C 38.974231 29.267253 51.821564 0 CFG=2
M  V30 25 C 37.188299 33.022489 58.918755 0
M  V30 26 H 37.974765 28.436308 54.268495 0
M  V30 27 H 39.467366 23.223769 57.453516 0
M  V30 28 H 38.090660 24.016389 58.183969 0
M  V30 29 H 38.127460 23.768402 56.442231 0
M  V30 30 H 40.462677 27.444378 50.253166 0
M  V30 31 H 38.143677 34.330959 60.367946 0
M  V30 32 H 36.651775 34.949387 59.697219 0
M  V30 33 H 38.127661 31.450648 60.116248 0
M  V30 34 H 39.224845 32.368531 59.107686 0
M  V30 35 H 38.856649 30.253110 53.822529 0
M  V30 36 H 40.501300 30.024913 53.206743 0
M  V30 37 H 39.467397 31.267485 52.575275 0
M  V30 38 H 37.349274 31.035621 57.429700 0
M  V30 39 H 37.867406 26.634351 58.836917 0
M  V30 40 H 36.767407 27.489472 57.769788 0
M  V30 41 H 36.733038 25.752859 57.811718 0
M  V30 42 H 40.187167 25.238568 56.308578 0
M  V30 43 H 40.033608 25.565212 58.010430 0
M  V30 44 H 41.308515 29.228048 50.769491 0
M  V30 45 H 37.829378 29.295844 56.408508 0
M  V30 46 H 40.664133 27.221445 55.162003 0
M  V30 47 H 40.276380 28.935583 55.128460 0
M  V30 48 H 39.067401 30.827039 50.256221 0
M  V30 49 H 39.217546 29.226602 49.615996 0
M  V30 50 H 40.213656 27.755530 57.389788 0
M  V30 51 H 37.886513 29.281173 51.793421 0
M  V30 52 H 37.396664 33.536943 57.980132 0
M  V30 53 H 36.202297 32.577599 58.803530 0
M  V30 54 H 39.867283 26.021432 51.053505 0
M  V30 55 H 38.743496 26.956696 50.085272 0
M  V30 END ATOM
M  V30 BEGIN BOND
M  V30 1 1 5 2
M  V30 2 1 11 3
M  V30 3 1 11 9
M  V30 4 2 12 3
M  V30 5 1 1 13 CFG=1
M  V30 6 1 14 1
M  V30 7 1 14 4
M  V30 8 2 15 5
M  V30 9 1 15 6
M  V30 10 2 16 7
M  V30 11 1 16 8
M  V30 12 1 18 3
M  V30 13 1 19 2
M  V30 14 1 20 1
M  V30 15 1 20 2
M  V30 16 1 21 17
M  V30 17 1 22 16
M  V30 18 1 23 1
M  V30 19 1 23 18
M  V30 20 1 23 19
M  V30 21 1 24 10
M  V30 22 1 24 15
M  V30 23 1 24 21
M  V30 24 1 25 8
M  V30 25 1 25 9
M  V30 26 1 2 26 CFG=3
M  V30 27 1 27 4
M  V30 28 1 28 4
M  V30 29 1 29 4
M  V30 30 1 30 6
M  V30 31 1 31 8
M  V30 32 1 32 8
M  V30 33 1 33 9
M  V30 34 1 34 9
M  V30 35 1 35 10
M  V30 36 1 36 10
M  V30 37 1 37 10
M  V30 38 1 38 11
M  V30 39 1 39 13
M  V30 40 1 40 13
M  V30 41 1 41 13
M  V30 42 1 42 14
M  V30 43 1 43 14
M  V30 44 1 44 17
M  V30 45 1 45 18
M  V30 46 1 46 19
M  V30 47 1 47 19
M  V30 48 1 48 21
M  V30 49 1 49 21
M  V30 50 1 23 50 CFG=1
M  V30 51 1 24 51 CFG=3
M  V30 52 1 52 25
M  V30 53 1 53 25
M  V30 54 1 54 6
M  V30 55 1 55 6
M  V30 END BOND
M  V30 END CTAB
M  END
>  <i_epik_Tot_Q>  (1) 
-1

>  <i_epik_Tot_abs_Q>  (1) 
1

>  <i_i_glide_confnum>  (1) 
1091

>  <i_i_glide_lignum>  (1) 
54

>  <i_i_glide_posenum>  (1) 
269

>  <i_i_glide_rotatable_bonds>  (1) 
12

>  <i_lp_mmshare_version>  (1) 
72125

>  <i_m_source_file_index>  (1) 
21

>  <i_f3d_flags>  (1) 
0

>  <num_sample>  (1) 
100

>  <b_lp_Chiralities_Consistent>  (1) 
1

>  <r_epik_Charging_Adjusted_Penalty>  (1) 
0.43743025276339675

>  <r_epik_Ionization_Penalty>  (1) 
0.026773266926762091

>  <r_epik_Ionization_Penalty_Charging>  (1) 
0.0015534882308521432

>  <r_epik_Ionization_Penalty_Neutral>  (1) 
0.025219778695909949

>  <r_epik_State_Penalty>  (1) 
0.43587676453254459

>  <r_glide_ring_energy>  (1) 
0

>  <r_i_docking_score>  (1) 
-5.2669844786332813

>  <r_i_glide_ecoul>  (1) 
-3.5181712361229769

>  <r_i_glide_eff_state_penalty>  (1) 
0.43587676453254459

>  <r_i_glide_einternal>  (1) 
10.293215289364436

>  <r_i_glide_emodel>  (1) 
-40.241316498682963

>  <r_i_glide_emodel_strain>  (1) 
3.7309728371842006

>  <r_i_glide_energy>  (1) 
-35.661304726230632

>  <r_i_glide_erotb>  (1) 
1.2527341714622291

>  <r_i_glide_esite>  (1) 
-0.081040192670284408

>  <r_i_glide_evdw>  (1) 
-32.143133490107658

>  <r_i_glide_gscore>  (1) 
-5.7028612431658257

>  <r_i_glide_gscore_strain>  (1) 
0

>  <r_i_glide_hbond>  (1) 
-0.14635547369985438

>  <r_i_glide_ligand_efficiency>  (1) 
-0.21067937914533125

>  <r_i_glide_ligand_efficiency_ln>  (1) 
-1.2484331602241039

>  <r_i_glide_ligand_efficiency_sa>  (1) 
-0.61603024169662235

>  <r_i_glide_lipo>  (1) 
-2.6477130269936131

>  <r_i_glide_metal>  (1) 
-0

>  <r_i_glide_rewards>  (1) 
-1.9456043613404737

>  <r_lp_Energy>  (1) 
20.662696

>  <r_lp_tautomer_probability>  (1) 
0.49999399997599986

>  <s_epik_Chemistry_Notes>  (1) 
This compound has an imine and may undergo hydrolysis. This compound contains an acetal/aminal-like group ( X-CH(R)-Y where X, Y are N, S, or O) that may be acid/base labile, releasing an aldehyde.

>  <s_epik_cmdline>  (1) 
J2VwaWtfcHl0aG9uJywgJy1waHQnLCAnMS4wJywgJy1waCcsICc3LjQnLCAnLXRuJywgJzgnLCAnLW1hJywgJzUwMCcsICctaW1hZScsICc8aW5maWxlLm1hZT4nLCAnLW9tYWUnLCAnPG91dGZpbGUubWFlPic=

>  <s_epik_input>  (1) 
W09IXVtDSDJdW0NAQEhdKFtDSDNdKUMoPVtDSDJdKVtOSF1bQ0BASF0oU1tDQEBdMShbQ0gzXSlbQ0gyXVtDSDNdKVtDSDJdW0NASF0xW05IXUMoPU8pW05IXVtDSDJdW0NIMl1bQ0gyXUMoPU8pW09IXQ==

>  <s_glide_docking_method>  (1) 
confgen

>  <s_i_glide_gridfile>  (1) 
gpcr_5ht2c_6bqh_protein_autoprepared_prepared

>  <s_lp_Force_Field>  (1) 
S-OPLS

>  <s_lp_Variant>  (1) 
DiffSBDD_20_num_sample_100-2

>  <s_m_source_file>  (1) 
generated__ligand_DiffSBDD_2026-05-06_prepared.sdf

>  <GenAI_Model>  (1) 
DiffSBDD

>  <Protein>  (1) 
GPCR_5HT2C

$$$$
DiffSBDD_1_num_sample_100
     RDKit          3D

  0  0  0  0  0  0  0  0  0  0999 V3000
M  V30 BEGIN CTAB
M  V30 COUNTS 63 66 0 0 1
M  V30 BEGIN ATOM
M  V30 1 C 39.203687 35.453313 61.882095 0
M  V30 2 C 38.680873 26.872036 57.520230 0
M  V30 3 O 38.982406 37.074883 63.410549 0
M  V30 4 C 37.985085 29.291870 57.934276 0 CFG=1
M  V30 5 C 39.797906 34.225704 61.304422 0
M  V30 6 C 38.603172 31.595426 57.493508 0
M  V30 7 C 39.213419 26.849832 53.827341 0
M  V30 8 C 38.491470 24.600284 57.212959 0
M  V30 9 N 38.144903 25.278734 55.935041 0 CHG=1
M  V30 10 C 36.170048 31.662879 60.365680 0
M  V30 11 C 39.263366 33.737929 59.951987 0
M  V30 12 C 38.544517 27.622547 54.989520 0 CFG=2
M  V30 13 C 37.992406 26.738160 56.169389 0 CFG=2
M  V30 14 C 37.772910 32.085336 58.691979 0 CFG=2
M  V30 15 C 37.372948 32.315507 61.069169 0
M  V30 16 C 39.609762 35.961923 63.000185 0
M  V30 17 N 39.070998 30.235694 57.705959 0
M  V30 18 C 38.665438 27.985550 58.284709 0
M  V30 19 O 40.700538 33.596175 61.859878 0
M  V30 20 C 37.466149 28.527681 54.352884 0
M  V30 21 C 38.008084 37.273102 62.309425 0
M  V30 22 C 37.081212 29.756611 59.115478 0
M  V30 23 C 39.345475 25.626561 57.971018 0
M  V30 24 N 36.663714 31.181029 59.054092 0 CFG=1 CHG=1
M  V30 25 O 37.065894 33.226172 58.253036 0
M  V30 26 C 38.118699 36.146193 61.183708 0
M  V30 27 C 38.496497 32.404485 60.012550 0 CFG=2
M  V30 28 O 40.267007 26.023764 54.279749 0
M  V30 29 H 37.357733 29.200992 57.054154 0
M  V30 30 H 39.445741 32.265209 57.323399 0
M  V30 31 H 38.008153 31.630557 56.585175 0
M  V30 32 H 39.609247 27.540160 53.081276 0
M  V30 33 H 38.466076 26.237008 53.314252 0
M  V30 34 H 38.993492 23.643999 57.059207 0
M  V30 35 H 37.566196 24.409961 57.755884 0
M  V30 36 H 37.316259 24.880048 55.511102 0
M  V30 37 H 35.704576 30.878560 60.962150 0
M  V30 38 H 35.403953 32.422905 60.189218 0
M  V30 39 H 40.082062 33.661813 59.248273 0
M  V30 40 H 38.594142 34.478025 59.536065 0
M  V30 41 H 39.314789 28.284354 55.396202 0
M  V30 42 H 36.932993 26.820446 56.333789 0
M  V30 43 H 37.699857 31.728591 61.928917 0
M  V30 44 H 37.084108 33.292337 61.451583 0
M  V30 45 H 40.391195 35.608712 63.660796 0
M  V30 46 H 39.604482 29.943441 56.889572 0
M  V30 47 H 39.178303 27.968113 59.234700 0
M  V30 48 H 36.673010 27.934741 53.887060 0
M  V30 49 H 36.999615 29.221886 55.043225 0
M  V30 50 H 37.890150 29.153332 53.574660 0
M  V30 51 H 36.998170 37.303881 62.721005 0
M  V30 52 H 38.183803 38.250387 61.853250 0
M  V30 53 H 36.166062 29.169269 59.141648 0
M  V30 54 H 37.602575 29.590873 60.062009 0
M  V30 55 H 40.381834 25.590989 57.646934 0
M  V30 56 H 39.287895 25.602036 59.050286 0
M  V30 57 H 36.474977 32.946609 57.549818 0
M  V30 58 H 38.421367 36.530061 60.212139 0
M  V30 59 H 37.214805 35.537238 61.093913 0
M  V30 60 H 39.216123 31.606480 60.217376 0
M  V30 61 H 41.038088 26.555513 54.427653 0
M  V30 62 H 38.932301 25.174418 55.298323 0
M  V30 63 H 35.949787 31.277567 58.327381 0
M  V30 END ATOM
M  V30 BEGIN BOND
M  V30 1 1 5 1
M  V30 2 1 9 8
M  V30 3 1 11 5
M  V30 4 1 12 7
M  V30 5 1 13 2
M  V30 6 1 13 9
M  V30 7 1 13 12
M  V30 8 1 14 6
M  V30 9 1 15 10
M  V30 10 2 16 1
M  V30 11 1 16 3
M  V30 12 1 17 4
M  V30 13 1 17 6
M  V30 14 2 18 2
M  V30 15 1 18 4
M  V30 16 2 19 5
M  V30 17 1 20 12
M  V30 18 1 21 3
M  V30 19 1 22 4
M  V30 20 1 23 2
M  V30 21 1 23 8
M  V30 22 1 24 10
M  V30 23 1 24 14
M  V30 24 1 24 22
M  V30 25 1 14 25 CFG=3
M  V30 26 1 26 1
M  V30 27 1 26 21
M  V30 28 1 27 11
M  V30 29 1 27 14
M  V30 30 1 27 15
M  V30 31 1 28 7
M  V30 32 1 4 29 CFG=3
M  V30 33 1 30 6
M  V30 34 1 31 6
M  V30 35 1 32 7
M  V30 36 1 33 7
M  V30 37 1 34 8
M  V30 38 1 35 8
M  V30 39 1 36 9
M  V30 40 1 37 10
M  V30 41 1 38 10
M  V30 42 1 39 11
M  V30 43 1 40 11
M  V30 44 1 12 41 CFG=1
M  V30 45 1 13 42 CFG=1
M  V30 46 1 43 15
M  V30 47 1 44 15
M  V30 48 1 45 16
M  V30 49 1 46 17
M  V30 50 1 47 18
M  V30 51 1 48 20
M  V30 52 1 49 20
M  V30 53 1 50 20
M  V30 54 1 51 21
M  V30 55 1 52 21
M  V30 56 1 53 22
M  V30 57 1 54 22
M  V30 58 1 55 23
M  V30 59 1 56 23
M  V30 60 1 57 25
M  V30 61 1 58 26
M  V30 62 1 59 26
M  V30 63 1 27 60 CFG=1
M  V30 64 1 61 28
M  V30 65 1 62 9
M  V30 66 1 24 63 CFG=3
M  V30 END BOND
M  V30 END CTAB
M  END
>  <i_epik_Tot_Q>  (1) 
2

>  <i_epik_Tot_abs_Q>  (1) 
2

>  <i_i_glide_confnum>  (1) 
234

>  <i_i_glide_lignum>  (1) 
18

>  <i_i_glide_posenum>  (1) 
300

>  <i_i_glide_rotatable_bonds>  (1) 
8

>  <i_lp_mmshare_version>  (1) 
72125

>  <i_m_source_file_index>  (1) 
2

>  <i_f3d_flags>  (1) 
0

>  <num_sample>  (1) 
100

>  <b_lp_Chiralities_Consistent>  (1) 
1

>  <r_epik_Charging_Adjusted_Penalty>  (1) 
2.3622130296898831

>  <r_epik_Ionization_Penalty>  (1) 
1.4312966064593899

>  <r_epik_Ionization_Penalty_Charging>  (1) 
1.1852885594971458

>  <r_epik_Ionization_Penalty_Neutral>  (1) 
0.24600804696224418

>  <r_epik_State_Penalty>  (1) 
1.176924470192737

>  <r_glide_ring_energy>  (1) 
0

>  <r_i_docking_score>  (1) 
-5.2615376976052195

>  <r_i_glide_ecoul>  (1) 
-6.1462995540174834

>  <r_i_glide_eff_state_penalty>  (1) 
1.176924470192737

>  <r_i_glide_einternal>  (1) 
8.0517321424231536

>  <r_i_glide_emodel>  (1) 
-52.983745773777436

>  <r_i_glide_emodel_strain>  (1) 
3.4371404044904637

>  <r_i_glide_energy>  (1) 
-36.585960160886742

>  <r_i_glide_erotb>  (1) 
0.75687532201182384

>  <r_i_glide_esite>  (1) 
-0.18047845881793115

>  <r_i_glide_evdw>  (1) 
-30.439660606869261

>  <r_i_glide_gscore>  (1) 
-6.4384621677979563

>  <r_i_glide_gscore_strain>  (1) 
0

>  <r_i_glide_hbond>  (1) 
-0.35999999999999999

>  <r_i_glide_ligand_efficiency>  (1) 
-0.18791206062875784

>  <r_i_glide_ligand_efficiency_ln>  (1) 
-1.214517386066899

>  <r_i_glide_ligand_efficiency_sa>  (1) 
-0.57061169098771702

>  <r_i_glide_lipo>  (1) 
-2.8430257060412774

>  <r_i_glide_metal>  (1) 
-0

>  <r_i_glide_rewards>  (1) 
-1.3679053615044861

>  <r_lp_Energy>  (1) 
23.60812

>  <s_epik_cmdline>  (1) 
J2VwaWtfcHl0aG9uJywgJy1waHQnLCAnMS4wJywgJy1waCcsICc3LjQnLCAnLXRuJywgJzgnLCAnLW1hJywgJzUwMCcsICctaW1hZScsICc8aW5maWxlLm1hZT4nLCAnLW9tYWUnLCAnPG91dGZpbGUubWFlPic=

>  <s_epik_input>  (1) 
W0NIMl0xW0NIMl1PW0NIXT1DMUMoPU8pW0NIMl1bQ0BIXTJbQ0gyXVtDSDJdTihbQ0BAXTIzW09IXSlbQ0gyXVtDQEBIXShbTkhdW0NIMl0zKS9bQ0hdPUM0XFtDQEBIXShbTkhdW0NIMl1bQ0gyXTQpW0NASF0oW0NIM10pW0NIMl1bT0hd

>  <s_glide_docking_method>  (1) 
confgen

>  <s_i_glide_gridfile>  (1) 
gpcr_5ht2c_6bqh_protein_autoprepared_prepared

>  <s_lp_Force_Field>  (1) 
S-OPLS

>  <s_lp_Variant>  (1) 
DiffSBDD_1_num_sample_100-12

>  <s_m_source_file>  (1) 
generated__ligand_DiffSBDD_2026-05-06_prepared.sdf

>  <GenAI_Model>  (1) 
DiffSBDD

>  <Protein>  (1) 
GPCR_5HT2C

$$$$
DiffSBDD_52_num_sample_100
     RDKit          3D

  0  0  0  0  0  0  0  0  0  0999 V3000
M  V30 BEGIN CTAB
M  V30 COUNTS 25 25 0 0 1
M  V30 BEGIN ATOM
M  V30 1 C 38.300636 29.827458 55.321783 0 CFG=1
M  V30 2 O 37.867412 32.021365 56.223677 0
M  V30 3 C 37.945700 30.211777 57.898302 0 CFG=2
M  V30 4 S 39.067388 29.099730 52.751805 0
M  V30 5 C 38.818752 27.711600 53.874089 0 CFG=1
M  V30 6 S 39.012526 28.178573 55.601832 0
M  V30 7 O 37.067400 32.223171 59.053500 0
M  V30 8 C 38.460599 30.774574 56.539780 0 CFG=1
M  V30 9 O 36.667403 29.621445 57.803908 0
M  V30 10 C 37.990175 31.152402 59.122876 0
M  V30 11 N 37.469638 27.222745 53.688206 0
M  V30 12 C 38.962101 30.382921 54.041747 0
M  V30 13 H 37.237085 29.682283 55.122990 0
M  V30 14 H 36.912829 31.978189 56.320094 0
M  V30 15 H 38.608887 29.385119 58.153843 0
M  V30 16 H 39.516418 26.909642 53.632011 0
M  V30 17 H 36.398022 32.021427 58.404048 0
M  V30 18 H 39.524162 30.983500 56.664356 0
M  V30 19 H 36.061385 30.272804 57.453505 0
M  V30 20 H 38.991180 31.563428 59.250472 0
M  V30 21 H 37.773815 30.582717 60.027226 0
M  V30 22 H 37.344972 26.901799 52.736648 0
M  V30 23 H 37.320000 26.422253 54.284916 0
M  V30 24 H 38.431158 31.255985 53.661536 0
M  V30 25 H 39.980214 30.703615 54.265936 0
M  V30 END ATOM
M  V30 BEGIN BOND
M  V30 1 1 5 4
M  V30 2 1 6 1
M  V30 3 1 6 5
M  V30 4 1 8 1
M  V30 5 1 8 2
M  V30 6 1 8 3
M  V30 7 1 9 3
M  V30 8 1 10 3
M  V30 9 1 10 7
M  V30 10 1 11 5
M  V30 11 1 12 1
M  V30 12 1 12 4
M  V30 13 1 1 13 CFG=3
M  V30 14 1 14 2
M  V30 15 1 3 15 CFG=1
M  V30 16 1 5 16 CFG=3
M  V30 17 1 17 7
M  V30 18 1 8 18 CFG=1
M  V30 19 1 19 9
M  V30 20 1 20 10
M  V30 21 1 21 10
M  V30 22 1 22 11
M  V30 23 1 23 11
M  V30 24 1 24 12
M  V30 25 1 25 12
M  V30 END BOND
M  V30 END CTAB
M  END
>  <i_epik_Tot_Q>  (1) 
0

>  <i_epik_Tot_abs_Q>  (1) 
0

>  <i_i_glide_confnum>  (1) 
47

>  <i_i_glide_lignum>  (1) 
138

>  <i_i_glide_posenum>  (1) 
371

>  <i_i_glide_rotatable_bonds>  (1) 
6

>  <i_lp_mmshare_version>  (1) 
72125

>  <i_m_source_file_index>  (1) 
53

>  <i_f3d_flags>  (1) 
0

>  <num_sample>  (1) 
100

>  <b_lp_Chiralities_Consistent>  (1) 
1

>  <r_epik_Charging_Adjusted_Penalty>  (1) 
0.012458627256782779

>  <r_epik_Ionization_Penalty>  (1) 
0.012459545935989014

>  <r_epik_Ionization_Penalty_Charging>  (1) 
0

>  <r_epik_Ionization_Penalty_Neutral>  (1) 
0.012459545935989014

>  <r_epik_State_Penalty>  (1) 
0.012458627256782779

>  <r_glide_ring_energy>  (1) 
0.7540267518618381

>  <r_i_docking_score>  (1) 
-5.2595319793019222

>  <r_i_glide_ecoul>  (1) 
-12.380028547021718

>  <r_i_glide_eff_state_penalty>  (1) 
0.012458627256782779

>  <r_i_glide_einternal>  (1) 
13.227462272383464

>  <r_i_glide_emodel>  (1) 
-33.647324314215311

>  <r_i_glide_emodel_strain>  (1) 
0.84600139492943427

>  <r_i_glide_energy>  (1) 
-29.943060695440252

>  <r_i_glide_erotb>  (1) 
1.1173698675060917

>  <r_i_glide_esite>  (1) 
0

>  <r_i_glide_evdw>  (1) 
-17.563032148418532

>  <r_i_glide_gscore>  (1) 
-5.2719906065587052

>  <r_i_glide_gscore_strain>  (1) 
0

>  <r_i_glide_hbond>  (1) 
-0.49813875885772052

>  <r_i_glide_ligand_efficiency>  (1) 
-0.43829433160849351

>  <r_i_glide_ligand_efficiency_ln>  (1) 
-1.5092318124566919

>  <r_i_glide_ligand_efficiency_sa>  (1) 
-1.0034435276452711

>  <r_i_glide_lipo>  (1) 
-1.028771017561894

>  <r_i_glide_metal>  (1) 
-0

>  <r_i_glide_rewards>  (1) 
-2.127294808170999

>  <r_lp_Energy>  (1) 
-4.7131299999999996

>  <s_epik_Chemistry_Notes>  (1) 
This compound contains an acetal/aminal-like group ( X-CH(R)-Y where X, Y are N, S, or O) that may be acid/base labile, releasing an aldehyde.

>  <s_epik_cmdline>  (1) 
J2VwaWtfcHl0aG9uJywgJy1waHQnLCAnMS4wJywgJy1waCcsICc3LjQnLCAnLXRuJywgJzgnLCAnLW1hJywgJzUwMCcsICctaW1hZScsICc8aW5maWxlLm1hZT4nLCAnLW9tYWUnLCAnPG91dGZpbGUubWFlPic=

>  <s_epik_input>  (1) 
W0NIMl0xU1tDQEhdKFtOSDJdKVNbQ0BIXTFbQ0BASF0oW09IXSlbQ0BIXShbT0hdKVtDSDJdW09IXQ==

>  <s_glide_docking_method>  (1) 
confgen

>  <s_i_glide_gridfile>  (1) 
gpcr_5ht2c_6bqh_protein_autoprepared_prepared

>  <s_lp_Force_Field>  (1) 
S-OPLS

>  <s_lp_Variant>  (1) 
DiffSBDD_52_num_sample_100-1

>  <s_m_source_file>  (1) 
generated__ligand_DiffSBDD_2026-05-06_prepared.sdf

>  <GenAI_Model>  (1) 
DiffSBDD

>  <Protein>  (1) 
GPCR_5HT2C

$$$$
DiffSBDD_20_num_sample_100
     RDKit          3D

  0  0  0  0  0  0  0  0  0  0999 V3000
M  V30 BEGIN CTAB
M  V30 COUNTS 55 55 0 0 1
M  V30 BEGIN ATOM
M  V30 1 C 38.085051 25.873272 56.067350 0 CFG=1
M  V30 2 C 38.804981 28.023870 54.683418 0 CFG=2
M  V30 3 C 40.543075 27.795423 58.249158 0
M  V30 4 C 37.024795 23.682407 55.084093 0
M  V30 5 N 39.067391 28.514898 53.351622 0
M  V30 6 C 39.769535 30.068385 51.613409 0
M  V30 7 O 38.377576 31.929809 60.971680 0
M  V30 8 C 37.042111 30.721102 59.408947 0
M  V30 9 C 38.935601 28.985150 59.729020 0
M  V30 10 C 40.359612 30.916981 55.053502 0
M  V30 11 N 40.283493 28.601104 59.297172 0
M  V30 12 O 41.681349 27.493297 57.904699 0
M  V30 13 C 37.068784 25.919303 57.229567 0
M  V30 14 C 38.281693 24.421445 55.588159 0
M  V30 15 C 39.330773 29.721321 53.027130 0
M  V30 16 C 37.232410 31.491108 60.723188 0
M  V30 17 O 37.867402 32.559550 55.137597 0
M  V30 18 N 39.435558 27.359261 57.620325 0
M  V30 19 C 39.989725 27.231127 55.223341 0
M  V30 20 S 37.467408 26.843200 54.653534 0
M  V30 21 C 37.856408 31.246983 54.607876 0
M  V30 22 O 36.226083 31.621106 61.453501 0 CHG=-1
M  V30 23 C 39.481449 26.467332 56.454162 0 CFG=2
M  V30 24 C 39.248274 30.925496 54.001533 0 CFG=1
M  V30 25 C 38.338629 30.105034 58.849975 0
M  V30 26 H 38.537609 28.784554 55.404207 0
M  V30 27 H 37.291317 22.718308 54.653540 0
M  V30 28 H 36.315946 23.490180 55.888796 0
M  V30 29 H 36.504094 24.236487 54.303491 0
M  V30 30 H 39.834408 31.139989 51.426600 0
M  V30 31 H 36.653446 31.424902 58.674107 0
M  V30 32 H 36.283605 29.949666 59.545005 0
M  V30 33 H 38.267464 28.125379 59.789842 0
M  V30 34 H 39.043645 29.337811 60.754540 0
M  V30 35 H 41.346415 30.821383 54.603384 0
M  V30 36 H 40.352229 31.857177 55.605121 0
M  V30 37 H 40.246115 30.123421 55.788615 0
M  V30 38 H 41.061283 28.968103 59.823710 0
M  V30 39 H 37.428073 25.351657 58.088656 0
M  V30 40 H 36.873151 26.939285 57.558302 0
M  V30 41 H 36.106095 25.505000 56.936205 0
M  V30 42 H 39.022496 24.421441 54.788295 0
M  V30 43 H 38.716284 23.851297 56.407942 0
M  V30 44 H 36.978593 32.772974 55.431726 0
M  V30 45 H 38.531070 27.650795 57.957942 0
M  V30 46 H 40.336098 26.517743 54.473463 0
M  V30 47 H 40.831903 27.877761 55.455118 0
M  V30 48 H 37.551892 30.584047 55.413845 0
M  V30 49 H 37.077845 31.195392 53.853498 0
M  V30 50 H 40.182271 25.664592 56.693784 0
M  V30 51 H 39.467330 31.802986 53.398097 0
M  V30 52 H 39.067406 30.900169 58.701045 0
M  V30 53 H 38.129004 29.720333 57.852141 0
M  V30 54 H 40.754021 29.640242 51.424307 0
M  V30 55 H 39.071146 29.638941 50.893922 0
M  V30 END ATOM
M  V30 BEGIN BOND
M  V30 1 1 5 2
M  V30 2 1 11 3
M  V30 3 1 11 9
M  V30 4 2 12 3
M  V30 5 1 1 13 CFG=1
M  V30 6 1 14 1
M  V30 7 1 14 4
M  V30 8 2 15 5
M  V30 9 1 15 6
M  V30 10 2 16 7
M  V30 11 1 16 8
M  V30 12 1 18 3
M  V30 13 1 19 2
M  V30 14 1 20 1
M  V30 15 1 20 2
M  V30 16 1 21 17
M  V30 17 1 22 16
M  V30 18 1 23 1
M  V30 19 1 23 18
M  V30 20 1 23 19
M  V30 21 1 24 10
M  V30 22 1 24 15
M  V30 23 1 24 21
M  V30 24 1 25 8
M  V30 25 1 25 9
M  V30 26 1 2 26 CFG=1
M  V30 27 1 27 4
M  V30 28 1 28 4
M  V30 29 1 29 4
M  V30 30 1 30 6
M  V30 31 1 31 8
M  V30 32 1 32 8
M  V30 33 1 33 9
M  V30 34 1 34 9
M  V30 35 1 35 10
M  V30 36 1 36 10
M  V30 37 1 37 10
M  V30 38 1 38 11
M  V30 39 1 39 13
M  V30 40 1 40 13
M  V30 41 1 41 13
M  V30 42 1 42 14
M  V30 43 1 43 14
M  V30 44 1 44 17
M  V30 45 1 45 18
M  V30 46 1 46 19
M  V30 47 1 47 19
M  V30 48 1 48 21
M  V30 49 1 49 21
M  V30 50 1 23 50 CFG=1
M  V30 51 1 24 51 CFG=3
M  V30 52 1 52 25
M  V30 53 1 53 25
M  V30 54 1 54 6
M  V30 55 1 55 6
M  V30 END BOND
M  V30 END CTAB
M  END
>  <i_epik_Tot_Q>  (1) 
-1

>  <i_epik_Tot_abs_Q>  (1) 
1

>  <i_i_glide_confnum>  (1) 
1094

>  <i_i_glide_lignum>  (1) 
53

>  <i_i_glide_posenum>  (1) 
232

>  <i_i_glide_rotatable_bonds>  (1) 
12

>  <i_lp_mmshare_version>  (1) 
72125

>  <i_m_source_file_index>  (1) 
21

>  <i_f3d_flags>  (1) 
0

>  <num_sample>  (1) 
100

>  <b_lp_Chiralities_Consistent>  (1) 
1

>  <r_epik_Charging_Adjusted_Penalty>  (1) 
0.43743025276339675

>  <r_epik_Ionization_Penalty>  (1) 
0.026773266926762091

>  <r_epik_Ionization_Penalty_Charging>  (1) 
0.0015534882308521432

>  <r_epik_Ionization_Penalty_Neutral>  (1) 
0.025219778695909949

>  <r_epik_State_Penalty>  (1) 
0.43587676453254459

>  <r_glide_ring_energy>  (1) 
0

>  <r_i_docking_score>  (1) 
-5.2585337248892277

>  <r_i_glide_ecoul>  (1) 
-3.8435457574805056

>  <r_i_glide_eff_state_penalty>  (1) 
0.43587676453254459

>  <r_i_glide_einternal>  (1) 
15.179465440135298

>  <r_i_glide_emodel>  (1) 
-45.116898342408447

>  <r_i_glide_emodel_strain>  (1) 
0.89081630404558609

>  <r_i_glide_energy>  (1) 
-41.511328928470412

>  <r_i_glide_erotb>  (1) 
1.2527341714622291

>  <r_i_glide_esite>  (1) 
-0.020400840253960606

>  <r_i_glide_evdw>  (1) 
-37.667783170989907

>  <r_i_glide_gscore>  (1) 
-5.694410489421772

>  <r_i_glide_gscore_strain>  (1) 
0

>  <r_i_glide_hbond>  (1) 
-0.34539406206659024

>  <r_i_glide_ligand_efficiency>  (1) 
-0.21034134899556911

>  <r_i_glide_ligand_efficiency_ln>  (1) 
-1.2464300783381095

>  <r_i_glide_ligand_efficiency_sa>  (1) 
-0.61504183554266711

>  <r_i_glide_lipo>  (1) 
-2.9504197250288939

>  <r_i_glide_metal>  (1) 
-0

>  <r_i_glide_rewards>  (1) 
-1.1710090113629839

>  <r_lp_Energy>  (1) 
16.070501

>  <r_lp_tautomer_probability>  (1) 
0.49999399997599986

>  <s_epik_Chemistry_Notes>  (1) 
This compound has an imine and may undergo hydrolysis. This compound contains an acetal/aminal-like group ( X-CH(R)-Y where X, Y are N, S, or O) that may be acid/base labile, releasing an aldehyde.

>  <s_epik_cmdline>  (1) 
J2VwaWtfcHl0aG9uJywgJy1waHQnLCAnMS4wJywgJy1waCcsICc3LjQnLCAnLXRuJywgJzgnLCAnLW1hJywgJzUwMCcsICctaW1hZScsICc8aW5maWxlLm1hZT4nLCAnLW9tYWUnLCAnPG91dGZpbGUubWFlPic=

>  <s_epik_input>  (1) 
W09IXVtDSDJdW0NAQEhdKFtDSDNdKUMoPVtDSDJdKVtOSF1bQ0BASF0oU1tDQEBdMShbQ0gzXSlbQ0gyXVtDSDNdKVtDSDJdW0NASF0xW05IXUMoPU8pW05IXVtDSDJdW0NIMl1bQ0gyXUMoPU8pW09IXQ==

>  <s_glide_docking_method>  (1) 
confgen

>  <s_i_glide_gridfile>  (1) 
gpcr_5ht2c_6bqh_protein_autoprepared_prepared

>  <s_lp_Force_Field>  (1) 
S-OPLS

>  <s_lp_Variant>  (1) 
DiffSBDD_20_num_sample_100-1

>  <s_m_source_file>  (1) 
generated__ligand_DiffSBDD_2026-05-06_prepared.sdf

>  <GenAI_Model>  (1) 
DiffSBDD

>  <Protein>  (1) 
GPCR_5HT2C

$$$$
DiffSBDD_1_num_sample_100
     RDKit          3D

  0  0  0  0  0  0  0  0  0  0999 V3000
M  V30 BEGIN CTAB
M  V30 COUNTS 62 65 0 0 1
M  V30 BEGIN ATOM
M  V30 1 C 40.644045 34.759981 63.146077 0
M  V30 2 C 37.923848 28.891698 56.426394 0
M  V30 3 O 41.476994 34.018627 65.092710 0
M  V30 4 C 37.136068 29.327964 58.790140 0 CFG=1
M  V30 5 C 39.795959 34.705450 61.929641 0
M  V30 6 C 37.003041 31.613550 59.773174 0
M  V30 7 C 39.299769 31.096151 53.586774 0
M  V30 8 C 38.062931 26.905087 55.235574 0
M  V30 9 N 38.372635 28.035095 54.320694 0 CHG=1
M  V30 10 C 40.356414 30.254207 60.653486 0
M  V30 11 C 38.822276 33.533416 61.771560 0
M  V30 12 C 39.446236 30.247824 54.849045 0 CFG=2
M  V30 13 C 38.198323 29.333051 55.022507 0 CFG=2
M  V30 14 C 38.288969 31.314169 60.568680 0 CFG=2
M  V30 15 C 40.598437 31.700931 61.127999 0
M  V30 16 C 40.667406 33.820279 64.040752 0
M  V30 17 N 36.294749 30.360072 59.435367 0
M  V30 18 C 37.444022 29.726956 57.367973 0
M  V30 19 O 39.839740 35.567854 61.053495 0
M  V30 20 C 39.772794 31.179684 56.034312 0
M  V30 21 C 42.027811 35.359990 64.780173 0
M  V30 22 C 38.439326 29.070440 59.606191 0
M  V30 23 C 38.204340 27.437031 56.664902 0
M  V30 24 N 39.114397 30.318682 59.915856 0
M  V30 25 O 37.916022 30.821428 61.848298 0
M  V30 26 C 41.493657 35.923516 63.373727 0
M  V30 27 C 39.290540 32.460887 60.770359 0 CFG=2
M  V30 28 O 38.267403 32.021431 53.853497 0
M  V30 29 H 36.552090 28.422900 58.653499 0
M  V30 30 H 37.257535 32.152635 58.859881 0
M  V30 31 H 36.348704 32.275612 60.340562 0
M  V30 32 H 39.067401 30.476798 52.720213 0
M  V30 33 H 40.225185 31.620062 53.356414 0
M  V30 34 H 38.709385 26.047539 55.045949 0
M  V30 35 H 37.035997 26.588815 55.054896 0
M  V30 36 H 37.794516 27.990924 53.493012 0
M  V30 37 H 40.261583 29.585889 61.510680 0
M  V30 38 H 41.156887 29.876086 60.019039 0
M  V30 39 H 37.881580 33.954841 61.416594 0
M  V30 40 H 38.585384 33.084100 62.731334 0
M  V30 41 H 40.323113 29.617166 54.725854 0
M  V30 42 H 37.287303 29.814402 54.662633 0
M  V30 43 H 40.779008 31.693720 62.202082 0
M  V30 44 H 41.468573 32.151870 60.653952 0
M  V30 45 H 40.118637 32.890406 64.063377 0
M  V30 46 H 35.531218 30.598407 58.802475 0
M  V30 47 H 37.255168 30.757177 57.109250 0
M  V30 48 H 38.950885 31.849381 56.284925 0
M  V30 49 H 40.013884 30.613031 56.933240 0
M  V30 50 H 40.613893 31.825353 55.785497 0
M  V30 51 H 41.757701 36.037205 65.589842 0
M  V30 52 H 43.112697 35.301617 64.773577 0
M  V30 53 H 38.267402 28.516449 60.524164 0
M  V30 54 H 39.115561 28.437515 59.034582 0
M  V30 55 H 39.229531 27.317777 57.016809 0
M  V30 56 H 37.522735 26.948158 57.361565 0
M  V30 57 H 38.327709 29.980156 61.966568 0
M  V30 58 H 42.267403 36.021448 62.616553 0
M  V30 59 H 40.903542 36.834441 63.454254 0
M  V30 60 H 39.441575 32.939923 59.800509 0
M  V30 61 H 38.048989 32.501815 53.064986 0
M  V30 62 H 39.342195 27.956877 54.052719 0
M  V30 END ATOM
M  V30 BEGIN BOND
M  V30 1 1 5 1
M  V30 2 1 9 8
M  V30 3 1 11 5
M  V30 4 1 12 7
M  V30 5 1 13 2
M  V30 6 1 13 9
M  V30 7 1 13 12
M  V30 8 1 14 6
M  V30 9 1 15 10
M  V30 10 2 16 1
M  V30 11 1 16 3
M  V30 12 1 17 4
M  V30 13 1 17 6
M  V30 14 2 18 2
M  V30 15 1 18 4
M  V30 16 2 19 5
M  V30 17 1 20 12
M  V30 18 1 21 3
M  V30 19 1 22 4
M  V30 20 1 23 2
M  V30 21 1 23 8
M  V30 22 1 24 10
M  V30 23 1 24 14
M  V30 24 1 24 22
M  V30 25 1 14 25 CFG=1
M  V30 26 1 26 1
M  V30 27 1 26 21
M  V30 28 1 27 11
M  V30 29 1 27 14
M  V30 30 1 27 15
M  V30 31 1 28 7
M  V30 32 1 4 29 CFG=3
M  V30 33 1 30 6
M  V30 34 1 31 6
M  V30 35 1 32 7
M  V30 36 1 33 7
M  V30 37 1 34 8
M  V30 38 1 35 8
M  V30 39 1 36 9
M  V30 40 1 37 10
M  V30 41 1 38 10
M  V30 42 1 39 11
M  V30 43 1 40 11
M  V30 44 1 12 41 CFG=3
M  V30 45 1 13 42 CFG=3
M  V30 46 1 43 15
M  V30 47 1 44 15
M  V30 48 1 45 16
M  V30 49 1 46 17
M  V30 50 1 47 18
M  V30 51 1 48 20
M  V30 52 1 49 20
M  V30 53 1 50 20
M  V30 54 1 51 21
M  V30 55 1 52 21
M  V30 56 1 53 22
M  V30 57 1 54 22
M  V30 58 1 55 23
M  V30 59 1 56 23
M  V30 60 1 57 25
M  V30 61 1 58 26
M  V30 62 1 59 26
M  V30 63 1 27 60 CFG=3
M  V30 64 1 61 28
M  V30 65 1 62 9
M  V30 END BOND
M  V30 END CTAB
M  END
>  <i_epik_Tot_Q>  (1) 
1

>  <i_epik_Tot_abs_Q>  (1) 
1

>  <i_i_glide_confnum>  (1) 
152

>  <i_i_glide_lignum>  (1) 
9

>  <i_i_glide_posenum>  (1) 
177

>  <i_i_glide_rotatable_bonds>  (1) 
8

>  <i_lp_mmshare_version>  (1) 
72125

>  <i_m_source_file_index>  (1) 
2

>  <i_f3d_flags>  (1) 
0

>  <num_sample>  (1) 
100

>  <b_lp_Chiralities_Consistent>  (1) 
1

>  <r_epik_Charging_Adjusted_Penalty>  (1) 
0.089223518210420474

>  <r_epik_Ionization_Penalty>  (1) 
0.15303808439063821

>  <r_epik_Ionization_Penalty_Charging>  (1) 
0.0017986555257548985

>  <r_epik_Ionization_Penalty_Neutral>  (1) 
0.15123942886488331

>  <r_epik_State_Penalty>  (1) 
0.08742486268466558

>  <r_glide_ring_energy>  (1) 
0

>  <r_i_docking_score>  (1) 
-5.2545941816753885

>  <r_i_glide_ecoul>  (1) 
-6.5185545144044124

>  <r_i_glide_eff_state_penalty>  (1) 
0.08742486268466558

>  <r_i_glide_einternal>  (1) 
4.7701862884820585

>  <r_i_glide_emodel>  (1) 
-39.924216115910028

>  <r_i_glide_emodel_strain>  (1) 
0.49165184533582362

>  <r_i_glide_energy>  (1) 
-33.199399993282526

>  <r_i_glide_erotb>  (1) 
0.76037187950223806

>  <r_i_glide_esite>  (1) 
0

>  <r_i_glide_evdw>  (1) 
-26.680845478878116

>  <r_i_glide_gscore>  (1) 
-5.3420190443600539

>  <r_i_glide_gscore_strain>  (1) 
0

>  <r_i_glide_hbond>  (1) 
-0.44028127657865812

>  <r_i_glide_ligand_efficiency>  (1) 
-0.18766407791697817

>  <r_i_glide_ligand_efficiency_ln>  (1) 
-1.2129146187198077

>  <r_i_glide_ligand_efficiency_sa>  (1) 
-0.56985866941991103

>  <r_i_glide_lipo>  (1) 
-1.908055792242116

>  <r_i_glide_metal>  (1) 
-0

>  <r_i_glide_rewards>  (1) 
-1.4422284039369502

>  <r_lp_Energy>  (1) 
16.245208999999999

>  <s_epik_cmdline>  (1) 
J2VwaWtfcHl0aG9uJywgJy1waHQnLCAnMS4wJywgJy1waCcsICc3LjQnLCAnLXRuJywgJzgnLCAnLW1hJywgJzUwMCcsICctaW1hZScsICc8aW5maWxlLm1hZT4nLCAnLW9tYWUnLCAnPG91dGZpbGUubWFlPic=

>  <s_epik_input>  (1) 
W0NIMl0xW0NIMl1PW0NIXT1DMUMoPU8pW0NIMl1bQ0BIXTJbQ0gyXVtDSDJdTihbQ0BAXTIzW09IXSlbQ0gyXVtDQEBIXShbTkhdW0NIMl0zKVxbQ0hdPUM0XFtDQEBIXShbTkhdW0NIMl1bQ0gyXTQpW0NASF0oW0NIM10pW0NIMl1bT0hd

>  <s_glide_docking_method>  (1) 
confgen

>  <s_i_glide_gridfile>  (1) 
gpcr_5ht2c_6bqh_protein_autoprepared_prepared

>  <s_lp_Force_Field>  (1) 
S-OPLS

>  <s_lp_Variant>  (1) 
DiffSBDD_1_num_sample_100-3

>  <s_m_source_file>  (1) 
generated__ligand_DiffSBDD_2026-05-06_prepared.sdf

>  <GenAI_Model>  (1) 
DiffSBDD

>  <Protein>  (1) 
GPCR_5HT2C

$$$$
DiffSBDD_90_num_sample_100
     RDKit          3D

  0  0  0  0  0  0  0  0  0  0999 V3000
M  V30 BEGIN CTAB
M  V30 COUNTS 84 87 0 0 1
M  V30 BEGIN ATOM
M  V30 1 C 36.636651 29.618505 59.065226 0
M  V30 2 O 42.267504 34.458712 64.451160 0
M  V30 3 F 40.058854 31.221493 52.739172 0
M  V30 4 C 38.626839 26.161958 55.831573 0 CFG=1
M  V30 5 C 40.957271 31.928983 62.941131 0 CFG=2
M  V30 6 C 39.570220 33.303022 61.462060 0 CFG=1
M  V30 7 C 36.587023 23.144119 55.470822 0
M  V30 8 C 38.699355 33.497470 59.070425 0
M  V30 9 C 37.918498 24.952181 56.464873 0
M  V30 10 N 41.140921 33.648071 64.866934 0
M  V30 11 C 39.254598 31.591735 54.916796 0
M  V30 12 C 38.865782 24.251134 57.441181 0
M  V30 13 C 40.602212 32.167795 61.462202 0
M  V30 14 C 40.077267 34.223054 62.577621 0
M  V30 15 O 40.897600 30.004412 64.343238 0
M  V30 16 N 37.454171 30.108965 57.954631 0
M  V30 17 C 39.468274 33.942500 60.092920 0
M  V30 18 F 38.267402 32.341966 53.088531 0
M  V30 19 C 39.100368 28.816918 53.943386 0 CFG=1
M  V30 20 N 37.688717 29.239519 56.836985 0
M  V30 21 C 40.209608 30.549817 55.453623 0
M  V30 22 C 38.423003 31.139641 58.332179 0
M  V30 23 O 37.700940 24.021544 55.397485 0
M  V30 24 C 36.622490 25.405744 57.162834 0
M  V30 25 C 35.992608 30.779726 59.854941 0
M  V30 26 C 38.174569 29.926604 53.453537 0
M  V30 27 C 37.775253 32.290209 59.082330 0 CFG=1
M  V30 28 C 40.428998 33.193914 63.668227 0 CFG=1
M  V30 29 C 37.781892 26.760353 54.688706 0
M  V30 30 O 39.123317 30.421438 63.053572 0 CHG=-1
M  V30 31 C 39.029938 28.671735 56.640379 0 CFG=1
M  V30 32 C 37.040091 31.790144 60.328418 0
M  V30 33 O 42.349378 31.770932 63.055669 0
M  V30 34 C 39.124606 27.168605 56.913089 0
M  V30 35 C 39.751049 29.093773 55.342338 0 CFG=1
M  V30 36 C 38.640993 27.395460 53.616549 0
M  V30 37 C 38.950957 31.275375 53.481755 0
M  V30 38 C 40.266964 30.674551 63.492488 0
M  V30 39 H 35.862616 28.959035 58.670487 0
M  V30 40 H 37.276090 29.029940 59.720898 0
M  V30 41 H 41.857058 35.141106 63.939493 0
M  V30 42 H 39.528029 25.756526 55.370070 0
M  V30 43 H 38.605617 32.964102 61.816600 0
M  V30 44 H 36.701238 22.358510 54.724929 0
M  V30 45 H 36.503957 22.670098 56.448465 0
M  V30 46 H 35.655218 23.666280 55.253828 0
M  V30 47 H 38.724384 34.021432 58.137304 0
M  V30 48 H 40.609772 34.288364 65.442130 0
M  V30 49 H 39.676991 32.583545 55.051364 0
M  V30 50 H 38.309644 31.602563 55.461666 0
M  V30 51 H 39.106376 24.917600 58.253458 0
M  V30 52 H 38.436163 23.338133 57.853503 0
M  V30 53 H 39.815468 24.020679 56.965954 0
M  V30 54 H 40.230770 31.280713 60.949829 0
M  V30 55 H 41.495729 32.474006 60.921376 0
M  V30 56 H 39.322886 34.942002 62.899103 0
M  V30 57 H 40.955699 34.772493 62.240412 0
M  V30 58 H 40.077649 34.821466 59.938707 0
M  V30 59 H 39.867400 28.925269 53.197425 0
M  V30 60 H 37.367856 29.709697 55.993237 0
M  V30 61 H 41.184288 30.679726 54.988518 0
M  V30 62 H 40.267399 30.784331 56.500980 0
M  V30 63 H 38.814560 31.609229 57.450443 0
M  V30 64 H 39.234899 30.698079 58.909029 0
M  V30 65 H 36.718335 26.302053 57.769616 0
M  V30 66 H 35.867197 25.621333 56.418454 0
M  V30 67 H 36.267564 24.647684 57.843116 0
M  V30 68 H 35.255228 31.276291 59.221318 0
M  V30 69 H 35.467438 30.421449 60.726494 0
M  V30 70 H 37.870174 29.621432 52.451117 0
M  V30 71 H 37.266804 29.973154 54.058013 0
M  V30 72 H 36.980950 32.663278 58.434939 0
M  V30 73 H 39.467613 32.881106 64.074684 0
M  V30 74 H 37.190496 25.989290 54.197707 0
M  V30 75 H 37.067372 27.481531 55.053704 0
M  V30 76 H 39.637592 29.054033 57.460888 0
M  V30 77 H 37.709052 31.265341 61.005471 0
M  V30 78 H 36.559590 32.607842 60.865617 0
M  V30 79 H 42.479115 31.467894 63.945521 0
M  V30 80 H 40.171954 26.929608 57.108649 0
M  V30 81 H 38.659474 27.016035 57.884347 0
M  V30 82 H 40.667429 28.510558 55.416940 0
M  V30 83 H 39.509458 26.768825 53.413693 0
M  V30 84 H 38.082849 27.398198 52.679343 0
M  V30 END ATOM
M  V30 BEGIN BOND
M  V30 1 1 9 4
M  V30 2 1 10 2
M  V30 3 1 12 9
M  V30 4 1 13 5
M  V30 5 1 13 6
M  V30 6 1 14 6
M  V30 7 1 16 1
M  V30 8 1 17 6
M  V30 9 2 17 8
M  V30 10 1 20 16
M  V30 11 1 21 11
M  V30 12 1 22 16
M  V30 13 1 23 7
M  V30 14 1 23 9
M  V30 15 1 24 9
M  V30 16 1 25 1
M  V30 17 1 26 19
M  V30 18 1 27 8
M  V30 19 1 27 22
M  V30 20 1 28 5
M  V30 21 1 28 10
M  V30 22 1 28 14
M  V30 23 1 29 4
M  V30 24 1 31 20
M  V30 25 1 32 25
M  V30 26 1 32 27
M  V30 27 1 5 33 CFG=3
M  V30 28 1 34 4
M  V30 29 1 34 31
M  V30 30 1 35 19
M  V30 31 1 35 21
M  V30 32 1 35 31
M  V30 33 1 36 19
M  V30 34 1 36 29
M  V30 35 1 37 3
M  V30 36 1 37 11
M  V30 37 1 37 18
M  V30 38 1 37 26
M  V30 39 1 38 5
M  V30 40 2 38 15
M  V30 41 1 38 30
M  V30 42 1 39 1
M  V30 43 1 40 1
M  V30 44 1 41 2
M  V30 45 1 4 42 CFG=3
M  V30 46 1 6 43 CFG=1
M  V30 47 1 44 7
M  V30 48 1 45 7
M  V30 49 1 46 7
M  V30 50 1 47 8
M  V30 51 1 48 10
M  V30 52 1 49 11
M  V30 53 1 50 11
M  V30 54 1 51 12
M  V30 55 1 52 12
M  V30 56 1 53 12
M  V30 57 1 54 13
M  V30 58 1 55 13
M  V30 59 1 56 14
M  V30 60 1 57 14
M  V30 61 1 58 17
M  V30 62 1 19 59 CFG=3
M  V30 63 1 60 20
M  V30 64 1 61 21
M  V30 65 1 62 21
M  V30 66 1 63 22
M  V30 67 1 64 22
M  V30 68 1 65 24
M  V30 69 1 66 24
M  V30 70 1 67 24
M  V30 71 1 68 25
M  V30 72 1 69 25
M  V30 73 1 70 26
M  V30 74 1 71 26
M  V30 75 1 27 72 CFG=3
M  V30 76 1 28 73 CFG=1
M  V30 77 1 74 29
M  V30 78 1 75 29
M  V30 79 1 31 76 CFG=1
M  V30 80 1 77 32
M  V30 81 1 78 32
M  V30 82 1 79 33
M  V30 83 1 80 34
M  V30 84 1 81 34
M  V30 85 1 35 82 CFG=3
M  V30 86 1 83 36
M  V30 87 1 84 36
M  V30 END BOND
M  V30 END CTAB
M  END
>  <i_epik_Tot_Q>  (1) 
-1

>  <i_epik_Tot_abs_Q>  (1) 
1

>  <i_i_glide_confnum>  (1) 
600

>  <i_i_glide_lignum>  (1) 
231

>  <i_i_glide_posenum>  (1) 
26

>  <i_i_glide_rotatable_bonds>  (1) 
10

>  <i_lp_mmshare_version>  (1) 
72125

>  <i_m_source_file_index>  (1) 
91

>  <i_f3d_flags>  (1) 
0

>  <num_sample>  (1) 
100

>  <b_lp_Chiralities_Consistent>  (1) 
1

>  <r_epik_Charging_Adjusted_Penalty>  (1) 
0.43821527866000726

>  <r_epik_Ionization_Penalty>  (1) 
0.52002734918543769

>  <r_epik_Ionization_Penalty_Charging>  (1) 
0.00012691742049533285

>  <r_epik_Ionization_Penalty_Neutral>  (1) 
0.51990043176494238

>  <r_epik_State_Penalty>  (1) 
0.43808836123951195

>  <r_glide_ring_energy>  (1) 
0.35261698705849204

>  <r_i_docking_score>  (1) 
-5.2483349836440727

>  <r_i_glide_ecoul>  (1) 
2.2942591977200246

>  <r_i_glide_eff_state_penalty>  (1) 
0.43808836123951195

>  <r_i_glide_einternal>  (1) 
32.159848296553122

>  <r_i_glide_emodel>  (1) 
-13.520225997171217

>  <r_i_glide_emodel_strain>  (1) 
3.2109302970612532

>  <r_i_glide_energy>  (1) 
-27.924410382555678

>  <r_i_glide_erotb>  (1) 
0.42146348941000378

>  <r_i_glide_esite>  (1) 
-0.12638054903331686

>  <r_i_glide_evdw>  (1) 
-30.218669580275701

>  <r_i_glide_gscore>  (1) 
-5.6864233448835844

>  <r_i_glide_gscore_strain>  (1) 
0

>  <r_i_glide_hbond>  (1) 
0

>  <r_i_glide_ligand_efficiency>  (1) 
-0.13811407851694929

>  <r_i_glide_ligand_efficiency_ln>  (1) 
-1.1316954128467815

>  <r_i_glide_ligand_efficiency_sa>  (1) 
-0.46433613530668461

>  <r_i_glide_lipo>  (1) 
-3.8235213906239576

>  <r_i_glide_metal>  (1) 
-0

>  <r_i_glide_rewards>  (1) 
-0.99119029528053226

>  <r_lp_Energy>  (1) 
56.361058

>  <s_epik_Chemistry_Notes>  (1) 
This compound has a N-S or N-O group and may undergo hydrolysis at high or low pH.

>  <s_epik_cmdline>  (1) 
J2VwaWtfcHl0aG9uJywgJy1waHQnLCAnMS4wJywgJy1waCcsICc3LjQnLCAnLXRuJywgJzgnLCAnLW1hJywgJzUwMCcsICctaW1hZScsICc8aW5maWxlLm1hZT4nLCAnLW9tYWUnLCAnPG91dGZpbGUubWFlPic=

>  <s_epik_input>  (1) 
RkMoRikoW0NIMl0xKVtDSDJdW0NIMl1bQ0BIXShbQ0BASF0xMilbQ0BIXShbQ0gyXVtDQEhdKFtDSDJdW0NIMl0yKUMoW0NIM10pKFtDSDNdKU9bQ0gzXSlbTkhdTjNbQ0gyXVtDSDJdW0NIMl1bQ0BIXShbQ0gyXTMpL1tDSF09W0NIXVxbQ0BASF0oW0NIMl1bQ0BdNChbT0hdKUMoPU8pW09IXSlbQ0gyXVtDQEBIXTRbTkhdW09IXQ==

>  <s_glide_docking_method>  (1) 
confgen

>  <s_i_glide_gridfile>  (1) 
gpcr_5ht2c_6bqh_protein_autoprepared_prepared

>  <s_lp_Force_Field>  (1) 
S-OPLS

>  <s_lp_Variant>  (1) 
DiffSBDD_90_num_sample_100-3

>  <s_m_source_file>  (1) 
generated__ligand_DiffSBDD_2026-05-06_prepared.sdf

>  <GenAI_Model>  (1) 
DiffSBDD

>  <Protein>  (1) 
GPCR_5HT2C

$$$$
DiffSBDD_39_num_sample_100
     RDKit          3D

  0  0  0  0  0  0  0  0  0  0999 V3000
M  V30 BEGIN CTAB
M  V30 COUNTS 60 63 0 0 1
M  V30 BEGIN ATOM
M  V30 1 C 41.895527 27.853570 63.966121 0
M  V30 2 C 38.960021 32.567205 60.484431 0
M  V30 3 C 40.336014 30.668214 66.317586 0
M  V30 4 C 40.054825 32.441345 61.567165 0
M  V30 5 C 40.725860 29.986641 63.320369 0
M  V30 6 C 38.667401 31.266396 58.328325 0
M  V30 7 N 38.253069 29.168719 55.149279 0
M  V30 8 O 41.147804 30.590393 67.267178 0 CHG=-1
M  V30 9 C 38.523271 30.036781 57.439443 0
M  V30 10 C 42.970604 29.962633 64.611841 0
M  V30 11 O 39.275756 30.021417 66.253512 0
M  V30 12 C 44.014500 29.226060 65.216048 0
M  V30 13 C 43.995556 27.821196 65.198258 0
M  V30 14 N 40.422953 31.232614 63.781407 0
M  V30 15 C 42.923192 25.622914 64.549210 0
M  V30 16 C 41.989532 32.312626 65.294244 0
M  V30 17 C 38.131286 26.766700 54.729965 0
M  V30 18 C 39.488084 32.021593 62.947220 0
M  V30 19 C 41.155069 25.314293 66.328910 0
M  V30 20 C 38.531020 28.683969 57.932952 0
M  V30 21 C 40.595171 31.702548 65.186711 0 CFG=2
M  V30 22 C 38.029200 25.517278 55.686234 0
M  V30 23 O 40.975109 25.621437 67.523922 0 CHG=-1
M  V30 24 C 41.883451 29.261867 63.987133 0
M  V30 25 S 38.389519 25.971054 57.453339 0
M  V30 26 C 38.397639 27.645820 56.996735 0
M  V30 27 O 38.667403 28.389930 59.256524 0 CHG=-1
M  V30 28 C 42.939708 27.137169 64.570865 0
M  V30 29 Cl 38.372945 31.812056 55.354143 0
M  V30 30 C 42.591137 24.999275 65.906990 0
M  V30 31 C 38.378654 30.212416 56.018546 0
M  V30 32 C 38.799555 31.286751 59.677067 0
M  V30 33 C 43.057411 31.484023 64.594201 0
M  V30 34 O 40.097432 29.438008 62.413214 0
M  V30 35 C 38.267436 27.927412 55.669559 0
M  V30 36 O 40.267403 25.221426 65.453496 0
M  V30 37 H 41.085457 27.317807 63.490953 0
M  V30 38 H 39.218748 33.375261 59.799156 0
M  V30 39 H 38.002216 32.838221 60.930078 0
M  V30 40 H 40.828886 31.759459 61.213161 0
M  V30 41 H 40.558471 33.401333 61.686364 0
M  V30 42 H 38.667481 32.214801 57.817677 0
M  V30 43 H 44.838019 29.742854 65.686212 0
M  V30 44 H 44.797713 27.266191 65.661819 0
M  V30 45 H 42.176443 25.272444 63.845562 0
M  V30 46 H 43.867382 25.265689 64.162239 0
M  V30 47 H 42.274752 32.484346 66.332829 0
M  V30 48 H 41.984511 33.308794 64.850907 0
M  V30 49 H 37.248323 26.870720 54.098309 0
M  V30 50 H 39.013188 26.706335 54.091931 0
M  V30 51 H 39.160291 32.927185 63.453027 0
M  V30 52 H 38.580872 31.430396 62.806523 0
M  V30 53 H 39.879863 32.493155 65.407781 0
M  V30 54 H 38.689734 24.713384 55.360472 0
M  V30 55 H 37.012689 25.123845 55.654783 0
M  V30 56 H 42.694462 23.916982 65.853480 0
M  V30 57 H 43.288520 25.346024 66.670194 0
M  V30 58 H 38.799926 30.383778 60.245446 0
M  V30 59 H 44.008523 31.752598 65.053499 0
M  V30 60 H 43.067414 31.780190 63.544674 0
M  V30 END ATOM
M  V30 BEGIN BOND
M  V30 1 1 4 2
M  V30 2 1 8 3
M  V30 3 1 9 6
M  V30 4 2 11 3
M  V30 5 1 12 10
M  V30 6 2 13 12
M  V30 7 1 14 5
M  V30 8 1 18 4
M  V30 9 1 18 14
M  V30 10 2 20 9
M  V30 11 1 21 3
M  V30 12 1 21 14
M  V30 13 1 21 16
M  V30 14 1 22 17
M  V30 15 1 23 19
M  V30 16 1 24 1
M  V30 17 1 24 5
M  V30 18 2 24 10
M  V30 19 1 25 22
M  V30 20 1 26 20
M  V30 21 1 26 25
M  V30 22 1 27 20
M  V30 23 2 28 1
M  V30 24 1 28 13
M  V30 25 1 28 15
M  V30 26 1 30 15
M  V30 27 1 30 19
M  V30 28 2 31 7
M  V30 29 1 31 9
M  V30 30 1 31 29
M  V30 31 1 32 2
M  V30 32 2 32 6
M  V30 33 1 33 10
M  V30 34 1 33 16
M  V30 35 2 34 5
M  V30 36 1 35 7
M  V30 37 1 35 17
M  V30 38 2 35 26
M  V30 39 2 36 19
M  V30 40 1 37 1
M  V30 41 1 38 2
M  V30 42 1 39 2
M  V30 43 1 40 4
M  V30 44 1 41 4
M  V30 45 1 42 6
M  V30 46 1 43 12
M  V30 47 1 44 13
M  V30 48 1 45 15
M  V30 49 1 46 15
M  V30 50 1 47 16
M  V30 51 1 48 16
M  V30 52 1 49 17
M  V30 53 1 50 17
M  V30 54 1 51 18
M  V30 55 1 52 18
M  V30 56 1 21 53 CFG=1
M  V30 57 1 54 22
M  V30 58 1 55 22
M  V30 59 1 56 30
M  V30 60 1 57 30
M  V30 61 1 58 32
M  V30 62 1 59 33
M  V30 63 1 60 33
M  V30 END BOND
M  V30 END CTAB
M  END
>  <i_epik_Tot_Q>  (1) 
-3

>  <i_epik_Tot_abs_Q>  (1) 
3

>  <i_i_glide_confnum>  (1) 
139

>  <i_i_glide_lignum>  (1) 
94

>  <i_i_glide_posenum>  (1) 
5

>  <i_i_glide_rotatable_bonds>  (1) 
9

>  <i_lp_mmshare_version>  (1) 
72125

>  <i_m_source_file_index>  (1) 
40

>  <i_f3d_flags>  (1) 
0

>  <num_sample>  (1) 
100

>  <b_lp_Chiralities_Consistent>  (1) 
1

>  <r_epik_Charging_Adjusted_Penalty>  (1) 
0.2804944600534911

>  <r_epik_Ionization_Penalty>  (1) 
0.1893944324441556

>  <r_epik_Ionization_Penalty_Charging>  (1) 
0.1048911762492778

>  <r_epik_Ionization_Penalty_Neutral>  (1) 
0.084503256194877821

>  <r_epik_State_Penalty>  (1) 
0.17560328380421328

>  <r_glide_ring_energy>  (1) 
0

>  <r_i_docking_score>  (1) 
-5.2467841075197326

>  <r_i_glide_ecoul>  (1) 
4.1441382956378119

>  <r_i_glide_eff_state_penalty>  (1) 
0.17560328380421328

>  <r_i_glide_einternal>  (1) 
9.2919122587663843

>  <r_i_glide_emodel>  (1) 
-46.348098138669009

>  <r_i_glide_emodel_strain>  (1) 
0.76744658835112034

>  <r_i_glide_energy>  (1) 
-39.59732235124941

>  <r_i_glide_erotb>  (1) 
0.44331424450836554

>  <r_i_glide_esite>  (1) 
-0.031259343840469522

>  <r_i_glide_evdw>  (1) 
-43.741460646887219

>  <r_i_glide_gscore>  (1) 
-5.4223873913239462

>  <r_i_glide_gscore_strain>  (1) 
0

>  <r_i_glide_hbond>  (1) 
0

>  <r_i_glide_ligand_efficiency>  (1) 
-0.14574400298665924

>  <r_i_glide_ligand_efficiency_ln>  (1) 
-1.1447065405356509

>  <r_i_glide_ligand_efficiency_sa>  (1) 
-0.48123609482463009

>  <r_i_glide_lipo>  (1) 
-3.3031413264234808

>  <r_i_glide_metal>  (1) 
-0

>  <r_i_glide_rewards>  (1) 
-0.96584867756967163

>  <r_lp_Energy>  (1) 
58.368376999999995

>  <s_epik_cmdline>  (1) 
J2VwaWtfcHl0aG9uJywgJy1waHQnLCAnMS4wJywgJy1waCcsICc3LjQnLCAnLXRuJywgJzgnLCAnLW1hJywgJzUwMCcsICctaW1hZScsICc8aW5maWxlLm1hZT4nLCAnLW9tYWUnLCAnPG91dGZpbGUubWFlPic=

>  <s_epik_input>  (1) 
W09IXUMoPU8pW0NIMl1bQ0gyXWMoW2NIXVtjSF0xKVtjSF1jKGMxMilDKD1PKU4oW0NAQEhdKEMoPU8pW09IXSlbQ0gyXVtDSDJdMilbQ0gyXVtDSDJdW0NIMl1cW0NIXT1bQ0hdXGMoYzNbT0hdKWMoQ2wpbmMoYzM0KVtDSDJdW0NIMl1TNA==

>  <s_glide_docking_method>  (1) 
confgen

>  <s_i_glide_gridfile>  (1) 
gpcr_5ht2c_6bqh_protein_autoprepared_prepared

>  <s_lp_Force_Field>  (1) 
S-OPLS

>  <s_lp_Variant>  (1) 
DiffSBDD_39_num_sample_100-1

>  <s_m_source_file>  (1) 
generated__ligand_DiffSBDD_2026-05-06_prepared.sdf

>  <GenAI_Model>  (1) 
DiffSBDD

>  <Protein>  (1) 
GPCR_5HT2C

$$$$
DiffSBDD_6_num_sample_100
     RDKit          3D

  0  0  0  0  0  0  0  0  0  0999 V3000
M  V30 BEGIN CTAB
M  V30 COUNTS 67 70 0 0 1
M  V30 BEGIN ATOM
M  V30 1 C 39.821348 28.185323 57.437337 0 CFG=1
M  V30 2 C 40.510316 36.420704 63.936534 0
M  V30 3 O 39.467197 31.703439 59.946359 0
M  V30 4 C 35.977594 32.772009 59.701142 0 CFG=2
M  V30 5 N 38.614494 28.537133 58.178791 0
M  V30 6 N 36.877493 34.733712 61.617179 0
M  V30 7 O 37.311027 34.662177 58.755027 0
M  V30 8 C 37.045444 32.191391 60.611004 0 CFG=1
M  V30 9 O 35.214638 31.616343 59.453365 0
M  V30 10 O 36.504169 36.888898 62.318079 0
M  V30 11 S 38.825948 30.638614 54.293946 0
M  V30 12 S 38.118387 31.204295 59.495643 0
M  V30 13 O 34.452244 34.457972 59.391362 0
M  V30 14 C 36.611518 33.491133 58.437472 0
M  V30 15 C 40.225506 26.743476 57.756026 0
M  V30 16 C 41.469908 36.130598 62.952576 0
M  V30 17 C 38.469268 27.921885 55.211711 0
M  V30 18 S 37.471828 29.071551 54.288932 0
M  V30 19 C 33.267532 34.050916 58.747252 0
M  V30 20 O 39.723616 30.489620 53.140734 0
M  V30 21 C 38.911853 28.620784 59.596840 0
M  V30 22 C 39.156490 36.436624 63.616100 0
M  V30 23 C 39.179746 25.718158 57.323066 0
M  V30 24 S 38.015517 33.430069 61.461464 0
M  V30 25 C 39.684884 30.074113 55.783776 0
M  V30 26 C 38.738206 36.100921 62.321397 0
M  V30 27 C 39.687819 28.525173 55.930260 0 CFG=1
M  V30 28 C 39.049592 25.661280 55.795914 0
M  V30 29 O 38.157067 31.911805 54.589260 0
M  V30 30 C 35.476216 34.341590 61.624515 0
M  V30 31 C 37.274313 35.974297 62.043875 0
M  V30 32 C 41.067516 35.837639 61.638418 0
M  V30 33 C 39.701385 35.816162 61.317327 0
M  V30 34 C 34.930941 33.625597 60.398557 0 CFG=2
M  V30 35 N 38.172103 26.680459 55.242562 0
M  V30 36 C 37.954833 29.572394 60.283246 0
M  V30 37 H 40.631351 28.819999 57.796880 0
M  V30 38 H 40.821233 36.641005 64.945467 0
M  V30 39 H 38.268774 29.430181 57.856820 0
M  V30 40 H 36.658640 35.336845 58.883475 0
M  V30 41 H 36.621123 31.557576 61.392067 0
M  V30 42 H 35.067418 31.602181 58.490744 0
M  V30 43 H 35.865705 33.872695 57.766843 0
M  V30 44 H 37.221432 32.862443 57.795274 0
M  V30 45 H 41.187970 26.518371 57.300980 0
M  V30 46 H 40.390587 26.639877 58.822268 0
M  V30 47 H 42.520824 36.142473 63.205667 0
M  V30 48 H 32.997881 34.818265 58.013030 0
M  V30 49 H 33.444167 33.103627 58.256090 0
M  V30 50 H 32.448604 33.952573 59.455685 0
M  V30 51 H 39.916450 29.013742 59.748977 0
M  V30 52 H 38.871456 27.633160 60.052008 0
M  V30 53 H 38.426842 36.655582 64.382138 0
M  V30 54 H 39.498995 24.743242 57.693251 0
M  V30 55 H 38.211939 25.911611 57.789651 0
M  V30 56 H 40.666848 30.505954 55.704273 0
M  V30 57 H 39.184547 30.559920 56.616874 0
M  V30 58 H 40.036416 25.684859 55.326873 0
M  V30 59 H 38.633251 24.686871 55.537113 0
M  V30 60 H 35.549774 33.473609 62.253526 0
M  V30 61 H 34.789687 34.820409 62.291058 0
M  V30 62 H 41.807838 35.613201 60.882014 0
M  V30 63 H 39.387388 35.562295 60.309721 0
M  V30 64 H 34.082137 33.068974 60.790334 0
M  V30 65 H 40.570917 28.159536 55.416426 0
M  V30 66 H 38.268006 29.638993 61.330720 0
M  V30 67 H 36.907428 29.291531 60.241274 0
M  V30 END ATOM
M  V30 BEGIN BOND
M  V30 1 1 5 1
M  V30 2 1 8 4
M  V30 3 1 4 9 CFG=3
M  V30 4 2 12 3
M  V30 5 1 12 8
M  V30 6 1 14 4
M  V30 7 1 14 7
M  V30 8 1 15 1
M  V30 9 2 16 2
M  V30 10 1 18 11
M  V30 11 1 18 17
M  V30 12 1 19 13
M  V30 13 2 20 11
M  V30 14 1 21 5
M  V30 15 1 22 2
M  V30 16 1 23 15
M  V30 17 1 24 6
M  V30 18 1 24 8
M  V30 19 1 25 11
M  V30 20 2 26 22
M  V30 21 1 27 1
M  V30 22 1 27 17
M  V30 23 1 27 25
M  V30 24 1 28 23
M  V30 25 2 29 11
M  V30 26 1 30 6
M  V30 27 1 31 6
M  V30 28 2 31 10
M  V30 29 1 31 26
M  V30 30 1 32 16
M  V30 31 1 33 26
M  V30 32 2 33 32
M  V30 33 1 34 4
M  V30 34 1 34 13
M  V30 35 1 34 30
M  V30 36 2 35 17
M  V30 37 1 35 28
M  V30 38 1 12 36 CFG=1
M  V30 39 1 36 21
M  V30 40 1 1 37 CFG=1
M  V30 41 1 38 2
M  V30 42 1 39 5
M  V30 43 1 40 7
M  V30 44 1 8 41 CFG=1
M  V30 45 1 42 9
M  V30 46 1 43 14
M  V30 47 1 44 14
M  V30 48 1 45 15
M  V30 49 1 46 15
M  V30 50 1 47 16
M  V30 51 1 48 19
M  V30 52 1 49 19
M  V30 53 1 50 19
M  V30 54 1 51 21
M  V30 55 1 52 21
M  V30 56 1 53 22
M  V30 57 1 54 23
M  V30 58 1 55 23
M  V30 59 1 56 25
M  V30 60 1 57 25
M  V30 61 1 58 28
M  V30 62 1 59 28
M  V30 63 1 60 30
M  V30 64 1 61 30
M  V30 65 1 62 32
M  V30 66 1 63 33
M  V30 67 1 34 64 CFG=1
M  V30 68 1 27 65 CFG=3
M  V30 69 1 66 36
M  V30 70 1 67 36
M  V30 END BOND
M  V30 END CTAB
M  END
>  <i_epik_Tot_Q>  (1) 
0

>  <i_epik_Tot_abs_Q>  (1) 
0

>  <i_i_glide_confnum>  (1) 
1049

>  <i_i_glide_lignum>  (1) 
25

>  <i_i_glide_posenum>  (1) 
106

>  <i_i_glide_rotatable_bonds>  (1) 
11

>  <i_lp_mmshare_version>  (1) 
72125

>  <i_m_source_file_index>  (1) 
7

>  <i_f3d_flags>  (1) 
0

>  <num_sample>  (1) 
100

>  <b_lp_Chiralities_Consistent>  (1) 
1

>  <r_epik_Charging_Adjusted_Penalty>  (1) 
0.04024977574551479

>  <r_epik_Ionization_Penalty>  (1) 
0.04050266925573108

>  <r_epik_Ionization_Penalty_Charging>  (1) 
0

>  <r_epik_Ionization_Penalty_Neutral>  (1) 
0.04050266925573108

>  <r_epik_State_Penalty>  (1) 
0.04024977574551479

>  <r_glide_ring_energy>  (1) 
2.3592977893351628

>  <r_i_docking_score>  (1) 
-5.2442177518306723

>  <r_i_glide_ecoul>  (1) 
-8.3923657989514844

>  <r_i_glide_eff_state_penalty>  (1) 
0.04024977574551479

>  <r_i_glide_einternal>  (1) 
6.8912885563251081

>  <r_i_glide_emodel>  (1) 
-22.846826513312415

>  <r_i_glide_emodel_strain>  (1) 
8.8329635332133165

>  <r_i_glide_energy>  (1) 
-20.021919827839707

>  <r_i_glide_erotb>  (1) 
0.34065271397431773

>  <r_i_glide_esite>  (1) 
-0.062596617603451324

>  <r_i_glide_evdw>  (1) 
-11.629554028888222

>  <r_i_glide_gscore>  (1) 
-5.2844675275761874

>  <r_i_glide_gscore_strain>  (1) 
1.2082408833033291

>  <r_i_glide_hbond>  (1) 
-0.16

>  <r_i_glide_ligand_efficiency>  (1) 
-0.1456727153286298

>  <r_i_glide_ligand_efficiency_ln>  (1) 
-1.1441466310592161

>  <r_i_glide_ligand_efficiency_sa>  (1) 
-0.48100070816407275

>  <r_i_glide_lipo>  (1) 
-3.4132074150011351

>  <r_i_glide_metal>  (1) 
-0

>  <r_i_glide_rewards>  (1) 
-1.3572245209621125

>  <r_lp_Energy>  (1) 
38.802732999999996

>  <r_lp_tautomer_probability>  (1) 
0.99960115913750414

>  <s_epik_Chemistry_Notes>  (1) 
This compound has an imine and may undergo hydrolysis. This compound contains an acetal/aminal-like group ( X-CH(R)-Y where X, Y are N, S, or O) that may be acid/base labile, releasing an aldehyde. This compound has a N-S or N-O group and may undergo hydrolysis at high or low pH.

>  <s_epik_cmdline>  (1) 
J2VwaWtfcHl0aG9uJywgJy1waHQnLCAnMS4wJywgJy1waCcsICc3LjQnLCAnLXRuJywgJzgnLCAnLW1hJywgJzUwMCcsICctaW1hZScsICc8aW5maWxlLm1hZT4nLCAnLW9tYWUnLCAnPG91dGZpbGUubWFlPic=

>  <s_epik_input>  (1) 
UzFTKD1PKSg9TylbQ0gyXUMoPUMxMilbQ0BIXShbQ0gyXVtDSDJdW0NIMl1bTkhdMilbTkhdW0NIMl1bQ0gyXVtTQF0oPU8pW0NASF0oW0NAXTMoW09IXSlbQ0gyXVtPSF0pU04oW0NIMl1bQ0BIXTNPW0NIM10pQyg9TyljNFtjSF1bY0hdW2NIXVtjSF1bY0hdNA==

>  <s_glide_docking_method>  (1) 
confgen

>  <s_i_glide_gridfile>  (1) 
gpcr_5ht2c_6bqh_protein_autoprepared_prepared

>  <s_lp_Force_Field>  (1) 
S-OPLS

>  <s_lp_Variant>  (1) 
DiffSBDD_6_num_sample_100-1

>  <s_m_source_file>  (1) 
generated__ligand_DiffSBDD_2026-05-06_prepared.sdf

>  <GenAI_Model>  (1) 
DiffSBDD

>  <Protein>  (1) 
GPCR_5HT2C

$$$$
DiffSBDD_37_num_sample_100
     RDKit          3D

  0  0  0  0  0  0  0  0  0  0999 V3000
M  V30 BEGIN CTAB
M  V30 COUNTS 23 23 0 0 1
M  V30 BEGIN ATOM
M  V30 1 C 38.587212 29.347067 55.750740 0 CFG=2
M  V30 2 O 38.180952 29.203420 57.099580 0
M  V30 3 C 38.314610 30.725475 55.146436 0 CFG=2
M  V30 4 C 38.731841 28.034346 54.977839 0 CFG=2
M  V30 5 O 39.203912 25.688648 55.053494 0 CHG=-1
M  V30 6 N 37.867503 31.967042 57.275467 0 CHG=1
M  V30 7 C 38.667406 31.933913 56.037500 0
M  V30 8 C 38.603061 27.923620 53.463713 0
M  V30 9 O 36.996501 30.820729 54.653548 0
M  V30 10 C 38.711710 26.654489 55.678652 0
M  V30 11 O 39.866622 28.788109 55.453527 0
M  V30 12 O 38.202610 26.602441 56.822773 0
M  V30 13 H 38.116310 28.253368 57.243149 0
M  V30 14 H 38.946887 30.804051 54.261316 0
M  V30 15 H 38.125437 32.745913 57.860623 0
M  V30 16 H 36.862768 32.021410 57.053493 0
M  V30 17 H 39.724365 31.898665 56.303519 0
M  V30 18 H 38.508456 32.864360 55.490506 0
M  V30 19 H 37.706008 27.361146 53.201576 0
M  V30 20 H 38.533369 28.905991 52.999692 0
M  V30 21 H 39.467631 27.409155 53.043630 0
M  V30 22 H 36.387075 30.905240 55.379057 0
M  V30 23 H 38.013419 31.086081 57.756300 0
M  V30 END ATOM
M  V30 BEGIN BOND
M  V30 1 1 1 2 CFG=1
M  V30 2 1 3 1
M  V30 3 1 4 1
M  V30 4 1 7 3
M  V30 5 1 7 6
M  V30 6 1 4 8 CFG=3
M  V30 7 1 9 3
M  V30 8 1 10 4
M  V30 9 1 10 5
M  V30 10 1 11 1
M  V30 11 1 11 4
M  V30 12 2 12 10
M  V30 13 1 13 2
M  V30 14 1 3 14 CFG=3
M  V30 15 1 15 6
M  V30 16 1 16 6
M  V30 17 1 17 7
M  V30 18 1 18 7
M  V30 19 1 19 8
M  V30 20 1 20 8
M  V30 21 1 21 8
M  V30 22 1 22 9
M  V30 23 1 23 6
M  V30 END BOND
M  V30 END CTAB
M  END
>  <i_epik_Tot_Q>  (1) 
0

>  <i_epik_Tot_abs_Q>  (1) 
2

>  <i_i_glide_confnum>  (1) 
1

>  <i_i_glide_lignum>  (1) 
91

>  <i_i_glide_posenum>  (1) 
84

>  <i_i_glide_rotatable_bonds>  (1) 
5

>  <i_lp_mmshare_version>  (1) 
72125

>  <i_m_source_file_index>  (1) 
38

>  <i_f3d_flags>  (1) 
0

>  <num_sample>  (1) 
100

>  <b_lp_Chiralities_Consistent>  (1) 
1

>  <r_epik_Charging_Adjusted_Penalty>  (1) 
0.074826181312878909

>  <r_epik_Ionization_Penalty>  (1) 
0.037455731975657096

>  <r_epik_Ionization_Penalty_Charging>  (1) 
0.037420022134994256

>  <r_epik_Ionization_Penalty_Neutral>  (1) 
3.5709840662840338e-05

>  <r_epik_State_Penalty>  (1) 
0.03740615917788466

>  <r_glide_ring_energy>  (1) 
0

>  <r_i_docking_score>  (1) 
-5.2287379653785653

>  <r_i_glide_ecoul>  (1) 
-8.4910285127824441

>  <r_i_glide_eff_state_penalty>  (1) 
0.03740615917788466

>  <r_i_glide_einternal>  (1) 
3.6842972010142176

>  <r_i_glide_emodel>  (1) 
-37.33033314093494

>  <r_i_glide_emodel_strain>  (1) 
0.88353451295273899

>  <r_i_glide_energy>  (1) 
-24.970223843183177

>  <r_i_glide_erotb>  (1) 
0.49897273093522621

>  <r_i_glide_esite>  (1) 
-0.10000000000000001

>  <r_i_glide_evdw>  (1) 
-16.479195330400735

>  <r_i_glide_gscore>  (1) 
-5.2661441245564502

>  <r_i_glide_gscore_strain>  (1) 
0

>  <r_i_glide_hbond>  (1) 
-0.35999999999999999

>  <r_i_glide_ligand_efficiency>  (1) 
-0.43572816378154711

>  <r_i_glide_ligand_efficiency_ln>  (1) 
-1.5003954168174487

>  <r_i_glide_ligand_efficiency_sa>  (1) 
-0.99756846992469572

>  <r_i_glide_lipo>  (1) 
-0.50767915960756871

>  <r_i_glide_metal>  (1) 
-0

>  <r_i_glide_rewards>  (1) 
-2.6998236524467045

>  <r_lp_Energy>  (1) 
9.471366999999999

>  <s_epik_cmdline>  (1) 
J2VwaWtfcHl0aG9uJywgJy1waHQnLCAnMS4wJywgJy1waCcsICc3LjQnLCAnLXRuJywgJzgnLCAnLW1hJywgJzUwMCcsICctaW1hZScsICc8aW5maWxlLm1hZT4nLCAnLW9tYWUnLCAnPG91dGZpbGUubWFlPic=

>  <s_epik_input>  (1) 
W05IMl1bQ0gyXVtDQEhdKFtPSF0pW0NAQF0xKFtPSF0pW0NAXShPMSkoW0NIM10pQyg9TylbT0hd

>  <s_glide_docking_method>  (1) 
confgen

>  <s_i_glide_gridfile>  (1) 
gpcr_5ht2c_6bqh_protein_autoprepared_prepared

>  <s_lp_Force_Field>  (1) 
S-OPLS

>  <s_lp_Variant>  (1) 
DiffSBDD_37_num_sample_100-1

>  <s_m_source_file>  (1) 
generated__ligand_DiffSBDD_2026-05-06_prepared.sdf

>  <GenAI_Model>  (1) 
DiffSBDD

>  <Protein>  (1) 
GPCR_5HT2C

$$$$
DiffSBDD_66_num_sample_100
     RDKit          3D

  0  0  0  0  0  0  0  0  0  0999 V3000
M  V30 BEGIN CTAB
M  V30 COUNTS 112 116 0 0 1
M  V30 BEGIN ATOM
M  V30 1 C 39.238121 28.196380 56.160024 0
M  V30 2 C 41.494833 32.904269 62.215789 0
M  V30 3 C 33.786157 33.966214 58.864839 0
M  V30 4 C 38.822226 35.938041 66.950281 0
M  V30 5 C 42.949554 26.696075 65.318091 0
M  V30 6 C 40.914190 25.221011 65.814519 0
M  V30 7 C 35.142145 32.705652 60.406916 0
M  V30 8 S 40.377910 35.701534 62.997675 0
M  V30 9 C 40.266828 33.248109 61.498048 0 CFG=1
M  V30 10 C 39.362781 28.217083 57.636068 0
M  V30 11 C 38.485709 31.103900 56.979550 0
M  V30 12 C 38.425904 30.523355 58.196731 0
M  V30 13 C 44.156470 28.076088 67.171056 0
M  V30 14 C 39.079405 27.389410 54.121111 0
M  V30 15 C 42.687027 32.876862 65.721530 0 CFG=2
M  V30 16 C 39.221635 30.604864 55.779689 0
M  V30 17 C 37.667781 31.248821 59.303680 0
M  V30 18 O 43.435149 28.362442 69.459361 0
M  V30 19 C 37.503357 33.350790 60.912939 0 CFG=1
M  V30 20 N 39.216930 27.082188 55.449133 0 CHG=1
M  V30 21 C 33.946538 32.897350 59.723256 0
M  V30 22 C 36.206591 33.590703 60.205402 0
M  V30 23 C 42.891163 27.351009 66.713575 0
M  V30 24 C 38.965595 29.683942 52.857767 0
M  V30 25 C 39.029531 29.212127 58.505070 0
M  V30 26 C 42.187069 34.329787 65.919707 0
M  V30 27 C 41.578171 26.193670 64.832845 0 CFG=1
M  V30 28 C 41.897956 31.862677 66.578397 0
M  V30 29 C 38.409680 32.417379 60.055544 0 CFG=1
M  V30 30 C 39.570076 31.960137 60.958842 0 CFG=2
M  V30 31 C 41.026599 36.889088 66.661838 0
M  V30 32 C 42.686218 30.606888 66.842188 0
M  V30 33 N 39.144902 29.232047 55.342081 0
M  V30 34 C 36.056473 34.670434 59.316410 0
M  V30 35 C 39.048023 28.773795 54.034126 0
M  V30 36 C 44.190767 32.895895 66.106296 0
M  V30 37 O 40.738050 27.313432 64.642655 0
M  V30 38 C 42.663854 32.493969 64.237670 0
M  V30 39 C 40.667357 34.468010 66.033872 0
M  V30 40 C 40.052464 35.899598 65.992005 0
M  V30 41 C 39.409993 34.238544 62.348561 0 CFG=2
M  V30 42 N 41.463227 32.575983 63.460696 0 CHG=1
M  V30 43 C 43.173830 30.278380 68.050538 0
M  V30 44 C 39.566567 36.349846 64.540034 0
M  V30 45 C 34.829962 34.847179 58.653294 0
M  V30 46 C 39.157134 30.930373 62.050973 0
M  V30 47 C 45.350100 27.887052 66.584122 0
M  V30 48 C 43.986819 29.029534 68.347574 0 CFG=2
M  V30 49 C 38.205925 34.626816 61.460232 0
M  V30 50 H 42.463512 32.947452 61.728012 0
M  V30 51 H 32.845003 34.104287 58.350330 0
M  V30 52 H 38.306087 34.984077 67.055468 0
M  V30 53 H 38.101085 36.685988 66.624606 0
M  V30 54 H 39.069152 36.191064 67.981096 0
M  V30 55 H 43.336227 27.405773 64.584382 0
M  V30 56 H 43.652341 25.862508 65.337095 0
M  V30 57 H 41.602799 24.420071 66.061782 0
M  V30 58 H 40.016209 24.781696 65.384983 0
M  V30 59 H 40.626939 25.705778 66.748517 0
M  V30 60 H 35.248084 31.858944 61.079623 0
M  V30 61 H 39.735977 27.298504 58.068479 0
M  V30 62 H 37.995529 32.062284 56.850390 0
M  V30 63 H 39.039193 26.630026 53.349696 0
M  V30 64 H 38.866872 31.230919 54.965019 0
M  V30 65 H 40.267258 30.863413 55.879433 0
M  V30 66 H 36.789375 31.612186 58.778762 0
M  V30 67 H 37.265886 30.515083 59.995882 0
M  V30 68 H 42.584035 28.027816 69.222419 0
M  V30 69 H 37.198610 32.800049 61.796698 0
M  V30 70 H 33.149176 32.227800 59.852922 0
M  V30 71 H 42.055789 28.047557 66.731563 0
M  V30 72 H 42.653234 26.600364 67.463578 0
M  V30 73 H 38.622528 29.155641 51.970106 0
M  V30 74 H 39.938844 30.127786 52.645141 0
M  V30 75 H 38.265732 30.481079 53.065162 0
M  V30 76 H 39.169100 28.989384 59.554253 0
M  V30 77 H 42.618818 34.719554 66.840402 0
M  V30 78 H 42.559772 34.969640 65.115202 0
M  V30 79 H 41.707056 25.693452 63.874142 0
M  V30 80 H 41.658775 32.302176 67.546851 0
M  V30 81 H 40.948498 31.594672 66.113224 0
M  V30 82 H 38.818140 33.044449 59.258827 0
M  V30 83 H 40.264954 31.437759 60.306512 0
M  V30 84 H 42.035792 36.820501 66.255555 0
M  V30 85 H 41.114473 36.685331 67.733040 0
M  V30 86 H 40.670767 37.917667 66.653558 0
M  V30 87 H 42.858835 29.961766 65.994459 0
M  V30 88 H 36.867133 35.360375 59.141508 0
M  V30 89 H 44.726936 33.618075 65.494047 0
M  V30 90 H 44.700891 31.956599 65.900413 0
M  V30 91 H 44.348311 33.160758 67.155964 0
M  V30 92 H 39.855959 27.039274 64.425466 0
M  V30 93 H 43.067404 33.393004 63.791374 0
M  V30 94 H 43.200940 31.579090 63.974678 0
M  V30 95 H 40.268028 33.839170 65.253816 0
M  V30 96 H 40.359666 33.996124 66.966869 0
M  V30 97 H 39.063317 33.695829 63.221075 0
M  V30 98 H 42.993820 30.936530 68.886185 0
M  V30 99 H 38.498993 36.172137 64.427553 0
M  V30 100 H 39.666407 37.434619 64.469995 0
M  V30 101 H 34.673007 35.676908 57.984044 0
M  V30 102 H 38.511683 31.356235 62.817592 0
M  V30 103 H 40.029548 30.510597 62.551679 0
M  V30 104 H 38.640571 30.072768 61.626697 0
M  V30 105 H 46.226511 28.408235 66.934795 0
M  V30 106 H 45.468197 27.211579 65.751600 0
M  V30 107 H 44.974371 29.390950 68.640335 0
M  V30 108 H 37.501858 35.246823 62.022519 0
M  V30 109 H 38.545249 35.240803 60.627179 0
M  V30 110 H 39.286546 26.147815 55.832613 0
M  V30 111 H 40.605532 33.842219 60.656666 0
M  V30 112 H 40.571231 32.524928 63.946199 0
M  V30 END ATOM
M  V30 BEGIN BOND
M  V30 1 1 9 2
M  V30 2 1 10 1
M  V30 3 2 12 11
M  V30 4 1 16 11
M  V30 5 1 17 12
M  V30 6 2 20 1
M  V30 7 1 20 14
M  V30 8 2 21 3
M  V30 9 1 21 7
M  V30 10 2 22 7
M  V30 11 1 22 19
M  V30 12 1 23 5
M  V30 13 1 23 13
M  V30 14 2 25 10
M  V30 15 1 25 12
M  V30 16 1 26 15
M  V30 17 1 27 5
M  V30 18 1 27 6
M  V30 19 1 15 28 CFG=1
M  V30 20 1 29 17
M  V30 21 1 29 19
M  V30 22 1 30 9
M  V30 23 1 30 29
M  V30 24 1 32 28
M  V30 25 1 33 1
M  V30 26 1 33 16
M  V30 27 1 34 22
M  V30 28 2 35 14
M  V30 29 1 35 24
M  V30 30 1 35 33
M  V30 31 1 36 15
M  V30 32 1 37 27
M  V30 33 1 38 15
M  V30 34 1 39 26
M  V30 35 1 40 4
M  V30 36 1 40 31
M  V30 37 1 40 39
M  V30 38 1 41 8
M  V30 39 1 41 9
M  V30 40 2 42 2
M  V30 41 1 42 38
M  V30 42 2 43 32
M  V30 43 1 44 8
M  V30 44 1 44 40
M  V30 45 1 45 3
M  V30 46 2 45 34
M  V30 47 1 46 30
M  V30 48 2 47 13
M  V30 49 1 48 13
M  V30 50 1 48 18
M  V30 51 1 48 43
M  V30 52 1 49 19
M  V30 53 1 49 41
M  V30 54 1 50 2
M  V30 55 1 51 3
M  V30 56 1 52 4
M  V30 57 1 53 4
M  V30 58 1 54 4
M  V30 59 1 55 5
M  V30 60 1 56 5
M  V30 61 1 57 6
M  V30 62 1 58 6
M  V30 63 1 59 6
M  V30 64 1 60 7
M  V30 65 1 61 10
M  V30 66 1 62 11
M  V30 67 1 63 14
M  V30 68 1 64 16
M  V30 69 1 65 16
M  V30 70 1 66 17
M  V30 71 1 67 17
M  V30 72 1 68 18
M  V30 73 1 19 69 CFG=1
M  V30 74 1 70 21
M  V30 75 1 71 23
M  V30 76 1 72 23
M  V30 77 1 73 24
M  V30 78 1 74 24
M  V30 79 1 75 24
M  V30 80 1 76 25
M  V30 81 1 77 26
M  V30 82 1 78 26
M  V30 83 1 27 79 CFG=3
M  V30 84 1 80 28
M  V30 85 1 81 28
M  V30 86 1 29 82 CFG=3
M  V30 87 1 30 83 CFG=3
M  V30 88 1 84 31
M  V30 89 1 85 31
M  V30 90 1 86 31
M  V30 91 1 87 32
M  V30 92 1 88 34
M  V30 93 1 89 36
M  V30 94 1 90 36
M  V30 95 1 91 36
M  V30 96 1 92 37
M  V30 97 1 93 38
M  V30 98 1 94 38
M  V30 99 1 95 39
M  V30 100 1 96 39
M  V30 101 1 41 97 CFG=1
M  V30 102 1 98 43
M  V30 103 1 99 44
M  V30 104 1 100 44
M  V30 105 1 101 45
M  V30 106 1 102 46
M  V30 107 1 103 46
M  V30 108 1 104 46
M  V30 109 1 105 47
M  V30 110 1 106 47
M  V30 111 1 48 107 CFG=1
M  V30 112 1 108 49
M  V30 113 1 109 49
M  V30 114 1 110 20
M  V30 115 1 9 111 CFG=3
M  V30 116 1 112 42
M  V30 END BOND
M  V30 END CTAB
M  END
>  <i_epik_Tot_Q>  (1) 
2

>  <i_epik_Tot_abs_Q>  (1) 
2

>  <i_i_glide_confnum>  (1) 
1048

>  <i_i_glide_lignum>  (1) 
166

>  <i_i_glide_posenum>  (1) 
269

>  <i_i_glide_rotatable_bonds>  (1) 
12

>  <i_lp_mmshare_version>  (1) 
72125

>  <i_m_source_file_index>  (1) 
67

>  <i_f3d_flags>  (1) 
0

>  <num_sample>  (1) 
100

>  <b_lp_Chiralities_Consistent>  (1) 
1

>  <r_epik_Charging_Adjusted_Penalty>  (1) 
0.52025287817150023

>  <r_epik_Ionization_Penalty>  (1) 
3.4472135568412989

>  <r_epik_Ionization_Penalty_Charging>  (1) 
0.14055655438482481

>  <r_epik_Ionization_Penalty_Neutral>  (1) 
3.3066570024564741

>  <r_epik_State_Penalty>  (1) 
0.37969632378667539

>  <r_glide_ring_energy>  (1) 
0

>  <r_i_docking_score>  (1) 
-5.218629357124386

>  <r_i_glide_ecoul>  (1) 
-0.43880095212395687

>  <r_i_glide_eff_state_penalty>  (1) 
0.37969632378667539

>  <r_i_glide_einternal>  (1) 
8.1581834199273047

>  <r_i_glide_emodel>  (1) 
-35.238769933462393

>  <r_i_glide_emodel_strain>  (1) 
7.4094217333002064

>  <r_i_glide_energy>  (1) 
-19.291365512701255

>  <r_i_glide_erotb>  (1) 
0.28524200512041686

>  <r_i_glide_esite>  (1) 
0

>  <r_i_glide_evdw>  (1) 
-18.852564560577299

>  <r_i_glide_gscore>  (1) 
-5.5983256809110618

>  <r_i_glide_gscore_strain>  (1) 
0.85235543332505159

>  <r_i_glide_hbond>  (1) 
-0.16616051250172492

>  <r_i_glide_ligand_efficiency>  (1) 
-0.106502639941314

>  <r_i_glide_ligand_efficiency_ln>  (1) 
-1.0668072494690746

>  <r_i_glide_ligand_efficiency_sa>  (1) 
-0.38972571846977094

>  <r_i_glide_lipo>  (1) 
-4.2666986875237258

>  <r_i_glide_metal>  (1) 
-0

>  <r_i_glide_rewards>  (1) 
-1.294615548483621

>  <r_lp_Energy>  (1) 
64.638955999999993

>  <s_epik_Chemistry_Notes>  (1) 
This compound has an imine and may undergo hydrolysis.

>  <s_epik_cmdline>  (1) 
J2VwaWtfcHl0aG9uJywgJy1waHQnLCAnMS4wJywgJy1waCcsICc3LjQnLCAnLXRuJywgJzgnLCAnLW1hJywgJzUwMCcsICctaW1hZScsICc8aW5maWxlLm1hZT4nLCAnLW9tYWUnLCAnPG91dGZpbGUubWFlPic=

>  <s_epik_input>  (1) 
bjFbY0hdYyhbQ0gzXSluKGMxMilbQ0gyXVtDSF09QyhbQ0hdPVtDSF0yKVtDSDJdW0NASF0oW0NAQEhdM1tDSDNdKVtDQEhdKGM0W2NIXVtjSF1bY0hdW2NIXVtjSF00KVtDSDJdW0NAQEhdKFtDQEhdMzUpU1tDSDJdQyhbQ0gzXSkoW0NIM10pW0NIMl1bQ0gyXVtDQF0oW0NIM10pKFtDSDJdXE49W0NIXVw1KVtDSDJdL1tDSF09W0NIXS9bQ0BASF0oW09IXSlDKD1bQ0gyXSlbQ0gyXVtDSDJdW0NAQEhdKFtDSDNdKVtPSF0=

>  <s_glide_docking_method>  (1) 
confgen

>  <s_i_glide_gridfile>  (1) 
gpcr_5ht2c_6bqh_protein_autoprepared_prepared

>  <s_lp_Force_Field>  (1) 
S-OPLS

>  <s_lp_Variant>  (1) 
DiffSBDD_66_num_sample_100-3

>  <s_m_source_file>  (1) 
generated__ligand_DiffSBDD_2026-05-06_prepared.sdf

>  <GenAI_Model>  (1) 
DiffSBDD

>  <Protein>  (1) 
GPCR_5HT2C

$$$$
DiffSBDD_81_num_sample_100
     RDKit          3D

  0  0  0  0  0  0  0  0  0  0999 V3000
M  V30 BEGIN CTAB
M  V30 COUNTS 55 56 0 0 1
M  V30 BEGIN ATOM
M  V30 1 N 39.630530 29.401117 50.253513 0 CHG=1
M  V30 2 C 39.056740 27.523769 58.877623 0
M  V30 3 C 39.511861 30.186136 52.664120 0
M  V30 4 C 39.510120 31.139862 54.980864 0
M  V30 5 S 38.274567 33.221424 56.373698 0
M  V30 6 C 38.667405 30.825195 57.335818 0
M  V30 7 C 38.087257 29.023868 54.538430 0
M  V30 8 C 38.828658 31.583924 56.265609 0
M  V30 9 C 39.609052 26.310095 56.824250 0 CFG=2
M  V30 10 O 39.622188 27.990319 51.847555 0 CHG=-1
M  V30 11 O 37.497193 33.740336 58.920789 0
M  V30 12 C 39.362317 24.904762 57.385982 0
M  V30 13 C 38.672004 30.331524 53.964705 0 CFG=2
M  V30 14 C 38.024428 31.387288 58.566770 0
M  V30 15 C 37.900168 24.542126 57.705183 0
M  V30 16 O 39.992401 27.239998 57.844549 0
M  V30 17 O 37.270200 24.021436 56.547307 0
M  V30 18 C 39.076747 29.144281 51.592957 0 CFG=2
M  V30 19 C 37.867403 32.870367 58.134976 0
M  V30 20 C 39.127830 28.036300 55.093203 0
M  V30 21 C 38.515090 26.877995 55.892457 0 CFG=1
M  V30 22 C 37.902248 25.810837 54.961868 0
M  V30 23 C 40.908743 30.141235 50.148664 0
M  V30 24 C 36.789268 24.983072 55.627780 0
M  V30 25 H 39.780366 28.462951 49.913223 0
M  V30 26 H 39.495681 28.242492 59.568760 0
M  V30 27 H 38.134504 27.962117 58.500927 0
M  V30 28 H 38.804788 26.638798 59.453503 0
M  V30 29 H 39.498455 31.177849 52.211263 0
M  V30 30 H 40.556415 30.021463 52.929017 0
M  V30 31 H 39.867239 32.030671 54.478418 0
M  V30 32 H 40.416570 30.598730 55.246655 0
M  V30 33 H 39.002362 29.802386 57.356478 0
M  V30 34 H 37.388464 29.286639 55.333187 0
M  V30 35 H 37.477274 28.534711 53.780293 0
M  V30 36 H 40.513583 26.210422 56.220988 0
M  V30 37 H 40.005030 24.821444 58.253495 0
M  V30 38 H 39.745179 24.166521 56.684061 0
M  V30 39 H 37.809984 30.952099 53.727001 0
M  V30 40 H 37.057708 30.920698 58.760245 0
M  V30 41 H 38.674367 31.290113 59.435625 0
M  V30 42 H 37.337589 25.370203 58.133931 0
M  V30 43 H 37.867386 23.739260 58.440478 0
M  V30 44 H 37.998534 29.221433 51.471306 0
M  V30 45 H 39.747794 27.623993 54.303329 0
M  V30 46 H 39.822359 28.569675 55.735634 0
M  V30 47 H 37.704469 27.279563 56.495530 0
M  V30 48 H 37.462277 26.297036 54.091340 0
M  V30 49 H 38.681301 25.159073 54.568467 0
M  V30 50 H 41.315287 30.034910 49.143307 0
M  V30 51 H 40.776072 31.206426 50.341501 0
M  V30 52 H 41.644179 29.743761 50.847057 0
M  V30 53 H 36.058512 25.621624 56.122953 0
M  V30 54 H 36.251237 24.431666 54.855970 0
M  V30 55 H 38.921539 29.841863 49.677657 0
M  V30 END ATOM
M  V30 BEGIN BOND
M  V30 1 1 8 4
M  V30 2 1 8 5
M  V30 3 2 8 6
M  V30 4 1 12 9
M  V30 5 1 13 3
M  V30 6 1 13 4
M  V30 7 1 13 7
M  V30 8 1 14 6
M  V30 9 1 15 12
M  V30 10 1 16 2
M  V30 11 1 16 9
M  V30 12 1 17 15
M  V30 13 1 18 1
M  V30 14 1 18 3
M  V30 15 1 18 10
M  V30 16 1 19 5
M  V30 17 2 19 11
M  V30 18 1 19 14
M  V30 19 1 20 7
M  V30 20 1 21 9
M  V30 21 1 21 20
M  V30 22 1 22 21
M  V30 23 1 23 1
M  V30 24 1 24 17
M  V30 25 1 24 22
M  V30 26 1 25 1
M  V30 27 1 26 2
M  V30 28 1 27 2
M  V30 29 1 28 2
M  V30 30 1 29 3
M  V30 31 1 30 3
M  V30 32 1 31 4
M  V30 33 1 32 4
M  V30 34 1 33 6
M  V30 35 1 34 7
M  V30 36 1 35 7
M  V30 37 1 9 36 CFG=3
M  V30 38 1 37 12
M  V30 39 1 38 12
M  V30 40 1 13 39 CFG=3
M  V30 41 1 40 14
M  V30 42 1 41 14
M  V30 43 1 42 15
M  V30 44 1 43 15
M  V30 45 1 18 44 CFG=3
M  V30 46 1 45 20
M  V30 47 1 46 20
M  V30 48 1 21 47 CFG=1
M  V30 49 1 48 22
M  V30 50 1 49 22
M  V30 51 1 50 23
M  V30 52 1 51 23
M  V30 53 1 52 23
M  V30 54 1 53 24
M  V30 55 1 54 24
M  V30 56 1 55 1
M  V30 END BOND
M  V30 END CTAB
M  END
>  <i_epik_Tot_Q>  (1) 
0

>  <i_epik_Tot_abs_Q>  (1) 
2

>  <i_i_glide_confnum>  (1) 
958

>  <i_i_glide_lignum>  (1) 
214

>  <i_i_glide_posenum>  (1) 
193

>  <i_i_glide_rotatable_bonds>  (1) 
9

>  <i_lp_mmshare_version>  (1) 
72125

>  <i_m_source_file_index>  (1) 
82

>  <i_f3d_flags>  (1) 
0

>  <num_sample>  (1) 
100

>  <b_lp_Chiralities_Consistent>  (1) 
1

>  <r_epik_Charging_Adjusted_Penalty>  (1) 
2.6824970044638059

>  <r_epik_Ionization_Penalty>  (1) 
1.3267145025925604

>  <r_epik_Ionization_Penalty_Charging>  (1) 
1.3267145025735321

>  <r_epik_Ionization_Penalty_Neutral>  (1) 
1.9028324776712985e-11

>  <r_epik_State_Penalty>  (1) 
1.3557825018902738

>  <r_glide_ring_energy>  (1) 
0.093239952567163886

>  <r_i_docking_score>  (1) 
-5.2170563234913043

>  <r_i_glide_ecoul>  (1) 
-1.9965429537783119

>  <r_i_glide_eff_state_penalty>  (1) 
1.3557825018902738

>  <r_i_glide_einternal>  (1) 
10.454600372845441

>  <r_i_glide_emodel>  (1) 
-48.70546196471269

>  <r_i_glide_emodel_strain>  (1) 
1.8341454542853555

>  <r_i_glide_energy>  (1) 
-38.580270816659763

>  <r_i_glide_erotb>  (1) 
0.89870139130029003

>  <r_i_glide_esite>  (1) 
-0.08307463023013717

>  <r_i_glide_evdw>  (1) 
-36.583727862881453

>  <r_i_glide_gscore>  (1) 
-6.5728388253815782

>  <r_i_glide_gscore_strain>  (1) 
0

>  <r_i_glide_hbond>  (1) 
0

>  <r_i_glide_ligand_efficiency>  (1) 
-0.21737734681213769

>  <r_i_glide_ligand_efficiency_ln>  (1) 
-1.2486809733269597

>  <r_i_glide_ligand_efficiency_sa>  (1) 
-0.62702477006874013

>  <r_i_glide_lipo>  (1) 
-3.4314524784502591

>  <r_i_glide_metal>  (1) 
-0

>  <r_i_glide_rewards>  (1) 
-1.8283452717906519

>  <r_lp_Energy>  (1) 
7.9027319999999994

>  <s_epik_Chemistry_Notes>  (1) 
This compound contains an acetal/aminal-like group ( X-CH(R)-Y where X, Y are N, S, or O) that may be acid/base labile, releasing an aldehyde.

>  <s_epik_cmdline>  (1) 
J2VwaWtfcHl0aG9uJywgJy1waHQnLCAnMS4wJywgJy1waCcsICc3LjQnLCAnLXRuJywgJzgnLCAnLW1hJywgJzUwMCcsICctaW1hZScsICc8aW5maWxlLm1hZT4nLCAnLW9tYWUnLCAnPG91dGZpbGUubWFlPic=

>  <s_epik_input>  (1) 
UzFDKD1PKVtDSDJdW0NIXT1DMVtDSDJdW0NAQEhdKFtDSDJdW0NASF0oW09IXSlbTkhdW0NIM10pW0NIMl1bQ0gyXVtDQEhdMltDSDJdW0NIMl1PW0NIMl1bQ0gyXVtDQEBIXTJPW0NIM10=

>  <s_glide_docking_method>  (1) 
confgen

>  <s_i_glide_gridfile>  (1) 
gpcr_5ht2c_6bqh_protein_autoprepared_prepared

>  <s_lp_Force_Field>  (1) 
S-OPLS

>  <s_lp_Variant>  (1) 
DiffSBDD_81_num_sample_100-2

>  <s_m_source_file>  (1) 
generated__ligand_DiffSBDD_2026-05-06_prepared.sdf

>  <GenAI_Model>  (1) 
DiffSBDD

>  <Protein>  (1) 
GPCR_5HT2C

$$$$
DiffSBDD_79_num_sample_100
     RDKit          3D

  0  0  0  0  0  0  0  0  0  0999 V3000
M  V30 BEGIN CTAB
M  V30 COUNTS 85 87 0 0 1
M  V30 BEGIN ATOM
M  V30 1 C 38.662933 26.515374 58.910303 0
M  V30 2 C 38.556123 31.062150 60.161166 0
M  V30 3 C 39.358721 28.472604 51.271180 0
M  V30 4 C 40.938144 32.499370 63.022177 0
M  V30 5 C 39.945625 26.999458 56.907655 0
M  V30 6 C 40.310926 30.406901 50.090738 0
M  V30 7 C 39.463275 27.599113 58.245029 0
M  V30 8 C 37.241693 29.738858 55.117116 0
M  V30 9 F 39.529206 31.459603 49.850836 0
M  V30 10 C 42.114334 32.184666 62.095091 0
M  V30 11 C 38.221086 29.616967 59.683878 0
M  V30 12 C 39.327452 30.278749 53.777405 0
M  V30 13 F 41.564314 30.821832 50.216381 0
M  V30 14 C 39.867417 29.713077 51.354046 0
M  V30 15 C 38.051594 28.198715 53.407977 0
M  V30 16 C 37.440547 33.417900 60.119074 0
M  V30 17 C 41.493207 34.362810 64.561906 0
M  V30 18 N 40.924211 33.922686 63.408183 0
M  V30 19 C 40.461324 28.481906 58.950560 0
M  V30 20 C 38.223381 29.359616 54.054022 0
M  V30 21 C 40.283725 34.884701 62.480164 0
M  V30 22 C 37.900238 32.202143 57.905535 0 CFG=2
M  V30 23 C 39.098370 29.094377 58.525599 0
M  V30 24 C 41.789034 28.736398 58.257307 0
M  V30 25 O 37.764692 30.934929 57.399594 0
M  V30 26 O 41.496142 35.547111 64.887981 0
M  V30 27 C 39.243539 32.834370 57.588753 0
M  V30 28 C 40.788683 28.238322 60.425096 0
M  V30 29 C 42.150332 33.322617 65.474445 0
M  V30 30 N 37.722195 32.090532 59.481792 0 CFG=1 CHG=1
M  V30 31 F 40.267448 29.595341 49.053493 0
M  V30 32 C 40.026501 30.431422 52.622795 0
M  V30 33 C 39.602004 34.348130 61.195303 0
M  V30 34 C 38.963544 27.624913 52.405330 0
M  V30 35 C 38.174133 33.813832 61.418267 0
M  V30 36 C 37.598761 29.094615 56.464187 0
M  V30 37 C 38.685002 29.855763 57.251513 0 CFG=2
M  V30 38 H 39.281496 25.631116 59.053525 0
M  V30 39 H 38.267558 26.859271 59.853408 0
M  V30 40 H 37.813078 26.240069 58.283875 0
M  V30 41 H 39.617332 31.280107 60.070096 0
M  V30 42 H 38.328059 31.088080 61.225156 0
M  V30 43 H 39.274280 28.006783 50.300647 0
M  V30 44 H 40.944496 31.820437 63.872781 0
M  V30 45 H 40.020102 32.217177 62.524594 0
M  V30 46 H 40.140593 27.762957 56.154526 0
M  V30 47 H 39.214554 26.309139 56.483398 0
M  V30 48 H 40.860891 26.425700 57.059232 0
M  V30 49 H 37.162406 30.825906 55.159460 0
M  V30 50 H 36.267440 29.422143 54.802097 0
M  V30 51 H 41.867584 31.306036 61.502585 0
M  V30 52 H 42.324056 33.005651 61.410262 0
M  V30 53 H 43.027755 31.983093 62.652164 0
M  V30 54 H 38.326025 28.967242 60.542847 0
M  V30 55 H 37.166320 29.523416 59.418731 0
M  V30 56 H 39.573979 30.971800 54.566638 0
M  V30 57 H 37.207965 27.578414 53.675300 0
M  V30 58 H 37.576124 34.214023 59.386433 0
M  V30 59 H 36.369702 33.420416 60.331943 0
M  V30 60 H 41.066736 35.579964 62.169046 0
M  V30 61 H 39.561759 35.486441 63.037631 0
M  V30 62 H 37.083471 32.821638 57.523835 0
M  V30 63 H 42.467991 27.899362 58.426791 0
M  V30 64 H 41.684329 28.821325 57.183817 0
M  V30 65 H 42.267359 29.622042 58.653613 0
M  V30 66 H 39.737616 33.252294 58.461484 0
M  V30 67 H 39.867465 32.133494 57.053320 0
M  V30 68 H 39.063679 33.621569 56.863610 0
M  V30 69 H 41.680388 27.622343 60.525544 0
M  V30 70 H 40.981207 29.182416 60.932603 0
M  V30 71 H 39.993876 27.719546 60.955310 0
M  V30 72 H 41.405242 32.664134 65.921497 0
M  V30 73 H 42.887456 32.723782 64.943331 0
M  V30 74 H 42.669716 33.825763 66.288870 0
M  V30 75 H 40.751825 31.226498 52.620901 0
M  V30 76 H 40.222725 33.619594 60.680216 0
M  V30 77 H 39.531016 35.185768 60.500358 0
M  V30 78 H 39.840668 27.191354 52.884553 0
M  V30 79 H 38.416333 26.802241 51.957009 0
M  V30 80 H 37.610122 34.640972 61.849572 0
M  V30 81 H 38.110738 33.037129 62.175573 0
M  V30 82 H 36.701316 29.080086 57.087563 0
M  V30 83 H 37.816272 28.050709 56.282054 0
M  V30 84 H 39.551315 30.070094 56.630325 0
M  V30 85 H 36.810483 31.663156 59.576111 0
M  V30 END ATOM
M  V30 BEGIN BOND
M  V30 1 1 7 1
M  V30 2 1 7 5
M  V30 3 1 9 6
M  V30 4 1 10 4
M  V30 5 1 11 2
M  V30 6 1 13 6
M  V30 7 2 14 3
M  V30 8 1 14 6
M  V30 9 1 18 4
M  V30 10 1 18 17
M  V30 11 1 19 7
M  V30 12 1 20 8
M  V30 13 1 20 12
M  V30 14 2 20 15
M  V30 15 1 21 18
M  V30 16 1 23 7
M  V30 17 1 23 11
M  V30 18 1 23 19
M  V30 19 1 24 19
M  V30 20 1 25 22
M  V30 21 2 26 17
M  V30 22 1 27 22
M  V30 23 1 28 19
M  V30 24 1 29 17
M  V30 25 1 30 2
M  V30 26 1 30 16
M  V30 27 1 30 22
M  V30 28 1 31 6
M  V30 29 2 32 12
M  V30 30 1 32 14
M  V30 31 1 33 21
M  V30 32 1 34 3
M  V30 33 1 34 15
M  V30 34 1 35 16
M  V30 35 1 35 33
M  V30 36 1 36 8
M  V30 37 1 37 23
M  V30 38 1 37 25
M  V30 39 1 37 36
M  V30 40 1 38 1
M  V30 41 1 39 1
M  V30 42 1 40 1
M  V30 43 1 41 2
M  V30 44 1 42 2
M  V30 45 1 43 3
M  V30 46 1 44 4
M  V30 47 1 45 4
M  V30 48 1 46 5
M  V30 49 1 47 5
M  V30 50 1 48 5
M  V30 51 1 49 8
M  V30 52 1 50 8
M  V30 53 1 51 10
M  V30 54 1 52 10
M  V30 55 1 53 10
M  V30 56 1 54 11
M  V30 57 1 55 11
M  V30 58 1 56 12
M  V30 59 1 57 15
M  V30 60 1 58 16
M  V30 61 1 59 16
M  V30 62 1 60 21
M  V30 63 1 61 21
M  V30 64 1 22 62 CFG=3
M  V30 65 1 63 24
M  V30 66 1 64 24
M  V30 67 1 65 24
M  V30 68 1 66 27
M  V30 69 1 67 27
M  V30 70 1 68 27
M  V30 71 1 69 28
M  V30 72 1 70 28
M  V30 73 1 71 28
M  V30 74 1 72 29
M  V30 75 1 73 29
M  V30 76 1 74 29
M  V30 77 1 75 32
M  V30 78 1 76 33
M  V30 79 1 77 33
M  V30 80 1 78 34
M  V30 81 1 79 34
M  V30 82 1 80 35
M  V30 83 1 81 35
M  V30 84 1 82 36
M  V30 85 1 83 36
M  V30 86 1 37 84 CFG=3
M  V30 87 1 30 85 CFG=3
M  V30 END BOND
M  V30 END CTAB
M  END
>  <i_epik_Tot_Q>  (1) 
1

>  <i_epik_Tot_abs_Q>  (1) 
1

>  <i_i_glide_confnum>  (1) 
975

>  <i_i_glide_lignum>  (1) 
203

>  <i_i_glide_posenum>  (1) 
197

>  <i_i_glide_rotatable_bonds>  (1) 
11

>  <i_lp_mmshare_version>  (1) 
72125

>  <i_m_source_file_index>  (1) 
80

>  <i_f3d_flags>  (1) 
0

>  <num_sample>  (1) 
100

>  <b_lp_Chiralities_Consistent>  (1) 
1

>  <r_epik_Charging_Adjusted_Penalty>  (1) 
1.4563538393833728

>  <r_epik_Ionization_Penalty>  (1) 
0.72817750760685918

>  <r_epik_Ionization_Penalty_Charging>  (1) 
0.72817691969168641

>  <r_epik_Ionization_Penalty_Neutral>  (1) 
5.8791517278497126e-07

>  <r_epik_State_Penalty>  (1) 
0.72817691969168641

>  <r_glide_ring_energy>  (1) 
0

>  <r_i_docking_score>  (1) 
-5.2160436055828878

>  <r_i_glide_ecoul>  (1) 
1.8561320028164592

>  <r_i_glide_eff_state_penalty>  (1) 
0.72817691969168641

>  <r_i_glide_einternal>  (1) 
14.238315558337433

>  <r_i_glide_emodel>  (1) 
-30.762921266482088

>  <r_i_glide_emodel_strain>  (1) 
11.155717442432547

>  <r_i_glide_energy>  (1) 
-36.385766331999875

>  <r_i_glide_erotb>  (1) 
0.59581955881290138

>  <r_i_glide_esite>  (1) 
-0.14950213491991396

>  <r_i_glide_evdw>  (1) 
-38.241898334816334

>  <r_i_glide_gscore>  (1) 
-5.9442205252745746

>  <r_i_glide_gscore_strain>  (1) 
1.7889293606081367

>  <r_i_glide_hbond>  (1) 
0

>  <r_i_glide_ligand_efficiency>  (1) 
-0.14097415150224021

>  <r_i_glide_ligand_efficiency_ln>  (1) 
-1.1312375766394076

>  <r_i_glide_ligand_efficiency_sa>  (1) 
-0.46975714815301206

>  <r_i_glide_lipo>  (1) 
-4.8836579043022716

>  <r_i_glide_metal>  (1) 
-0

>  <r_i_glide_rewards>  (1) 
-1.6621342891550785

>  <r_lp_Energy>  (1) 
66.61177099999999

>  <s_epik_Chemistry_Notes>  (1) 
This compound contains an acetal/aminal-like group ( X-CH(R)-Y where X, Y are N, S, or O) that may be acid/base labile, releasing an aldehyde.

>  <s_epik_cmdline>  (1) 
J2VwaWtfcHl0aG9uJywgJy1waHQnLCAnMS4wJywgJy1waCcsICc3LjQnLCAnLXRuJywgJzgnLCAnLW1hJywgJzUwMCcsICctaW1hZScsICc8aW5maWxlLm1hZT4nLCAnLW9tYWUnLCAnPG91dGZpbGUubWFlPic=

>  <s_epik_input>  (1) 
W0NIM11bQ0gyXU4oQyg9TylbQ0gzXSlbQ0gyXVtDSDJdW0NIMl1bQ0gyXU4oW0NIMl1bQ0gyXUMxMkMoW0NIM10pKFtDSDNdKUMxKFtDSDNdKVtDSDNdKVtDQEBIXShbQ0gzXSlPW0NASF0yW0NIMl1bQ0gyXUMoW0NIXT1bQ0hdMyk9W0NIXVtDSDJdW0NIXT1DM0MoRikoRilG

>  <s_glide_docking_method>  (1) 
confgen

>  <s_i_glide_gridfile>  (1) 
gpcr_5ht2c_6bqh_protein_autoprepared_prepared

>  <s_lp_Force_Field>  (1) 
S-OPLS

>  <s_lp_Variant>  (1) 
DiffSBDD_79_num_sample_100-5

>  <s_m_source_file>  (1) 
generated__ligand_DiffSBDD_2026-05-06_prepared.sdf

>  <GenAI_Model>  (1) 
DiffSBDD

>  <Protein>  (1) 
GPCR_5HT2C

$$$$
DiffSBDD_59_num_sample_100
     RDKit          3D

  0  0  0  0  0  0  0  0  0  0999 V3000
M  V30 BEGIN CTAB
M  V30 COUNTS 54 55 0 0 1
M  V30 BEGIN ATOM
M  V30 1 O 39.894760 37.151947 62.253979 0
M  V30 2 N 38.364872 29.207774 56.245721 0 CFG=1 CHG=1
M  V30 3 C 39.467411 30.596568 53.081290 0
M  V30 4 C 37.663198 29.466510 57.542319 0
M  V30 5 C 38.357633 35.567821 61.246982 0
M  V30 6 C 39.054316 28.024988 52.002762 0
M  V30 7 C 38.442905 28.377806 53.222607 0
M  V30 8 C 38.639146 29.674831 53.768759 0
M  V30 9 C 37.119503 33.139897 59.607033 0
M  V30 10 C 37.714189 30.641287 59.864497 0
M  V30 11 Cl 37.467387 27.221286 54.047301 0
M  V30 12 C 38.477414 30.298251 58.571583 0
M  V30 13 O 37.881911 33.533856 58.723419 0
M  V30 14 N 36.633747 33.873253 60.584504 0
M  V30 15 N 35.841433 33.240518 61.453509 0
M  V30 16 C 38.562964 36.980011 61.822571 0
M  V30 17 C 36.631585 31.723199 59.691152 0 CFG=1
M  V30 18 C 37.951873 30.078804 55.099057 0 CFG=2
M  V30 19 C 39.826010 29.015874 56.370039 0
M  V30 20 C 36.901627 35.307269 60.799890 0 CFG=2
M  V30 21 C 40.073280 30.232939 51.861927 0
M  V30 22 C 35.843237 32.032978 60.968581 0
M  V30 23 C 36.464308 36.167099 59.594550 0
M  V30 24 C 38.055363 31.588438 55.431818 0
M  V30 25 C 39.864869 28.951557 51.323032 0
M  V30 26 H 40.052111 36.603559 63.009380 0
M  V30 27 H 39.633420 31.585155 53.480047 0
M  V30 28 H 37.444574 28.496885 57.989773 0
M  V30 29 H 36.689023 29.918991 57.354257 0
M  V30 30 H 39.038603 35.411489 60.408990 0
M  V30 31 H 38.633707 34.835002 62.006930 0
M  V30 32 H 38.899669 27.038952 51.588490 0
M  V30 33 H 38.432350 30.967112 60.619694 0
M  V30 34 H 37.260144 29.731718 60.253501 0
M  V30 35 H 38.852010 31.213330 58.114698 0
M  V30 36 H 39.358290 29.731683 58.872741 0
M  V30 37 H 37.894854 37.157210 62.666671 0
M  V30 38 H 38.347069 37.740075 61.071686 0
M  V30 39 H 35.924434 31.464115 58.917761 0
M  V30 40 H 36.886708 29.888519 54.947122 0
M  V30 41 H 40.267400 29.985707 56.569376 0
M  V30 42 H 40.071472 28.329601 57.180733 0
M  V30 43 H 40.276137 28.608789 55.465336 0
M  V30 44 H 36.267404 35.609496 61.635712 0
M  V30 45 H 40.698140 30.942837 51.339718 0
M  V30 46 H 35.285482 31.233980 61.455304 0
M  V30 47 H 36.431084 37.224737 59.854075 0
M  V30 48 H 37.136048 36.057577 58.743827 0
M  V30 49 H 35.467403 35.888464 59.256558 0
M  V30 50 H 37.665788 32.199671 54.616548 0
M  V30 51 H 37.467406 31.861962 56.305937 0
M  V30 52 H 39.080627 31.901588 55.629311 0
M  V30 53 H 40.328645 28.677993 50.387248 0
M  V30 54 H 38.021293 28.299596 55.963139 0
M  V30 END ATOM
M  V30 BEGIN BOND
M  V30 1 1 4 2
M  V30 2 2 7 6
M  V30 3 2 8 3
M  V30 4 1 8 7
M  V30 5 1 11 7
M  V30 6 1 12 4
M  V30 7 1 12 10
M  V30 8 2 13 9
M  V30 9 1 14 9
M  V30 10 1 15 14
M  V30 11 1 16 1
M  V30 12 1 16 5
M  V30 13 1 17 9
M  V30 14 1 17 10
M  V30 15 1 18 2
M  V30 16 1 18 8
M  V30 17 1 19 2
M  V30 18 1 20 5
M  V30 19 1 20 14
M  V30 20 1 21 3
M  V30 21 2 22 15
M  V30 22 1 22 17
M  V30 23 1 23 20
M  V30 24 1 24 18
M  V30 25 1 25 6
M  V30 26 2 25 21
M  V30 27 1 26 1
M  V30 28 1 27 3
M  V30 29 1 28 4
M  V30 30 1 29 4
M  V30 31 1 30 5
M  V30 32 1 31 5
M  V30 33 1 32 6
M  V30 34 1 33 10
M  V30 35 1 34 10
M  V30 36 1 35 12
M  V30 37 1 36 12
M  V30 38 1 37 16
M  V30 39 1 38 16
M  V30 40 1 17 39 CFG=3
M  V30 41 1 18 40 CFG=3
M  V30 42 1 41 19
M  V30 43 1 42 19
M  V30 44 1 43 19
M  V30 45 1 20 44 CFG=1
M  V30 46 1 45 21
M  V30 47 1 46 22
M  V30 48 1 47 23
M  V30 49 1 48 23
M  V30 50 1 49 23
M  V30 51 1 50 24
M  V30 52 1 51 24
M  V30 53 1 52 24
M  V30 54 1 53 25
M  V30 55 1 2 54 CFG=3
M  V30 END BOND
M  V30 END CTAB
M  END
>  <i_epik_Tot_Q>  (1) 
1

>  <i_epik_Tot_abs_Q>  (1) 
1

>  <i_i_glide_confnum>  (1) 
226

>  <i_i_glide_lignum>  (1) 
150

>  <i_i_glide_posenum>  (1) 
154

>  <i_i_glide_rotatable_bonds>  (1) 
10

>  <i_lp_mmshare_version>  (1) 
72125

>  <i_m_source_file_index>  (1) 
60

>  <i_f3d_flags>  (1) 
0

>  <num_sample>  (1) 
100

>  <b_lp_Chiralities_Consistent>  (1) 
1

>  <r_epik_Charging_Adjusted_Penalty>  (1) 
0.90698054963472508

>  <r_epik_Ionization_Penalty>  (1) 
0.11890783771570668

>  <r_epik_Ionization_Penalty_Charging>  (1) 
0.11890771087092902

>  <r_epik_Ionization_Penalty_Neutral>  (1) 
1.2684477765112781e-07

>  <r_epik_State_Penalty>  (1) 
0.78807283876379608

>  <r_glide_ring_energy>  (1) 
0

>  <r_i_docking_score>  (1) 
-5.2157081384375736

>  <r_i_glide_ecoul>  (1) 
-1.39011375484364

>  <r_i_glide_eff_state_penalty>  (1) 
0.78807283876379608

>  <r_i_glide_einternal>  (1) 
6.3613097882328855

>  <r_i_glide_emodel>  (1) 
-59.250088981286289

>  <r_i_glide_emodel_strain>  (1) 
0.061335896775048582

>  <r_i_glide_energy>  (1) 
-43.648645898576063

>  <r_i_glide_erotb>  (1) 
1.1440711446639862

>  <r_i_glide_esite>  (1) 
-0.10338840380731268

>  <r_i_glide_evdw>  (1) 
-42.258532143732424

>  <r_i_glide_gscore>  (1) 
-6.0037809772013695

>  <r_i_glide_gscore_strain>  (1) 
0

>  <r_i_glide_hbond>  (1) 
0

>  <r_i_glide_ligand_efficiency>  (1) 
-0.20862832553750293

>  <r_i_glide_ligand_efficiency_ln>  (1) 
-1.2362791309698038

>  <r_i_glide_ligand_efficiency_sa>  (1) 
-0.61003292456530689

>  <r_i_glide_lipo>  (1) 
-2.9327571478756003

>  <r_i_glide_metal>  (1) 
-0

>  <r_i_glide_rewards>  (1) 
-1.7902628997692756

>  <r_lp_Energy>  (1) 
23.407125000000001

>  <r_lp_tautomer_probability>  (1) 
0.26444745842670125

>  <s_epik_Chemistry_Notes>  (1) 
This compound has an imine and may undergo hydrolysis.

>  <s_epik_cmdline>  (1) 
J2VwaWtfcHl0aG9uJywgJy1waHQnLCAnMS4wJywgJy1waCcsICc3LjQnLCAnLXRuJywgJzgnLCAnLW1hJywgJzUwMCcsICctaW1hZScsICc8aW5maWxlLm1hZT4nLCAnLW9tYWUnLCAnPG91dGZpbGUubWFlPic=

>  <s_epik_input>  (1) 
W09IXVtDSDJdW0NIMl1bQ0BASF0oW0NIM10pTihDMT1PKU49W0NIXVtDQEBIXTFbQ0gyXVtDSDJdW0NIMl1OKFtDSDNdKVtDQEBIXShbQ0gzXSljMltjSF1bY0hdW2NIXVtjSF1jMkNs

>  <s_glide_docking_method>  (1) 
confgen

>  <s_i_glide_gridfile>  (1) 
gpcr_5ht2c_6bqh_protein_autoprepared_prepared

>  <s_lp_Force_Field>  (1) 
S-OPLS

>  <s_lp_Variant>  (1) 
DiffSBDD_59_num_sample_100-3

>  <s_m_source_file>  (1) 
generated__ligand_DiffSBDD_2026-05-06_prepared.sdf

>  <GenAI_Model>  (1) 
DiffSBDD

>  <Protein>  (1) 
GPCR_5HT2C

$$$$
DiffSBDD_82_num_sample_100
     RDKit          3D

  0  0  0  0  0  0  0  0  0  0999 V3000
M  V30 BEGIN CTAB
M  V30 COUNTS 57 59 0 0 1
M  V30 BEGIN ATOM
M  V30 1 C 38.762495 29.386365 58.275616 0 CFG=1
M  V30 2 N 39.431289 26.515519 53.320911 0
M  V30 3 F 38.268021 28.970592 59.441489 0
M  V30 4 C 38.567467 31.714966 59.363002 0
M  V30 5 N 38.169597 28.562581 57.225478 0
M  V30 6 C 40.134314 26.592713 55.661366 0
M  V30 7 C 37.098529 33.657021 58.420460 0
M  V30 8 C 39.680830 34.301755 61.271985 0
M  V30 9 N 38.266567 29.853211 55.141899 0
M  V30 10 O 37.010465 32.383692 61.853504 0
M  V30 11 C 40.044535 28.112107 51.452298 0 CFG=1
M  V30 12 C 39.111717 27.856231 50.294105 0
M  V30 13 C 38.220870 24.544984 57.149982 0
M  V30 14 S 40.367772 33.019197 62.253850 0 CHG=-1
M  V30 15 C 38.364773 33.257809 59.232081 0 CFG=1
M  V30 16 C 38.443055 32.250853 54.654682 0
M  V30 17 C 38.031062 28.682058 55.925864 0
M  V30 18 C 39.467391 27.884325 52.829436 0 CFG=1
M  V30 19 C 38.578097 28.231405 51.657089 0 CFG=1
M  V30 20 C 38.624810 30.868381 58.109159 0
M  V30 21 O 40.168380 35.407821 61.055542 0
M  V30 22 C 38.980301 26.282352 54.674457 0 CFG=2
M  V30 23 C 38.607189 31.370467 56.925670 0
M  V30 24 O 36.207170 34.449724 61.663930 0 CHG=-1
M  V30 25 O 38.733242 24.890973 54.750890 0
M  V30 26 C 37.835969 24.317343 55.682452 0 CFG=2
M  V30 27 S 37.484480 27.342556 54.847933 0
M  V30 28 C 38.310128 33.987019 60.609927 0 CFG=1
M  V30 29 O 36.485575 24.604729 55.467559 0
M  V30 30 C 37.070257 33.569704 61.453465 0
M  V30 31 C 38.471878 31.128453 55.665819 0
M  V30 32 H 39.827463 29.163250 58.343917 0
M  V30 33 H 38.885850 25.955822 52.681499 0
M  V30 34 H 39.467337 31.490433 59.927918 0
M  V30 35 H 37.739234 31.285022 59.917841 0
M  V30 36 H 40.946262 25.883789 55.501922 0
M  V30 37 H 39.831118 26.529133 56.701176 0
M  V30 38 H 40.533748 27.591705 55.489631 0
M  V30 39 H 36.220141 33.106514 58.756429 0
M  V30 40 H 37.194283 33.497849 57.349901 0
M  V30 41 H 36.868948 34.717337 58.522517 0
M  V30 42 H 38.145979 29.819863 54.142293 0
M  V30 43 H 40.637005 29.020084 51.360019 0
M  V30 44 H 39.070875 28.603412 49.505582 0
M  V30 45 H 38.999990 26.821479 49.981351 0
M  V30 46 H 38.012224 25.572499 57.447216 0
M  V30 47 H 39.274826 24.311325 57.302283 0
M  V30 48 H 37.627231 23.888496 57.787331 0
M  V30 49 H 39.228782 33.653357 58.698391 0
M  V30 50 H 39.183765 33.000467 54.930298 0
M  V30 51 H 37.467351 32.735625 54.657523 0
M  V30 52 H 38.658386 31.901143 53.644734 0
M  V30 53 H 39.718690 28.684450 53.517662 0
M  V30 54 H 38.134764 29.221073 51.709079 0
M  V30 55 H 37.870553 23.254487 55.453500 0
M  V30 56 H 38.028424 35.004862 60.335311 0
M  V30 57 H 36.263050 24.309988 54.597890 0
M  V30 END ATOM
M  V30 BEGIN BOND
M  V30 1 1 3 1
M  V30 2 1 5 1
M  V30 3 1 12 11
M  V30 4 1 14 8
M  V30 5 1 15 4
M  V30 6 1 15 7
M  V30 7 2 17 5
M  V30 8 1 17 9
M  V30 9 1 18 2
M  V30 10 1 18 11
M  V30 11 1 19 11
M  V30 12 1 19 12
M  V30 13 1 19 18
M  V30 14 1 20 1
M  V30 15 1 20 4
M  V30 16 2 21 8
M  V30 17 1 22 2
M  V30 18 1 22 6
M  V30 19 2 23 20
M  V30 20 1 22 25 CFG=3
M  V30 21 1 26 13
M  V30 22 1 26 25
M  V30 23 1 27 17
M  V30 24 1 27 22
M  V30 25 1 28 8
M  V30 26 1 28 15
M  V30 27 1 29 26
M  V30 28 2 30 10
M  V30 29 1 30 24
M  V30 30 1 30 28
M  V30 31 1 31 9
M  V30 32 1 31 16
M  V30 33 2 31 23
M  V30 34 1 1 32 CFG=1
M  V30 35 1 33 2
M  V30 36 1 34 4
M  V30 37 1 35 4
M  V30 38 1 36 6
M  V30 39 1 37 6
M  V30 40 1 38 6
M  V30 41 1 39 7
M  V30 42 1 40 7
M  V30 43 1 41 7
M  V30 44 1 42 9
M  V30 45 1 11 43 CFG=3
M  V30 46 1 44 12
M  V30 47 1 45 12
M  V30 48 1 46 13
M  V30 49 1 47 13
M  V30 50 1 48 13
M  V30 51 1 15 49 CFG=3
M  V30 52 1 50 16
M  V30 53 1 51 16
M  V30 54 1 52 16
M  V30 55 1 18 53 CFG=1
M  V30 56 1 19 54 CFG=1
M  V30 57 1 26 55 CFG=3
M  V30 58 1 28 56 CFG=3
M  V30 59 1 57 29
M  V30 END BOND
M  V30 END CTAB
M  END
>  <i_epik_Tot_Q>  (1) 
-2

>  <i_epik_Tot_abs_Q>  (1) 
2

>  <i_i_glide_confnum>  (1) 
1102

>  <i_i_glide_lignum>  (1) 
216

>  <i_i_glide_posenum>  (1) 
126

>  <i_i_glide_rotatable_bonds>  (1) 
12

>  <i_lp_mmshare_version>  (1) 
72125

>  <i_m_source_file_index>  (1) 
83

>  <i_f3d_flags>  (1) 
0

>  <num_sample>  (1) 
100

>  <b_lp_Chiralities_Consistent>  (1) 
1

>  <r_epik_Charging_Adjusted_Penalty>  (1) 
0.00013622687110547772

>  <r_epik_Ionization_Penalty>  (1) 
0.0015792256383976989

>  <r_epik_Ionization_Penalty_Charging>  (1) 
0.00013622687110547772

>  <r_epik_Ionization_Penalty_Neutral>  (1) 
0.0014429987672922213

>  <r_epik_State_Penalty>  (1) 
-0

>  <r_glide_ring_energy>  (1) 
0

>  <r_i_docking_score>  (1) 
-5.2083248309836501

>  <r_i_glide_ecoul>  (1) 
-1.3204855650397986

>  <r_i_glide_eff_state_penalty>  (1) 
-0

>  <r_i_glide_einternal>  (1) 
30.542333801535825

>  <r_i_glide_emodel>  (1) 
-34.378542710597685

>  <r_i_glide_emodel_strain>  (1) 
3.0875731203387602

>  <r_i_glide_energy>  (1) 
-36.214626302907575

>  <r_i_glide_erotb>  (1) 
0.72716710484865599

>  <r_i_glide_esite>  (1) 
-0.0031444920709828559

>  <r_i_glide_evdw>  (1) 
-34.894140737867779

>  <r_i_glide_gscore>  (1) 
-5.2083248309836501

>  <r_i_glide_gscore_strain>  (1) 
0

>  <r_i_glide_hbond>  (1) 
-0.064000931567399499

>  <r_i_glide_ligand_efficiency>  (1) 
-0.16801047841882741

>  <r_i_glide_ligand_efficiency_ln>  (1) 
-1.1746368653737278

>  <r_i_glide_ligand_efficiency_sa>  (1) 
-0.52778486630392618

>  <r_i_glide_lipo>  (1) 
-1.9532503388511597

>  <r_i_glide_metal>  (1) 
-0

>  <r_i_glide_rewards>  (1) 
-1.9723163016934053

>  <r_lp_Energy>  (1) 
27.993948

>  <r_lp_tautomer_probability>  (1) 
1

>  <s_epik_Chemistry_Notes>  (1) 
This compound has an imine and may undergo hydrolysis. This compound contains an acetal/aminal-like group ( X-CH(R)-Y where X, Y are N, S, or O) that may be acid/base labile, releasing an aldehyde.

>  <s_epik_cmdline>  (1) 
J2VwaWtfcHl0aG9uJywgJy1waHQnLCAnMS4wJywgJy1waCcsICc3LjQnLCAnLXRuJywgJzgnLCAnLW1hJywgJzUwMCcsICctaW1hZScsICc8aW5maWxlLm1hZT4nLCAnLW9tYWUnLCAnPG91dGZpbGUubWFlPic=

>  <s_epik_input>  (1) 
W0NAQEhdMTJbQ0BASF0oW0NIMl0xKVtDQEhdMltOSF1bQ0BdKFtDSDNdKShPW0NAQEhdKFtDSDNdKVtPSF0pU0MoPU5bQ0BASF0zRilbTkhdQyhbQ0gzXSk9Qz1DM1tDSDJdW0NAQEhdKFtDSDNdKVtDQEhdKEMoPU8pW1NIXSlDKD1PKVtPSF0=

>  <s_glide_docking_method>  (1) 
confgen

>  <s_i_glide_gridfile>  (1) 
gpcr_5ht2c_6bqh_protein_autoprepared_prepared

>  <s_lp_Force_Field>  (1) 
S-OPLS

>  <s_lp_Variant>  (1) 
DiffSBDD_82_num_sample_100-2

>  <s_m_source_file>  (1) 
generated__ligand_DiffSBDD_2026-05-06_prepared.sdf

>  <GenAI_Model>  (1) 
DiffSBDD

>  <Protein>  (1) 
GPCR_5HT2C

$$$$
DiffSBDD_28_num_sample_100
     RDKit          3D

  0  0  0  0  0  0  0  0  0  0999 V3000
M  V30 BEGIN CTAB
M  V30 COUNTS 37 38 0 0 1
M  V30 BEGIN ATOM
M  V30 1 C 38.241352 30.186734 54.394864 0
M  V30 2 C 39.288116 28.684758 59.685840 0
M  V30 3 C 39.049801 27.995286 51.571959 0
M  V30 4 O 39.867400 28.003384 50.653440 0
M  V30 5 S 40.097120 31.364571 61.454522 0
M  V30 6 O 41.738889 32.770696 63.024162 0
M  V30 7 C 41.376557 30.501342 63.671577 0
M  V30 8 C 40.225031 28.635097 60.876946 0
M  V30 9 C 38.708044 29.130265 57.265076 0
M  V30 10 C 38.314503 30.568925 56.903796 0
M  V30 11 C 41.204324 31.680909 62.834026 0
M  V30 12 C 40.673291 29.453018 63.225827 0
M  V30 13 C 39.645234 29.081392 58.453699 0
M  V30 14 C 39.838779 29.639387 61.976125 0 CFG=1
M  V30 15 C 39.386421 31.011956 53.828139 0
M  V30 16 C 39.747491 30.129011 52.649322 0
M  V30 17 C 38.960812 29.048082 52.590386 0
M  V30 18 C 37.474111 30.641730 55.620321 0
M  V30 19 C 38.017121 29.078956 53.674559 0
M  V30 20 H 38.268511 28.377070 59.868715 0
M  V30 21 H 38.327293 27.186588 51.684500 0
M  V30 22 H 42.006915 30.504388 64.548397 0
M  V30 23 H 40.222360 27.623735 61.286043 0
M  V30 24 H 41.241191 28.826320 60.529883 0
M  V30 25 H 37.814785 28.541087 57.477453 0
M  V30 26 H 39.204823 28.654639 56.418824 0
M  V30 27 H 39.214670 31.173067 56.781435 0
M  V30 28 H 37.757859 31.007123 57.733101 0
M  V30 29 H 40.678190 28.495994 63.726598 0
M  V30 30 H 40.663641 29.390550 58.266953 0
M  V30 31 H 38.790886 29.509208 62.249275 0
M  V30 32 H 40.215725 31.100868 54.530135 0
M  V30 33 H 39.054687 31.999644 53.506958 0
M  V30 34 H 40.546576 30.371805 51.963784 0
M  V30 35 H 37.127162 31.661982 55.453286 0
M  V30 36 H 36.583341 30.021372 55.728006 0
M  V30 37 H 37.254752 28.338624 53.869925 0
M  V30 END ATOM
M  V30 BEGIN BOND
M  V30 1 2 4 3
M  V30 2 1 8 2
M  V30 3 1 10 9
M  V30 4 1 11 5
M  V30 5 2 11 6
M  V30 6 1 11 7
M  V30 7 2 12 7
M  V30 8 2 13 2
M  V30 9 1 13 9
M  V30 10 1 14 5
M  V30 11 1 14 8
M  V30 12 1 14 12
M  V30 13 1 15 1
M  V30 14 1 16 15
M  V30 15 1 17 3
M  V30 16 2 17 16
M  V30 17 1 18 1
M  V30 18 1 18 10
M  V30 19 2 19 1
M  V30 20 1 19 17
M  V30 21 1 20 2
M  V30 22 1 21 3
M  V30 23 1 22 7
M  V30 24 1 23 8
M  V30 25 1 24 8
M  V30 26 1 25 9
M  V30 27 1 26 9
M  V30 28 1 27 10
M  V30 29 1 28 10
M  V30 30 1 29 12
M  V30 31 1 30 13
M  V30 32 1 14 31 CFG=1
M  V30 33 1 32 15
M  V30 34 1 33 15
M  V30 35 1 34 16
M  V30 36 1 35 18
M  V30 37 1 36 18
M  V30 38 1 37 19
M  V30 END BOND
M  V30 END CTAB
M  END
>  <i_epik_Tot_Q>  (1) 
0

>  <i_epik_Tot_abs_Q>  (1) 
0

>  <i_i_glide_confnum>  (1) 
108

>  <i_i_glide_lignum>  (1) 
70

>  <i_i_glide_posenum>  (1) 
340

>  <i_i_glide_rotatable_bonds>  (1) 
7

>  <i_lp_mmshare_version>  (1) 
72125

>  <i_m_source_file_index>  (1) 
29

>  <i_f3d_flags>  (1) 
0

>  <num_sample>  (1) 
100

>  <b_lp_Chiralities_Consistent>  (1) 
1

>  <r_epik_Charging_Adjusted_Penalty>  (1) 
0

>  <r_epik_Ionization_Penalty>  (1) 
0

>  <r_epik_Ionization_Penalty_Charging>  (1) 
0

>  <r_epik_Ionization_Penalty_Neutral>  (1) 
0

>  <r_epik_State_Penalty>  (1) 
-0

>  <r_glide_ring_energy>  (1) 
0

>  <r_i_docking_score>  (1) 
-5.2052556863132455

>  <r_i_glide_ecoul>  (1) 
-1.1789257710562964

>  <r_i_glide_eff_state_penalty>  (1) 
-0

>  <r_i_glide_einternal>  (1) 
1.6974805201414067

>  <r_i_glide_emodel>  (1) 
-42.054129007068759

>  <r_i_glide_emodel_strain>  (1) 
0.00053102606530330831

>  <r_i_glide_energy>  (1) 
-32.536630402996728

>  <r_i_glide_erotb>  (1) 
1.1924995267514154

>  <r_i_glide_esite>  (1) 
0

>  <r_i_glide_evdw>  (1) 
-31.357704631940429

>  <r_i_glide_gscore>  (1) 
-5.2052556863132455

>  <r_i_glide_gscore_strain>  (1) 
0

>  <r_i_glide_hbond>  (1) 
0

>  <r_i_glide_ligand_efficiency>  (1) 
-0.273960825595434

>  <r_i_glide_ligand_efficiency_ln>  (1) 
-1.3196441151216003

>  <r_i_glide_ligand_efficiency_sa>  (1) 
-0.73103751870408129

>  <r_i_glide_lipo>  (1) 
-2.2185724476484734

>  <r_i_glide_metal>  (1) 
-0

>  <r_i_glide_rewards>  (1) 
-2.4344586681607221

>  <r_lp_Energy>  (1) 
-7.384944

>  <r_lp_tautomer_probability>  (1) 
1

>  <s_epik_cmdline>  (1) 
J2VwaWtfcHl0aG9uJywgJy1waHQnLCAnMS4wJywgJy1waCcsICc3LjQnLCAnLXRuJywgJzgnLCAnLW1hJywgJzUwMCcsICctaW1hZScsICc8aW5maWxlLm1hZT4nLCAnLW9tYWUnLCAnPG91dGZpbGUubWFlPic=

>  <s_epik_input>  (1) 
Tz1bQ0hdQyg9W0NIXVtDSDJdMSlbQ0hdPUMxW0NIMl1bQ0gyXVtDSDJdXFtDSF09W0NIXVxbQ0gyXVtDQEhdKFNDMj1PKVtDSF09W0NIXTI=

>  <s_glide_docking_method>  (1) 
confgen

>  <s_i_glide_gridfile>  (1) 
gpcr_5ht2c_6bqh_protein_autoprepared_prepared

>  <s_lp_Force_Field>  (1) 
S-OPLS

>  <s_lp_Variant>  (1) 
DiffSBDD_28_num_sample_100-2

>  <s_m_source_file>  (1) 
generated__ligand_DiffSBDD_2026-05-06_prepared.sdf

>  <GenAI_Model>  (1) 
DiffSBDD

>  <Protein>  (1) 
GPCR_5HT2C

$$$$
DiffSBDD_30_num_sample_100
     RDKit          3D

  0  0  0  0  0  0  0  0  0  0999 V3000
M  V30 BEGIN CTAB
M  V30 COUNTS 70 73 0 0 1
M  V30 BEGIN ATOM
M  V30 1 C 41.411836 33.829338 63.939552 0
M  V30 2 C 43.061733 31.006688 67.511030 0 CFG=1
M  V30 3 O 41.700767 34.281910 66.224347 0
M  V30 4 C 37.664764 31.177981 55.122150 0
M  V30 5 C 38.612295 31.468957 54.135498 0
M  V30 6 N 42.032553 31.012606 64.462329 0
M  V30 7 C 40.173909 29.953049 55.198634 0
M  V30 8 C 42.229366 32.010947 65.524338 0 CFG=1
M  V30 9 O 43.794117 28.184122 67.718181 0
M  V30 10 O 43.094918 33.219201 68.489772 0
M  V30 11 C 39.099224 26.803468 55.576738 0
M  V30 12 C 43.732192 32.210602 68.190105 0
M  V30 13 C 45.220485 32.102145 68.487197 0
M  V30 14 C 40.036449 26.036329 54.684760 0
M  V30 15 C 38.688868 27.584392 57.858781 0 CFG=2
M  V30 16 C 40.328261 29.604140 62.112479 0
M  V30 17 N 40.667578 29.278765 63.514262 0 CHG=1
M  V30 18 C 38.991094 25.298124 55.490485 0
M  V30 19 C 39.574801 28.513235 59.896806 0 CFG=1
M  V30 20 C 39.866853 30.856058 54.172618 0
M  V30 21 C 39.091157 27.221592 59.260483 0
M  V30 22 N 39.692336 27.260046 56.860798 0 CFG=2 CHG=1
M  V30 23 C 37.977555 30.277985 56.159097 0
M  V30 24 C 40.689208 30.429500 64.432950 0
M  V30 25 C 39.232382 29.649705 56.195913 0
M  V30 26 C 40.232428 28.322576 61.272835 0
M  V30 27 C 43.661803 28.969425 66.556538 0
M  V30 28 C 41.303013 33.242204 65.359962 0 CFG=2
M  V30 29 C 39.565130 28.659650 57.278865 0 CFG=1
M  V30 30 O 37.067428 30.021059 57.128311 0
M  V30 31 S 40.654869 29.205623 58.635763 0
M  V30 32 O 41.946390 31.432485 66.769855 0
M  V30 33 O 44.015238 30.297691 66.770487 0
M  V30 34 H 41.066188 33.138311 63.170678 0
M  V30 35 H 40.808700 34.733980 63.847347 0
M  V30 36 H 42.443014 34.101848 63.709914 0
M  V30 37 H 42.681050 30.366652 68.308655 0
M  V30 38 H 41.879026 33.913106 67.081913 0
M  V30 39 H 36.695174 31.648543 55.087027 0
M  V30 40 H 38.374455 32.166841 53.348154 0
M  V30 41 H 42.230718 31.461435 63.573214 0
M  V30 42 H 41.133157 29.490126 55.226867 0
M  V30 43 H 43.268252 32.346867 65.481988 0
M  V30 44 H 44.715121 28.122779 67.925503 0
M  V30 45 H 38.306751 27.412324 55.143556 0
M  V30 46 H 45.806392 32.421796 67.624582 0
M  V30 47 H 45.467457 32.735077 69.338183 0
M  V30 48 H 45.478511 31.071688 68.731686 0
M  V30 49 H 39.882649 26.106345 53.608952 0
M  V30 50 H 41.067417 25.951555 55.003034 0
M  V30 51 H 37.661355 27.441551 57.525652 0
M  V30 52 H 41.064312 30.287878 61.691208 0
M  V30 53 H 39.366182 30.120467 62.102440 0
M  V30 54 H 39.930031 28.668979 63.854985 0
M  V30 55 H 39.335615 24.703140 56.334742 0
M  V30 56 H 38.136023 24.887220 54.957174 0
M  V30 57 H 38.715452 29.179871 59.992344 0
M  V30 58 H 40.599755 31.081492 53.412140 0
M  V30 59 H 39.867609 26.457152 59.239185 0
M  V30 60 H 38.267301 26.821587 59.816373 0
M  V30 61 H 39.926733 31.159374 64.158774 0
M  V30 62 H 40.424479 30.053413 65.422375 0
M  V30 63 H 39.618353 27.621394 61.835887 0
M  V30 64 H 41.214818 27.862710 61.162875 0
M  V30 65 H 42.634799 28.878865 66.200010 0
M  V30 66 H 44.328196 28.550380 65.801392 0
M  V30 67 H 40.272971 32.959575 65.586710 0
M  V30 68 H 36.338763 30.654925 57.053718 0
M  V30 69 H 41.546410 28.783510 63.571430 0
M  V30 70 H 40.493581 26.766168 57.228472 0
M  V30 END ATOM
M  V30 BEGIN BOND
M  V30 1 1 5 4
M  V30 2 1 8 6
M  V30 3 1 12 2
M  V30 4 2 12 10
M  V30 5 1 13 12
M  V30 6 1 14 11
M  V30 7 1 17 16
M  V30 8 1 18 11
M  V30 9 1 18 14
M  V30 10 2 20 5
M  V30 11 1 20 7
M  V30 12 1 21 15
M  V30 13 1 21 19
M  V30 14 1 22 11
M  V30 15 1 22 15
M  V30 16 2 23 4
M  V30 17 1 24 6
M  V30 18 1 24 17
M  V30 19 2 25 7
M  V30 20 1 25 23
M  V30 21 1 26 16
M  V30 22 1 26 19
M  V30 23 1 27 9
M  V30 24 1 28 1
M  V30 25 1 28 3
M  V30 26 1 28 8
M  V30 27 1 29 15
M  V30 28 1 29 22
M  V30 29 1 29 25 CFG=3
M  V30 30 1 30 23
M  V30 31 1 31 19
M  V30 32 1 31 29
M  V30 33 1 32 2
M  V30 34 1 32 8
M  V30 35 1 33 2
M  V30 36 1 33 27
M  V30 37 1 34 1
M  V30 38 1 35 1
M  V30 39 1 36 1
M  V30 40 1 2 37 CFG=1
M  V30 41 1 38 3
M  V30 42 1 39 4
M  V30 43 1 40 5
M  V30 44 1 41 6
M  V30 45 1 42 7
M  V30 46 1 8 43 CFG=1
M  V30 47 1 44 9
M  V30 48 1 45 11
M  V30 49 1 46 13
M  V30 50 1 47 13
M  V30 51 1 48 13
M  V30 52 1 49 14
M  V30 53 1 50 14
M  V30 54 1 15 51 CFG=3
M  V30 55 1 52 16
M  V30 56 1 53 16
M  V30 57 1 54 17
M  V30 58 1 55 18
M  V30 59 1 56 18
M  V30 60 1 19 57 CFG=1
M  V30 61 1 58 20
M  V30 62 1 59 21
M  V30 63 1 60 21
M  V30 64 1 61 24
M  V30 65 1 62 24
M  V30 66 1 63 26
M  V30 67 1 64 26
M  V30 68 1 65 27
M  V30 69 1 66 27
M  V30 70 1 28 67 CFG=1
M  V30 71 1 68 30
M  V30 72 1 69 17
M  V30 73 1 22 70 CFG=1
M  V30 END BOND
M  V30 END CTAB
M  END
>  <i_epik_Tot_Q>  (1) 
2

>  <i_epik_Tot_abs_Q>  (1) 
2

>  <i_i_glide_confnum>  (1) 
6650

>  <i_i_glide_lignum>  (1) 
82

>  <i_i_glide_posenum>  (1) 
326

>  <i_i_glide_rotatable_bonds>  (1) 
17

>  <i_lp_mmshare_version>  (1) 
72125

>  <i_m_source_file_index>  (1) 
31

>  <i_f3d_flags>  (1) 
0

>  <num_sample>  (1) 
100

>  <b_lp_Chiralities_Consistent>  (1) 
1

>  <r_epik_Charging_Adjusted_Penalty>  (1) 
1.979093595035226

>  <r_epik_Ionization_Penalty>  (1) 
0.79989620662071081

>  <r_epik_Ionization_Penalty_Charging>  (1) 
0.66086891892205935

>  <r_epik_Ionization_Penalty_Neutral>  (1) 
0.13902728769865147

>  <r_epik_State_Penalty>  (1) 
1.3182246761131666

>  <r_glide_ring_energy>  (1) 
0

>  <r_i_docking_score>  (1) 
-5.2044572343671973

>  <r_i_glide_ecoul>  (1) 
-10.714124791543437

>  <r_i_glide_eff_state_penalty>  (1) 
1.3182246761131666

>  <r_i_glide_einternal>  (1) 
11.307333577804648

>  <r_i_glide_emodel>  (1) 
-54.2469759843856

>  <r_i_glide_emodel_strain>  (1) 
0.57789005156523388

>  <r_i_glide_energy>  (1) 
-37.252844597714578

>  <r_i_glide_erotb>  (1) 
1.1283805066766976

>  <r_i_glide_esite>  (1) 
-0.041492531141774085

>  <r_i_glide_evdw>  (1) 
-26.538719806171141

>  <r_i_glide_gscore>  (1) 
-6.5226819104803635

>  <r_i_glide_gscore_strain>  (1) 
0

>  <r_i_glide_hbond>  (1) 
-0.16

>  <r_i_glide_ligand_efficiency>  (1) 
-0.15771082528385447

>  <r_i_glide_ligand_efficiency_ln>  (1) 
-1.1574443416858902

>  <r_i_glide_ligand_efficiency_sa>  (1) 
-0.50586288630993703

>  <r_i_glide_lipo>  (1) 
-3.3394019377872715

>  <r_i_glide_metal>  (1) 
-0

>  <r_i_glide_rewards>  (1) 
-1.1761132391879434

>  <r_lp_Energy>  (1) 
33.25723

>  <r_lp_tautomer_probability>  (1) 
0.99999996999736518

>  <s_epik_Chemistry_Notes>  (1) 
This compound contains an acetal/aminal-like group ( X-CH(R)-Y where X, Y are N, S, or O) that may be acid/base labile, releasing an aldehyde.

>  <s_epik_cmdline>  (1) 
J2VwaWtfcHl0aG9uJywgJy1waHQnLCAnMS4wJywgJy1waCcsICc3LjQnLCAnLXRuJywgJzgnLCAnLW1hJywgJzUwMCcsICctaW1hZScsICc8aW5maWxlLm1hZT4nLCAnLW9tYWUnLCAnPG91dGZpbGUubWFlPic=

>  <s_epik_input>  (1) 
W09IXVtDSDJdT1tDQEBIXShDKD1PKVtDSDNdKU9bQ0BIXShbQ0BIXShbQ0gzXSlbT0hdKVtOSF1bQ0gyXVtOSF1bQ0gyXVtDSDJdW0NAQEhdKFMxKVtDSDJdW0NASF0oTjJbQ0hdM1tDSDJdW0NIMl0zKVtDQEBdMTJjNFtjSF1bY0hdW2NIXVtjSF1jNFtPSF0=

>  <s_glide_docking_method>  (1) 
confgen

>  <s_i_glide_gridfile>  (1) 
gpcr_5ht2c_6bqh_protein_autoprepared_prepared

>  <s_lp_Force_Field>  (1) 
S-OPLS

>  <s_lp_Variant>  (1) 
DiffSBDD_30_num_sample_100-4

>  <s_m_source_file>  (1) 
generated__ligand_DiffSBDD_2026-05-06_prepared.sdf

>  <GenAI_Model>  (1) 
DiffSBDD

>  <Protein>  (1) 
GPCR_5HT2C

$$$$
DiffSBDD_44_num_sample_100
     RDKit          3D

  0  0  0  0  0  0  0  0  0  0999 V3000
M  V30 BEGIN CTAB
M  V30 COUNTS 58 59 0 0 1
M  V30 BEGIN ATOM
M  V30 1 C 38.993851 29.832553 53.863453 0
M  V30 2 O 40.496059 28.449927 57.457223 0 CHG=-1
M  V30 3 C 36.949951 32.219821 60.965306 0
M  V30 4 C 38.619341 27.711459 55.041504 0 CFG=1
M  V30 5 N 38.842225 28.834407 55.993316 0 CFG=2 CHG=1
M  V30 6 C 38.253428 34.174634 60.214583 0
M  V30 7 N 39.214422 30.415374 60.712236 0
M  V30 8 C 38.105704 32.704350 60.590526 0
M  V30 9 O 40.478881 32.395730 61.053611 0
M  V30 10 C 38.771905 28.330806 53.632378 0 CFG=1
M  V30 11 C 37.600743 28.014933 52.697147 0
M  V30 12 C 38.698917 29.671967 58.365375 0 CFG=1
M  V30 13 C 39.025851 29.460757 59.877384 0
M  V30 14 C 39.574313 29.898767 55.272241 0
M  V30 15 C 40.444425 32.386521 62.476423 0
M  V30 16 C 34.897806 33.555264 60.755314 0
M  V30 17 C 39.188036 28.526161 57.416475 0 CFG=2
M  V30 18 C 39.336382 31.835816 60.408248 0 CFG=1
M  V30 19 F 35.914099 34.021432 58.653505 0
M  V30 20 C 35.688747 34.550870 59.851633 0 CFG=2
M  V30 21 C 35.651137 32.274594 61.053665 0
M  V30 22 C 37.175485 29.881891 58.199513 0
M  V30 23 C 39.096705 28.021421 60.323215 0
M  V30 24 C 39.563754 26.504322 55.229902 0
M  V30 25 C 37.015052 35.078247 60.445984 0
M  V30 26 H 38.044327 30.369719 53.842864 0
M  V30 27 H 39.648470 30.284435 53.117202 0
M  V30 28 H 37.595069 27.368779 55.192408 0
M  V30 29 H 39.106559 34.596069 60.746460 0
M  V30 30 H 38.508390 34.194186 59.155883 0
M  V30 31 H 39.669679 27.927290 53.164443 0
M  V30 32 H 36.667466 28.438314 53.065209 0
M  V30 33 H 37.779743 28.405633 51.695073 0
M  V30 34 H 37.467453 26.936018 52.615444 0
M  V30 35 H 39.197044 30.562166 57.998099 0
M  V30 36 H 39.437822 30.879106 55.728532 0
M  V30 37 H 40.642818 29.682107 55.239658 0
M  V30 38 H 41.339518 32.874188 62.861268 0
M  V30 39 H 39.581382 32.928690 62.863525 0
M  V30 40 H 40.427086 31.371430 62.874826 0
M  V30 41 H 33.954037 33.301900 60.270904 0
M  V30 42 H 34.667381 34.021336 61.712114 0
M  V30 43 H 38.564685 27.664100 57.656822 0
M  V30 44 H 39.467404 32.002865 59.351949 0
M  V30 45 H 35.067407 35.407018 59.616740 0
M  V30 46 H 35.065485 31.405532 61.309610 0
M  V30 47 H 36.832478 30.773593 58.715507 0
M  V30 48 H 36.880641 30.021464 57.160672 0
M  V30 49 H 36.604657 29.037059 58.584768 0
M  V30 50 H 40.035352 27.574523 59.995769 0
M  V30 51 H 39.067667 27.972826 61.412510 0
M  V30 52 H 38.267412 27.443994 59.923861 0
M  V30 53 H 39.384729 25.746996 54.466668 0
M  V30 54 H 40.611312 26.800456 55.160500 0
M  V30 55 H 39.421753 26.022727 56.197439 0
M  V30 56 H 36.885066 35.271916 61.511282 0
M  V30 57 H 37.231413 36.048275 59.996868 0
M  V30 58 H 37.918806 29.231308 56.081657 0
M  V30 END ATOM
M  V30 BEGIN BOND
M  V30 1 1 5 4
M  V30 2 2 8 3
M  V30 3 1 8 6
M  V30 4 1 10 1
M  V30 5 1 10 4
M  V30 6 1 11 10
M  V30 7 2 13 7
M  V30 8 1 13 12
M  V30 9 1 14 1
M  V30 10 1 14 5
M  V30 11 1 15 9
M  V30 12 1 17 2
M  V30 13 1 17 5
M  V30 14 1 17 12
M  V30 15 1 18 7
M  V30 16 1 18 8
M  V30 17 1 18 9
M  V30 18 1 20 16
M  V30 19 1 20 19
M  V30 20 2 21 3
M  V30 21 1 21 16
M  V30 22 1 22 12
M  V30 23 1 23 13
M  V30 24 1 24 4
M  V30 25 1 25 6
M  V30 26 1 25 20
M  V30 27 1 26 1
M  V30 28 1 27 1
M  V30 29 1 4 28 CFG=3
M  V30 30 1 29 6
M  V30 31 1 30 6
M  V30 32 1 10 31 CFG=3
M  V30 33 1 32 11
M  V30 34 1 33 11
M  V30 35 1 34 11
M  V30 36 1 12 35 CFG=3
M  V30 37 1 36 14
M  V30 38 1 37 14
M  V30 39 1 38 15
M  V30 40 1 39 15
M  V30 41 1 40 15
M  V30 42 1 41 16
M  V30 43 1 42 16
M  V30 44 1 17 43 CFG=1
M  V30 45 1 18 44 CFG=3
M  V30 46 1 20 45 CFG=3
M  V30 47 1 46 21
M  V30 48 1 47 22
M  V30 49 1 48 22
M  V30 50 1 49 22
M  V30 51 1 50 23
M  V30 52 1 51 23
M  V30 53 1 52 23
M  V30 54 1 53 24
M  V30 55 1 54 24
M  V30 56 1 55 24
M  V30 57 1 56 25
M  V30 58 1 57 25
M  V30 59 1 5 58 CFG=1
M  V30 END BOND
M  V30 END CTAB
M  END
>  <i_epik_Tot_Q>  (1) 
0

>  <i_epik_Tot_abs_Q>  (1) 
2

>  <i_i_glide_confnum>  (1) 
44

>  <i_i_glide_lignum>  (1) 
123

>  <i_i_glide_posenum>  (1) 
392

>  <i_i_glide_rotatable_bonds>  (1) 
6

>  <i_lp_mmshare_version>  (1) 
72125

>  <i_m_source_file_index>  (1) 
45

>  <i_f3d_flags>  (1) 
0

>  <num_sample>  (1) 
100

>  <b_lp_Chiralities_Consistent>  (1) 
1

>  <r_epik_Charging_Adjusted_Penalty>  (1) 
0.41733257654759531

>  <r_epik_Ionization_Penalty>  (1) 
0.0069177268181324029

>  <r_epik_Ionization_Penalty_Charging>  (1) 
0.0066527375949913311

>  <r_epik_Ionization_Penalty_Neutral>  (1) 
0.00026498922314107146

>  <r_epik_State_Penalty>  (1) 
0.41067983895260396

>  <r_glide_ring_energy>  (1) 
0

>  <r_i_docking_score>  (1) 
-5.2037832573915228

>  <r_i_glide_ecoul>  (1) 
-0.22054713197488102

>  <r_i_glide_eff_state_penalty>  (1) 
0.41067983895260396

>  <r_i_glide_einternal>  (1) 
9.06202617085615

>  <r_i_glide_emodel>  (1) 
-40.31289293289845

>  <r_i_glide_emodel_strain>  (1) 
1.4613602660456877

>  <r_i_glide_energy>  (1) 
-31.701569100049984

>  <r_i_glide_erotb>  (1) 
0.61440649929112812

>  <r_i_glide_esite>  (1) 
-0.064373554497854132

>  <r_i_glide_evdw>  (1) 
-31.481021968075101

>  <r_i_glide_gscore>  (1) 
-5.6144630963441271

>  <r_i_glide_gscore_strain>  (1) 
0

>  <r_i_glide_hbond>  (1) 
0

>  <r_i_glide_ligand_efficiency>  (1) 
-0.20815133029566091

>  <r_i_glide_ligand_efficiency_ln>  (1) 
-1.2334525768020419

>  <r_i_glide_ligand_efficiency_sa>  (1) 
-0.60863818201711772

>  <r_i_glide_lipo>  (1) 
-2.502981169641497

>  <r_i_glide_metal>  (1) 
-0

>  <r_i_glide_rewards>  (1) 
-2.0543817032959173

>  <r_lp_Energy>  (1) 
19.622211999999998

>  <r_lp_tautomer_probability>  (1) 
0.49999399997599986

>  <s_epik_Chemistry_Notes>  (1) 
This compound has an imine and may undergo hydrolysis. This compound contains an acetal/aminal-like group ( X-CH(R)-Y where X, Y are N, S, or O) that may be acid/base labile, releasing an aldehyde.

>  <s_epik_cmdline>  (1) 
J2VwaWtfcHl0aG9uJywgJy1waHQnLCAnMS4wJywgJy1waCcsICc3LjQnLCAnLXRuJywgJzgnLCAnLW1hJywgJzUwMCcsICctaW1hZScsICc8aW5maWxlLm1hZT4nLCAnLW9tYWUnLCAnPG91dGZpbGUubWFlPic=

>  <s_epik_input>  (1) 
W0NIM11bQ0BIXTFbQ0gyXVtDSDJdTihbQ0BASF0xW0NIM10pW0NAQEhdKFtPSF0pW0NAQEhdKFtDSDNdKS9DKFtDSDNdKT1OXFtDQEBIXShPW0NIM10pQzI9Qz1bQ0hdW0NIMl1bQ0BASF0oRilbQ0gyXVtDSDJdMg==

>  <s_glide_docking_method>  (1) 
confgen

>  <s_i_glide_gridfile>  (1) 
gpcr_5ht2c_6bqh_protein_autoprepared_prepared

>  <s_lp_Force_Field>  (1) 
S-OPLS

>  <s_lp_Variant>  (1) 
DiffSBDD_44_num_sample_100-16

>  <s_m_source_file>  (1) 
generated__ligand_DiffSBDD_2026-05-06_prepared.sdf

>  <GenAI_Model>  (1) 
DiffSBDD

>  <Protein>  (1) 
GPCR_5HT2C

$$$$
DiffSBDD_90_num_sample_100
     RDKit          3D

  0  0  0  0  0  0  0  0  0  0999 V3000
M  V30 BEGIN CTAB
M  V30 COUNTS 84 87 0 0 1
M  V30 BEGIN ATOM
M  V30 1 C 39.702268 29.363129 59.650847 0
M  V30 2 O 35.867197 38.423760 62.330421 0
M  V30 3 F 39.467448 23.221388 57.453488 0
M  V30 4 C 38.687400 29.332354 54.486470 0 CFG=1
M  V30 5 C 38.462247 36.629647 62.357463 0 CFG=2
M  V30 6 C 38.221112 34.582217 61.034399 0 CFG=1
M  V30 7 C 37.981106 32.184619 55.055335 0
M  V30 8 C 38.904792 32.512722 59.748145 0
M  V30 9 C 39.451143 30.579944 53.885248 0
M  V30 10 N 36.655905 37.941712 61.208509 0
M  V30 11 C 37.656414 24.560147 57.726167 0
M  V30 12 C 40.744590 30.920945 54.653194 0
M  V30 13 C 39.156525 35.292292 62.020778 0
M  V30 14 C 37.349123 35.679785 60.412243 0
M  V30 15 O 37.060618 36.961639 64.253342 0
M  V30 16 N 38.506511 29.736691 58.854085 0
M  V30 17 C 38.968870 33.832397 59.957767 0
M  V30 18 F 39.925448 25.244323 57.840877 0
M  V30 19 C 38.800689 26.307788 55.553239 0 CFG=2
M  V30 20 N 37.911767 28.625287 58.265091 0
M  V30 21 C 37.328124 26.031247 57.765354 0
M  V30 22 C 37.490345 30.504117 59.600297 0
M  V30 23 O 38.602552 31.729304 53.853475 0
M  V30 24 C 39.863930 30.440930 52.395977 0
M  V30 25 C 39.502190 29.440475 61.171912 0
M  V30 26 C 38.986893 24.798170 55.707801 0
M  V30 27 C 38.088892 31.527305 60.565217 0 CFG=1
M  V30 28 C 37.114816 36.609775 61.582906 0 CFG=1
M  V30 29 C 38.850155 28.066693 53.604146 0
M  V30 30 O 39.257788 36.821240 64.594174 0 CHG=-1
M  V30 31 C 37.918760 28.406164 56.814336 0 CFG=1
M  V30 32 C 38.966490 30.817954 61.630611 0
M  V30 33 O 39.293283 37.664844 61.854008 0
M  V30 34 C 39.006087 29.139714 56.007687 0
M  V30 35 C 37.714470 26.880223 56.502672 0 CFG=1
M  V30 36 C 38.441710 26.683197 54.101283 0
M  V30 37 C 39.067773 24.445692 57.197375 0
M  V30 38 C 38.243377 36.821453 63.864657 0
M  V30 39 H 40.521154 30.021353 59.379059 0
M  V30 40 H 40.045390 28.366606 59.363202 0
M  V30 41 H 36.259308 37.958901 63.076730 0
M  V30 42 H 37.621607 29.549023 54.409599 0
M  V30 43 H 37.571741 33.944488 61.624851 0
M  V30 44 H 37.467473 33.118400 54.836960 0
M  V30 45 H 37.234870 31.485226 55.430208 0
M  V30 46 H 38.682011 32.397689 55.860602 0
M  V30 47 H 39.467306 32.097926 58.940249 0
M  V30 48 H 37.436432 38.587148 61.199124 0
M  V30 49 H 36.945798 24.017775 57.101485 0
M  V30 50 H 37.584770 24.128323 58.720982 0
M  V30 51 H 41.265900 30.022411 54.969668 0
M  V30 52 H 41.447888 31.483074 54.052336 0
M  V30 53 H 40.571152 31.521877 55.537771 0
M  V30 54 H 39.316487 34.664743 62.899693 0
M  V30 55 H 40.143450 35.454511 61.582269 0
M  V30 56 H 36.412003 35.287374 60.012185 0
M  V30 57 H 37.867021 36.199574 59.607835 0
M  V30 58 H 39.595395 34.421283 59.318625 0
M  V30 59 H 39.785787 26.694250 55.804014 0
M  V30 60 H 36.966997 28.521924 58.630443 0
M  V30 61 H 36.267275 26.155134 57.968668 0
M  V30 62 H 37.868583 26.339069 58.653901 0
M  V30 63 H 36.866312 29.815497 60.172443 0
M  V30 64 H 36.827409 30.996981 58.885539 0
M  V30 65 H 40.668052 29.726839 52.260845 0
M  V30 66 H 39.067407 30.095332 51.748051 0
M  V30 67 H 40.214891 31.394034 51.994570 0
M  V30 68 H 38.813154 28.651754 61.462912 0
M  V30 69 H 40.432862 29.207756 61.690086 0
M  V30 70 H 38.165057 24.265284 55.227327 0
M  V30 71 H 39.867567 24.481289 55.172311 0
M  V30 72 H 37.253174 32.015451 61.059741 0
M  V30 73 H 36.337675 36.111644 62.167747 0
M  V30 74 H 38.297543 28.223089 52.676940 0
M  V30 75 H 39.867276 27.956129 53.284356 0
M  V30 76 H 37.067419 28.966361 56.480410 0
M  V30 77 H 39.794280 31.467872 61.918688 0
M  V30 78 H 38.395349 30.671438 62.548917 0
M  V30 79 H 39.542634 37.422700 60.977865 0
M  V30 80 H 39.059613 30.133985 56.441228 0
M  V30 81 H 39.994642 28.720492 56.185299 0
M  V30 82 H 36.816496 26.768125 55.910215 0
M  V30 83 H 37.388448 26.504115 53.887837 0
M  V30 84 H 38.972463 26.021328 53.431169 0
M  V30 END ATOM
M  V30 BEGIN BOND
M  V30 1 1 9 4
M  V30 2 1 10 2
M  V30 3 1 12 9
M  V30 4 1 13 5
M  V30 5 1 13 6
M  V30 6 1 14 6
M  V30 7 1 16 1
M  V30 8 1 17 6
M  V30 9 2 17 8
M  V30 10 1 20 16
M  V30 11 1 21 11
M  V30 12 1 22 16
M  V30 13 1 23 7
M  V30 14 1 23 9
M  V30 15 1 24 9
M  V30 16 1 25 1
M  V30 17 1 26 19
M  V30 18 1 27 8
M  V30 19 1 27 22
M  V30 20 1 28 5
M  V30 21 1 28 10
M  V30 22 1 28 14
M  V30 23 1 29 4
M  V30 24 1 31 20
M  V30 25 1 32 25
M  V30 26 1 32 27
M  V30 27 1 5 33 CFG=3
M  V30 28 1 34 4
M  V30 29 1 34 31
M  V30 30 1 35 19
M  V30 31 1 35 21
M  V30 32 1 35 31
M  V30 33 1 36 19
M  V30 34 1 36 29
M  V30 35 1 37 3
M  V30 36 1 37 11
M  V30 37 1 37 18
M  V30 38 1 37 26
M  V30 39 1 38 5
M  V30 40 2 38 15
M  V30 41 1 38 30
M  V30 42 1 39 1
M  V30 43 1 40 1
M  V30 44 1 41 2
M  V30 45 1 4 42 CFG=1
M  V30 46 1 6 43 CFG=1
M  V30 47 1 44 7
M  V30 48 1 45 7
M  V30 49 1 46 7
M  V30 50 1 47 8
M  V30 51 1 48 10
M  V30 52 1 49 11
M  V30 53 1 50 11
M  V30 54 1 51 12
M  V30 55 1 52 12
M  V30 56 1 53 12
M  V30 57 1 54 13
M  V30 58 1 55 13
M  V30 59 1 56 14
M  V30 60 1 57 14
M  V30 61 1 58 17
M  V30 62 1 19 59 CFG=1
M  V30 63 1 60 20
M  V30 64 1 61 21
M  V30 65 1 62 21
M  V30 66 1 63 22
M  V30 67 1 64 22
M  V30 68 1 65 24
M  V30 69 1 66 24
M  V30 70 1 67 24
M  V30 71 1 68 25
M  V30 72 1 69 25
M  V30 73 1 70 26
M  V30 74 1 71 26
M  V30 75 1 27 72 CFG=1
M  V30 76 1 28 73 CFG=1
M  V30 77 1 74 29
M  V30 78 1 75 29
M  V30 79 1 31 76 CFG=3
M  V30 80 1 77 32
M  V30 81 1 78 32
M  V30 82 1 79 33
M  V30 83 1 80 34
M  V30 84 1 81 34
M  V30 85 1 35 82 CFG=3
M  V30 86 1 83 36
M  V30 87 1 84 36
M  V30 END BOND
M  V30 END CTAB
M  END
>  <i_epik_Tot_Q>  (1) 
-1

>  <i_epik_Tot_abs_Q>  (1) 
1

>  <i_i_glide_confnum>  (1) 
909

>  <i_i_glide_lignum>  (1) 
229

>  <i_i_glide_posenum>  (1) 
36

>  <i_i_glide_rotatable_bonds>  (1) 
10

>  <i_lp_mmshare_version>  (1) 
72125

>  <i_m_source_file_index>  (1) 
91

>  <i_f3d_flags>  (1) 
0

>  <num_sample>  (1) 
100

>  <b_lp_Chiralities_Consistent>  (1) 
1

>  <r_epik_Charging_Adjusted_Penalty>  (1) 
0.43821527866000726

>  <r_epik_Ionization_Penalty>  (1) 
0.52002734918543769

>  <r_epik_Ionization_Penalty_Charging>  (1) 
0.00012691742049533285

>  <r_epik_Ionization_Penalty_Neutral>  (1) 
0.51990043176494238

>  <r_epik_State_Penalty>  (1) 
0.43808836123951195

>  <r_glide_ring_energy>  (1) 
2.0061236232478867

>  <r_i_docking_score>  (1) 
-5.2035803574102806

>  <r_i_glide_ecoul>  (1) 
2.9216064019701369

>  <r_i_glide_eff_state_penalty>  (1) 
0.43808836123951195

>  <r_i_glide_einternal>  (1) 
9.2510822911741428

>  <r_i_glide_emodel>  (1) 
-25.943875295900064

>  <r_i_glide_emodel_strain>  (1) 
7.9249761913110603

>  <r_i_glide_energy>  (1) 
-27.384702514031886

>  <r_i_glide_erotb>  (1) 
0.42146348941000378

>  <r_i_glide_esite>  (1) 
0

>  <r_i_glide_evdw>  (1) 
-30.306308916002024

>  <r_i_glide_gscore>  (1) 
-5.6416687186497922

>  <r_i_glide_gscore_strain>  (1) 
0.98124404782776509

>  <r_i_glide_hbond>  (1) 
0

>  <r_i_glide_ligand_efficiency>  (1) 
-0.1369363251950074

>  <r_i_glide_ligand_efficiency_ln>  (1) 
-1.1220449988830585

>  <r_i_glide_ligand_efficiency_sa>  (1) 
-0.46037655760304019

>  <r_i_glide_lipo>  (1) 
-4.7576966951864392

>  <r_i_glide_metal>  (1) 
-0

>  <r_i_glide_rewards>  (1) 
-1.2096050751965408

>  <r_lp_Energy>  (1) 
50.148589000000001

>  <s_epik_Chemistry_Notes>  (1) 
This compound has a N-S or N-O group and may undergo hydrolysis at high or low pH.

>  <s_epik_cmdline>  (1) 
J2VwaWtfcHl0aG9uJywgJy1waHQnLCAnMS4wJywgJy1waCcsICc3LjQnLCAnLXRuJywgJzgnLCAnLW1hJywgJzUwMCcsICctaW1hZScsICc8aW5maWxlLm1hZT4nLCAnLW9tYWUnLCAnPG91dGZpbGUubWFlPic=

>  <s_epik_input>  (1) 
RkMoRikoW0NIMl0xKVtDSDJdW0NIMl1bQ0BIXShbQ0BASF0xMilbQ0BIXShbQ0gyXVtDQEhdKFtDSDJdW0NIMl0yKUMoW0NIM10pKFtDSDNdKU9bQ0gzXSlbTkhdTjNbQ0gyXVtDSDJdW0NIMl1bQ0BIXShbQ0gyXTMpL1tDSF09W0NIXVxbQ0BASF0oW0NIMl1bQ0BdNChbT0hdKUMoPU8pW09IXSlbQ0gyXVtDQEBIXTRbTkhdW09IXQ==

>  <s_glide_docking_method>  (1) 
confgen

>  <s_i_glide_gridfile>  (1) 
gpcr_5ht2c_6bqh_protein_autoprepared_prepared

>  <s_lp_Force_Field>  (1) 
S-OPLS

>  <s_lp_Variant>  (1) 
DiffSBDD_90_num_sample_100-1

>  <s_m_source_file>  (1) 
generated__ligand_DiffSBDD_2026-05-06_prepared.sdf

>  <GenAI_Model>  (1) 
DiffSBDD

>  <Protein>  (1) 
GPCR_5HT2C

$$$$
DiffSBDD_66_num_sample_100
     RDKit          3D

  0  0  0  0  0  0  0  0  0  0999 V3000
M  V30 BEGIN CTAB
M  V30 COUNTS 111 115 0 0 1
M  V30 BEGIN ATOM
M  V30 1 C 40.543987 34.828911 67.429890 0
M  V30 2 C 39.968352 32.420266 61.037621 0
M  V30 3 C 36.184979 39.968027 62.038214 0
M  V30 4 C 34.476290 32.039908 59.264270 0
M  V30 5 C 39.429628 29.402226 52.133735 0
M  V30 6 C 40.063958 28.585389 49.854413 0
M  V30 7 C 38.105061 38.980550 60.939311 0
M  V30 8 S 37.673161 33.243209 59.065876 0
M  V30 9 C 39.286278 33.706504 61.376357 0 CFG=1
M  V30 10 C 39.763222 36.028037 67.045746 0
M  V30 11 C 41.696221 35.650372 64.673966 0
M  V30 12 C 40.574020 36.395448 64.654202 0
M  V30 13 C 38.948947 27.833028 54.073542 0
M  V30 14 C 41.096469 32.978792 68.475161 0
M  V30 15 C 39.251294 29.533476 59.847455 0 CFG=2
M  V30 16 C 42.361589 35.093516 65.854560 0
M  V30 17 C 40.113406 36.962183 63.329111 0
M  V30 18 O 37.339480 29.660829 54.338250 0
M  V30 19 C 38.658462 36.536036 61.263586 0 CFG=1
M  V30 20 N 40.206339 34.020811 68.415489 0 CHG=1
M  V30 21 C 37.298470 40.094455 61.193668 0
M  V30 22 C 37.790798 37.733354 61.524000 0
M  V30 23 C 38.761640 28.087786 52.588842 0
M  V30 24 C 43.248504 32.428796 67.072534 0
M  V30 25 C 39.780091 36.700394 65.861058 0
M  V30 26 C 37.740402 29.715833 60.239515 0
M  V30 27 C 40.561599 29.246296 51.116311 0 CFG=1
M  V30 28 C 39.552749 30.014492 58.420310 0
M  V30 29 C 39.329530 35.931948 62.508163 0 CFG=1
M  V30 30 C 40.196327 34.705866 62.093163 0 CFG=2
M  V30 31 C 35.101666 31.140864 61.427052 0
M  V30 32 C 38.743080 29.300191 57.366097 0
M  V30 33 N 41.654519 34.385150 66.872616 0
M  V30 34 C 36.658161 37.609055 62.350435 0
M  V30 35 C 42.037054 33.202210 67.482338 0
M  V30 36 C 39.648658 28.027813 59.879298 0
M  V30 37 O 41.050154 30.507026 50.730605 0
M  V30 38 C 40.204705 30.148837 60.935754 0
M  V30 39 C 36.562665 30.390676 59.396623 0
M  V30 40 C 35.677822 31.524951 60.070715 0
M  V30 41 C 38.689592 34.324412 60.094784 0 CFG=2
M  V30 42 N 39.682302 31.329131 61.578997 0
M  V30 43 C 38.953367 29.419863 56.052528 0
M  V30 44 C 36.553655 32.711387 60.378347 0
M  V30 45 C 35.858763 38.725644 62.606672 0
M  V30 46 C 41.458326 35.083237 61.272305 0
M  V30 47 C 39.788259 26.887179 54.530314 0
M  V30 48 C 38.127852 28.707507 55.014692 0 CFG=2
M  V30 49 C 37.862164 35.544737 60.455040 0
M  V30 50 H 40.719796 32.495406 60.254151 0
M  V30 51 H 35.581582 40.821350 62.256687 0
M  V30 52 H 34.781059 32.884997 58.653763 0
M  V30 53 H 33.681025 32.474633 59.853542 0
M  V30 54 H 34.031726 31.256811 58.653274 0
M  V30 55 H 38.670779 30.007322 51.666546 0
M  V30 56 H 39.771381 29.987752 52.986480 0
M  V30 57 H 40.047916 27.506911 49.977083 0
M  V30 58 H 40.664934 28.830898 48.979232 0
M  V30 59 H 39.065342 28.901866 49.604525 0
M  V30 60 H 38.965592 39.088875 60.310874 0
M  V30 61 H 39.064319 36.375460 67.794057 0
M  V30 62 H 42.219923 35.491600 63.752184 0
M  V30 63 H 41.009380 32.180283 69.196025 0
M  V30 64 H 43.133815 34.433895 65.460491 0
M  V30 65 H 42.862083 35.940336 66.321595 0
M  V30 66 H 39.512987 37.848388 63.524665 0
M  V30 67 H 40.977702 37.315607 62.777700 0
M  V30 68 H 36.750591 29.202728 53.760258 0
M  V30 69 H 39.475345 36.813778 60.654197 0
M  V30 70 H 37.539353 41.047776 60.760491 0
M  V30 71 H 37.692952 28.113203 52.354072 0
M  V30 72 H 39.147444 27.234796 52.035609 0
M  V30 73 H 43.281950 31.484715 67.614656 0
M  V30 74 H 44.158538 32.991230 67.284838 0
M  V30 75 H 43.214259 32.198534 66.005116 0
M  V30 76 H 39.089893 37.527567 65.775199 0
M  V30 77 H 37.467720 28.680522 60.253468 0
M  V30 78 H 37.710586 30.027079 61.270782 0
M  V30 79 H 41.384392 28.671531 51.529910 0
M  V30 80 H 39.363278 31.077858 58.323067 0
M  V30 81 H 40.601338 29.829562 58.190692 0
M  V30 82 H 38.527124 35.610556 63.160890 0
M  V30 83 H 40.528281 34.172144 62.985066 0
M  V30 84 H 35.938708 30.652026 61.853441 0
M  V30 85 H 34.276509 30.444584 61.460506 0
M  V30 86 H 34.805015 31.990951 62.043502 0
M  V30 87 H 37.944932 28.661874 57.717865 0
M  V30 88 H 36.405213 36.652954 62.791120 0
M  V30 89 H 39.522833 27.624220 60.881725 0
M  V30 90 H 40.700197 27.906262 59.618490 0
M  V30 91 H 39.068280 27.397720 59.202592 0
M  V30 92 H 40.367570 30.974181 50.272892 0
M  V30 93 H 40.382455 29.431769 61.738945 0
M  V30 94 H 41.186965 30.315929 60.498087 0
M  V30 95 H 36.921220 30.775106 58.445773 0
M  V30 96 H 35.883760 29.588034 59.102494 0
M  V30 97 H 39.529307 34.575526 59.453488 0
M  V30 98 H 39.745064 30.056339 55.691336 0
M  V30 99 H 35.930202 33.539115 60.707606 0
M  V30 100 H 37.143230 32.381606 61.215769 0
M  V30 101 H 34.994060 38.632139 63.247585 0
M  V30 102 H 41.215069 35.461202 60.286275 0
M  V30 103 H 42.105709 34.219267 61.140158 0
M  V30 104 H 42.058548 35.867641 61.715064 0
M  V30 105 H 39.912070 26.716920 55.590069 0
M  V30 106 H 40.359672 26.275453 53.847918 0
M  V30 107 H 37.468185 28.019137 55.536386 0
M  V30 108 H 37.474004 36.017838 59.551733 0
M  V30 109 H 37.004850 35.261470 61.055084 0
M  V30 110 H 39.399146 34.138449 69.013696 0
M  V30 111 H 38.503488 33.498712 62.102289 0
M  V30 END ATOM
M  V30 BEGIN BOND
M  V30 1 1 9 2
M  V30 2 1 10 1
M  V30 3 2 12 11
M  V30 4 1 16 11
M  V30 5 1 17 12
M  V30 6 2 20 1
M  V30 7 1 20 14
M  V30 8 2 21 3
M  V30 9 1 21 7
M  V30 10 2 22 7
M  V30 11 1 22 19
M  V30 12 1 23 5
M  V30 13 1 23 13
M  V30 14 2 25 10
M  V30 15 1 25 12
M  V30 16 1 26 15
M  V30 17 1 27 5
M  V30 18 1 27 6
M  V30 19 1 15 28 CFG=3
M  V30 20 1 29 17
M  V30 21 1 29 19
M  V30 22 1 30 9
M  V30 23 1 30 29
M  V30 24 1 32 28
M  V30 25 1 33 1
M  V30 26 1 33 16
M  V30 27 1 34 22
M  V30 28 2 35 14
M  V30 29 1 35 24
M  V30 30 1 35 33
M  V30 31 1 36 15
M  V30 32 1 37 27
M  V30 33 1 38 15
M  V30 34 1 39 26
M  V30 35 1 40 4
M  V30 36 1 40 31
M  V30 37 1 40 39
M  V30 38 1 41 8
M  V30 39 1 41 9
M  V30 40 2 42 2
M  V30 41 1 42 38
M  V30 42 2 43 32
M  V30 43 1 44 8
M  V30 44 1 44 40
M  V30 45 1 45 3
M  V30 46 2 45 34
M  V30 47 1 46 30
M  V30 48 2 47 13
M  V30 49 1 48 13
M  V30 50 1 48 18
M  V30 51 1 48 43
M  V30 52 1 49 19
M  V30 53 1 49 41
M  V30 54 1 50 2
M  V30 55 1 51 3
M  V30 56 1 52 4
M  V30 57 1 53 4
M  V30 58 1 54 4
M  V30 59 1 55 5
M  V30 60 1 56 5
M  V30 61 1 57 6
M  V30 62 1 58 6
M  V30 63 1 59 6
M  V30 64 1 60 7
M  V30 65 1 61 10
M  V30 66 1 62 11
M  V30 67 1 63 14
M  V30 68 1 64 16
M  V30 69 1 65 16
M  V30 70 1 66 17
M  V30 71 1 67 17
M  V30 72 1 68 18
M  V30 73 1 19 69 CFG=3
M  V30 74 1 70 21
M  V30 75 1 71 23
M  V30 76 1 72 23
M  V30 77 1 73 24
M  V30 78 1 74 24
M  V30 79 1 75 24
M  V30 80 1 76 25
M  V30 81 1 77 26
M  V30 82 1 78 26
M  V30 83 1 27 79 CFG=1
M  V30 84 1 80 28
M  V30 85 1 81 28
M  V30 86 1 29 82 CFG=1
M  V30 87 1 30 83 CFG=1
M  V30 88 1 84 31
M  V30 89 1 85 31
M  V30 90 1 86 31
M  V30 91 1 87 32
M  V30 92 1 88 34
M  V30 93 1 89 36
M  V30 94 1 90 36
M  V30 95 1 91 36
M  V30 96 1 92 37
M  V30 97 1 93 38
M  V30 98 1 94 38
M  V30 99 1 95 39
M  V30 100 1 96 39
M  V30 101 1 41 97 CFG=3
M  V30 102 1 98 43
M  V30 103 1 99 44
M  V30 104 1 100 44
M  V30 105 1 101 45
M  V30 106 1 102 46
M  V30 107 1 103 46
M  V30 108 1 104 46
M  V30 109 1 105 47
M  V30 110 1 106 47
M  V30 111 1 48 107 CFG=1
M  V30 112 1 108 49
M  V30 113 1 109 49
M  V30 114 1 110 20
M  V30 115 1 9 111 CFG=1
M  V30 END BOND
M  V30 END CTAB
M  END
>  <i_epik_Tot_Q>  (1) 
1

>  <i_epik_Tot_abs_Q>  (1) 
1

>  <i_i_glide_confnum>  (1) 
802

>  <i_i_glide_lignum>  (1) 
174

>  <i_i_glide_posenum>  (1) 
11

>  <i_i_glide_rotatable_bonds>  (1) 
12

>  <i_lp_mmshare_version>  (1) 
72125

>  <i_m_source_file_index>  (1) 
67

>  <i_f3d_flags>  (1) 
0

>  <num_sample>  (1) 
100

>  <b_lp_Chiralities_Consistent>  (1) 
1

>  <r_epik_Charging_Adjusted_Penalty>  (1) 
1.1641737349406354

>  <r_epik_Ionization_Penalty>  (1) 
1.1550326719201822

>  <r_epik_Ionization_Penalty_Charging>  (1) 
0

>  <r_epik_Ionization_Penalty_Neutral>  (1) 
1.1550326719201822

>  <r_epik_State_Penalty>  (1) 
1.1641737349406354

>  <r_glide_ring_energy>  (1) 
0

>  <r_i_docking_score>  (1) 
-5.2032337600784837

>  <r_i_glide_ecoul>  (1) 
3.2825264925472659

>  <r_i_glide_eff_state_penalty>  (1) 
1.1641737349406354

>  <r_i_glide_einternal>  (1) 
13.682206098474827

>  <r_i_glide_emodel>  (1) 
-270.35992233119094

>  <r_i_glide_emodel_strain>  (1) 
5.0488119631239243

>  <r_i_glide_energy>  (1) 
-6.7744853277346291

>  <r_i_glide_erotb>  (1) 
0.28694684240539414

>  <r_i_glide_esite>  (1) 
0

>  <r_i_glide_evdw>  (1) 
-10.057011820281895

>  <r_i_glide_gscore>  (1) 
-6.3674074950191191

>  <r_i_glide_gscore_strain>  (1) 
0.26220299078098108

>  <r_i_glide_hbond>  (1) 
0

>  <r_i_glide_ligand_efficiency>  (1) 
-0.10618844408323436

>  <r_i_glide_ligand_efficiency_ln>  (1) 
-1.063660037162063

>  <r_i_glide_ligand_efficiency_sa>  (1) 
-0.38857597977223457

>  <r_i_glide_lipo>  (1) 
-5.3188473224875228

>  <r_i_glide_metal>  (1) 
-0

>  <r_i_glide_rewards>  (1) 
-1.5872383885859662

>  <r_lp_Energy>  (1) 
65.422879999999992

>  <s_epik_Chemistry_Notes>  (1) 
This compound has an imine and may undergo hydrolysis.

>  <s_epik_cmdline>  (1) 
J2VwaWtfcHl0aG9uJywgJy1waHQnLCAnMS4wJywgJy1waCcsICc3LjQnLCAnLXRuJywgJzgnLCAnLW1hJywgJzUwMCcsICctaW1hZScsICc8aW5maWxlLm1hZT4nLCAnLW9tYWUnLCAnPG91dGZpbGUubWFlPic=

>  <s_epik_input>  (1) 
bjFbY0hdYyhbQ0gzXSluKGMxMilbQ0gyXVtDSF09QyhbQ0hdPVtDSF0yKVtDSDJdW0NASF0oW0NAQEhdM1tDSDNdKVtDQEhdKGM0W2NIXVtjSF1bY0hdW2NIXVtjSF00KVtDSDJdW0NAQEhdKFtDQEhdMzUpU1tDSDJdQyhbQ0gzXSkoW0NIM10pW0NIMl1bQ0gyXVtDQF0oW0NIM10pKFtDSDJdXE49W0NIXVw1KVtDSDJdL1tDSF09W0NIXS9bQ0BASF0oW09IXSlDKD1bQ0gyXSlbQ0gyXVtDSDJdW0NAQEhdKFtDSDNdKVtPSF0=

>  <s_glide_docking_method>  (1) 
confgen

>  <s_i_glide_gridfile>  (1) 
gpcr_5ht2c_6bqh_protein_autoprepared_prepared

>  <s_lp_Force_Field>  (1) 
S-OPLS

>  <s_lp_Variant>  (1) 
DiffSBDD_66_num_sample_100-11

>  <s_m_source_file>  (1) 
generated__ligand_DiffSBDD_2026-05-06_prepared.sdf

>  <GenAI_Model>  (1) 
DiffSBDD

>  <Protein>  (1) 
GPCR_5HT2C

$$$$
DiffSBDD_21_num_sample_100
     RDKit          3D

  0  0  0  0  0  0  0  0  0  0999 V3000
M  V30 BEGIN CTAB
M  V30 COUNTS 40 40 0 0 1
M  V30 BEGIN ATOM
M  V30 1 C 39.048783 25.923573 57.004631 0
M  V30 2 C 37.825284 31.643170 54.675617 0
M  V30 3 C 38.779981 30.459475 54.899516 0 CFG=2
M  V30 4 C 39.424979 28.999763 50.866108 0
M  V30 5 N 39.203158 29.771654 53.656920 0
M  V30 6 N 38.193805 28.968963 53.023252 0
M  V30 7 C 39.019482 28.400655 56.296947 0
M  V30 8 C 38.701478 28.149518 51.916600 0
M  V30 9 C 40.032011 30.579240 52.734324 0
M  V30 10 C 40.092663 26.131750 58.106694 0
M  V30 11 N 38.133991 29.474909 55.795698 0 CHG=1
M  V30 12 C 38.200870 27.186334 56.763973 0
M  V30 13 C 40.561345 29.771991 51.531102 0
M  V30 14 C 38.158787 24.713170 57.327468 0
M  V30 15 H 39.584619 25.691303 56.082423 0
M  V30 16 H 38.252398 32.397396 54.015122 0
M  V30 17 H 36.874415 31.319744 54.253525 0
M  V30 18 H 37.596020 32.141766 55.618411 0
M  V30 19 H 39.674466 30.834998 55.399269 0
M  V30 20 H 38.730926 29.708843 50.426194 0
M  V30 21 H 39.803147 28.376387 50.056142 0
M  V30 22 H 37.461261 29.586280 52.679981 0
M  V30 23 H 39.701917 28.072520 55.512145 0
M  V30 24 H 39.636882 28.797736 57.103267 0
M  V30 25 H 39.377552 27.393879 52.319045 0
M  V30 26 H 37.867487 27.616776 51.459566 0
M  V30 27 H 39.463029 31.427320 52.362072 0
M  V30 28 H 40.855167 31.014059 53.300140 0
M  V30 29 H 39.621531 26.393908 59.053536 0
M  V30 30 H 40.667403 25.221426 58.253501 0
M  V30 31 H 40.807494 26.914473 57.854227 0
M  V30 32 H 37.710793 29.960420 56.575966 0
M  V30 33 H 37.634808 27.439407 57.661931 0
M  V30 34 H 37.467408 26.946562 55.993924 0
M  V30 35 H 41.050917 30.433078 50.814628 0
M  V30 36 H 41.304700 29.047668 51.853424 0
M  V30 37 H 37.594722 24.867724 58.247867 0
M  V30 38 H 37.443576 24.521575 56.526847 0
M  V30 39 H 38.757231 23.810176 57.453470 0
M  V30 40 H 37.399378 29.045634 55.252583 0
M  V30 END ATOM
M  V30 BEGIN BOND
M  V30 1 1 3 2
M  V30 2 1 5 3
M  V30 3 1 6 5
M  V30 4 1 8 4
M  V30 5 1 8 6
M  V30 6 1 9 5
M  V30 7 1 10 1
M  V30 8 1 11 3
M  V30 9 1 11 7
M  V30 10 1 12 1
M  V30 11 1 12 7
M  V30 12 1 13 4
M  V30 13 1 13 9
M  V30 14 1 14 1
M  V30 15 1 15 1
M  V30 16 1 16 2
M  V30 17 1 17 2
M  V30 18 1 18 2
M  V30 19 1 3 19 CFG=1
M  V30 20 1 20 4
M  V30 21 1 21 4
M  V30 22 1 22 6
M  V30 23 1 23 7
M  V30 24 1 24 7
M  V30 25 1 25 8
M  V30 26 1 26 8
M  V30 27 1 27 9
M  V30 28 1 28 9
M  V30 29 1 29 10
M  V30 30 1 30 10
M  V30 31 1 31 10
M  V30 32 1 32 11
M  V30 33 1 33 12
M  V30 34 1 34 12
M  V30 35 1 35 13
M  V30 36 1 36 13
M  V30 37 1 37 14
M  V30 38 1 38 14
M  V30 39 1 39 14
M  V30 40 1 40 11
M  V30 END BOND
M  V30 END CTAB
M  END
>  <i_epik_Tot_Q>  (1) 
1

>  <i_epik_Tot_abs_Q>  (1) 
1

>  <i_i_glide_confnum>  (1) 
87

>  <i_i_glide_lignum>  (1) 
57

>  <i_i_glide_posenum>  (1) 
379

>  <i_i_glide_rotatable_bonds>  (1) 
5

>  <i_lp_mmshare_version>  (1) 
72125

>  <i_m_source_file_index>  (1) 
22

>  <i_f3d_flags>  (1) 
0

>  <num_sample>  (1) 
100

>  <b_lp_Chiralities_Consistent>  (1) 
1

>  <r_epik_Charging_Adjusted_Penalty>  (1) 
0.0010092621186252495

>  <r_epik_Ionization_Penalty>  (1) 
0.001234333594752046

>  <r_epik_Ionization_Penalty_Charging>  (1) 
0.0010092621186252495

>  <r_epik_Ionization_Penalty_Neutral>  (1) 
0.0002250714761267966

>  <r_epik_State_Penalty>  (1) 
-0

>  <r_glide_ring_energy>  (1) 
0.34572335091878692

>  <r_i_docking_score>  (1) 
-5.2024190853658085

>  <r_i_glide_ecoul>  (1) 
-0.76383094288054298

>  <r_i_glide_eff_state_penalty>  (1) 
-0

>  <r_i_glide_einternal>  (1) 
1.6155121596384436

>  <r_i_glide_emodel>  (1) 
-31.654610649356226

>  <r_i_glide_emodel_strain>  (1) 
0.083403420839008646

>  <r_i_glide_energy>  (1) 
-23.318702507299129

>  <r_i_glide_erotb>  (1) 
1.2214352924196943

>  <r_i_glide_esite>  (1) 
-0.015878199261230849

>  <r_i_glide_evdw>  (1) 
-22.554871564418587

>  <r_i_glide_gscore>  (1) 
-5.2024190853658085

>  <r_i_glide_gscore_strain>  (1) 
0

>  <r_i_glide_hbond>  (1) 
0

>  <r_i_glide_ligand_efficiency>  (1) 
-0.37160136324041487

>  <r_i_glide_ligand_efficiency_ln>  (1) 
-1.4296062452843625

>  <r_i_glide_ligand_efficiency_sa>  (1) 
-0.89561215097085578

>  <r_i_glide_lipo>  (1) 
-2.3454859323491908

>  <r_i_glide_metal>  (1) 
-0

>  <r_i_glide_rewards>  (1) 
-2.8201720265220693

>  <r_lp_Energy>  (1) 
8.4597719999999992

>  <r_lp_tautomer_probability>  (1) 
1

>  <s_epik_Chemistry_Notes>  (1) 
This compound contains an acetal/aminal-like group ( X-CH(R)-Y where X, Y are N, S, or O) that may be acid/base labile, releasing an aldehyde.

>  <s_epik_cmdline>  (1) 
J2VwaWtfcHl0aG9uJywgJy1waHQnLCAnMS4wJywgJy1waCcsICc3LjQnLCAnLXRuJywgJzgnLCAnLW1hJywgJzUwMCcsICctaW1hZScsICc8aW5maWxlLm1hZT4nLCAnLW9tYWUnLCAnPG91dGZpbGUubWFlPic=

>  <s_epik_input>  (1) 
W0NIM11bQ0hdKFtDSDNdKVtDSDJdW0NIMl1bTkhdW0NASF0oW0NIM10pTjFbTkhdW0NIMl1bQ0gyXVtDSDJdW0NIMl0x

>  <s_glide_docking_method>  (1) 
confgen

>  <s_i_glide_gridfile>  (1) 
gpcr_5ht2c_6bqh_protein_autoprepared_prepared

>  <s_lp_Force_Field>  (1) 
S-OPLS

>  <s_lp_Variant>  (1) 
DiffSBDD_21_num_sample_100-1

>  <s_m_source_file>  (1) 
generated__ligand_DiffSBDD_2026-05-06_prepared.sdf

>  <GenAI_Model>  (1) 
DiffSBDD

>  <Protein>  (1) 
GPCR_5HT2C

$$$$
DiffSBDD_93_num_sample_100
     RDKit          3D

  0  0  0  0  0  0  0  0  0  0999 V3000
M  V30 BEGIN CTAB
M  V30 COUNTS 74 77 0 0 1
M  V30 BEGIN ATOM
M  V30 1 C 41.708692 31.930793 64.847833 0
M  V30 2 S 37.198971 34.020923 59.549031 0
M  V30 3 C 42.795996 30.626681 66.749541 0 CFG=2
M  V30 4 O 38.794394 38.458404 61.453499 0
M  V30 5 C 40.175501 28.404696 59.613800 0
M  V30 6 C 39.414651 35.682714 61.691430 0 CFG=1
M  V30 7 C 37.554130 29.572405 58.762772 0
M  V30 8 C 38.524535 31.769720 59.278120 0
M  V30 9 C 43.690732 31.851025 66.981654 0
M  V30 10 N 38.526002 32.789673 61.628303 0 CHG=1
M  V30 11 C 39.253525 27.334061 59.054401 0
M  V30 12 C 41.974067 30.756806 65.478750 0
M  V30 13 C 40.930237 31.900138 63.579249 0
M  V30 14 C 39.967966 33.143776 61.550702 0 CFG=2
M  V30 15 C 42.870199 33.125497 66.840028 0
M  V30 16 Cl 41.067490 34.591174 65.651230 0
M  V30 17 O 39.761388 27.479732 56.698899 0
M  V30 18 C 42.246310 33.267056 65.439148 0 CFG=2
M  V30 19 C 40.384123 30.569896 63.055631 0
M  V30 20 C 36.998471 35.257077 60.828260 0
M  V30 21 C 40.406243 36.813082 62.019351 0
M  V30 22 C 40.715650 33.047451 62.884405 0
M  V30 23 C 37.971864 28.928870 57.443715 0
M  V30 24 C 38.200056 36.212129 60.868055 0 CFG=1
M  V30 25 C 37.735458 32.506786 60.394138 0 CFG=1
M  V30 26 C 38.706830 27.587330 57.633894 0 CFG=2
M  V30 27 C 37.695333 37.586325 61.330259 0
M  V30 28 C 39.634121 38.021461 62.515237 0
M  V30 29 C 39.867746 29.716281 59.717148 0
M  V30 30 S 36.348767 31.564961 61.053512 0 CHG=-1
M  V30 31 N 38.667229 30.319738 59.333782 0
M  V30 32 C 41.903777 30.269396 67.948142 0
M  V30 33 C 40.183198 34.547867 60.971021 0
M  V30 34 H 43.464636 29.779795 66.588468 0
M  V30 35 H 41.146762 28.065957 59.947343 0
M  V30 36 H 39.035301 35.330469 62.652604 0
M  V30 37 H 37.152219 28.863850 59.480459 0
M  V30 38 H 36.722871 30.250567 58.558780 0
M  V30 39 H 39.467337 32.265523 59.091727 0
M  V30 40 H 37.999298 31.946677 58.338722 0
M  V30 41 H 44.161190 31.803968 67.964363 0
M  V30 42 H 44.498885 31.862844 66.247330 0
M  V30 43 H 38.031475 33.479347 62.172061 0
M  V30 44 H 38.439763 27.210464 59.765369 0
M  V30 45 H 39.794366 26.387188 59.059632 0
M  V30 46 H 41.610468 29.830658 65.065015 0
M  V30 47 H 40.491579 32.440085 60.912936 0
M  V30 48 H 42.079512 33.113342 67.591583 0
M  V30 49 H 43.467333 34.006883 67.068819 0
M  V30 50 H 40.428405 28.108841 56.929992 0
M  V30 51 H 43.006665 33.642556 64.754408 0
M  V30 52 H 39.825954 30.053395 63.838002 0
M  V30 53 H 39.694056 30.650007 62.225762 0
M  V30 54 H 41.203111 29.923720 62.737019 0
M  V30 55 H 36.121391 35.811475 60.501889 0
M  V30 56 H 36.748670 34.824028 61.796500 0
M  V30 57 H 41.008025 37.082881 61.150283 0
M  V30 58 H 41.108405 36.489198 62.788887 0
M  V30 59 H 41.101546 33.975231 63.260971 0
M  V30 60 H 38.582373 29.638657 56.882338 0
M  V30 61 H 37.073472 28.791574 56.846960 0
M  V30 62 H 38.543026 36.384387 59.853535 0
M  V30 63 H 38.005248 26.784353 57.403669 0
M  V30 64 H 37.010260 38.009184 60.593672 0
M  V30 65 H 37.139427 37.518792 62.267243 0
M  V30 66 H 40.267363 38.848914 62.815844 0
M  V30 67 H 39.072502 37.743587 63.409470 0
M  V30 68 H 40.581280 30.415132 60.119645 0
M  V30 69 H 41.376576 29.331338 67.770078 0
M  V30 70 H 42.493103 30.140651 68.855282 0
M  V30 71 H 41.151707 31.034601 68.140927 0
M  V30 72 H 39.974966 34.556798 59.900857 0
M  V30 73 H 41.253741 34.748858 61.053314 0
M  V30 74 H 38.481778 31.916555 62.133693 0
M  V30 END ATOM
M  V30 BEGIN BOND
M  V30 1 1 9 3
M  V30 2 1 11 5
M  V30 3 2 12 1
M  V30 4 1 12 3
M  V30 5 1 13 1
M  V30 6 1 14 10
M  V30 7 1 15 9
M  V30 8 1 18 1
M  V30 9 1 18 15
M  V30 10 1 18 16
M  V30 11 1 19 13
M  V30 12 1 20 2
M  V30 13 1 21 6
M  V30 14 2 22 13
M  V30 15 1 22 14
M  V30 16 1 23 7
M  V30 17 1 24 6
M  V30 18 1 24 20
M  V30 19 1 25 2
M  V30 20 1 25 8
M  V30 21 1 25 10
M  V30 22 1 26 11
M  V30 23 1 26 17
M  V30 24 1 26 23
M  V30 25 1 27 4
M  V30 26 1 27 24
M  V30 27 1 28 4
M  V30 28 1 28 21
M  V30 29 2 29 5
M  V30 30 1 25 30 CFG=1
M  V30 31 1 31 7
M  V30 32 1 31 8
M  V30 33 1 31 29
M  V30 34 1 32 3
M  V30 35 1 33 6
M  V30 36 1 33 14
M  V30 37 1 3 34 CFG=3
M  V30 38 1 35 5
M  V30 39 1 6 36 CFG=1
M  V30 40 1 37 7
M  V30 41 1 38 7
M  V30 42 1 39 8
M  V30 43 1 40 8
M  V30 44 1 41 9
M  V30 45 1 42 9
M  V30 46 1 43 10
M  V30 47 1 44 11
M  V30 48 1 45 11
M  V30 49 1 46 12
M  V30 50 1 14 47 CFG=3
M  V30 51 1 48 15
M  V30 52 1 49 15
M  V30 53 1 50 17
M  V30 54 1 18 51 CFG=3
M  V30 55 1 52 19
M  V30 56 1 53 19
M  V30 57 1 54 19
M  V30 58 1 55 20
M  V30 59 1 56 20
M  V30 60 1 57 21
M  V30 61 1 58 21
M  V30 62 1 59 22
M  V30 63 1 60 23
M  V30 64 1 61 23
M  V30 65 1 24 62 CFG=3
M  V30 66 1 26 63 CFG=3
M  V30 67 1 64 27
M  V30 68 1 65 27
M  V30 69 1 66 28
M  V30 70 1 67 28
M  V30 71 1 68 29
M  V30 72 1 69 32
M  V30 73 1 70 32
M  V30 74 1 71 32
M  V30 75 1 72 33
M  V30 76 1 73 33
M  V30 77 1 74 10
M  V30 END BOND
M  V30 END CTAB
M  END
>  <i_epik_Tot_Q>  (1) 
0

>  <i_epik_Tot_abs_Q>  (1) 
2

>  <i_i_glide_confnum>  (1) 
45

>  <i_i_glide_lignum>  (1) 
259

>  <i_i_glide_posenum>  (1) 
118

>  <i_i_glide_rotatable_bonds>  (1) 
5

>  <i_lp_mmshare_version>  (1) 
72125

>  <i_m_source_file_index>  (1) 
94

>  <i_f3d_flags>  (1) 
0

>  <num_sample>  (1) 
100

>  <b_lp_Chiralities_Consistent>  (1) 
1

>  <r_epik_Charging_Adjusted_Penalty>  (1) 
0.80501984278308969

>  <r_epik_Ionization_Penalty>  (1) 
0.072421558423421364

>  <r_epik_Ionization_Penalty_Charging>  (1) 
0.072408791886815996

>  <r_epik_Ionization_Penalty_Neutral>  (1) 
1.2766536605372598e-05

>  <r_epik_State_Penalty>  (1) 
0.73261105089627365

>  <r_glide_ring_energy>  (1) 
1.2305908303780047

>  <r_i_docking_score>  (1) 
-5.1971730245243588

>  <r_i_glide_ecoul>  (1) 
-1.9653899674546813

>  <r_i_glide_eff_state_penalty>  (1) 
0.73261105089627365

>  <r_i_glide_einternal>  (1) 
12.856216170516973

>  <r_i_glide_emodel>  (1) 
-27.857921380773092

>  <r_i_glide_emodel_strain>  (1) 
0.068632758588194065

>  <r_i_glide_energy>  (1) 
-33.962405120342019

>  <r_i_glide_erotb>  (1) 
0.31140238833871409

>  <r_i_glide_esite>  (1) 
0

>  <r_i_glide_evdw>  (1) 
-31.997015152887336

>  <r_i_glide_gscore>  (1) 
-5.9297840754206321

>  <r_i_glide_gscore_strain>  (1) 
0

>  <r_i_glide_hbond>  (1) 
-0.12575441036673998

>  <r_i_glide_ligand_efficiency>  (1) 
-0.15749009165225331

>  <r_i_glide_ligand_efficiency_ln>  (1) 
-1.1558243711324629

>  <r_i_glide_ligand_efficiency_sa>  (1) 
-0.50515487560879158

>  <r_i_glide_lipo>  (1) 
-3.608024572082944

>  <r_i_glide_metal>  (1) 
-0

>  <r_i_glide_rewards>  (1) 
-0.61274822854709321

>  <r_lp_Energy>  (1) 
34.184450999999996

>  <s_epik_Chemistry_Notes>  (1) 
This compound has an imine and may undergo hydrolysis.

>  <s_epik_cmdline>  (1) 
J2VwaWtfcHl0aG9uJywgJy1waHQnLCAnMS4wJywgJy1waCcsICc3LjQnLCAnLXRuJywgJzgnLCAnLW1hJywgJzUwMCcsICctaW1hZScsICc8aW5maWxlLm1hZT4nLCAnLW9tYWUnLCAnPG91dGZpbGUubWFlPic=

>  <s_epik_input>  (1) 
Q2xbQ0BIXTFbQ0gyXVtDSDJdW0NAQEhdKFtDSDNdKVtDSF09QzEvQyhbQ0gzXSk9W0NIXS9bQ0BASF0oW0NIMl0yKVtOSF1bQ0BAXShbU0hdKShTW0NIMl1bQ0BIXShbQ0BASF0yMylbQ0gyXU9bQ0gyXVtDSDJdMylbQ0gyXU4oW0NIMl1bQ0gyXTQpW0NIXT1bQ0hdW0NIMl1bQ0BASF00W09IXQ==

>  <s_glide_docking_method>  (1) 
confgen

>  <s_i_glide_gridfile>  (1) 
gpcr_5ht2c_6bqh_protein_autoprepared_prepared

>  <s_lp_Force_Field>  (1) 
S-OPLS

>  <s_lp_Variant>  (1) 
DiffSBDD_93_num_sample_100-11

>  <s_m_source_file>  (1) 
generated__ligand_DiffSBDD_2026-05-06_prepared.sdf

>  <GenAI_Model>  (1) 
DiffSBDD

>  <Protein>  (1) 
GPCR_5HT2C

$$$$
DiffSBDD_37_num_sample_100
     RDKit          3D

  0  0  0  0  0  0  0  0  0  0999 V3000
M  V30 BEGIN CTAB
M  V30 COUNTS 23 23 0 0 1
M  V30 BEGIN ATOM
M  V30 1 C 37.707170 32.368960 60.606906 0 CFG=2
M  V30 2 O 37.387486 31.045253 60.207379 0
M  V30 3 C 36.957364 33.469299 59.844781 0 CFG=2
M  V30 4 C 39.054776 32.550405 61.312561 0 CFG=2
M  V30 5 O 41.107310 31.315954 61.322397 0 CHG=-1
M  V30 6 N 34.916255 32.091265 59.456241 0 CHG=1
M  V30 7 C 35.413966 33.398799 59.898462 0
M  V30 8 C 39.806036 33.875290 61.477143 0
M  V30 9 O 37.420116 33.601956 58.516606 0
M  V30 10 C 39.893027 31.288698 61.622458 0
M  V30 11 O 37.788371 32.517169 62.015766 0
M  V30 12 O 39.286031 30.317806 62.132854 0
M  V30 13 H 37.896592 30.472478 60.790185 0
M  V30 14 H 37.251827 34.413697 60.296148 0
M  V30 15 H 33.941025 31.942810 59.664041 0
M  V30 16 H 35.067616 32.011321 58.433460 0
M  V30 17 H 35.053300 33.589366 60.913532 0
M  V30 18 H 34.989308 34.170032 59.253075 0
M  V30 19 H 40.891048 33.754397 61.446027 0
M  V30 20 H 39.531110 34.570774 60.682664 0
M  V30 21 H 39.559611 34.348876 62.430887 0
M  V30 22 H 36.998347 32.951601 57.957574 0
M  V30 23 H 35.490073 31.392465 59.919539 0
M  V30 END ATOM
M  V30 BEGIN BOND
M  V30 1 1 1 2 CFG=1
M  V30 2 1 3 1
M  V30 3 1 4 1
M  V30 4 1 7 3
M  V30 5 1 7 6
M  V30 6 1 4 8 CFG=3
M  V30 7 1 9 3
M  V30 8 1 10 4
M  V30 9 1 10 5
M  V30 10 1 11 1
M  V30 11 1 11 4
M  V30 12 2 12 10
M  V30 13 1 13 2
M  V30 14 1 3 14 CFG=1
M  V30 15 1 15 6
M  V30 16 1 16 6
M  V30 17 1 17 7
M  V30 18 1 18 7
M  V30 19 1 19 8
M  V30 20 1 20 8
M  V30 21 1 21 8
M  V30 22 1 22 9
M  V30 23 1 23 6
M  V30 END BOND
M  V30 END CTAB
M  END
>  <i_epik_Tot_Q>  (1) 
0

>  <i_epik_Tot_abs_Q>  (1) 
2

>  <i_i_glide_confnum>  (1) 
1

>  <i_i_glide_lignum>  (1) 
91

>  <i_i_glide_posenum>  (1) 
52

>  <i_i_glide_rotatable_bonds>  (1) 
5

>  <i_lp_mmshare_version>  (1) 
72125

>  <i_m_source_file_index>  (1) 
38

>  <i_f3d_flags>  (1) 
0

>  <num_sample>  (1) 
100

>  <b_lp_Chiralities_Consistent>  (1) 
1

>  <r_epik_Charging_Adjusted_Penalty>  (1) 
0.074826181312878909

>  <r_epik_Ionization_Penalty>  (1) 
0.037455731975657096

>  <r_epik_Ionization_Penalty_Charging>  (1) 
0.037420022134994256

>  <r_epik_Ionization_Penalty_Neutral>  (1) 
3.5709840662840338e-05

>  <r_epik_State_Penalty>  (1) 
0.03740615917788466

>  <r_glide_ring_energy>  (1) 
0

>  <r_i_docking_score>  (1) 
-5.1941245032310395

>  <r_i_glide_ecoul>  (1) 
-11.529040384622167

>  <r_i_glide_eff_state_penalty>  (1) 
0.03740615917788466

>  <r_i_glide_einternal>  (1) 
6.8471968520515603

>  <r_i_glide_emodel>  (1) 
-36.862840718339207

>  <r_i_glide_emodel_strain>  (1) 
0.82339535605485281

>  <r_i_glide_energy>  (1) 
-26.123198415400658

>  <r_i_glide_erotb>  (1) 
0.49897273093522621

>  <r_i_glide_esite>  (1) 
-0.10000000000000001

>  <r_i_glide_evdw>  (1) 
-14.594158030778491

>  <r_i_glide_gscore>  (1) 
-5.2315306624089244

>  <r_i_glide_gscore_strain>  (1) 
0

>  <r_i_glide_hbond>  (1) 
-0.36731173915861198

>  <r_i_glide_ligand_efficiency>  (1) 
-0.43284370860258664

>  <r_i_glide_ligand_efficiency_ln>  (1) 
-1.4904630238939161

>  <r_i_glide_ligand_efficiency_sa>  (1) 
-0.99096471607397019

>  <r_i_glide_lipo>  (1) 
-0.35397783667456562

>  <r_i_glide_metal>  (1) 
-0

>  <r_i_glide_rewards>  (1) 
-2.4501498582787224

>  <r_lp_Energy>  (1) 
9.471366999999999

>  <s_epik_cmdline>  (1) 
J2VwaWtfcHl0aG9uJywgJy1waHQnLCAnMS4wJywgJy1waCcsICc3LjQnLCAnLXRuJywgJzgnLCAnLW1hJywgJzUwMCcsICctaW1hZScsICc8aW5maWxlLm1hZT4nLCAnLW9tYWUnLCAnPG91dGZpbGUubWFlPic=

>  <s_epik_input>  (1) 
W05IMl1bQ0gyXVtDQEhdKFtPSF0pW0NAQF0xKFtPSF0pW0NAXShPMSkoW0NIM10pQyg9TylbT0hd

>  <s_glide_docking_method>  (1) 
confgen

>  <s_i_glide_gridfile>  (1) 
gpcr_5ht2c_6bqh_protein_autoprepared_prepared

>  <s_lp_Force_Field>  (1) 
S-OPLS

>  <s_lp_Variant>  (1) 
DiffSBDD_37_num_sample_100-1

>  <s_m_source_file>  (1) 
generated__ligand_DiffSBDD_2026-05-06_prepared.sdf

>  <GenAI_Model>  (1) 
DiffSBDD

>  <Protein>  (1) 
GPCR_5HT2C

$$$$
DiffSBDD_90_num_sample_100
     RDKit          3D

  0  0  0  0  0  0  0  0  0  0999 V3000
M  V30 BEGIN CTAB
M  V30 COUNTS 85 88 0 0 1
M  V30 BEGIN ATOM
M  V30 1 C 38.666133 33.296249 57.337069 0
M  V30 2 O 38.702876 25.029015 55.654489 0
M  V30 3 F 42.319524 30.184755 64.135469 0
M  V30 4 C 38.526347 35.083709 61.000141 0 CFG=1
M  V30 5 C 39.326014 26.936339 57.970772 0 CFG=2
M  V30 6 C 39.254224 28.336724 55.998039 0 CFG=1
M  V30 7 C 35.495329 34.421437 61.966697 0
M  V30 8 C 37.837255 29.904731 54.588739 0
M  V30 9 C 37.268173 36.004901 61.158053 0
M  V30 10 N 39.866203 24.950120 56.524256 0
M  V30 11 C 40.511435 29.957106 62.651196 0
M  V30 12 C 37.643354 37.413148 61.667497 0
M  V30 13 C 38.370483 27.737533 57.106520 0
M  V30 14 C 40.354124 27.293047 55.760344 0
M  V30 15 O 41.061926 28.497537 58.546198 0
M  V30 16 N 37.941551 32.138532 57.925702 0 CFG=2 CHG=1
M  V30 17 C 38.434743 28.708255 54.789129 0
M  V30 18 F 40.443282 31.089486 64.701090 0
M  V30 19 C 40.538301 32.895077 62.377032 0 CFG=2
M  V30 20 N 38.373613 31.727135 59.337821 0
M  V30 21 C 39.414410 30.737968 61.900657 0
M  V30 22 C 37.952672 30.918527 57.085731 0
M  V30 23 O 36.367425 35.544158 62.184737 0
M  V30 24 C 36.574241 36.210256 59.785049 0
M  V30 25 C 38.483155 33.486373 55.822970 0
M  V30 26 C 41.718449 32.182465 63.069128 0
M  V30 27 C 37.864167 31.114872 55.544420 0 CFG=1
M  V30 28 C 40.268336 26.302199 56.935108 0 CFG=1
M  V30 29 C 39.595411 35.272593 62.104135 0
M  V30 30 O 39.541061 28.023812 60.097163 0 CHG=-1
M  V30 31 C 39.114727 32.700397 60.162986 0 CFG=1
M  V30 32 C 38.809064 32.205687 55.056511 0
M  V30 33 O 38.630725 25.925428 58.653496 0
M  V30 34 C 38.102590 33.613776 60.825816 0
M  V30 35 C 40.020398 31.989600 61.218290 0 CFG=1
M  V30 36 C 40.838252 34.363196 62.017077 0
M  V30 37 C 41.255793 30.840913 63.672129 0
M  V30 38 C 40.042051 27.900660 58.960058 0
M  V30 39 H 39.737015 33.221349 57.516883 0
M  V30 40 H 38.268271 34.166466 57.855604 0
M  V30 41 H 38.095655 24.427398 56.060235 0
M  V30 42 H 39.016540 35.389587 60.079438 0
M  V30 43 H 39.841079 29.196057 56.295615 0
M  V30 44 H 34.667840 34.488117 62.653529 0
M  V30 45 H 35.069813 34.369796 60.965443 0
M  V30 46 H 35.930501 33.461663 62.210075 0
M  V30 47 H 37.283227 30.046103 53.681884 0
M  V30 48 H 40.561440 24.525371 55.923901 0
M  V30 49 H 41.220387 29.555564 61.927328 0
M  V30 50 H 40.081591 29.089740 63.150785 0
M  V30 51 H 38.397725 37.885657 61.040457 0
M  V30 52 H 36.774868 38.072422 61.685973 0
M  V30 53 H 38.026547 37.384936 62.687660 0
M  V30 54 H 37.817083 28.447419 57.703471 0
M  V30 55 H 37.613504 27.088235 56.668091 0
M  V30 56 H 41.317125 27.793899 55.853325 0
M  V30 57 H 40.314281 26.820948 54.778017 0
M  V30 58 H 38.330449 27.940215 54.035786 0
M  V30 59 H 39.760480 32.950727 63.140176 0
M  V30 60 H 38.973467 30.943805 59.111911 0
M  V30 61 H 38.939415 30.077667 61.183762 0
M  V30 62 H 38.622397 31.022280 62.594108 0
M  V30 63 H 37.109463 30.321484 57.430425 0
M  V30 64 H 38.875834 30.455587 57.392594 0
M  V30 65 H 37.267087 36.643934 59.063424 0
M  V30 66 H 36.200386 35.293442 59.332722 0
M  V30 67 H 35.738259 36.902677 59.853651 0
M  V30 68 H 39.107554 34.299813 55.454843 0
M  V30 69 H 37.467336 33.798852 55.610440 0
M  V30 70 H 42.527018 32.020778 62.354195 0
M  V30 71 H 42.135415 32.806080 63.861826 0
M  V30 72 H 36.870019 31.512885 55.369480 0
M  V30 73 H 41.248041 26.206292 57.398655 0
M  V30 74 H 39.968348 36.296415 62.066231 0
M  V30 75 H 39.129337 35.170254 63.082582 0
M  V30 76 H 39.790180 33.298796 59.559665 0
M  V30 77 H 39.850202 31.913374 55.202662 0
M  V30 78 H 38.665122 32.376118 53.988073 0
M  V30 79 H 38.537728 25.223762 58.026924 0
M  V30 80 H 37.188036 33.576668 60.239460 0
M  V30 81 H 37.881208 33.188915 61.800195 0
M  V30 82 H 40.887650 31.646196 60.653502 0
M  V30 83 H 41.329957 34.453240 61.053664 0
M  V30 84 H 41.553904 34.755927 62.740785 0
M  V30 85 H 36.955999 32.387126 57.978805 0
M  V30 END ATOM
M  V30 BEGIN BOND
M  V30 1 1 9 4
M  V30 2 1 10 2
M  V30 3 1 12 9
M  V30 4 1 13 5
M  V30 5 1 13 6
M  V30 6 1 14 6
M  V30 7 1 16 1
M  V30 8 1 17 6
M  V30 9 2 17 8
M  V30 10 1 20 16
M  V30 11 1 21 11
M  V30 12 1 22 16
M  V30 13 1 23 7
M  V30 14 1 23 9
M  V30 15 1 24 9
M  V30 16 1 25 1
M  V30 17 1 26 19
M  V30 18 1 27 8
M  V30 19 1 27 22
M  V30 20 1 28 5
M  V30 21 1 28 10
M  V30 22 1 28 14
M  V30 23 1 29 4
M  V30 24 1 31 20
M  V30 25 1 32 25
M  V30 26 1 32 27
M  V30 27 1 5 33 CFG=1
M  V30 28 1 34 4
M  V30 29 1 34 31
M  V30 30 1 35 19
M  V30 31 1 35 21
M  V30 32 1 35 31
M  V30 33 1 36 19
M  V30 34 1 36 29
M  V30 35 1 37 3
M  V30 36 1 37 11
M  V30 37 1 37 18
M  V30 38 1 37 26
M  V30 39 1 38 5
M  V30 40 2 38 15
M  V30 41 1 38 30
M  V30 42 1 39 1
M  V30 43 1 40 1
M  V30 44 1 41 2
M  V30 45 1 4 42 CFG=3
M  V30 46 1 6 43 CFG=1
M  V30 47 1 44 7
M  V30 48 1 45 7
M  V30 49 1 46 7
M  V30 50 1 47 8
M  V30 51 1 48 10
M  V30 52 1 49 11
M  V30 53 1 50 11
M  V30 54 1 51 12
M  V30 55 1 52 12
M  V30 56 1 53 12
M  V30 57 1 54 13
M  V30 58 1 55 13
M  V30 59 1 56 14
M  V30 60 1 57 14
M  V30 61 1 58 17
M  V30 62 1 19 59 CFG=1
M  V30 63 1 60 20
M  V30 64 1 61 21
M  V30 65 1 62 21
M  V30 66 1 63 22
M  V30 67 1 64 22
M  V30 68 1 65 24
M  V30 69 1 66 24
M  V30 70 1 67 24
M  V30 71 1 68 25
M  V30 72 1 69 25
M  V30 73 1 70 26
M  V30 74 1 71 26
M  V30 75 1 27 72 CFG=1
M  V30 76 1 28 73 CFG=1
M  V30 77 1 74 29
M  V30 78 1 75 29
M  V30 79 1 31 76 CFG=3
M  V30 80 1 77 32
M  V30 81 1 78 32
M  V30 82 1 79 33
M  V30 83 1 80 34
M  V30 84 1 81 34
M  V30 85 1 35 82 CFG=3
M  V30 86 1 83 36
M  V30 87 1 84 36
M  V30 88 1 16 85 CFG=1
M  V30 END BOND
M  V30 END CTAB
M  END
>  <i_epik_Tot_Q>  (1) 
0

>  <i_epik_Tot_abs_Q>  (1) 
2

>  <i_i_glide_confnum>  (1) 
250

>  <i_i_glide_lignum>  (1) 
238

>  <i_i_glide_posenum>  (1) 
301

>  <i_i_glide_rotatable_bonds>  (1) 
10

>  <i_lp_mmshare_version>  (1) 
72125

>  <i_m_source_file_index>  (1) 
91

>  <i_f3d_flags>  (1) 
0

>  <num_sample>  (1) 
100

>  <b_lp_Chiralities_Consistent>  (1) 
1

>  <r_epik_Charging_Adjusted_Penalty>  (1) 
1.5083745474312953

>  <r_epik_Ionization_Penalty>  (1) 
0.65750586125956467

>  <r_epik_Ionization_Penalty_Charging>  (1) 
0.6544614066189578

>  <r_epik_Ionization_Penalty_Neutral>  (1) 
0.0030444546406068235

>  <r_epik_State_Penalty>  (1) 
0.8539131408123376

>  <r_glide_ring_energy>  (1) 
1.5457856915782662

>  <r_i_docking_score>  (1) 
-5.1921607826922394

>  <r_i_glide_ecoul>  (1) 
-3.1199284592135168

>  <r_i_glide_eff_state_penalty>  (1) 
0.8539131408123376

>  <r_i_glide_einternal>  (1) 
20.640713925907658

>  <r_i_glide_emodel>  (1) 
-30.859384570513576

>  <r_i_glide_emodel_strain>  (1) 
5.7220544793776185

>  <r_i_glide_energy>  (1) 
-34.966405217242141

>  <r_i_glide_erotb>  (1) 
0.42002339013477186

>  <r_i_glide_esite>  (1) 
-0.10000000000000001

>  <r_i_glide_evdw>  (1) 
-31.846476758028626

>  <r_i_glide_gscore>  (1) 
-6.0460739235045766

>  <r_i_glide_gscore_strain>  (1) 
0.43051361984440462

>  <r_i_glide_hbond>  (1) 
-0.15918703398636957

>  <r_i_glide_ligand_efficiency>  (1) 
-0.13663581007084841

>  <r_i_glide_ligand_efficiency_ln>  (1) 
-1.1195826026439955

>  <r_i_glide_ligand_efficiency_sa>  (1) 
-0.45936623314624653

>  <r_i_glide_lipo>  (1) 
-3.5139233198457838

>  <r_i_glide_metal>  (1) 
-0

>  <r_i_glide_rewards>  (1) 
-1.0631874728681407

>  <r_lp_Energy>  (1) 
51.758362999999996

>  <s_epik_Chemistry_Notes>  (1) 
This compound has a N-S or N-O group and may undergo hydrolysis at high or low pH.

>  <s_epik_cmdline>  (1) 
J2VwaWtfcHl0aG9uJywgJy1waHQnLCAnMS4wJywgJy1waCcsICc3LjQnLCAnLXRuJywgJzgnLCAnLW1hJywgJzUwMCcsICctaW1hZScsICc8aW5maWxlLm1hZT4nLCAnLW9tYWUnLCAnPG91dGZpbGUubWFlPic=

>  <s_epik_input>  (1) 
RkMoRikoW0NIMl0xKVtDSDJdW0NIMl1bQ0BIXShbQ0BASF0xMilbQ0BIXShbQ0gyXVtDQEhdKFtDSDJdW0NIMl0yKUMoW0NIM10pKFtDSDNdKU9bQ0gzXSlbTkhdTjNbQ0gyXVtDSDJdW0NIMl1bQ0BIXShbQ0gyXTMpL1tDSF09W0NIXVxbQ0BASF0oW0NIMl1bQ0BdNChbT0hdKUMoPU8pW09IXSlbQ0gyXVtDQEBIXTRbTkhdW09IXQ==

>  <s_glide_docking_method>  (1) 
confgen

>  <s_i_glide_gridfile>  (1) 
gpcr_5ht2c_6bqh_protein_autoprepared_prepared

>  <s_lp_Force_Field>  (1) 
S-OPLS

>  <s_lp_Variant>  (1) 
DiffSBDD_90_num_sample_100-10

>  <s_m_source_file>  (1) 
generated__ligand_DiffSBDD_2026-05-06_prepared.sdf

>  <GenAI_Model>  (1) 
DiffSBDD

>  <Protein>  (1) 
GPCR_5HT2C

$$$$
DiffSBDD_74_num_sample_100
     RDKit          3D

  0  0  0  0  0  0  0  0  0  0999 V3000
M  V30 BEGIN CTAB
M  V30 COUNTS 24 24 0 0 1
M  V30 BEGIN ATOM
M  V30 1 C 39.255619 26.994229 51.071789 0
M  V30 2 C 37.591852 31.621448 54.731292 0
M  V30 3 C 39.167652 30.029335 53.613431 0
M  V30 4 C 38.787859 30.769365 57.443314 0
M  V30 5 C 39.960458 29.425244 51.494700 0
M  V30 6 C 39.867394 30.437879 52.504987 0
M  V30 7 S 38.583153 28.406361 53.404341 0
M  V30 8 C 39.331787 28.258020 51.847823 0
M  V30 9 C 38.925050 29.959488 56.146098 0
M  V30 10 C 38.887353 30.815949 54.860648 0 CFG=2
M  V30 11 H 39.971919 26.999292 50.253500 0
M  V30 12 H 39.493303 26.147487 51.711520 0
M  V30 13 H 38.265528 26.834498 50.657193 0
M  V30 14 H 37.629718 32.262330 53.853485 0
M  V30 15 H 36.713452 30.979807 54.654034 0
M  V30 16 H 37.459195 32.283280 55.586009 0
M  V30 17 H 39.006949 30.150249 58.313081 0
M  V30 18 H 39.466876 31.621071 57.453290 0
M  V30 19 H 37.773938 31.152105 57.566764 0
M  V30 20 H 40.489138 29.584267 50.566417 0
M  V30 21 H 40.318324 31.411966 52.386354 0
M  V30 22 H 38.139525 29.203528 56.124667 0
M  V30 23 H 39.871792 29.418944 56.177286 0
M  V30 24 H 39.692515 31.546210 54.957208 0
M  V30 END ATOM
M  V30 BEGIN BOND
M  V30 1 2 6 3
M  V30 2 1 6 5
M  V30 3 1 7 3
M  V30 4 1 8 1
M  V30 5 2 8 5
M  V30 6 1 8 7
M  V30 7 1 9 4
M  V30 8 1 10 2
M  V30 9 1 10 3
M  V30 10 1 10 9
M  V30 11 1 11 1
M  V30 12 1 12 1
M  V30 13 1 13 1
M  V30 14 1 14 2
M  V30 15 1 15 2
M  V30 16 1 16 2
M  V30 17 1 17 4
M  V30 18 1 18 4
M  V30 19 1 19 4
M  V30 20 1 20 5
M  V30 21 1 21 6
M  V30 22 1 22 9
M  V30 23 1 23 9
M  V30 24 1 10 24 CFG=1
M  V30 END BOND
M  V30 END CTAB
M  END
>  <i_epik_Tot_Q>  (1) 
0

>  <i_epik_Tot_abs_Q>  (1) 
0

>  <i_i_glide_confnum>  (1) 
2

>  <i_i_glide_lignum>  (1) 
187

>  <i_i_glide_posenum>  (1) 
230

>  <i_i_glide_rotatable_bonds>  (1) 
2

>  <i_lp_mmshare_version>  (1) 
72125

>  <i_m_source_file_index>  (1) 
75

>  <i_f3d_flags>  (1) 
0

>  <num_sample>  (1) 
100

>  <b_lp_Chiralities_Consistent>  (1) 
1

>  <r_epik_Charging_Adjusted_Penalty>  (1) 
0

>  <r_epik_Ionization_Penalty>  (1) 
0

>  <r_epik_Ionization_Penalty_Charging>  (1) 
0

>  <r_epik_Ionization_Penalty_Neutral>  (1) 
0

>  <r_epik_State_Penalty>  (1) 
-0

>  <r_glide_ring_energy>  (1) 
0

>  <r_i_docking_score>  (1) 
-5.1769372330129828

>  <r_i_glide_ecoul>  (1) 
-1.0534034003126453

>  <r_i_glide_eff_state_penalty>  (1) 
-0

>  <r_i_glide_einternal>  (1) 
1.0275129529643321

>  <r_i_glide_emodel>  (1) 
-28.898580986571268

>  <r_i_glide_emodel_strain>  (1) 
0.24071961638648443

>  <r_i_glide_energy>  (1) 
-22.006604171164266

>  <r_i_glide_erotb>  (1) 
0.62454345272379397

>  <r_i_glide_esite>  (1) 
0

>  <r_i_glide_evdw>  (1) 
-20.95320077085162

>  <r_i_glide_gscore>  (1) 
-5.1769372330129828

>  <r_i_glide_gscore_strain>  (1) 
0

>  <r_i_glide_hbond>  (1) 
0

>  <r_i_glide_ligand_efficiency>  (1) 
-0.51769372330129826

>  <r_i_glide_ligand_efficiency_ln>  (1) 
-1.5675409072714288

>  <r_i_glide_ligand_efficiency_sa>  (1) 
-1.1153373162920845

>  <r_i_glide_lipo>  (1) 
-2.0144651642916043

>  <r_i_glide_metal>  (1) 
-0

>  <r_i_glide_rewards>  (1) 
-2.5813449728556943

>  <r_lp_Energy>  (1) 
7.9689609999999993

>  <r_lp_tautomer_probability>  (1) 
1

>  <s_epik_cmdline>  (1) 
J2VwaWtfcHl0aG9uJywgJy1waHQnLCAnMS4wJywgJy1waCcsICc3LjQnLCAnLXRuJywgJzgnLCAnLW1hJywgJzUwMCcsICctaW1hZScsICc8aW5maWxlLm1hZT4nLCAnLW9tYWUnLCAnPG91dGZpbGUubWFlPic=

>  <s_epik_input>  (1) 
W0NIM11jKHMxKVtjSF1bY0hdYzFbQ0BIXShbQ0gzXSlbQ0gyXVtDSDNd

>  <s_glide_docking_method>  (1) 
confgen

>  <s_i_glide_gridfile>  (1) 
gpcr_5ht2c_6bqh_protein_autoprepared_prepared

>  <s_lp_Force_Field>  (1) 
S-OPLS

>  <s_lp_Variant>  (1) 
DiffSBDD_74_num_sample_100-2

>  <s_m_source_file>  (1) 
generated__ligand_DiffSBDD_2026-05-06_prepared.sdf

>  <GenAI_Model>  (1) 
DiffSBDD

>  <Protein>  (1) 
GPCR_5HT2C

$$$$
DiffSBDD_90_num_sample_100
     RDKit          3D

  0  0  0  0  0  0  0  0  0  0999 V3000
M  V30 BEGIN CTAB
M  V30 COUNTS 84 87 0 0 1
M  V30 BEGIN ATOM
M  V30 1 C 37.632384 31.958110 58.899044 0
M  V30 2 O 44.775013 30.479939 66.120113 0
M  V30 3 F 39.162737 23.622911 57.447973 0
M  V30 4 C 38.388651 29.686433 54.487607 0 CFG=1
M  V30 5 C 42.263846 28.284357 64.485951 0 CFG=2
M  V30 6 C 40.603455 30.104883 64.602720 0 CFG=1
M  V30 7 C 40.071649 31.051071 51.441768 0
M  V30 8 C 40.037612 30.237605 62.121731 0
M  V30 9 C 39.246770 30.782886 53.783250 0
M  V30 10 N 44.289320 29.629320 65.052807 0
M  V30 11 C 38.782621 25.704028 58.394068 0
M  V30 12 C 38.435183 32.107133 53.863085 0
M  V30 13 C 40.764949 28.559523 64.563539 0
M  V30 14 C 41.996633 30.661653 64.971915 0
M  V30 15 O 43.818576 26.778836 65.502494 0
M  V30 16 N 38.132191 30.575452 58.781494 0
M  V30 17 C 40.079462 30.800513 63.345538 0
M  V30 18 F 40.454571 25.253599 56.853563 0
M  V30 19 C 38.318229 26.778732 55.765205 0 CFG=2
M  V30 20 N 37.156990 29.747276 58.119291 0
M  V30 21 C 38.660367 27.194988 58.177694 0
M  V30 22 C 38.547361 30.049631 60.096211 0
M  V30 23 O 39.467496 30.274520 52.457619 0
M  V30 24 C 40.629938 30.944725 54.459800 0
M  V30 25 C 38.577197 32.909775 59.652084 0
M  V30 26 C 38.302760 25.252638 55.975381 0
M  V30 27 C 39.535454 30.935853 60.862989 0 CFG=1
M  V30 28 C 42.865222 29.441690 65.305079 0 CFG=1
M  V30 29 C 38.509297 28.301990 53.799520 0
M  V30 30 O 41.853317 25.953950 64.847930 0 CHG=-1
M  V30 31 C 37.540359 29.062439 56.858610 0 CFG=1
M  V30 32 C 38.958937 32.351139 61.032447 0
M  V30 33 O 42.569516 28.404664 63.111517 0
M  V30 34 C 38.627282 29.741195 56.028103 0
M  V30 35 C 37.748636 27.521705 57.007138 0 CFG=1
M  V30 36 C 37.701487 27.179812 54.430980 0
M  V30 37 C 39.209550 24.923445 57.161383 0
M  V30 38 C 42.679679 26.883541 64.991249 0
M  V30 39 H 37.457114 32.350099 57.897317 0
M  V30 40 H 36.663409 31.938889 59.402092 0
M  V30 41 H 44.968820 29.852664 66.802912 0
M  V30 42 H 37.336391 29.921293 54.316824 0
M  V30 43 H 39.888326 30.333705 65.395191 0
M  V30 44 H 40.173054 30.428164 50.551907 0
M  V30 45 H 39.469998 31.912173 51.160684 0
M  V30 46 H 41.067868 31.366798 51.720608 0
M  V30 47 H 40.384367 29.224866 61.989839 0
M  V30 48 H 44.748982 28.741205 65.243214 0
M  V30 49 H 37.811079 25.301140 58.660584 0
M  V30 50 H 39.486141 25.621457 59.214027 0
M  V30 51 H 38.921508 32.820336 54.528797 0
M  V30 52 H 38.267408 32.596422 52.911106 0
M  V30 53 H 37.436650 31.993021 54.286093 0
M  V30 54 H 40.357503 28.139372 65.485327 0
M  V30 55 H 40.267640 28.048155 63.746347 0
M  V30 56 H 41.948948 31.367493 65.800856 0
M  V30 57 H 42.432145 31.190922 64.122255 0
M  V30 58 H 39.732268 31.812451 63.475141 0
M  V30 59 H 39.374728 27.040670 55.697245 0
M  V30 60 H 36.344864 30.337422 57.924714 0
M  V30 61 H 38.214905 27.566999 59.087094 0
M  V30 62 H 39.641154 27.658871 58.056734 0
M  V30 63 H 39.053167 29.100205 59.968369 0
M  V30 64 H 37.649672 29.891386 60.685404 0
M  V30 65 H 40.564122 31.508092 55.389503 0
M  V30 66 H 41.065994 29.990448 54.705490 0
M  V30 67 H 41.368358 31.444505 53.853650 0
M  V30 68 H 39.471451 33.077117 59.052924 0
M  V30 69 H 38.100903 33.882453 59.764757 0
M  V30 70 H 37.286299 24.898426 56.159923 0
M  V30 71 H 38.667914 24.726918 55.091015 0
M  V30 72 H 40.427929 31.013188 60.254386 0
M  V30 73 H 42.722918 29.198066 66.359891 0
M  V30 74 H 38.142088 28.377777 52.774142 0
M  V30 75 H 39.548554 27.998346 53.719711 0
M  V30 76 H 36.668708 29.229524 56.237488 0
M  V30 77 H 38.083039 32.326685 61.682657 0
M  V30 78 H 39.690469 33.011551 61.498125 0
M  V30 79 H 43.454136 28.099921 62.958666 0
M  V30 80 H 38.640182 30.795595 56.303040 0
M  V30 81 H 39.602215 29.342498 56.306169 0
M  V30 82 H 36.786945 27.070100 57.260197 0
M  V30 83 H 36.666915 27.472783 54.537631 0
M  V30 84 H 37.707739 26.337336 53.737457 0
M  V30 END ATOM
M  V30 BEGIN BOND
M  V30 1 1 9 4
M  V30 2 1 10 2
M  V30 3 1 12 9
M  V30 4 1 13 5
M  V30 5 1 13 6
M  V30 6 1 14 6
M  V30 7 1 16 1
M  V30 8 1 17 6
M  V30 9 2 17 8
M  V30 10 1 20 16
M  V30 11 1 21 11
M  V30 12 1 22 16
M  V30 13 1 23 7
M  V30 14 1 23 9
M  V30 15 1 24 9
M  V30 16 1 25 1
M  V30 17 1 26 19
M  V30 18 1 27 8
M  V30 19 1 27 22
M  V30 20 1 28 5
M  V30 21 1 28 10
M  V30 22 1 28 14
M  V30 23 1 29 4
M  V30 24 1 31 20
M  V30 25 1 32 25
M  V30 26 1 32 27
M  V30 27 1 5 33 CFG=3
M  V30 28 1 34 4
M  V30 29 1 34 31
M  V30 30 1 35 19
M  V30 31 1 35 21
M  V30 32 1 35 31
M  V30 33 1 36 19
M  V30 34 1 36 29
M  V30 35 1 37 3
M  V30 36 1 37 11
M  V30 37 1 37 18
M  V30 38 1 37 26
M  V30 39 1 38 5
M  V30 40 2 38 15
M  V30 41 1 38 30
M  V30 42 1 39 1
M  V30 43 1 40 1
M  V30 44 1 41 2
M  V30 45 1 4 42 CFG=1
M  V30 46 1 6 43 CFG=1
M  V30 47 1 44 7
M  V30 48 1 45 7
M  V30 49 1 46 7
M  V30 50 1 47 8
M  V30 51 1 48 10
M  V30 52 1 49 11
M  V30 53 1 50 11
M  V30 54 1 51 12
M  V30 55 1 52 12
M  V30 56 1 53 12
M  V30 57 1 54 13
M  V30 58 1 55 13
M  V30 59 1 56 14
M  V30 60 1 57 14
M  V30 61 1 58 17
M  V30 62 1 19 59 CFG=3
M  V30 63 1 60 20
M  V30 64 1 61 21
M  V30 65 1 62 21
M  V30 66 1 63 22
M  V30 67 1 64 22
M  V30 68 1 65 24
M  V30 69 1 66 24
M  V30 70 1 67 24
M  V30 71 1 68 25
M  V30 72 1 69 25
M  V30 73 1 70 26
M  V30 74 1 71 26
M  V30 75 1 27 72 CFG=3
M  V30 76 1 28 73 CFG=1
M  V30 77 1 74 29
M  V30 78 1 75 29
M  V30 79 1 31 76 CFG=3
M  V30 80 1 77 32
M  V30 81 1 78 32
M  V30 82 1 79 33
M  V30 83 1 80 34
M  V30 84 1 81 34
M  V30 85 1 35 82 CFG=1
M  V30 86 1 83 36
M  V30 87 1 84 36
M  V30 END BOND
M  V30 END CTAB
M  END
>  <i_epik_Tot_Q>  (1) 
-1

>  <i_epik_Tot_abs_Q>  (1) 
1

>  <i_i_glide_confnum>  (1) 
239

>  <i_i_glide_lignum>  (1) 
230

>  <i_i_glide_posenum>  (1) 
18

>  <i_i_glide_rotatable_bonds>  (1) 
10

>  <i_lp_mmshare_version>  (1) 
72125

>  <i_m_source_file_index>  (1) 
91

>  <i_f3d_flags>  (1) 
0

>  <num_sample>  (1) 
100

>  <b_lp_Chiralities_Consistent>  (1) 
1

>  <r_epik_Charging_Adjusted_Penalty>  (1) 
0.43821527866000726

>  <r_epik_Ionization_Penalty>  (1) 
0.52002734918543769

>  <r_epik_Ionization_Penalty_Charging>  (1) 
0.00012691742049533285

>  <r_epik_Ionization_Penalty_Neutral>  (1) 
0.51990043176494238

>  <r_epik_State_Penalty>  (1) 
0.43808836123951195

>  <r_glide_ring_energy>  (1) 
0.16952212376527084

>  <r_i_docking_score>  (1) 
-5.1694184881064222

>  <r_i_glide_ecoul>  (1) 
-3.8102811423404761

>  <r_i_glide_eff_state_penalty>  (1) 
0.43808836123951195

>  <r_i_glide_einternal>  (1) 
10.187701884923129

>  <r_i_glide_emodel>  (1) 
-19.014315771689862

>  <r_i_glide_emodel_strain>  (1) 
7.4940463411575422

>  <r_i_glide_energy>  (1) 
-29.92563994465619

>  <r_i_glide_erotb>  (1) 
0.42146348941000378

>  <r_i_glide_esite>  (1) 
-0.11989471323840123

>  <r_i_glide_evdw>  (1) 
-26.115358802315715

>  <r_i_glide_gscore>  (1) 
-5.6075068493459339

>  <r_i_glide_gscore_strain>  (1) 
0.87351158528938555

>  <r_i_glide_hbond>  (1) 
-0.24807740672365064

>  <r_i_glide_ligand_efficiency>  (1) 
-0.13603732863437953

>  <r_i_glide_ligand_efficiency_ln>  (1) 
-1.1146786949207677

>  <r_i_glide_ligand_efficiency_sa>  (1) 
-0.45735415327541251

>  <r_i_glide_lipo>  (1) 
-3.6836599899180724

>  <r_i_glide_metal>  (1) 
-0

>  <r_i_glide_rewards>  (1) 
-0.97353970269834211

>  <r_lp_Energy>  (1) 
50.567886999999999

>  <s_epik_Chemistry_Notes>  (1) 
This compound has a N-S or N-O group and may undergo hydrolysis at high or low pH.

>  <s_epik_cmdline>  (1) 
J2VwaWtfcHl0aG9uJywgJy1waHQnLCAnMS4wJywgJy1waCcsICc3LjQnLCAnLXRuJywgJzgnLCAnLW1hJywgJzUwMCcsICctaW1hZScsICc8aW5maWxlLm1hZT4nLCAnLW9tYWUnLCAnPG91dGZpbGUubWFlPic=

>  <s_epik_input>  (1) 
RkMoRikoW0NIMl0xKVtDSDJdW0NIMl1bQ0BIXShbQ0BASF0xMilbQ0BIXShbQ0gyXVtDQEhdKFtDSDJdW0NIMl0yKUMoW0NIM10pKFtDSDNdKU9bQ0gzXSlbTkhdTjNbQ0gyXVtDSDJdW0NIMl1bQ0BIXShbQ0gyXTMpL1tDSF09W0NIXS9bQ0BASF0oW0NIMl1bQ0BdNChbT0hdKUMoPU8pW09IXSlbQ0gyXVtDQEBIXTRbTkhdW09IXQ==

>  <s_glide_docking_method>  (1) 
confgen

>  <s_i_glide_gridfile>  (1) 
gpcr_5ht2c_6bqh_protein_autoprepared_prepared

>  <s_lp_Force_Field>  (1) 
S-OPLS

>  <s_lp_Variant>  (1) 
DiffSBDD_90_num_sample_100-2

>  <s_m_source_file>  (1) 
generated__ligand_DiffSBDD_2026-05-06_prepared.sdf

>  <GenAI_Model>  (1) 
DiffSBDD

>  <Protein>  (1) 
GPCR_5HT2C

$$$$
DiffSBDD_46_num_sample_100
     RDKit          3D

  0  0  0  0  0  0  0  0  0  0999 V3000
M  V30 BEGIN CTAB
M  V30 COUNTS 67 70 0 0 1
M  V30 BEGIN ATOM
M  V30 1 N 39.888939 32.478562 61.775040 0 CHG=-1
M  V30 2 N 38.198298 28.872507 56.829187 0
M  V30 3 C 36.928621 33.635883 58.649259 0
M  V30 4 C 42.730569 25.221437 66.290391 0
M  V30 5 C 38.413137 31.500209 58.082351 0
M  V30 6 O 40.667406 32.544123 65.311007 0
M  V30 7 O 41.867410 34.860591 63.823130 0
M  V30 8 C 42.035308 27.496375 65.917488 0
M  V30 9 N 42.396426 26.347809 66.610816 0
M  V30 10 F 41.885649 28.712453 67.983187 0
M  V30 11 C 38.270324 32.995790 58.350991 0 CFG=2
M  V30 12 N 40.976477 30.901778 63.699090 0
M  V30 13 C 38.961363 31.215341 56.663190 0 CFG=2
M  V30 14 C 41.423147 29.844316 65.927882 0
M  V30 15 C 41.425202 34.117694 62.701407 0
M  V30 16 C 38.718556 30.087263 53.905530 0
M  V30 17 C 38.686996 24.686740 57.212666 0
M  V30 18 C 38.394604 27.478657 56.967913 0
M  V30 19 C 41.781450 28.686468 66.632440 0
M  V30 20 C 38.626369 32.037821 61.630924 0
M  V30 21 C 41.601652 28.539854 63.889753 0
M  V30 22 C 41.332927 29.770899 64.515484 0
M  V30 23 N 41.944298 27.420798 64.563998 0
M  V30 24 C 39.719432 29.521613 54.912583 0
M  V30 25 C 37.484047 25.296951 57.573662 0
M  V30 26 C 40.288551 33.126463 63.025192 0 CFG=2
M  V30 27 C 38.001281 31.765896 55.591974 0
M  V30 28 C 37.338711 26.687105 57.453502 0
M  V30 29 C 37.637977 32.367012 60.742419 0
M  V30 30 C 39.752192 25.462808 56.739278 0
M  V30 31 C 38.536097 31.571622 54.179083 0
M  V30 32 C 40.677522 32.140792 64.150750 0
M  V30 33 C 39.620205 26.857128 56.624240 0
M  V30 34 O 43.067409 24.182680 65.853424 0
M  V30 35 C 39.315593 29.716912 56.405901 0 CFG=2
M  V30 36 N 37.891718 33.384905 59.702172 0 CFG=2 CHG=1
M  V30 37 H 37.324746 29.302347 57.102953 0
M  V30 38 H 36.038488 33.025122 58.778396 0
M  V30 39 H 36.792353 34.708192 58.530897 0
M  V30 40 H 39.067497 31.056801 58.829236 0
M  V30 41 H 37.438364 31.028943 58.213906 0
M  V30 42 H 41.142654 35.359737 64.168442 0
M  V30 43 H 39.103218 33.621404 58.043923 0
M  V30 44 H 40.923500 30.752419 62.699605 0
M  V30 45 H 39.881999 31.782402 56.557502 0
M  V30 46 H 41.230128 30.750508 66.464722 0
M  V30 47 H 41.106643 34.821724 61.931389 0
M  V30 48 H 42.267405 33.568484 62.287674 0
M  V30 49 H 37.765931 29.560443 53.979580 0
M  V30 50 H 39.086759 29.936377 52.890347 0
M  V30 51 H 38.797804 23.621412 57.304390 0
M  V30 52 H 38.341307 31.262308 62.374292 0
M  V30 53 H 41.541169 28.449723 62.814622 0
M  V30 54 H 39.867403 28.482972 54.641181 0
M  V30 55 H 40.674846 30.021079 54.750961 0
M  V30 56 H 36.667437 24.699328 57.945616 0
M  V30 57 H 39.467377 33.721004 63.422856 0
M  V30 58 H 37.067393 31.226493 55.669465 0
M  V30 59 H 37.780825 32.821710 55.750994 0
M  V30 60 H 36.410335 27.149650 57.740664 0
M  V30 61 H 36.649057 31.933722 60.730382 0
M  V30 62 H 40.667398 24.988043 56.461713 0
M  V30 63 H 37.867392 32.022963 53.453542 0
M  V30 64 H 39.493093 32.069081 54.072572 0
M  V30 65 H 40.453399 27.435804 56.268714 0
M  V30 66 H 40.166270 29.470297 57.042344 0
M  V30 67 H 38.405544 34.194815 60.021059 0
M  V30 END ATOM
M  V30 BEGIN BOND
M  V30 1 2 9 4
M  V30 2 1 9 8
M  V30 3 1 11 3
M  V30 4 1 11 5
M  V30 5 1 13 5
M  V30 6 1 15 7
M  V30 7 1 18 2
M  V30 8 2 19 8
M  V30 9 1 19 10
M  V30 10 1 19 14
M  V30 11 1 20 1
M  V30 12 1 22 12
M  V30 13 2 22 14
M  V30 14 1 22 21
M  V30 15 1 23 8
M  V30 16 2 23 21
M  V30 17 1 24 16
M  V30 18 2 25 17
M  V30 19 1 26 1
M  V30 20 1 26 15
M  V30 21 1 27 13
M  V30 22 2 28 18
M  V30 23 1 28 25
M  V30 24 2 29 20
M  V30 25 1 30 17
M  V30 26 1 31 16
M  V30 27 1 31 27
M  V30 28 2 32 6
M  V30 29 1 32 12
M  V30 30 1 32 26
M  V30 31 1 33 18
M  V30 32 2 33 30
M  V30 33 2 34 4
M  V30 34 1 35 2
M  V30 35 1 35 13
M  V30 36 1 35 24
M  V30 37 1 36 3
M  V30 38 1 36 11
M  V30 39 1 36 29
M  V30 40 1 37 2
M  V30 41 1 38 3
M  V30 42 1 39 3
M  V30 43 1 40 5
M  V30 44 1 41 5
M  V30 45 1 42 7
M  V30 46 1 11 43 CFG=3
M  V30 47 1 44 12
M  V30 48 1 13 45 CFG=1
M  V30 49 1 46 14
M  V30 50 1 47 15
M  V30 51 1 48 15
M  V30 52 1 49 16
M  V30 53 1 50 16
M  V30 54 1 51 17
M  V30 55 1 52 20
M  V30 56 1 53 21
M  V30 57 1 54 24
M  V30 58 1 55 24
M  V30 59 1 56 25
M  V30 60 1 26 57 CFG=1
M  V30 61 1 58 27
M  V30 62 1 59 27
M  V30 63 1 60 28
M  V30 64 1 61 29
M  V30 65 1 62 30
M  V30 66 1 63 31
M  V30 67 1 64 31
M  V30 68 1 65 33
M  V30 69 1 35 66 CFG=1
M  V30 70 1 36 67 CFG=1
M  V30 END BOND
M  V30 END CTAB
M  END
>  <i_epik_Tot_Q>  (1) 
0

>  <i_epik_Tot_abs_Q>  (1) 
2

>  <i_i_glide_confnum>  (1) 
956

>  <i_i_glide_lignum>  (1) 
125

>  <i_i_glide_posenum>  (1) 
207

>  <i_i_glide_rotatable_bonds>  (1) 
13

>  <i_lp_mmshare_version>  (1) 
72125

>  <i_m_source_file_index>  (1) 
47

>  <i_f3d_flags>  (1) 
0

>  <num_sample>  (1) 
100

>  <b_lp_Chiralities_Consistent>  (1) 
1

>  <r_epik_Charging_Adjusted_Penalty>  (1) 
0.33342598172051213

>  <r_epik_Ionization_Penalty>  (1) 
0.027696632267336825

>  <r_epik_Ionization_Penalty_Charging>  (1) 
0.022930597766060493

>  <r_epik_Ionization_Penalty_Neutral>  (1) 
0.0047660345012763301

>  <r_epik_State_Penalty>  (1) 
0.31049538395445164

>  <r_glide_ring_energy>  (1) 
0.011219957445994763

>  <r_i_docking_score>  (1) 
-5.1647421160534597

>  <r_i_glide_ecoul>  (1) 
-0.42380594428570562

>  <r_i_glide_eff_state_penalty>  (1) 
0.31049538395445164

>  <r_i_glide_einternal>  (1) 
4.2177985348793214

>  <r_i_glide_emodel>  (1) 
-60.194636685028101

>  <r_i_glide_emodel_strain>  (1) 
0.18034524111918415

>  <r_i_glide_energy>  (1) 
-44.098959895872291

>  <r_i_glide_erotb>  (1) 
0.99979395072351473

>  <r_i_glide_esite>  (1) 
-0.029226476923917052

>  <r_i_glide_evdw>  (1) 
-43.675153951586587

>  <r_i_glide_gscore>  (1) 
-5.4752375000079114

>  <r_i_glide_gscore_strain>  (1) 
0

>  <r_i_glide_hbond>  (1) 
0

>  <r_i_glide_ligand_efficiency>  (1) 
-0.14346505877926277

>  <r_i_glide_ligand_efficiency_ln>  (1) 
-1.1268071945161693

>  <r_i_glide_ligand_efficiency_sa>  (1) 
-0.47371118684751712

>  <r_i_glide_lipo>  (1) 
-2.8632651226991439

>  <r_i_glide_metal>  (1) 
-0

>  <r_i_glide_rewards>  (1) 
-1.3352112618861796

>  <r_lp_Energy>  (1) 
58.099483999999997

>  <s_epik_Chemistry_Notes>  (1) 
This compound has an imine and may undergo hydrolysis.

>  <s_epik_cmdline>  (1) 
J2VwaWtfcHl0aG9uJywgJy1waHQnLCAnMS4wJywgJy1waCcsICc3LjQnLCAnLXRuJywgJzgnLCAnLW1hJywgJzUwMCcsICctaW1hZScsICc8aW5maWxlLm1hZT4nLCAnLW9tYWUnLCAnPG91dGZpbGUubWFlPic=

>  <s_epik_input>  (1) 
Tz1DPU5jMWMoRilbY0hdYyhbY0hdbjEpW05IXUMoPU8pW0NAQEhdKFtDSDJdW09IXSkvTj1bQ0hdL1tDSDJdTjJbQ0gyXVtDQEBIXTJbQ0gyXVtDQEBIXTNbQ0gyXVtDSDJdW0NIMl1bQ0gyXVtDQEBIXTNbTkhdYzRbY0hdW2NIXVtjSF1bY0hdW2NIXTQ=

>  <s_glide_docking_method>  (1) 
confgen

>  <s_i_glide_gridfile>  (1) 
gpcr_5ht2c_6bqh_protein_autoprepared_prepared

>  <s_lp_Force_Field>  (1) 
S-OPLS

>  <s_lp_Variant>  (1) 
DiffSBDD_46_num_sample_100-1

>  <s_m_source_file>  (1) 
generated__ligand_DiffSBDD_2026-05-06_prepared.sdf

>  <GenAI_Model>  (1) 
DiffSBDD

>  <Protein>  (1) 
GPCR_5HT2C

$$$$
DiffSBDD_15_num_sample_100
     RDKit          3D

  0  0  0  0  0  0  0  0  0  0999 V3000
M  V30 BEGIN CTAB
M  V30 COUNTS 74 79 0 0 1
M  V30 BEGIN ATOM
M  V30 1 C 38.766652 32.021606 60.352184 0
M  V30 2 S 38.267631 31.848500 56.199245 0
M  V30 3 N 43.217692 33.065966 66.085817 0
M  V30 4 C 39.553844 25.926809 54.245813 0
M  V30 5 C 40.488781 35.264858 63.854823 0
M  V30 6 C 43.277254 29.310620 66.919722 0
M  V30 7 S 41.128642 30.221546 64.096344 0
M  V30 8 S 41.660689 35.236134 65.262361 0
M  V30 9 O 40.011211 30.274383 65.049584 0
M  V30 10 C 38.670210 28.724706 54.051853 0
M  V30 11 C 39.372544 28.415659 55.164267 0
M  V30 12 C 38.527038 31.287251 57.920410 0 CFG=1
M  V30 13 C 42.821984 30.760917 66.952482 0 CFG=1
M  V30 14 N 38.230777 30.028847 54.117220 0
M  V30 15 C 41.189581 35.516407 62.509777 0
M  V30 16 C 40.211099 35.649825 61.331930 0
M  V30 17 C 43.182072 31.610686 65.709539 0 CFG=1
M  V30 18 C 39.131659 28.319387 60.149610 0
M  V30 19 S 40.121069 26.928313 55.651734 0
M  V30 20 C 38.382147 27.838603 52.892933 0
M  V30 21 N 41.761687 32.737700 64.429360 0
M  V30 22 C 38.504614 30.552733 60.744814 0 CFG=2
M  V30 23 N 41.481099 30.950386 67.483832 0
M  V30 24 O 38.629423 33.621429 58.615190 0
M  V30 25 C 39.438327 26.709014 52.896678 0
M  V30 26 C 40.477972 30.780185 62.449021 0
M  V30 27 C 38.147573 32.353890 58.977108 0 CFG=2
M  V30 28 N 42.245796 31.497946 64.496840 0
M  V30 29 C 39.220995 29.986933 61.991564 0 CFG=2
M  V30 30 C 42.589321 31.395025 68.308840 0
M  V30 31 C 42.321331 33.544998 65.317309 0
M  V30 32 C 39.472211 28.498320 61.641296 0
M  V30 33 O 41.891698 28.979670 63.889930 0
M  V30 34 C 38.670876 30.395123 55.327665 0
M  V30 35 N 38.900725 29.677431 59.632820 0 CFG=2 CHG=1
M  V30 36 O 39.473698 29.493986 55.965666 0
M  V30 37 C 38.052975 29.895567 58.431615 0
M  V30 38 H 39.841493 32.197026 60.291085 0
M  V30 39 H 38.381361 32.698792 61.117862 0
M  V30 40 H 40.266875 25.119991 54.132122 0
M  V30 41 H 38.595546 25.477026 54.506015 0
M  V30 42 H 39.886512 34.359037 63.800018 0
M  V30 43 H 39.773953 36.063309 64.045160 0
M  V30 44 H 44.357163 29.259915 66.767629 0
M  V30 45 H 43.049132 28.814126 67.863707 0
M  V30 46 H 42.785146 28.751895 66.129229 0
M  V30 47 H 39.584472 31.162650 57.853502 0
M  V30 48 H 41.805404 36.416272 62.579118 0
M  V30 49 H 41.864762 34.687607 62.303453 0
M  V30 50 H 40.724207 35.735031 60.374590 0
M  V30 51 H 39.565471 34.776086 61.256805 0
M  V30 52 H 39.578333 36.531400 61.442398 0
M  V30 53 H 44.183779 31.311758 65.392085 0
M  V30 54 H 39.958225 27.858308 59.610647 0
M  V30 55 H 38.266761 27.678221 60.003068 0
M  V30 56 H 37.376153 27.422582 52.962018 0
M  V30 57 H 38.441708 28.392126 51.953959 0
M  V30 58 H 41.021769 32.994344 63.798238 0
M  V30 59 H 37.427963 30.436037 60.889382 0
M  V30 60 H 40.978456 30.124387 67.777484 0
M  V30 61 H 38.298387 33.828049 57.749684 0
M  V30 62 H 40.399109 27.150683 52.654633 0
M  V30 63 H 39.265495 26.025988 52.068465 0
M  V30 64 H 41.298081 30.751069 61.726050 0
M  V30 65 H 40.189616 31.825104 62.572972 0
M  V30 66 H 37.061624 32.400455 59.056711 0
M  V30 67 H 38.504795 30.034372 62.812426 0
M  V30 68 H 42.829307 30.810405 69.193026 0
M  V30 69 H 42.698663 32.470169 68.440493 0
M  V30 70 H 40.504269 28.205342 61.843881 0
M  V30 71 H 38.848634 27.832772 62.244221 0
M  V30 72 H 38.179315 29.056047 57.755982 0
M  V30 73 H 36.994098 29.896181 58.692729 0
M  V30 74 H 39.823527 29.987228 59.362223 0
M  V30 END ATOM
M  V30 BEGIN BOND
M  V30 1 1 8 5
M  V30 2 2 9 7
M  V30 3 2 11 10
M  V30 4 1 12 2
M  V30 5 1 13 6 CFG=1
M  V30 6 1 14 10
M  V30 7 1 15 5
M  V30 8 1 16 15
M  V30 9 1 17 3
M  V30 10 1 17 13
M  V30 11 1 19 4
M  V30 12 1 19 11
M  V30 13 1 20 10
M  V30 14 1 22 1
M  V30 15 1 23 13
M  V30 16 1 25 4
M  V30 17 1 25 20
M  V30 18 1 26 7
M  V30 19 1 27 1
M  V30 20 1 27 12
M  V30 21 1 27 24
M  V30 22 1 28 7
M  V30 23 1 28 17
M  V30 24 1 28 21
M  V30 25 1 29 22
M  V30 26 1 29 26
M  V30 27 1 30 13
M  V30 28 1 30 23
M  V30 29 2 31 3
M  V30 30 1 31 8
M  V30 31 1 31 21
M  V30 32 1 32 18
M  V30 33 1 32 29
M  V30 34 2 33 7
M  V30 35 1 34 2
M  V30 36 2 34 14
M  V30 37 1 35 18
M  V30 38 1 35 22
M  V30 39 1 36 11
M  V30 40 1 36 34
M  V30 41 1 37 12
M  V30 42 1 37 35
M  V30 43 1 38 1
M  V30 44 1 39 1
M  V30 45 1 40 4
M  V30 46 1 41 4
M  V30 47 1 42 5
M  V30 48 1 43 5
M  V30 49 1 44 6
M  V30 50 1 45 6
M  V30 51 1 46 6
M  V30 52 1 12 47 CFG=3
M  V30 53 1 48 15
M  V30 54 1 49 15
M  V30 55 1 50 16
M  V30 56 1 51 16
M  V30 57 1 52 16
M  V30 58 1 17 53 CFG=3
M  V30 59 1 54 18
M  V30 60 1 55 18
M  V30 61 1 56 20
M  V30 62 1 57 20
M  V30 63 1 58 21
M  V30 64 1 22 59 CFG=1
M  V30 65 1 60 23
M  V30 66 1 61 24
M  V30 67 1 62 25
M  V30 68 1 63 25
M  V30 69 1 64 26
M  V30 70 1 65 26
M  V30 71 1 27 66 CFG=1
M  V30 72 1 29 67 CFG=1
M  V30 73 1 68 30
M  V30 74 1 69 30
M  V30 75 1 70 32
M  V30 76 1 71 32
M  V30 77 1 72 37
M  V30 78 1 73 37
M  V30 79 1 35 74 CFG=3
M  V30 END BOND
M  V30 END CTAB
M  END
>  <i_epik_Tot_Q>  (1) 
1

>  <i_epik_Tot_abs_Q>  (1) 
1

>  <i_i_glide_confnum>  (1) 
370

>  <i_i_glide_lignum>  (1) 
37

>  <i_i_glide_posenum>  (1) 
287

>  <i_i_glide_rotatable_bonds>  (1) 
10

>  <i_lp_mmshare_version>  (1) 
72125

>  <i_m_source_file_index>  (1) 
16

>  <i_f3d_flags>  (1) 
0

>  <num_sample>  (1) 
100

>  <b_lp_Chiralities_Consistent>  (1) 
1

>  <r_epik_Charging_Adjusted_Penalty>  (1) 
0.0082019649409003706

>  <r_epik_Ionization_Penalty>  (1) 
0.015626865898487191

>  <r_epik_Ionization_Penalty_Charging>  (1) 
0.0082019649409003706

>  <r_epik_Ionization_Penalty_Neutral>  (1) 
0.0074249009575868222

>  <r_epik_State_Penalty>  (1) 
-0

>  <r_glide_ring_energy>  (1) 
0

>  <r_i_docking_score>  (1) 
-5.1627866845904995

>  <r_i_glide_ecoul>  (1) 
2.3053080814680174

>  <r_i_glide_eff_state_penalty>  (1) 
-0

>  <r_i_glide_einternal>  (1) 
10.688585026663709

>  <r_i_glide_emodel>  (1) 
-39.724671794769989

>  <r_i_glide_emodel_strain>  (1) 
4.3218520724838356

>  <r_i_glide_energy>  (1) 
-40.638567642196421

>  <r_i_glide_erotb>  (1) 
0.37349522713264072

>  <r_i_glide_esite>  (1) 
-0.03132617874516868

>  <r_i_glide_evdw>  (1) 
-42.943875723664441

>  <r_i_glide_gscore>  (1) 
-5.1627866845904995

>  <r_i_glide_gscore_strain>  (1) 
0.080463018120958907

>  <r_i_glide_hbond>  (1) 
0

>  <r_i_glide_ligand_efficiency>  (1) 
-0.13953477525920269

>  <r_i_glide_ligand_efficiency_ln>  (1) 
-1.1196873989955278

>  <r_i_glide_ligand_efficiency_sa>  (1) 
-0.4649608271832224

>  <r_i_glide_lipo>  (1) 
-2.7419158758394673

>  <r_i_glide_metal>  (1) 
-0

>  <r_i_glide_rewards>  (1) 
-1.0421053012964425

>  <r_lp_Energy>  (1) 
9.5312570000000001

>  <r_lp_tautomer_probability>  (1) 
1

>  <s_epik_Chemistry_Notes>  (1) 
This compound has an imine and may undergo hydrolysis. This compound contains an acetal/aminal-like group ( X-CH(R)-Y where X, Y are N, S, or O) that may be acid/base labile, releasing an aldehyde.

>  <s_epik_cmdline>  (1) 
J2VwaWtfcHl0aG9uJywgJy1waHQnLCAnMS4wJywgJy1waCcsICc3LjQnLCAnLXRuJywgJzgnLCAnLW1hJywgJzUwMCcsICctaW1hZScsICc8aW5maWxlLm1hZT4nLCAnLW9tYWUnLCAnPG91dGZpbGUubWFlPic=

>  <s_epik_input>  (1) 
W0NIMl0xW0NIMl1bQ0gyXVNjKGMxMilvYyhuMilTW0NAQEhdKFtDQEBIXShbQ0gyXTMpW09IXSlbQ0gyXU4oW0NASF0zNClbQ0gyXVtDSDJdW0NASF00W0NIMl1TKD1PKSg9TylONVtOSF1DKFNbQ0gyXVtDSDJdW0NIM10pPU5bQ0BASF01W0NAXTYoW0NIM10pW05IXVtDSDJdNg==

>  <s_glide_docking_method>  (1) 
confgen

>  <s_i_glide_gridfile>  (1) 
gpcr_5ht2c_6bqh_protein_autoprepared_prepared

>  <s_lp_Force_Field>  (1) 
S-OPLS

>  <s_lp_Variant>  (1) 
DiffSBDD_15_num_sample_100-4

>  <s_m_source_file>  (1) 
generated__ligand_DiffSBDD_2026-05-06_prepared.sdf

>  <GenAI_Model>  (1) 
DiffSBDD

>  <Protein>  (1) 
GPCR_5HT2C

$$$$
DiffSBDD_20_num_sample_100
     RDKit          3D

  0  0  0  0  0  0  0  0  0  0999 V3000
M  V30 BEGIN CTAB
M  V30 COUNTS 55 55 0 0 1
M  V30 BEGIN ATOM
M  V30 1 C 39.287089 26.578911 57.034272 0 CFG=1
M  V30 2 C 39.128225 29.272300 57.159199 0 CFG=2
M  V30 3 C 38.306485 27.525133 53.587185 0
M  V30 4 C 37.819891 24.573354 57.777315 0
M  V30 5 N 38.736291 30.142719 58.250657 0
M  V30 6 C 38.267402 31.985012 56.674490 0
M  V30 7 O 39.867413 30.821429 52.423725 0
M  V30 8 C 40.748411 29.297539 50.861236 0
M  V30 9 C 38.664141 27.759003 51.186063 0
M  V30 10 C 38.750357 32.979395 59.872771 0
M  V30 11 N 39.129368 27.566834 52.540425 0
M  V30 12 O 37.081547 27.620778 53.505448 0
M  V30 13 C 40.251419 25.573929 56.379579 0
M  V30 14 C 38.553278 25.865418 58.184281 0
M  V30 15 C 38.267403 31.314013 58.046843 0
M  V30 16 C 39.989691 30.551965 51.209127 0
M  V30 17 O 36.151446 32.019030 61.105999 0
M  V30 18 N 38.966979 27.360755 54.733874 0
M  V30 19 C 37.885836 28.582025 56.581406 0
M  V30 20 S 40.235385 27.960857 57.745416 0
M  V30 21 C 36.879739 31.250313 60.168175 0
M  V30 22 O 39.539438 31.221430 50.253507 0 CHG=-1
M  V30 23 C 38.303623 27.216910 56.022340 0 CFG=2
M  V30 24 C 37.660027 32.146071 59.175066 0 CFG=1
M  V30 25 C 39.812162 28.225349 50.289058 0
M  V30 26 H 39.671108 29.795724 56.371019 0
M  V30 27 H 37.467401 24.046697 58.653532 0
M  V30 28 H 36.960778 24.768311 57.136897 0
M  V30 29 H 38.472340 23.869520 57.264159 0
M  V30 30 H 37.914255 33.014516 56.733288 0
M  V30 31 H 41.305667 28.921534 51.714160 0
M  V30 32 H 41.467417 29.621428 50.113083 0
M  V30 33 H 38.259675 26.821773 50.805964 0
M  V30 34 H 37.867396 28.500606 51.170417 0
M  V30 35 H 39.279465 33.614861 59.161557 0
M  V30 36 H 38.323075 33.632156 60.634367 0
M  V30 37 H 39.486672 32.340677 60.361853 0
M  V30 38 H 40.121345 27.483651 52.688602 0
M  V30 39 H 39.744263 24.924310 55.665387 0
M  V30 40 H 41.067408 26.065935 55.853333 0
M  V30 41 H 40.667398 24.928668 57.147989 0
M  V30 42 H 39.280806 25.621433 58.958820 0
M  V30 43 H 37.867409 26.561453 58.653496 0
M  V30 44 H 35.552019 32.571626 60.625125 0
M  V30 45 H 39.972597 27.299740 54.717481 0
M  V30 46 H 37.158225 28.424492 57.380343 0
M  V30 47 H 37.395745 29.202276 55.831033 0
M  V30 48 H 37.555694 30.586116 60.709317 0
M  V30 49 H 36.171844 30.616827 59.629879 0
M  V30 50 H 37.426029 26.584466 55.884800 0
M  V30 51 H 36.938656 32.832257 58.728704 0
M  V30 52 H 40.399149 27.356408 49.999594 0
M  V30 53 H 39.361515 28.645334 49.401623 0
M  V30 54 H 39.273785 32.014998 56.257238 0
M  V30 55 H 37.611012 31.458944 55.982107 0
M  V30 END ATOM
M  V30 BEGIN BOND
M  V30 1 1 5 2
M  V30 2 1 11 3
M  V30 3 1 11 9
M  V30 4 2 12 3
M  V30 5 1 1 13 CFG=3
M  V30 6 1 14 1
M  V30 7 1 14 4
M  V30 8 2 15 5
M  V30 9 1 15 6
M  V30 10 2 16 7
M  V30 11 1 16 8
M  V30 12 1 18 3
M  V30 13 1 19 2
M  V30 14 1 20 1
M  V30 15 1 20 2
M  V30 16 1 21 17
M  V30 17 1 22 16
M  V30 18 1 23 1
M  V30 19 1 23 18
M  V30 20 1 23 19
M  V30 21 1 24 10
M  V30 22 1 24 15
M  V30 23 1 24 21
M  V30 24 1 25 8
M  V30 25 1 25 9
M  V30 26 1 2 26 CFG=3
M  V30 27 1 27 4
M  V30 28 1 28 4
M  V30 29 1 29 4
M  V30 30 1 30 6
M  V30 31 1 31 8
M  V30 32 1 32 8
M  V30 33 1 33 9
M  V30 34 1 34 9
M  V30 35 1 35 10
M  V30 36 1 36 10
M  V30 37 1 37 10
M  V30 38 1 38 11
M  V30 39 1 39 13
M  V30 40 1 40 13
M  V30 41 1 41 13
M  V30 42 1 42 14
M  V30 43 1 43 14
M  V30 44 1 44 17
M  V30 45 1 45 18
M  V30 46 1 46 19
M  V30 47 1 47 19
M  V30 48 1 48 21
M  V30 49 1 49 21
M  V30 50 1 23 50 CFG=3
M  V30 51 1 24 51 CFG=3
M  V30 52 1 52 25
M  V30 53 1 53 25
M  V30 54 1 54 6
M  V30 55 1 55 6
M  V30 END BOND
M  V30 END CTAB
M  END
>  <i_epik_Tot_Q>  (1) 
-1

>  <i_epik_Tot_abs_Q>  (1) 
1

>  <i_i_glide_confnum>  (1) 
73

>  <i_i_glide_lignum>  (1) 
55

>  <i_i_glide_posenum>  (1) 
333

>  <i_i_glide_rotatable_bonds>  (1) 
12

>  <i_lp_mmshare_version>  (1) 
72125

>  <i_m_source_file_index>  (1) 
21

>  <i_f3d_flags>  (1) 
0

>  <num_sample>  (1) 
100

>  <b_lp_Chiralities_Consistent>  (1) 
1

>  <r_epik_Charging_Adjusted_Penalty>  (1) 
0.43743025276339681

>  <r_epik_Ionization_Penalty>  (1) 
0.026773266926762091

>  <r_epik_Ionization_Penalty_Charging>  (1) 
0.0015534882308521432

>  <r_epik_Ionization_Penalty_Neutral>  (1) 
0.025219778695909949

>  <r_epik_State_Penalty>  (1) 
0.43587676453254465

>  <r_glide_ring_energy>  (1) 
0

>  <r_i_docking_score>  (1) 
-5.1615260384302477

>  <r_i_glide_ecoul>  (1) 
-1.3399824715948268

>  <r_i_glide_eff_state_penalty>  (1) 
0.43587676453254465

>  <r_i_glide_einternal>  (1) 
8.0180250692098962

>  <r_i_glide_emodel>  (1) 
-47.37908952608867

>  <r_i_glide_emodel_strain>  (1) 
0.09687102605922604

>  <r_i_glide_energy>  (1) 
-39.078774358606914

>  <r_i_glide_erotb>  (1) 
1.2527341714622291

>  <r_i_glide_esite>  (1) 
-0.075243037801246249

>  <r_i_glide_evdw>  (1) 
-37.738791887012084

>  <r_i_glide_gscore>  (1) 
-5.597402802962792

>  <r_i_glide_gscore_strain>  (1) 
0

>  <r_i_glide_hbond>  (1) 
-0.095414831844360837

>  <r_i_glide_ligand_efficiency>  (1) 
-0.2064610415372099

>  <r_i_glide_ligand_efficiency_ln>  (1) 
-1.2234363495615554

>  <r_i_glide_ligand_efficiency_sa>  (1) 
-0.60369574770470513

>  <r_i_glide_lipo>  (1) 
-2.4544226363215782

>  <r_i_glide_metal>  (1) 
-0

>  <r_i_glide_rewards>  (1) 
-2.1371195033680084

>  <r_lp_Energy>  (1) 
19.180076

>  <r_lp_tautomer_probability>  (1) 
0.49999399997599986

>  <s_epik_Chemistry_Notes>  (1) 
This compound has an imine and may undergo hydrolysis. This compound contains an acetal/aminal-like group ( X-CH(R)-Y where X, Y are N, S, or O) that may be acid/base labile, releasing an aldehyde.

>  <s_epik_cmdline>  (1) 
J2VwaWtfcHl0aG9uJywgJy1waHQnLCAnMS4wJywgJy1waCcsICc3LjQnLCAnLXRuJywgJzgnLCAnLW1hJywgJzUwMCcsICctaW1hZScsICc8aW5maWxlLm1hZT4nLCAnLW9tYWUnLCAnPG91dGZpbGUubWFlPic=

>  <s_epik_input>  (1) 
W09IXVtDSDJdW0NAQEhdKFtDSDNdKUMoPVtDSDJdKVtOSF1bQ0BASF0oU1tDQEBdMShbQ0gzXSlbQ0gyXVtDSDNdKVtDSDJdW0NASF0xW05IXUMoPU8pW05IXVtDSDJdW0NIMl1bQ0gyXUMoPU8pW09IXQ==

>  <s_glide_docking_method>  (1) 
confgen

>  <s_i_glide_gridfile>  (1) 
gpcr_5ht2c_6bqh_protein_autoprepared_prepared

>  <s_lp_Force_Field>  (1) 
S-OPLS

>  <s_lp_Variant>  (1) 
DiffSBDD_20_num_sample_100-3

>  <s_m_source_file>  (1) 
generated__ligand_DiffSBDD_2026-05-06_prepared.sdf

>  <GenAI_Model>  (1) 
DiffSBDD

>  <Protein>  (1) 
GPCR_5HT2C

$$$$
DiffSBDD_20_num_sample_100
     RDKit          3D

  0  0  0  0  0  0  0  0  0  0999 V3000
M  V30 BEGIN CTAB
M  V30 COUNTS 55 55 0 0 1
M  V30 BEGIN ATOM
M  V30 1 C 38.741320 25.789209 56.912440 0 CFG=1
M  V30 2 C 39.246987 27.914300 55.349055 0 CFG=2
M  V30 3 C 41.284035 28.020404 58.548307 0
M  V30 4 C 37.397581 23.990690 55.556599 0
M  V30 5 N 39.100544 28.079628 53.923051 0
M  V30 6 C 38.905381 29.217032 51.787513 0
M  V30 7 O 38.833839 32.141741 61.019595 0
M  V30 8 C 37.523295 30.520558 59.862989 0
M  V30 9 C 39.739187 29.170658 60.120541 0
M  V30 10 C 40.013654 31.096510 54.724830 0
M  V30 11 N 41.058192 28.917085 59.519845 0
M  V30 12 O 42.395337 27.817196 58.068322 0
M  V30 13 C 38.012951 25.669290 58.253353 0
M  V30 14 C 38.747918 24.427284 56.176106 0
M  V30 15 C 38.941794 29.180455 53.299845 0
M  V30 16 C 37.751665 31.513758 61.009745 0
M  V30 17 O 37.467484 30.424363 56.106326 0
M  V30 18 N 40.174097 27.384541 58.150677 0
M  V30 19 C 40.477868 27.092154 55.733616 0
M  V30 20 S 37.867393 26.977993 55.911452 0
M  V30 21 C 37.430611 30.766386 54.738521 0
M  V30 22 O 36.835953 31.621465 61.853501 0 CHG=-1
M  V30 23 C 40.155600 26.398021 57.072471 0 CFG=2
M  V30 24 C 38.770766 30.558733 53.990069 0 CFG=1
M  V30 25 C 38.823603 30.014128 59.204658 0
M  V30 26 H 39.247163 28.821995 55.931608 0
M  V30 27 H 37.467891 23.025519 55.056827 0
M  V30 28 H 36.614345 23.913621 56.308413 0
M  V30 29 H 37.054849 24.680665 54.786449 0
M  V30 30 H 39.433368 30.085366 51.390642 0
M  V30 31 H 36.909387 31.025679 59.116541 0
M  V30 32 H 36.933185 29.680660 60.225425 0
M  V30 33 H 39.253358 28.240739 60.420383 0
M  V30 34 H 39.929426 29.709173 61.046498 0
M  V30 35 H 40.889783 31.085634 54.077473 0
M  V30 36 H 39.845441 32.125616 55.040293 0
M  V30 37 H 40.267427 30.549717 55.625464 0
M  V30 38 H 41.838457 29.454607 59.859654 0
M  V30 39 H 38.649169 25.221642 59.004525 0
M  V30 40 H 37.763151 26.654341 58.636755 0
M  V30 41 H 37.090665 25.095569 58.188131 0
M  V30 42 H 39.477790 24.448987 55.369116 0
M  V30 43 H 39.085775 23.665549 56.880182 0
M  V30 44 H 36.745180 30.889464 56.534845 0
M  V30 45 H 39.297296 27.611103 58.592966 0
M  V30 46 H 40.702225 26.348135 54.968366 0
M  V30 47 H 41.340444 27.745074 55.837762 0
M  V30 48 H 36.627135 30.212530 54.255273 0
M  V30 49 H 37.147970 31.820393 54.687980 0
M  V30 50 H 40.862253 25.621595 57.335789 0
M  V30 51 H 38.682976 31.267679 53.167718 0
M  V30 52 H 39.375395 30.862334 58.810123 0
M  V30 53 H 38.545664 29.428002 58.332086 0
M  V30 54 H 39.383823 28.326903 51.377673 0
M  V30 55 H 37.868917 29.221464 51.453703 0
M  V30 END ATOM
M  V30 BEGIN BOND
M  V30 1 1 5 2
M  V30 2 1 11 3
M  V30 3 1 11 9
M  V30 4 2 12 3
M  V30 5 1 1 13 CFG=1
M  V30 6 1 14 1
M  V30 7 1 14 4
M  V30 8 2 15 5
M  V30 9 1 15 6
M  V30 10 2 16 7
M  V30 11 1 16 8
M  V30 12 1 18 3
M  V30 13 1 19 2
M  V30 14 1 20 1
M  V30 15 1 20 2
M  V30 16 1 21 17
M  V30 17 1 22 16
M  V30 18 1 23 1
M  V30 19 1 23 18
M  V30 20 1 23 19
M  V30 21 1 24 10
M  V30 22 1 24 15
M  V30 23 1 24 21
M  V30 24 1 25 8
M  V30 25 1 25 9
M  V30 26 1 2 26 CFG=1
M  V30 27 1 27 4
M  V30 28 1 28 4
M  V30 29 1 29 4
M  V30 30 1 30 6
M  V30 31 1 31 8
M  V30 32 1 32 8
M  V30 33 1 33 9
M  V30 34 1 34 9
M  V30 35 1 35 10
M  V30 36 1 36 10
M  V30 37 1 37 10
M  V30 38 1 38 11
M  V30 39 1 39 13
M  V30 40 1 40 13
M  V30 41 1 41 13
M  V30 42 1 42 14
M  V30 43 1 43 14
M  V30 44 1 44 17
M  V30 45 1 45 18
M  V30 46 1 46 19
M  V30 47 1 47 19
M  V30 48 1 48 21
M  V30 49 1 49 21
M  V30 50 1 23 50 CFG=1
M  V30 51 1 24 51 CFG=3
M  V30 52 1 52 25
M  V30 53 1 53 25
M  V30 54 1 54 6
M  V30 55 1 55 6
M  V30 END BOND
M  V30 END CTAB
M  END
>  <i_epik_Tot_Q>  (1) 
-1

>  <i_epik_Tot_abs_Q>  (1) 
1

>  <i_i_glide_confnum>  (1) 
1360

>  <i_i_glide_lignum>  (1) 
53

>  <i_i_glide_posenum>  (1) 
335

>  <i_i_glide_rotatable_bonds>  (1) 
12

>  <i_lp_mmshare_version>  (1) 
72125

>  <i_m_source_file_index>  (1) 
21

>  <i_f3d_flags>  (1) 
0

>  <num_sample>  (1) 
100

>  <b_lp_Chiralities_Consistent>  (1) 
1

>  <r_epik_Charging_Adjusted_Penalty>  (1) 
0.43743025276339675

>  <r_epik_Ionization_Penalty>  (1) 
0.026773266926762091

>  <r_epik_Ionization_Penalty_Charging>  (1) 
0.0015534882308521432

>  <r_epik_Ionization_Penalty_Neutral>  (1) 
0.025219778695909949

>  <r_epik_State_Penalty>  (1) 
0.43587676453254459

>  <r_glide_ring_energy>  (1) 
0

>  <r_i_docking_score>  (1) 
-5.1592888627625682

>  <r_i_glide_ecoul>  (1) 
-5.6288593001562486

>  <r_i_glide_eff_state_penalty>  (1) 
0.43587676453254459

>  <r_i_glide_einternal>  (1) 
22.625654883358678

>  <r_i_glide_emodel>  (1) 
-35.517856429790299

>  <r_i_glide_emodel_strain>  (1) 
0.95978569221389165

>  <r_i_glide_energy>  (1) 
-35.914993677703116

>  <r_i_glide_erotb>  (1) 
1.2527341714622291

>  <r_i_glide_esite>  (1) 
0

>  <r_i_glide_evdw>  (1) 
-30.286134377546865

>  <r_i_glide_gscore>  (1) 
-5.5951656272951125

>  <r_i_glide_gscore_strain>  (1) 
0

>  <r_i_glide_hbond>  (1) 
-0.32000000000000001

>  <r_i_glide_ligand_efficiency>  (1) 
-0.20637155451050274

>  <r_i_glide_ligand_efficiency_ln>  (1) 
-1.2229060718855707

>  <r_i_glide_ligand_efficiency_sa>  (1) 
-0.60343408605127347

>  <r_i_glide_lipo>  (1) 
-2.8728354893085202

>  <r_i_glide_metal>  (1) 
-0

>  <r_i_glide_rewards>  (1) 
-1.2964286955480397

>  <r_lp_Energy>  (1) 
16.070501

>  <r_lp_tautomer_probability>  (1) 
0.49999399997599986

>  <s_epik_Chemistry_Notes>  (1) 
This compound has an imine and may undergo hydrolysis. This compound contains an acetal/aminal-like group ( X-CH(R)-Y where X, Y are N, S, or O) that may be acid/base labile, releasing an aldehyde.

>  <s_epik_cmdline>  (1) 
J2VwaWtfcHl0aG9uJywgJy1waHQnLCAnMS4wJywgJy1waCcsICc3LjQnLCAnLXRuJywgJzgnLCAnLW1hJywgJzUwMCcsICctaW1hZScsICc8aW5maWxlLm1hZT4nLCAnLW9tYWUnLCAnPG91dGZpbGUubWFlPic=

>  <s_epik_input>  (1) 
W09IXVtDSDJdW0NAQEhdKFtDSDNdKUMoPVtDSDJdKVtOSF1bQ0BASF0oU1tDQEBdMShbQ0gzXSlbQ0gyXVtDSDNdKVtDSDJdW0NASF0xW05IXUMoPU8pW05IXVtDSDJdW0NIMl1bQ0gyXUMoPU8pW09IXQ==

>  <s_glide_docking_method>  (1) 
confgen

>  <s_i_glide_gridfile>  (1) 
gpcr_5ht2c_6bqh_protein_autoprepared_prepared

>  <s_lp_Force_Field>  (1) 
S-OPLS

>  <s_lp_Variant>  (1) 
DiffSBDD_20_num_sample_100-1

>  <s_m_source_file>  (1) 
generated__ligand_DiffSBDD_2026-05-06_prepared.sdf

>  <GenAI_Model>  (1) 
DiffSBDD

>  <Protein>  (1) 
GPCR_5HT2C

$$$$
DiffSBDD_23_num_sample_100
     RDKit          3D

  0  0  0  0  0  0  0  0  0  0999 V3000
M  V30 BEGIN CTAB
M  V30 COUNTS 83 87 0 0 1
M  V30 BEGIN ATOM
M  V30 1 C 41.483575 31.439874 66.580019 0
M  V30 2 C 38.631445 28.550463 59.352782 0
M  V30 3 C 36.621893 30.611233 59.966934 0
M  V30 4 O 37.467431 34.492934 58.640376 0
M  V30 5 N 40.267168 28.091031 55.853356 0
M  V30 6 C 39.475806 28.938425 61.744780 0
M  V30 7 C 42.288864 28.356264 64.374121 0
M  V30 8 N 38.288631 29.650968 58.410026 0
M  V30 9 C 37.867422 32.129523 58.513870 0
M  V30 10 C 35.933339 31.701490 60.522553 0
M  V30 11 C 37.116174 26.879500 57.435708 0
M  V30 12 C 38.455017 27.015912 56.717447 0
M  V30 13 C 42.318891 29.786631 64.918121 0 CFG=2
M  V30 14 C 39.113286 26.102984 56.119142 0
M  V30 15 N 41.227235 30.140850 65.888704 0 CFG=1 CHG=1
M  V30 16 C 40.851290 27.793385 60.000864 0
M  V30 17 C 36.805334 35.609277 59.219866 0
M  V30 18 C 37.180000 33.223941 59.078770 0
M  V30 19 C 39.849401 28.901064 60.234062 0 CFG=1
M  V30 20 C 40.620112 33.657121 63.518161 0
M  V30 21 C 39.187374 28.243647 56.548223 0
M  V30 22 C 41.180780 30.443173 62.653635 0
M  V30 23 C 41.558488 35.058422 66.064022 0
M  V30 24 O 40.855066 31.332975 61.872803 0
M  V30 25 C 42.438772 34.366420 65.040448 0
M  V30 26 C 37.591356 30.809966 58.961317 0
M  V30 27 C 38.685595 29.620777 57.071776 0
M  V30 28 C 40.921042 29.083646 66.892361 0
M  V30 29 C 40.375296 26.586031 55.468876 0
M  V30 30 C 42.653557 32.138213 63.965162 0
M  V30 31 C 40.897369 32.672762 65.853892 0 CFG=2
M  V30 32 C 36.208856 33.004490 60.086203 0
M  V30 33 C 41.013409 28.143098 63.566127 0
M  V30 34 C 41.635939 33.144099 64.569470 0 CFG=2
M  V30 35 C 40.893161 33.900606 66.805591 0
M  V30 36 O 38.652068 30.590236 56.316238 0
M  V30 37 N 40.592313 29.230127 62.655170 0
M  V30 38 C 42.315617 30.681256 63.663123 0 CFG=1
M  V30 39 H 41.007424 31.410342 67.561536 0
M  V30 40 H 42.545751 31.571896 66.791905 0
M  V30 41 H 38.796002 27.565783 58.970130 0
M  V30 42 H 37.867279 28.334531 60.056945 0
M  V30 43 H 36.383565 29.622059 60.289518 0
M  V30 44 H 39.048880 27.979917 62.031491 0
M  V30 45 H 38.690896 29.677399 61.916502 0
M  V30 46 H 43.150088 28.187848 63.724147 0
M  V30 47 H 42.385875 27.609565 65.162825 0
M  V30 48 H 38.611194 32.312842 57.759444 0
M  V30 49 H 35.184515 31.535209 61.283089 0
M  V30 50 H 36.423860 26.405506 56.744794 0
M  V30 51 H 36.667513 27.796509 57.811009 0
M  V30 52 H 37.226012 26.170499 58.253517 0
M  V30 53 H 43.274916 29.886474 65.435735 0
M  V30 54 H 38.806844 25.069978 56.054310 0
M  V30 55 H 40.267337 26.886521 60.197184 0
M  V30 56 H 41.714573 27.842046 60.662043 0
M  V30 57 H 41.209373 27.773482 58.970117 0
M  V30 58 H 37.170004 36.524683 58.754441 0
M  V30 59 H 37.009675 35.680464 60.289103 0
M  V30 60 H 35.727836 35.568748 59.054668 0
M  V30 61 H 40.283880 29.848977 59.918276 0
M  V30 62 H 39.807240 32.952359 63.352514 0
M  V30 63 H 41.104137 33.853128 62.560979 0
M  V30 64 H 40.140150 34.589276 63.807333 0
M  V30 65 H 40.808267 35.679646 65.575889 0
M  V30 66 H 42.138750 35.724015 66.694999 0
M  V30 67 H 43.361057 34.041107 65.525108 0
M  V30 68 H 42.712047 35.038755 64.227921 0
M  V30 69 H 41.787063 28.874464 67.521190 0
M  V30 70 H 40.590408 28.147576 66.447955 0
M  V30 71 H 40.101481 29.396824 67.541080 0
M  V30 72 H 40.360691 26.431810 54.389230 0
M  V30 73 H 41.242511 26.104240 55.906945 0
M  V30 74 H 43.066304 32.573760 63.053494 0
M  V30 75 H 43.467370 32.021757 64.673494 0
M  V30 76 H 39.867881 32.427984 65.592584 0
M  V30 77 H 35.672901 33.833420 60.520476 0
M  V30 78 H 41.072416 27.221442 63.012413 0
M  V30 79 H 40.267375 27.965362 64.313357 0
M  V30 80 H 41.467272 33.693893 67.709302 0
M  V30 81 H 39.888130 34.171182 67.128774 0
M  V30 82 H 43.186972 30.353997 63.092066 0
M  V30 83 H 40.376304 30.249759 65.353634 0
M  V30 END ATOM
M  V30 BEGIN BOND
M  V30 1 1 8 2
M  V30 2 1 10 3
M  V30 3 1 12 11
M  V30 4 1 13 7
M  V30 5 2 14 12
M  V30 6 1 15 1
M  V30 7 1 15 13
M  V30 8 1 17 4
M  V30 9 1 18 4
M  V30 10 2 18 9
M  V30 11 1 19 2
M  V30 12 1 19 6
M  V30 13 1 19 16
M  V30 14 2 21 5
M  V30 15 1 21 12
M  V30 16 2 24 22
M  V30 17 1 25 23
M  V30 18 2 26 3
M  V30 19 1 26 8
M  V30 20 1 26 9
M  V30 21 1 27 8
M  V30 22 1 27 21
M  V30 23 1 28 15
M  V30 24 1 29 5
M  V30 25 1 29 14
M  V30 26 1 31 1
M  V30 27 2 32 10
M  V30 28 1 32 18
M  V30 29 1 33 7
M  V30 30 1 34 20 CFG=3
M  V30 31 1 34 25
M  V30 32 1 34 30
M  V30 33 1 34 31
M  V30 34 1 35 23
M  V30 35 1 35 31
M  V30 36 2 36 27
M  V30 37 1 37 6
M  V30 38 1 37 22
M  V30 39 1 37 33
M  V30 40 1 38 13
M  V30 41 1 38 22
M  V30 42 1 38 30
M  V30 43 1 39 1
M  V30 44 1 40 1
M  V30 45 1 41 2
M  V30 46 1 42 2
M  V30 47 1 43 3
M  V30 48 1 44 6
M  V30 49 1 45 6
M  V30 50 1 46 7
M  V30 51 1 47 7
M  V30 52 1 48 9
M  V30 53 1 49 10
M  V30 54 1 50 11
M  V30 55 1 51 11
M  V30 56 1 52 11
M  V30 57 1 13 53 CFG=1
M  V30 58 1 54 14
M  V30 59 1 55 16
M  V30 60 1 56 16
M  V30 61 1 57 16
M  V30 62 1 58 17
M  V30 63 1 59 17
M  V30 64 1 60 17
M  V30 65 1 19 61 CFG=3
M  V30 66 1 62 20
M  V30 67 1 63 20
M  V30 68 1 64 20
M  V30 69 1 65 23
M  V30 70 1 66 23
M  V30 71 1 67 25
M  V30 72 1 68 25
M  V30 73 1 69 28
M  V30 74 1 70 28
M  V30 75 1 71 28
M  V30 76 1 72 29
M  V30 77 1 73 29
M  V30 78 1 74 30
M  V30 79 1 75 30
M  V30 80 1 31 76 CFG=3
M  V30 81 1 77 32
M  V30 82 1 78 33
M  V30 83 1 79 33
M  V30 84 1 80 35
M  V30 85 1 81 35
M  V30 86 1 38 82 CFG=3
M  V30 87 1 15 83 CFG=3
M  V30 END BOND
M  V30 END CTAB
M  END
>  <i_epik_Tot_Q>  (1) 
1

>  <i_epik_Tot_abs_Q>  (1) 
1

>  <i_i_glide_confnum>  (1) 
441

>  <i_i_glide_lignum>  (1) 
60

>  <i_i_glide_posenum>  (1) 
379

>  <i_i_glide_rotatable_bonds>  (1) 
8

>  <i_lp_mmshare_version>  (1) 
72125

>  <i_m_source_file_index>  (1) 
24

>  <i_f3d_flags>  (1) 
0

>  <num_sample>  (1) 
100

>  <b_lp_Chiralities_Consistent>  (1) 
1

>  <r_epik_Charging_Adjusted_Penalty>  (1) 
0.0029773975431382485

>  <r_epik_Ionization_Penalty>  (1) 
0.013183626931022738

>  <r_epik_Ionization_Penalty_Charging>  (1) 
0.0029773975431382485

>  <r_epik_Ionization_Penalty_Neutral>  (1) 
0.010206229387884489

>  <r_epik_State_Penalty>  (1) 
-0

>  <r_glide_ring_energy>  (1) 
0

>  <r_i_docking_score>  (1) 
-5.1481054384989733

>  <r_i_glide_ecoul>  (1) 
-1.707344939158395

>  <r_i_glide_eff_state_penalty>  (1) 
-0

>  <r_i_glide_einternal>  (1) 
8.752208377363722

>  <r_i_glide_emodel>  (1) 
-42.016691528924582

>  <r_i_glide_emodel_strain>  (1) 
0.34823236878818875

>  <r_i_glide_energy>  (1) 
-37.702576431998864

>  <r_i_glide_erotb>  (1) 
0.5287100460970352

>  <r_i_glide_esite>  (1) 
-0.088734980860454143

>  <r_i_glide_evdw>  (1) 
-35.995231492840468

>  <r_i_glide_gscore>  (1) 
-5.1481054384989733

>  <r_i_glide_gscore_strain>  (1) 
0

>  <r_i_glide_hbond>  (1) 
-0.048423178174404134

>  <r_i_glide_ligand_efficiency>  (1) 
-0.13547645890786772

>  <r_i_glide_ligand_efficiency_ln>  (1) 
-1.1100829744590035

>  <r_i_glide_ligand_efficiency_sa>  (1) 
-0.45546852304846169

>  <r_i_glide_lipo>  (1) 
-3.0715687154271474

>  <r_i_glide_metal>  (1) 
-0

>  <r_i_glide_rewards>  (1) 
-0.41222529461821883

>  <r_lp_Energy>  (1) 
93.987067999999994

>  <r_lp_tautomer_probability>  (1) 
1

>  <s_epik_Chemistry_Notes>  (1) 
This compound has an imine and may undergo hydrolysis.

>  <s_epik_cmdline>  (1) 
J2VwaWtfcHl0aG9uJywgJy1waHQnLCAnMS4wJywgJy1waCcsICc3LjQnLCAnLXRuJywgJzgnLCAnLW1hJywgJzUwMCcsICctaW1hZScsICc8aW5maWxlLm1hZT4nLCAnLW9tYWUnLCAnPG91dGZpbGUubWFlPic=

>  <s_epik_input>  (1) 
W0NIMl0xW0NIMl1bQ0gyXVtDQEBIXShbQ0BAXTEyW0NIM10pW0NIMl1OKFtDSDNdKVtDQEhdM1tDQEhdKFtDSDJdMilDKD1PKU4oW0NIMl1bQ0gyXTMpW0NIMl1bQ0BASF0oW0NIM10pW0NIMl1OKGMoW2NIXVtjSF1bY0hdNClbY0hdYzRPW0NIM10pQyg9TylDNT1OW0NIMl1bQ0hdPUM1W0NIM10=

>  <s_glide_docking_method>  (1) 
confgen

>  <s_i_glide_gridfile>  (1) 
gpcr_5ht2c_6bqh_protein_autoprepared_prepared

>  <s_lp_Force_Field>  (1) 
S-OPLS

>  <s_lp_Variant>  (1) 
DiffSBDD_23_num_sample_100-3

>  <s_m_source_file>  (1) 
generated__ligand_DiffSBDD_2026-05-06_prepared.sdf

>  <GenAI_Model>  (1) 
DiffSBDD

>  <Protein>  (1) 
GPCR_5HT2C

$$$$
DiffSBDD_60_num_sample_100
     RDKit          3D

  0  0  0  0  0  0  0  0  0  0999 V3000
M  V30 BEGIN CTAB
M  V30 COUNTS 75 77 0 0 1
M  V30 BEGIN ATOM
M  V30 1 C 38.294932 26.428932 55.133913 0
M  V30 2 C 35.066693 38.053675 63.601186 0
M  V30 3 C 36.041603 37.221396 64.158459 0
M  V30 4 C 38.688348 31.440671 58.301388 0
M  V30 5 N 38.514051 28.212251 53.760760 0
M  V30 6 C 38.711026 26.336205 58.135398 0
M  V30 7 C 40.281179 35.083604 60.907223 0
M  V30 8 C 37.741777 33.598923 57.331367 0
M  V30 9 C 37.887067 32.718209 58.573672 0 CFG=2
M  V30 10 C 38.441757 30.093188 55.333191 0
M  V30 11 C 38.805994 35.308951 61.249347 0 CFG=1
M  V30 12 O 40.069706 28.991098 57.755651 0
M  V30 13 C 36.709103 33.879273 61.101008 0 CFG=1
M  V30 14 C 37.087205 32.533831 61.772724 0
M  V30 15 C 37.912624 30.203439 57.801268 0 CFG=1
M  V30 16 N 37.467525 30.377786 56.399031 0 CHG=1
M  V30 17 C 38.444423 36.820990 61.217592 0
M  V30 18 C 38.410369 28.622886 55.027520 0
M  V30 19 C 38.114795 27.583371 57.457188 0 CFG=1
M  V30 20 C 38.693760 28.880992 58.076152 0 CFG=1
M  V30 21 O 35.928463 36.821441 65.453056 0
M  V30 22 C 37.147776 36.821578 63.390415 0
M  V30 23 C 38.267430 27.523600 55.948015 0
M  V30 24 C 34.488207 33.201639 60.581018 0
M  V30 25 C 33.462335 33.409309 59.477195 0
M  V30 26 C 35.197000 38.497205 62.277708 0
M  V30 27 C 37.878768 34.482404 60.308828 0 CFG=2
M  V30 28 O 38.582431 33.443217 59.604040 0
M  V30 29 N 38.440115 26.878307 53.857793 0
M  V30 30 C 41.295357 35.927376 61.675497 0
M  V30 31 C 37.265186 37.246024 62.054129 0
M  V30 32 C 36.290700 38.087204 61.502895 0
M  V30 33 O 35.665868 33.817724 60.149691 0
M  V30 34 H 38.220450 25.375723 55.362056 0
M  V30 35 H 34.221112 38.366044 64.193479 0
M  V30 36 H 39.467307 31.680918 57.585948 0
M  V30 37 H 39.172477 31.161204 59.237557 0
M  V30 38 H 38.199279 25.426400 57.822885 0
M  V30 39 H 38.609061 26.405325 59.215805 0
M  V30 40 H 39.771219 26.217040 57.910996 0
M  V30 41 H 40.421010 35.262858 59.853029 0
M  V30 42 H 40.527671 34.033919 61.068911 0
M  V30 43 H 37.357565 33.056222 56.474774 0
M  V30 44 H 38.684750 34.021366 57.022530 0
M  V30 45 H 37.067342 34.421365 57.536122 0
M  V30 46 H 36.906221 32.382883 58.893611 0
M  V30 47 H 39.441936 30.432687 55.600830 0
M  V30 48 H 38.145368 30.666010 54.453855 0
M  V30 49 H 38.715624 34.930491 62.265608 0
M  V30 50 H 40.506604 28.191726 58.014027 0
M  V30 51 H 36.376193 34.579095 61.866502 0
M  V30 52 H 37.858958 32.675284 62.531430 0
M  V30 53 H 37.464768 31.799008 61.064397 0
M  V30 54 H 36.239387 32.064311 62.253377 0
M  V30 55 H 36.989265 30.143980 58.380376 0
M  V30 56 H 36.670512 29.777427 56.247209 0
M  V30 57 H 39.241080 37.452715 61.594478 0
M  V30 58 H 38.267178 37.143129 60.191664 0
M  V30 59 H 37.053804 27.574790 57.703983 0
M  V30 60 H 38.671205 28.757609 59.161190 0
M  V30 61 H 37.905668 36.194323 63.826938 0
M  V30 62 H 34.172758 33.621342 61.534190 0
M  V30 63 H 34.667346 32.134442 60.713131 0
M  V30 64 H 32.455201 33.221452 59.849843 0
M  V30 65 H 33.673122 32.732270 58.653531 0
M  V30 66 H 33.486348 34.421514 59.080871 0
M  V30 67 H 34.453781 39.144158 61.853502 0
M  V30 68 H 37.491743 35.173172 59.562202 0
M  V30 69 H 38.487369 26.286264 53.039066 0
M  V30 70 H 42.267394 35.621444 61.334016 0
M  V30 71 H 41.233521 35.783912 62.754174 0
M  V30 72 H 41.250881 36.992156 61.452001 0
M  V30 73 H 36.384105 38.420980 60.487093 0
M  V30 74 H 35.067234 36.965836 65.810713 0
M  V30 75 H 37.106593 31.322031 56.316504 0
M  V30 END ATOM
M  V30 BEGIN BOND
M  V30 1 2 3 2
M  V30 2 1 9 4
M  V30 3 1 9 8
M  V30 4 1 11 7
M  V30 5 1 14 13
M  V30 6 1 15 4
M  V30 7 1 16 10
M  V30 8 1 16 15
M  V30 9 1 17 11
M  V30 10 2 18 5
M  V30 11 1 18 10
M  V30 12 1 19 6
M  V30 13 1 20 12
M  V30 14 1 20 15
M  V30 15 1 20 19
M  V30 16 1 21 3
M  V30 17 1 22 3
M  V30 18 2 23 1
M  V30 19 1 23 18
M  V30 20 1 23 19
M  V30 21 1 25 24
M  V30 22 1 26 2
M  V30 23 1 27 11
M  V30 24 1 27 13
M  V30 25 1 28 9
M  V30 26 1 28 27
M  V30 27 1 29 1
M  V30 28 1 29 5
M  V30 29 1 30 7
M  V30 30 1 31 17
M  V30 31 2 31 22
M  V30 32 2 32 26
M  V30 33 1 32 31
M  V30 34 1 33 13
M  V30 35 1 33 24
M  V30 36 1 34 1
M  V30 37 1 35 2
M  V30 38 1 36 4
M  V30 39 1 37 4
M  V30 40 1 38 6
M  V30 41 1 39 6
M  V30 42 1 40 6
M  V30 43 1 41 7
M  V30 44 1 42 7
M  V30 45 1 43 8
M  V30 46 1 44 8
M  V30 47 1 45 8
M  V30 48 1 9 46 CFG=1
M  V30 49 1 47 10
M  V30 50 1 48 10
M  V30 51 1 11 49 CFG=1
M  V30 52 1 50 12
M  V30 53 1 13 51 CFG=1
M  V30 54 1 52 14
M  V30 55 1 53 14
M  V30 56 1 54 14
M  V30 57 1 15 55 CFG=1
M  V30 58 1 56 16
M  V30 59 1 57 17
M  V30 60 1 58 17
M  V30 61 1 19 59 CFG=3
M  V30 62 1 20 60 CFG=1
M  V30 63 1 61 22
M  V30 64 1 62 24
M  V30 65 1 63 24
M  V30 66 1 64 25
M  V30 67 1 65 25
M  V30 68 1 66 25
M  V30 69 1 67 26
M  V30 70 1 27 68 CFG=3
M  V30 71 1 69 29
M  V30 72 1 70 30
M  V30 73 1 71 30
M  V30 74 1 72 30
M  V30 75 1 73 32
M  V30 76 1 74 21
M  V30 77 1 75 16
M  V30 END BOND
M  V30 END CTAB
M  END
>  <i_epik_Tot_Q>  (1) 
1

>  <i_epik_Tot_abs_Q>  (1) 
1

>  <i_i_glide_confnum>  (1) 
86

>  <i_i_glide_lignum>  (1) 
152

>  <i_i_glide_posenum>  (1) 
262

>  <i_i_glide_rotatable_bonds>  (1) 
13

>  <i_lp_mmshare_version>  (1) 
72125

>  <i_m_source_file_index>  (1) 
61

>  <i_f3d_flags>  (1) 
0

>  <num_sample>  (1) 
100

>  <b_lp_Chiralities_Consistent>  (1) 
1

>  <r_epik_Charging_Adjusted_Penalty>  (1) 
0.78957387433993831

>  <r_epik_Ionization_Penalty>  (1) 
0.1824149004180404

>  <r_epik_Ionization_Penalty_Charging>  (1) 
0.18078284225256142

>  <r_epik_Ionization_Penalty_Neutral>  (1) 
0.0016320581654789871

>  <r_epik_State_Penalty>  (1) 
0.60879103208737684

>  <r_glide_ring_energy>  (1) 
0

>  <r_i_docking_score>  (1) 
-5.141916561946509

>  <r_i_glide_ecoul>  (1) 
-3.6390449915736278

>  <r_i_glide_eff_state_penalty>  (1) 
0.60879103208737684

>  <r_i_glide_einternal>  (1) 
8.6898464320067887

>  <r_i_glide_emodel>  (1) 
-44.944187840235649

>  <r_i_glide_emodel_strain>  (1) 
1.9662652008944121

>  <r_i_glide_energy>  (1) 
-29.763637108767529

>  <r_i_glide_erotb>  (1) 
0.85380530184711001

>  <r_i_glide_esite>  (1) 
-0.0966701166718206

>  <r_i_glide_evdw>  (1) 
-26.124592117193902

>  <r_i_glide_gscore>  (1) 
-5.7507075940338854

>  <r_i_glide_gscore_strain>  (1) 
0

>  <r_i_glide_hbond>  (1) 
-0.094121638062014831

>  <r_i_glide_ligand_efficiency>  (1) 
-0.15581565339231845

>  <r_i_glide_ligand_efficiency_ln>  (1) 
-1.1435356199578006

>  <r_i_glide_ligand_efficiency_sa>  (1) 
-0.49978405740659215

>  <r_i_glide_lipo>  (1) 
-3.5642774621383468

>  <r_i_glide_metal>  (1) 
-0

>  <r_i_glide_rewards>  (1) 
-0.99735732441307412

>  <r_lp_Energy>  (1) 
26.970752999999998

>  <r_lp_tautomer_probability>  (1) 
0.49999999999868239

>  <s_epik_cmdline>  (1) 
J2VwaWtfcHl0aG9uJywgJy1waHQnLCAnMS4wJywgJy1waCcsICc3LjQnLCAnLXRuJywgJzgnLCAnLW1hJywgJzUwMCcsICctaW1hZScsICc8aW5maWxlLm1hZT4nLCAnLW9tYWUnLCAnPG91dGZpbGUubWFlPic=

>  <s_epik_input>  (1) 
bjFbbkhdW2NIXWMoYzEyKVtDQEBIXShbQ0gzXSlbQ0BASF0oW09IXSlbQ0BIXShbTkhdW0NIMl0yKVtDSDJdW0NASF0oW0NIM10pT1tDQEBIXShbQ0BIXShbQ0gzXSlPW0NIMl1bQ0gzXSlbQ0BASF0oW0NIMl1bQ0gzXSlbQ0gyXUMoPVtDSF0zKVtDSDJdW0NIXT1bQ0hdQzM9Tw==

>  <s_glide_docking_method>  (1) 
confgen

>  <s_i_glide_gridfile>  (1) 
gpcr_5ht2c_6bqh_protein_autoprepared_prepared

>  <s_lp_Force_Field>  (1) 
S-OPLS

>  <s_lp_Variant>  (1) 
DiffSBDD_60_num_sample_100-1

>  <s_m_source_file>  (1) 
generated__ligand_DiffSBDD_2026-05-06_prepared.sdf

>  <GenAI_Model>  (1) 
DiffSBDD

>  <Protein>  (1) 
GPCR_5HT2C

$$$$
DiffSBDD_99_num_sample_100
     RDKit          3D

  0  0  0  0  0  0  0  0  0  0999 V3000
M  V30 BEGIN CTAB
M  V30 COUNTS 90 93 0 0 1
M  V30 BEGIN ATOM
M  V30 1 C 41.067239 27.956861 65.886051 0
M  V30 2 C 41.435212 30.269928 64.955703 0 CFG=1
M  V30 3 C 39.828687 25.745566 54.948393 0
M  V30 4 C 37.681577 29.391688 55.595393 0
M  V30 5 O 38.678320 25.682686 58.194831 0 CHG=-1
M  V30 6 O 42.667393 26.366684 68.664919 0
M  V30 7 O 42.267399 28.820691 63.164724 0
M  V30 8 C 38.501079 30.755807 60.306341 0
M  V30 9 O 41.817794 30.958393 67.965217 0
M  V30 10 C 42.179870 29.719771 67.372504 0 CFG=1
M  V30 11 C 36.800675 29.741445 58.654214 0
M  V30 12 C 42.138757 27.235636 67.971451 0
M  V30 13 C 39.320098 30.281670 57.237312 0
M  V30 14 C 41.517361 26.945567 66.655969 0
M  V30 15 O 39.867408 26.421431 53.705105 0
M  V30 16 C 38.374718 25.482391 56.999211 0
M  V30 17 C 42.518618 32.116141 67.530912 0
M  V30 18 C 40.110366 31.679468 62.092668 0 CFG=2
M  V30 19 C 37.626192 30.988307 59.044164 0 CFG=2
M  V30 20 C 42.660995 32.275942 66.006697 0
M  V30 21 C 39.537895 27.843919 56.447112 0 CFG=2
M  V30 22 C 41.418743 25.482676 66.261137 0
M  V30 23 C 40.312224 32.745810 63.198825 0 CFG=2
M  V30 24 C 40.715312 27.627203 57.438528 0
M  V30 25 C 38.446868 31.424129 57.811938 0
M  V30 26 C 39.190594 34.454472 61.650144 0
M  V30 27 C 37.648399 28.600513 58.056518 0
M  V30 28 O 37.676029 24.534613 56.574944 0
M  V30 29 C 40.388690 34.155045 62.573737 0
M  V30 30 C 42.091128 28.675412 68.486460 0
M  V30 31 C 41.442467 31.810846 65.183690 0 CFG=1
M  V30 32 C 38.968167 33.366445 60.579095 0
M  V30 33 O 41.516648 32.532596 63.946854 0
M  V30 34 C 41.397859 31.551161 61.266029 0
M  V30 35 C 38.851016 31.967902 61.228726 0 CFG=1
M  V30 36 C 42.664865 29.759744 64.147525 0
M  V30 37 C 38.532823 29.002138 56.841462 0 CFG=2
M  V30 38 C 41.169741 29.439024 66.239345 0 CFG=2
M  V30 39 C 38.904997 26.487749 55.943226 0 CFG=1
M  V30 40 H 40.606553 27.726677 64.935536 0
M  V30 41 H 40.549315 30.073415 64.363421 0
M  V30 42 H 40.839018 25.644023 55.339618 0
M  V30 43 H 39.469149 24.735180 54.750199 0
M  V30 44 H 38.314371 29.809403 54.812163 0
M  V30 45 H 37.141286 28.573947 55.128967 0
M  V30 46 H 36.930154 30.145379 55.824417 0
M  V30 47 H 43.035127 28.443096 62.752381 0
M  V30 48 H 39.396604 30.221053 60.010305 0
M  V30 49 H 37.989146 30.035501 60.943887 0
M  V30 50 H 43.209393 29.736930 67.012459 0
M  V30 51 H 36.245922 29.375420 59.517572 0
M  V30 52 H 36.037997 30.021424 57.930436 0
M  V30 53 H 40.072964 30.021430 57.975110 0
M  V30 54 H 39.867408 30.658750 56.373834 0
M  V30 55 H 38.987218 26.455677 53.360947 0
M  V30 56 H 41.983438 32.976257 67.933576 0
M  V30 57 H 43.506408 32.129298 67.993031 0
M  V30 58 H 39.928031 30.712667 62.547932 0
M  V30 59 H 36.904749 31.771867 59.276766 0
M  V30 60 H 42.845528 33.332802 65.808426 0
M  V30 61 H 43.563533 31.768366 65.668051 0
M  V30 62 H 40.040623 28.240985 55.564661 0
M  V30 63 H 40.692905 24.974345 66.896914 0
M  V30 64 H 41.086548 25.379568 65.227486 0
M  V30 65 H 42.383298 24.982501 66.355006 0
M  V30 66 H 39.467403 32.733322 63.875050 0
M  V30 67 H 40.387790 27.575727 58.475773 0
M  V30 68 H 41.254851 26.704655 57.236472 0
M  V30 69 H 41.456426 28.421446 57.365963 0
M  V30 70 H 37.769410 31.791993 57.042438 0
M  V30 71 H 39.067401 32.282133 58.051047 0
M  V30 72 H 38.288835 34.551264 62.253481 0
M  V30 73 H 39.332956 35.421655 61.166909 0
M  V30 74 H 38.277199 28.209768 58.855077 0
M  V30 75 H 36.983790 27.783312 57.783969 0
M  V30 76 H 40.435407 34.903010 63.365875 0
M  V30 77 H 41.315416 34.264452 62.010304 0
M  V30 78 H 41.149130 28.795919 69.022657 0
M  V30 79 H 42.888853 28.829873 69.212702 0
M  V30 80 H 40.538657 32.114998 65.714223 0
M  V30 81 H 38.061308 33.607480 60.024704 0
M  V30 82 H 39.779759 33.398138 59.854891 0
M  V30 83 H 41.580506 32.421432 60.653501 0
M  V30 84 H 42.267398 31.474181 61.908032 0
M  V30 85 H 41.381977 30.678731 60.619323 0
M  V30 86 H 38.007586 32.045706 61.916913 0
M  V30 87 H 43.406937 29.295829 64.796504 0
M  V30 88 H 43.184482 30.574705 63.647830 0
M  V30 89 H 40.176471 29.706652 66.604975 0
M  V30 90 H 38.008026 26.711138 55.374404 0
M  V30 END ATOM
M  V30 BEGIN BOND
M  V30 1 1 10 9
M  V30 2 2 12 6
M  V30 3 2 14 1
M  V30 4 1 14 12
M  V30 5 1 15 3
M  V30 6 1 16 5
M  V30 7 1 17 9
M  V30 8 1 19 8
M  V30 9 1 19 11
M  V30 10 1 20 17
M  V30 11 1 22 14
M  V30 12 1 23 18
M  V30 13 1 24 21
M  V30 14 1 25 13
M  V30 15 1 25 19
M  V30 16 1 27 11
M  V30 17 2 28 16
M  V30 18 1 29 23
M  V30 19 1 29 26
M  V30 20 1 30 10
M  V30 21 1 30 12
M  V30 22 1 31 2
M  V30 23 1 31 20
M  V30 24 1 32 26
M  V30 25 1 33 23
M  V30 26 1 33 31
M  V30 27 1 34 18
M  V30 28 1 35 8
M  V30 29 1 35 18
M  V30 30 1 35 32
M  V30 31 1 36 2
M  V30 32 1 36 7
M  V30 33 1 37 4 CFG=3
M  V30 34 1 37 13
M  V30 35 1 37 21
M  V30 36 1 37 27
M  V30 37 1 38 1
M  V30 38 1 38 2
M  V30 39 1 38 10
M  V30 40 1 39 3
M  V30 41 1 39 16
M  V30 42 1 39 21
M  V30 43 1 40 1
M  V30 44 1 2 41 CFG=3
M  V30 45 1 42 3
M  V30 46 1 43 3
M  V30 47 1 44 4
M  V30 48 1 45 4
M  V30 49 1 46 4
M  V30 50 1 47 7
M  V30 51 1 48 8
M  V30 52 1 49 8
M  V30 53 1 10 50 CFG=3
M  V30 54 1 51 11
M  V30 55 1 52 11
M  V30 56 1 53 13
M  V30 57 1 54 13
M  V30 58 1 55 15
M  V30 59 1 56 17
M  V30 60 1 57 17
M  V30 61 1 18 58 CFG=1
M  V30 62 1 19 59 CFG=1
M  V30 63 1 60 20
M  V30 64 1 61 20
M  V30 65 1 21 62 CFG=3
M  V30 66 1 63 22
M  V30 67 1 64 22
M  V30 68 1 65 22
M  V30 69 1 23 66 CFG=1
M  V30 70 1 67 24
M  V30 71 1 68 24
M  V30 72 1 69 24
M  V30 73 1 70 25
M  V30 74 1 71 25
M  V30 75 1 72 26
M  V30 76 1 73 26
M  V30 77 1 74 27
M  V30 78 1 75 27
M  V30 79 1 76 29
M  V30 80 1 77 29
M  V30 81 1 78 30
M  V30 82 1 79 30
M  V30 83 1 31 80 CFG=1
M  V30 84 1 81 32
M  V30 85 1 82 32
M  V30 86 1 83 34
M  V30 87 1 84 34
M  V30 88 1 85 34
M  V30 89 1 35 86 CFG=1
M  V30 90 1 87 36
M  V30 91 1 88 36
M  V30 92 1 38 89 CFG=1
M  V30 93 1 39 90 CFG=3
M  V30 END BOND
M  V30 END CTAB
M  END
>  <i_epik_Tot_Q>  (1) 
-1

>  <i_epik_Tot_abs_Q>  (1) 
1

>  <i_i_glide_confnum>  (1) 
934

>  <i_i_glide_lignum>  (1) 
271

>  <i_i_glide_posenum>  (1) 
137

>  <i_i_glide_rotatable_bonds>  (1) 
11

>  <i_lp_mmshare_version>  (1) 
72125

>  <i_m_source_file_index>  (1) 
100

>  <i_f3d_flags>  (1) 
0

>  <num_sample>  (1) 
100

>  <b_lp_Chiralities_Consistent>  (1) 
1

>  <r_epik_Charging_Adjusted_Penalty>  (1) 
0.00057086010642688853

>  <r_epik_Ionization_Penalty>  (1) 
0.00057120619039141747

>  <r_epik_Ionization_Penalty_Charging>  (1) 
0.00057086010642688853

>  <r_epik_Ionization_Penalty_Neutral>  (1) 
3.4608396452890624e-07

>  <r_epik_State_Penalty>  (1) 
-0

>  <r_glide_ring_energy>  (1) 
1.9990264318667856

>  <r_i_docking_score>  (1) 
-5.1394107689389417

>  <r_i_glide_ecoul>  (1) 
-4.9888501704965487

>  <r_i_glide_eff_state_penalty>  (1) 
-0

>  <r_i_glide_einternal>  (1) 
9.8942623500477822

>  <r_i_glide_emodel>  (1) 
-33.310693928365602

>  <r_i_glide_emodel_strain>  (1) 
10.083306253362721

>  <r_i_glide_energy>  (1) 
-45.155492860671984

>  <r_i_glide_erotb>  (1) 
0.55239913660624596

>  <r_i_glide_esite>  (1) 
-0.022911766070961431

>  <r_i_glide_evdw>  (1) 
-40.166642690175436

>  <r_i_glide_gscore>  (1) 
-5.1394107689389417

>  <r_i_glide_gscore_strain>  (1) 
1.5208265633406803

>  <r_i_glide_hbond>  (1) 
-0.30633653227523022

>  <r_i_glide_ligand_efficiency>  (1) 
-0.1317797633061267

>  <r_i_glide_ligand_efficiency_ln>  (1) 
-1.1020355597109366

>  <r_i_glide_ligand_efficiency_sa>  (1) 
-0.44689304128143537

>  <r_i_glide_lipo>  (1) 
-3.1914561035613791

>  <r_i_glide_metal>  (1) 
-0

>  <r_i_glide_rewards>  (1) 
-0.93527240689504199

>  <r_lp_Energy>  (1) 
48.540740999999997

>  <r_lp_tautomer_probability>  (1) 
1

>  <s_epik_cmdline>  (1) 
J2VwaWtfcHl0aG9uJywgJy1waHQnLCAnMS4wJywgJy1waCcsICc3LjQnLCAnLXRuJywgJzgnLCAnLW1hJywgJzUwMCcsICctaW1hZScsICc8aW5maWxlLm1hZT4nLCAnLW9tYWUnLCAnPG91dGZpbGUubWFlPic=

>  <s_epik_input>  (1) 
Tz1DKFtDSDJdMSlDKFtDSDNdKT1bQ0hdW0NAQEhdKFtDQEhdMTIpW0NASF0oW0NIMl1bT0hdKVtDQEBIXShbQ0gyXVtDSDJdTzIpT1tDQEhdKFtDQEBIXTNbQ0gzXSlbQ0gyXVtDSDJdW0NIMl1bQ0BIXTNbQ0gyXVtDQEhdKFtDSDJdW0NIMl00KVtDSDJdW0NIMl1bQ0BAXTQoW0NIM10pW0NAQEhdKFtDSDNdKVtDQEBIXShbQ0gyXVtPSF0pQyg9TylbT0hd

>  <s_glide_docking_method>  (1) 
confgen

>  <s_i_glide_gridfile>  (1) 
gpcr_5ht2c_6bqh_protein_autoprepared_prepared

>  <s_lp_Force_Field>  (1) 
S-OPLS

>  <s_lp_Variant>  (1) 
DiffSBDD_99_num_sample_100-1

>  <s_m_source_file>  (1) 
generated__ligand_DiffSBDD_2026-05-06_prepared.sdf

>  <GenAI_Model>  (1) 
DiffSBDD

>  <Protein>  (1) 
GPCR_5HT2C

$$$$
DiffSBDD_18_num_sample_100
     RDKit          3D

  0  0  0  0  0  0  0  0  0  0999 V3000
M  V30 BEGIN CTAB
M  V30 COUNTS 70 72 0 0 1
M  V30 BEGIN ATOM
M  V30 1 O 40.300340 31.556987 63.027843 0
M  V30 2 C 37.867431 27.746641 57.584128 0
M  V30 3 C 37.911521 31.700060 58.460223 0
M  V30 4 C 38.337130 26.563104 57.799473 0
M  V30 5 O 37.410506 31.447541 61.221547 0
M  V30 6 C 38.063091 29.691705 56.007126 0 CFG=2
M  V30 7 C 44.704050 31.426911 66.659656 0
M  V30 8 N 38.344603 28.327906 56.451123 0
M  V30 9 N 37.972317 29.740614 54.544802 0
M  V30 10 C 41.470533 33.132801 64.478605 0
M  V30 11 C 43.083957 32.889718 67.839725 0
M  V30 12 O 45.867352 31.807173 66.532307 0
M  V30 13 O 39.867396 25.221516 56.592074 0
M  V30 14 C 44.155203 29.199007 68.728596 0
M  V30 15 C 37.933345 32.901415 56.202484 0
M  V30 16 C 39.236471 26.265924 56.732598 0
M  V30 17 C 42.706687 30.806500 69.983987 0
M  V30 18 C 42.365966 33.277439 66.757610 0
M  V30 19 C 38.346592 30.821429 60.722924 0
M  V30 20 N 43.975507 30.759180 65.728481 0
M  V30 21 C 38.697341 31.958096 57.147317 0 CFG=2
M  V30 22 C 41.278140 32.586313 63.063212 0 CFG=2
M  V30 23 C 39.181560 30.659411 56.436390 0 CFG=2
M  V30 24 C 39.924524 30.905853 55.119723 0
M  V30 25 O 43.549052 31.112949 70.858286 0 CHG=-1
M  V30 26 C 39.338079 27.469132 55.709712 0
M  V30 27 C 42.995051 31.279162 65.099089 0
M  V30 28 C 39.219782 29.914229 61.594383 0
M  V30 29 C 40.534594 30.585874 62.013554 0
M  V30 30 C 40.795899 33.705188 62.124241 0
M  V30 31 C 42.267413 32.587878 65.436685 0
M  V30 32 C 43.955601 31.673451 67.941526 0 CFG=1
M  V30 33 C 43.246195 30.440491 68.588292 0 CFG=1
M  V30 34 N 38.658066 30.880589 59.415542 0
M  V30 35 N 39.026090 30.542680 54.029681 0
M  V30 36 O 41.467402 30.773709 70.141758 0
M  V30 37 H 37.163127 28.305590 58.184746 0
M  V30 38 H 36.970670 31.196054 58.255616 0
M  V30 39 H 37.652648 32.657730 58.915651 0
M  V30 40 H 38.117077 25.898644 58.621119 0
M  V30 41 H 37.091277 29.987641 56.403115 0
M  V30 42 H 38.021286 28.804636 54.149035 0
M  V30 43 H 40.937535 34.045991 64.703293 0
M  V30 44 H 43.041353 33.502801 68.729028 0
M  V30 45 H 38.997055 27.185610 54.714221 0
M  V30 46 H 43.654608 28.403583 69.282797 0
M  V30 47 H 44.426670 28.786876 67.756929 0
M  V30 48 H 45.076835 29.441610 69.258240 0
M  V30 49 H 37.159144 32.367276 55.655670 0
M  V30 50 H 37.467343 33.720226 56.748989 0
M  V30 51 H 38.590810 33.352059 55.460036 0
M  V30 52 H 41.794265 34.187426 66.867922 0
M  V30 53 H 39.578352 32.524115 57.438042 0
M  V30 54 H 42.240591 32.239292 62.682822 0
M  V30 55 H 39.867066 30.156217 57.118176 0
M  V30 56 H 40.267900 31.932306 55.008604 0
M  V30 57 H 40.800106 30.260256 55.053620 0
M  V30 58 H 40.336627 27.905264 55.684709 0
M  V30 59 H 42.613542 30.786827 64.204545 0
M  V30 60 H 39.428174 28.996001 61.043731 0
M  V30 61 H 38.667430 29.621358 62.486027 0
M  V30 62 H 41.011635 31.022244 61.134005 0
M  V30 63 H 41.227124 29.839334 62.403188 0
M  V30 64 H 41.493720 34.542154 62.107507 0
M  V30 65 H 40.681302 33.352115 61.099420 0
M  V30 66 H 39.826184 34.089813 62.443018 0
M  V30 67 H 44.737829 31.970122 68.643631 0
M  V30 68 H 42.389187 30.162448 67.972713 0
M  V30 69 H 39.431781 30.335690 59.067728 0
M  V30 70 H 39.521351 30.046235 53.291436 0
M  V30 END ATOM
M  V30 BEGIN BOND
M  V30 1 2 4 2
M  V30 2 1 8 2
M  V30 3 1 8 6
M  V30 4 1 9 6
M  V30 5 2 12 7
M  V30 6 1 16 4
M  V30 7 2 16 13
M  V30 8 2 18 11
M  V30 9 2 19 5
M  V30 10 1 20 7
M  V30 11 1 21 3
M  V30 12 1 21 15
M  V30 13 1 22 1
M  V30 14 1 22 10
M  V30 15 1 23 6
M  V30 16 1 23 21
M  V30 17 1 24 23
M  V30 18 1 25 17
M  V30 19 1 26 8
M  V30 20 1 26 16
M  V30 21 2 27 20
M  V30 22 1 28 19
M  V30 23 1 29 1
M  V30 24 1 29 28
M  V30 25 1 30 22
M  V30 26 2 31 10
M  V30 27 1 31 18
M  V30 28 1 31 27
M  V30 29 1 32 7
M  V30 30 1 32 11
M  V30 31 1 33 14
M  V30 32 1 33 17
M  V30 33 1 33 32
M  V30 34 1 34 3
M  V30 35 1 34 19
M  V30 36 1 35 9
M  V30 37 1 35 24
M  V30 38 2 36 17
M  V30 39 1 37 2
M  V30 40 1 38 3
M  V30 41 1 39 3
M  V30 42 1 40 4
M  V30 43 1 6 41 CFG=1
M  V30 44 1 42 9
M  V30 45 1 43 10
M  V30 46 1 44 11
M  V30 47 1 45 26
M  V30 48 1 46 14
M  V30 49 1 47 14
M  V30 50 1 48 14
M  V30 51 1 49 15
M  V30 52 1 50 15
M  V30 53 1 51 15
M  V30 54 1 52 18
M  V30 55 1 21 53 CFG=1
M  V30 56 1 22 54 CFG=3
M  V30 57 1 23 55 CFG=1
M  V30 58 1 56 24
M  V30 59 1 57 24
M  V30 60 1 58 26
M  V30 61 1 59 27
M  V30 62 1 60 28
M  V30 63 1 61 28
M  V30 64 1 62 29
M  V30 65 1 63 29
M  V30 66 1 64 30
M  V30 67 1 65 30
M  V30 68 1 66 30
M  V30 69 1 32 67 CFG=1
M  V30 70 1 33 68 CFG=3
M  V30 71 1 69 34
M  V30 72 1 70 35
M  V30 END BOND
M  V30 END CTAB
M  END
>  <i_epik_Tot_Q>  (1) 
-1

>  <i_epik_Tot_abs_Q>  (1) 
1

>  <i_i_glide_confnum>  (1) 
2246

>  <i_i_glide_lignum>  (1) 
42

>  <i_i_glide_posenum>  (1) 
323

>  <i_i_glide_rotatable_bonds>  (1) 
12

>  <i_lp_mmshare_version>  (1) 
72125

>  <i_m_source_file_index>  (1) 
19

>  <i_f3d_flags>  (1) 
0

>  <num_sample>  (1) 
100

>  <b_lp_Chiralities_Consistent>  (1) 
1

>  <r_epik_Charging_Adjusted_Penalty>  (1) 
0.37971815023500188

>  <r_epik_Ionization_Penalty>  (1) 
0.19445293645399606

>  <r_epik_Ionization_Penalty_Charging>  (1) 
0.18991606969001057

>  <r_epik_Ionization_Penalty_Neutral>  (1) 
0.004536866763985496

>  <r_epik_State_Penalty>  (1) 
0.18980208054499129

>  <r_glide_ring_energy>  (1) 
1.7561163794185952

>  <r_i_docking_score>  (1) 
-5.1388034935744233

>  <r_i_glide_ecoul>  (1) 
-0.36403127618541542

>  <r_i_glide_eff_state_penalty>  (1) 
0.18980208054499129

>  <r_i_glide_einternal>  (1) 
9.0104010489805155

>  <r_i_glide_emodel>  (1) 
-61.380650703567476

>  <r_i_glide_emodel_strain>  (1) 
0.1473392897978556

>  <r_i_glide_energy>  (1) 
-48.974944280202827

>  <r_i_glide_erotb>  (1) 
0.89642714384868305

>  <r_i_glide_esite>  (1) 
-0.039376553753435774

>  <r_i_glide_evdw>  (1) 
-48.610913004017412

>  <r_i_glide_gscore>  (1) 
-5.3286055741194147

>  <r_i_glide_gscore_strain>  (1) 
0

>  <r_i_glide_hbond>  (1) 
-0.11201545991728361

>  <r_i_glide_ligand_efficiency>  (1) 
-0.14274454148817842

>  <r_i_glide_ligand_efficiency_ln>  (1) 
-1.1211480878718378

>  <r_i_glide_ligand_efficiency_sa>  (1) 
-0.47133209117078601

>  <r_i_glide_lipo>  (1) 
-2.4082439352272376

>  <r_i_glide_metal>  (1) 
-0

>  <r_i_glide_rewards>  (1) 
-1.1802464274414581

>  <r_lp_Energy>  (1) 
20.917635000000001

>  <r_lp_tautomer_probability>  (1) 
0.98846045845713826

>  <s_epik_Chemistry_Notes>  (1) 
This compound has an imine and may undergo hydrolysis. This compound contains an acetal/aminal-like group ( X-CH(R)-Y where X, Y are N, S, or O) that may be acid/base labile, releasing an aldehyde.

>  <s_epik_cmdline>  (1) 
J2VwaWtfcHl0aG9uJywgJy1waHQnLCAnMS4wJywgJy1waCcsICc3LjQnLCAnLXRuJywgJzgnLCAnLW1hJywgJzUwMCcsICctaW1hZScsICc8aW5maWxlLm1hZT4nLCAnLW9tYWUnLCAnPG91dGZpbGUubWFlPic=

>  <s_epik_input>  (1) 
W09IXUMoPU8pW0NASF0oW0NIM10pW0NAQEhdMVtDSF09W0NIXVxDKFtDSF09TkMxPU8pPVtDSF1cW0NASF0oW0NIM10pT1tDSDJdW0NIMl1DKD1PKVtOSF1bQ0gyXVtDQEhdKFtDSDNdKVtDQEBIXTJbQ0gyXVtOSF1bTkhdW0NASF0ybjNbY0hdW2NIXWMoW09IXSlbY0hdMw==

>  <s_glide_docking_method>  (1) 
confgen

>  <s_i_glide_gridfile>  (1) 
gpcr_5ht2c_6bqh_protein_autoprepared_prepared

>  <s_lp_Force_Field>  (1) 
S-OPLS

>  <s_lp_Variant>  (1) 
DiffSBDD_18_num_sample_100-2

>  <s_m_source_file>  (1) 
generated__ligand_DiffSBDD_2026-05-06_prepared.sdf

>  <GenAI_Model>  (1) 
DiffSBDD

>  <Protein>  (1) 
GPCR_5HT2C

$$$$
DiffSBDD_44_num_sample_100
     RDKit          3D

  0  0  0  0  0  0  0  0  0  0999 V3000
M  V30 BEGIN CTAB
M  V30 COUNTS 58 59 0 0 1
M  V30 BEGIN ATOM
M  V30 1 C 37.571136 33.760162 58.094942 0
M  V30 2 O 37.467109 31.221245 61.858252 0 CHG=-1
M  V30 3 C 38.984680 28.328622 55.865199 0
M  V30 4 C 36.364795 32.885745 60.008190 0 CFG=1
M  V30 5 N 37.752475 32.320590 59.970904 0 CFG=1 CHG=1
M  V30 6 C 38.765791 30.632558 56.698988 0
M  V30 7 N 39.451287 29.805909 59.181303 0
M  V30 8 C 39.036235 29.139798 56.891085 0
M  V30 9 O 40.537600 27.884241 58.377424 0
M  V30 10 C 36.283837 33.937873 58.888397 0 CFG=1
M  V30 11 C 36.108956 35.353531 59.440522 0
M  V30 12 C 39.676473 31.138206 61.229562 0 CFG=1
M  V30 13 C 39.560925 29.809384 60.443997 0
M  V30 14 C 38.549751 33.261493 59.151182 0
M  V30 15 C 40.377741 26.486138 58.186340 0
M  V30 16 C 38.436731 29.136012 53.592799 0
M  V30 17 C 38.357266 31.984494 61.294433 0 CFG=2
M  V30 18 C 39.333404 28.645070 58.320928 0 CFG=1
M  V30 19 F 36.716083 30.354459 54.685775 0
M  V30 20 C 37.956293 30.480960 54.221288 0 CFG=1
M  V30 21 C 38.794977 28.052483 54.601428 0
M  V30 22 C 40.344042 31.016095 62.619726 0
M  V30 23 C 39.592898 28.530874 61.280731 0
M  V30 24 C 35.274384 31.806744 59.855135 0
M  V30 25 C 38.876847 31.152373 55.253218 0
M  V30 26 H 37.867131 34.662027 57.565944 0
M  V30 27 H 37.429698 32.997670 57.331812 0
M  V30 28 H 36.207383 33.386346 60.965464 0
M  V30 29 H 37.775179 30.839676 57.105600 0
M  V30 30 H 39.486674 31.229778 57.243983 0
M  V30 31 H 35.423988 33.747377 58.253686 0
M  V30 32 H 36.830931 35.587174 60.224069 0
M  V30 33 H 36.193785 36.108600 58.658934 0
M  V30 34 H 35.107557 35.422125 59.853422 0
M  V30 35 H 40.382614 31.736046 60.653567 0
M  V30 36 H 38.877560 34.101819 59.766034 0
M  V30 37 H 39.445669 32.816990 58.727395 0
M  V30 38 H 41.354315 26.012572 58.253964 0
M  V30 39 H 39.737394 26.054949 58.956221 0
M  V30 40 H 39.969085 26.230327 57.210316 0
M  V30 41 H 39.314106 29.313054 52.970221 0
M  V30 42 H 37.660217 28.749010 52.930039 0
M  V30 43 H 38.625262 32.939871 61.748560 0
M  V30 44 H 38.475396 28.050509 58.642348 0
M  V30 45 H 37.869023 31.232712 53.453958 0
M  V30 46 H 38.891259 27.045185 54.224555 0
M  V30 47 H 41.281715 30.462248 62.577746 0
M  V30 48 H 40.572124 32.002896 63.023613 0
M  V30 49 H 39.690765 30.527371 63.343948 0
M  V30 50 H 39.067564 28.668339 62.224583 0
M  V30 51 H 39.123664 27.688165 60.773536 0
M  V30 52 H 40.624735 28.254206 61.493884 0
M  V30 53 H 34.301657 32.253436 59.645829 0
M  V30 54 H 35.507515 31.108585 59.054834 0
M  V30 55 H 35.154821 31.223220 60.767714 0
M  V30 56 H 38.644664 32.218471 55.275885 0
M  V30 57 H 39.910945 31.088236 54.911205 0
M  V30 58 H 37.685233 31.450795 59.462152 0
M  V30 END ATOM
M  V30 BEGIN BOND
M  V30 1 1 5 4
M  V30 2 2 8 3
M  V30 3 1 8 6
M  V30 4 1 10 1
M  V30 5 1 10 4
M  V30 6 1 11 10
M  V30 7 2 13 7
M  V30 8 1 13 12
M  V30 9 1 14 1
M  V30 10 1 14 5
M  V30 11 1 15 9
M  V30 12 1 17 2
M  V30 13 1 17 5
M  V30 14 1 17 12
M  V30 15 1 18 7
M  V30 16 1 18 8
M  V30 17 1 18 9
M  V30 18 1 20 16
M  V30 19 1 20 19
M  V30 20 2 21 3
M  V30 21 1 21 16
M  V30 22 1 22 12
M  V30 23 1 23 13
M  V30 24 1 24 4
M  V30 25 1 25 6
M  V30 26 1 25 20
M  V30 27 1 26 1
M  V30 28 1 27 1
M  V30 29 1 4 28 CFG=1
M  V30 30 1 29 6
M  V30 31 1 30 6
M  V30 32 1 10 31 CFG=3
M  V30 33 1 32 11
M  V30 34 1 33 11
M  V30 35 1 34 11
M  V30 36 1 12 35 CFG=3
M  V30 37 1 36 14
M  V30 38 1 37 14
M  V30 39 1 38 15
M  V30 40 1 39 15
M  V30 41 1 40 15
M  V30 42 1 41 16
M  V30 43 1 42 16
M  V30 44 1 17 43 CFG=1
M  V30 45 1 18 44 CFG=1
M  V30 46 1 20 45 CFG=3
M  V30 47 1 46 21
M  V30 48 1 47 22
M  V30 49 1 48 22
M  V30 50 1 49 22
M  V30 51 1 50 23
M  V30 52 1 51 23
M  V30 53 1 52 23
M  V30 54 1 53 24
M  V30 55 1 54 24
M  V30 56 1 55 24
M  V30 57 1 56 25
M  V30 58 1 57 25
M  V30 59 1 5 58 CFG=3
M  V30 END BOND
M  V30 END CTAB
M  END
>  <i_epik_Tot_Q>  (1) 
0

>  <i_epik_Tot_abs_Q>  (1) 
2

>  <i_i_glide_confnum>  (1) 
20

>  <i_i_glide_lignum>  (1) 
112

>  <i_i_glide_posenum>  (1) 
398

>  <i_i_glide_rotatable_bonds>  (1) 
6

>  <i_lp_mmshare_version>  (1) 
72125

>  <i_m_source_file_index>  (1) 
45

>  <i_f3d_flags>  (1) 
0

>  <num_sample>  (1) 
100

>  <b_lp_Chiralities_Consistent>  (1) 
1

>  <r_epik_Charging_Adjusted_Penalty>  (1) 
0.41733257654759531

>  <r_epik_Ionization_Penalty>  (1) 
0.0069177268181324029

>  <r_epik_Ionization_Penalty_Charging>  (1) 
0.0066527375949913311

>  <r_epik_Ionization_Penalty_Neutral>  (1) 
0.00026498922314107146

>  <r_epik_State_Penalty>  (1) 
0.41067983895260396

>  <r_glide_ring_energy>  (1) 
0

>  <r_i_docking_score>  (1) 
-5.1364312040828617

>  <r_i_glide_ecoul>  (1) 
-4.5997670871067733

>  <r_i_glide_eff_state_penalty>  (1) 
0.41067983895260396

>  <r_i_glide_einternal>  (1) 
3.7256406448537032

>  <r_i_glide_emodel>  (1) 
-43.338689107576876

>  <r_i_glide_emodel_strain>  (1) 
0.34272850846885916

>  <r_i_glide_energy>  (1) 
-33.250269870883791

>  <r_i_glide_erotb>  (1) 
0.61440649929112812

>  <r_i_glide_esite>  (1) 
-0.096271950042499083

>  <r_i_glide_evdw>  (1) 
-28.650502783777018

>  <r_i_glide_gscore>  (1) 
-5.547111043035466

>  <r_i_glide_gscore_strain>  (1) 
0

>  <r_i_glide_hbond>  (1) 
-0.15882547487372103

>  <r_i_glide_ligand_efficiency>  (1) 
-0.20545724816331445

>  <r_i_glide_ligand_efficiency_ln>  (1) 
-1.2174881217897247

>  <r_i_glide_ligand_efficiency_sa>  (1) 
-0.60076063807393432

>  <r_i_glide_lipo>  (1) 
-1.3565178238883433

>  <r_i_glide_metal>  (1) 
-0

>  <r_i_glide_rewards>  (1) 
-2.427412091267164

>  <r_lp_Energy>  (1) 
11.823086999999999

>  <r_lp_tautomer_probability>  (1) 
0.49999399997599986

>  <s_epik_Chemistry_Notes>  (1) 
This compound has an imine and may undergo hydrolysis. This compound contains an acetal/aminal-like group ( X-CH(R)-Y where X, Y are N, S, or O) that may be acid/base labile, releasing an aldehyde.

>  <s_epik_cmdline>  (1) 
J2VwaWtfcHl0aG9uJywgJy1waHQnLCAnMS4wJywgJy1waCcsICc3LjQnLCAnLXRuJywgJzgnLCAnLW1hJywgJzUwMCcsICctaW1hZScsICc8aW5maWxlLm1hZT4nLCAnLW9tYWUnLCAnPG91dGZpbGUubWFlPic=

>  <s_epik_input>  (1) 
W0NIM11bQ0BIXTFbQ0gyXVtDSDJdTihbQ0BASF0xW0NIM10pW0NAQEhdKFtPSF0pW0NAQEhdKFtDSDNdKVxDKFtDSDNdKT1OXFtDQEBIXShPW0NIM10pQzI9Qz1bQ0hdW0NIMl1bQ0BASF0oRilbQ0gyXVtDSDJdMg==

>  <s_glide_docking_method>  (1) 
confgen

>  <s_i_glide_gridfile>  (1) 
gpcr_5ht2c_6bqh_protein_autoprepared_prepared

>  <s_lp_Force_Field>  (1) 
S-OPLS

>  <s_lp_Variant>  (1) 
DiffSBDD_44_num_sample_100-5

>  <s_m_source_file>  (1) 
generated__ligand_DiffSBDD_2026-05-06_prepared.sdf

>  <GenAI_Model>  (1) 
DiffSBDD

>  <Protein>  (1) 
GPCR_5HT2C

$$$$
DiffSBDD_44_num_sample_100
     RDKit          3D

  0  0  0  0  0  0  0  0  0  0999 V3000
M  V30 BEGIN CTAB
M  V30 COUNTS 58 59 0 0 1
M  V30 BEGIN ATOM
M  V30 1 C 39.057175 27.996823 51.346894 0
M  V30 2 O 39.467411 27.273281 54.624049 0 CHG=-1
M  V30 3 C 38.267369 31.939411 58.459043 0
M  V30 4 C 39.254804 29.660901 53.076319 0 CFG=1
M  V30 5 N 38.177544 28.700770 53.474187 0 CFG=1 CHG=1
M  V30 6 C 37.102723 30.376233 59.941854 0
M  V30 7 N 38.651844 28.371876 58.467058 0
M  V30 8 C 38.216884 30.744045 58.985835 0
M  V30 9 O 40.093882 29.592314 59.852006 0
M  V30 10 C 39.445892 29.450105 51.552727 0 CFG=1
M  V30 11 C 40.827737 29.805203 51.007587 0
M  V30 12 C 38.283854 28.749580 56.026262 0 CFG=1
M  V30 13 C 38.268260 27.913135 57.341436 0
M  V30 14 C 37.874723 27.852126 52.297356 0
M  V30 15 C 41.135507 28.629716 59.792453 0
M  V30 16 C 36.640092 33.696013 59.077084 0
M  V30 17 C 38.315847 27.893675 54.724941 0 CFG=2
M  V30 18 C 39.266374 29.673805 58.694877 0 CFG=1
M  V30 19 F 34.878175 33.284993 60.545256 0
M  V30 20 C 35.746162 32.624218 59.780508 0 CFG=2
M  V30 21 C 37.854920 33.170604 58.321436 0
M  V30 22 C 37.110280 29.761418 56.023705 0
M  V30 23 C 37.751920 26.482086 57.213431 0
M  V30 24 C 38.946272 31.107906 53.481938 0
M  V30 25 C 36.451238 31.577521 60.683143 0
M  V30 26 H 39.866883 27.335966 51.660496 0
M  V30 27 H 38.804862 27.760853 50.313394 0
M  V30 28 H 40.188186 29.453182 53.580930 0
M  V30 29 H 36.349290 29.793339 59.411189 0
M  V30 30 H 37.569024 29.710021 60.653487 0
M  V30 31 H 38.722282 30.021400 50.982055 0
M  V30 32 H 41.589350 29.169994 51.453469 0
M  V30 33 H 40.866395 29.665892 49.927356 0
M  V30 34 H 41.073172 30.847592 51.211238 0
M  V30 35 H 39.202423 29.333573 56.007279 0
M  V30 36 H 37.689465 26.808973 52.550550 0
M  V30 37 H 36.964736 28.247410 51.853581 0
M  V30 38 H 41.632314 28.595892 60.760261 0
M  V30 39 H 40.772522 27.621629 59.601851 0
M  V30 40 H 41.867447 28.887417 59.026902 0
M  V30 41 H 37.004649 34.409229 59.816452 0
M  V30 42 H 36.024891 34.262273 58.377227 0
M  V30 43 H 37.381693 27.331205 54.739410 0
M  V30 44 H 39.908029 29.982910 57.869716 0
M  V30 45 H 35.129324 32.099988 59.053524 0
M  V30 46 H 38.374579 33.869721 57.685306 0
M  V30 47 H 37.474394 30.784070 55.940515 0
M  V30 48 H 36.410536 29.621613 55.202436 0
M  V30 49 H 36.524228 29.717539 56.942251 0
M  V30 50 H 36.763871 26.424423 56.759444 0
M  V30 51 H 38.443891 25.873116 56.632108 0
M  V30 52 H 37.678361 26.024752 58.200509 0
M  V30 53 H 39.467371 31.806292 52.831399 0
M  V30 54 H 37.884845 31.343576 53.453526 0
M  V30 55 H 39.283635 31.304867 54.499695 0
M  V30 56 H 35.707964 31.166917 61.367066 0
M  V30 57 H 37.189847 32.075323 61.312236 0
M  V30 58 H 37.353357 29.259907 53.627240 0
M  V30 END ATOM
M  V30 BEGIN BOND
M  V30 1 1 5 4
M  V30 2 2 8 3
M  V30 3 1 8 6
M  V30 4 1 10 1
M  V30 5 1 10 4
M  V30 6 1 11 10
M  V30 7 2 13 7
M  V30 8 1 13 12
M  V30 9 1 14 1
M  V30 10 1 14 5
M  V30 11 1 15 9
M  V30 12 1 17 2
M  V30 13 1 17 5
M  V30 14 1 17 12
M  V30 15 1 18 7
M  V30 16 1 18 8
M  V30 17 1 18 9
M  V30 18 1 20 16
M  V30 19 1 20 19
M  V30 20 2 21 3
M  V30 21 1 21 16
M  V30 22 1 22 12
M  V30 23 1 23 13
M  V30 24 1 24 4
M  V30 25 1 25 6
M  V30 26 1 25 20
M  V30 27 1 26 1
M  V30 28 1 27 1
M  V30 29 1 4 28 CFG=1
M  V30 30 1 29 6
M  V30 31 1 30 6
M  V30 32 1 10 31 CFG=3
M  V30 33 1 32 11
M  V30 34 1 33 11
M  V30 35 1 34 11
M  V30 36 1 12 35 CFG=1
M  V30 37 1 36 14
M  V30 38 1 37 14
M  V30 39 1 38 15
M  V30 40 1 39 15
M  V30 41 1 40 15
M  V30 42 1 41 16
M  V30 43 1 42 16
M  V30 44 1 17 43 CFG=1
M  V30 45 1 18 44 CFG=3
M  V30 46 1 20 45 CFG=3
M  V30 47 1 46 21
M  V30 48 1 47 22
M  V30 49 1 48 22
M  V30 50 1 49 22
M  V30 51 1 50 23
M  V30 52 1 51 23
M  V30 53 1 52 23
M  V30 54 1 53 24
M  V30 55 1 54 24
M  V30 56 1 55 24
M  V30 57 1 56 25
M  V30 58 1 57 25
M  V30 59 1 5 58 CFG=1
M  V30 END BOND
M  V30 END CTAB
M  END
>  <i_epik_Tot_Q>  (1) 
0

>  <i_epik_Tot_abs_Q>  (1) 
2

>  <i_i_glide_confnum>  (1) 
4

>  <i_i_glide_lignum>  (1) 
122

>  <i_i_glide_posenum>  (1) 
11

>  <i_i_glide_rotatable_bonds>  (1) 
6

>  <i_lp_mmshare_version>  (1) 
72125

>  <i_m_source_file_index>  (1) 
45

>  <i_f3d_flags>  (1) 
0

>  <num_sample>  (1) 
100

>  <b_lp_Chiralities_Consistent>  (1) 
1

>  <r_epik_Charging_Adjusted_Penalty>  (1) 
0.41733257654759531

>  <r_epik_Ionization_Penalty>  (1) 
0.0069177268181324029

>  <r_epik_Ionization_Penalty_Charging>  (1) 
0.0066527375949913311

>  <r_epik_Ionization_Penalty_Neutral>  (1) 
0.00026498922314107146

>  <r_epik_State_Penalty>  (1) 
0.41067983895260396

>  <r_glide_ring_energy>  (1) 
0

>  <r_i_docking_score>  (1) 
-5.13633787362813

>  <r_i_glide_ecoul>  (1) 
-1.2693465799587644

>  <r_i_glide_eff_state_penalty>  (1) 
0.41067983895260396

>  <r_i_glide_einternal>  (1) 
11.983190671830165

>  <r_i_glide_emodel>  (1) 
-34.861175425107078

>  <r_i_glide_emodel_strain>  (1) 
4.3424740125058321

>  <r_i_glide_energy>  (1) 
-30.910215207647639

>  <r_i_glide_erotb>  (1) 
0.61440649929112812

>  <r_i_glide_esite>  (1) 
0

>  <r_i_glide_evdw>  (1) 
-29.640868627688874

>  <r_i_glide_gscore>  (1) 
-5.5470177125807343

>  <r_i_glide_gscore_strain>  (1) 
0.085618503126458023

>  <r_i_glide_hbond>  (1) 
0

>  <r_i_glide_ligand_efficiency>  (1) 
-0.2054535149451252

>  <r_i_glide_ligand_efficiency_ln>  (1) 
-1.2174659996750652

>  <r_i_glide_ligand_efficiency_sa>  (1) 
-0.60074972207772825

>  <r_i_glide_lipo>  (1) 
-2.0993796713627857

>  <r_i_glide_metal>  (1) 
-0

>  <r_i_glide_rewards>  (1) 
-2.475217625257276

>  <r_lp_Energy>  (1) 
11.862836999999999

>  <r_lp_tautomer_probability>  (1) 
0.49999399997599986

>  <s_epik_Chemistry_Notes>  (1) 
This compound has an imine and may undergo hydrolysis. This compound contains an acetal/aminal-like group ( X-CH(R)-Y where X, Y are N, S, or O) that may be acid/base labile, releasing an aldehyde.

>  <s_epik_cmdline>  (1) 
J2VwaWtfcHl0aG9uJywgJy1waHQnLCAnMS4wJywgJy1waCcsICc3LjQnLCAnLXRuJywgJzgnLCAnLW1hJywgJzUwMCcsICctaW1hZScsICc8aW5maWxlLm1hZT4nLCAnLW9tYWUnLCAnPG91dGZpbGUubWFlPic=

>  <s_epik_input>  (1) 
W0NIM11bQ0BIXTFbQ0gyXVtDSDJdTihbQ0BASF0xW0NIM10pW0NAQEhdKFtPSF0pW0NAQEhdKFtDSDNdKS9DKFtDSDNdKT1OXFtDQEBIXShPW0NIM10pQzI9Qz1bQ0hdW0NIMl1bQ0BASF0oRilbQ0gyXVtDSDJdMg==

>  <s_glide_docking_method>  (1) 
confgen

>  <s_i_glide_gridfile>  (1) 
gpcr_5ht2c_6bqh_protein_autoprepared_prepared

>  <s_lp_Force_Field>  (1) 
S-OPLS

>  <s_lp_Variant>  (1) 
DiffSBDD_44_num_sample_100-15

>  <s_m_source_file>  (1) 
generated__ligand_DiffSBDD_2026-05-06_prepared.sdf

>  <GenAI_Model>  (1) 
DiffSBDD

>  <Protein>  (1) 
GPCR_5HT2C

$$$$
DiffSBDD_90_num_sample_100
     RDKit          3D

  0  0  0  0  0  0  0  0  0  0999 V3000
M  V30 BEGIN CTAB
M  V30 COUNTS 85 88 0 0 1
M  V30 BEGIN ATOM
M  V30 1 C 39.686000 29.232907 58.122895 0
M  V30 2 O 41.167829 35.802388 62.537456 0
M  V30 3 F 40.477060 29.221691 49.823890 0
M  V30 4 C 38.562784 26.400841 55.898695 0 CFG=1
M  V30 5 C 37.525819 36.423981 61.848568 0 CFG=2
M  V30 6 C 37.666958 34.511052 60.327726 0 CFG=1
M  V30 7 C 39.377187 23.934299 57.281152 0
M  V30 8 C 38.027547 32.057662 59.834792 0
M  V30 9 C 37.617211 25.459758 56.742935 0
M  V30 10 N 39.774639 35.948803 62.899666 0
M  V30 11 C 39.492362 30.274812 51.654937 0
M  V30 12 C 36.829113 26.138596 57.848304 0
M  V30 13 C 36.806252 35.126233 61.413449 0
M  V30 14 C 39.084965 34.721601 60.859757 0
M  V30 15 O 37.467357 37.586550 59.748380 0
M  V30 16 N 38.858864 30.257816 57.419506 0 CFG=1 CHG=1
M  V30 17 C 37.209226 33.102427 60.006945 0
M  V30 18 F 38.512981 28.551772 50.389195 0
M  V30 19 C 39.468251 27.722580 53.042971 0 CFG=2
M  V30 20 N 38.814718 30.190788 55.921277 0
M  V30 21 C 38.677100 30.022142 52.965268 0
M  V30 22 C 37.505537 30.422525 58.002646 0
M  V30 23 O 38.265508 24.636782 57.699935 0
M  V30 24 C 36.719564 24.588370 55.835379 0
M  V30 25 C 39.766875 29.468753 59.633676 0
M  V30 26 C 40.188552 27.878677 51.701464 0
M  V30 27 C 37.538162 30.659888 59.516181 0 CFG=1
M  V30 28 C 39.033552 36.057825 61.644592 0 CFG=1
M  V30 29 C 38.983359 25.755748 54.554370 0
M  V30 30 O 36.365235 38.488113 61.455533 0 CHG=-1
M  V30 31 C 39.088190 28.879671 55.322554 0 CFG=1
M  V30 32 C 38.363410 29.578518 60.224518 0
M  V30 33 O 37.224441 36.746621 63.204654 0
M  V30 34 C 37.993741 27.821377 55.593870 0
M  V30 35 C 39.463792 29.063826 53.839358 0 CFG=1
M  V30 36 C 40.053973 26.507930 53.792496 0
M  V30 37 C 39.666421 28.997088 50.853005 0
M  V30 38 C 37.083452 37.603619 60.938603 0
M  V30 39 H 40.694585 29.205111 57.717998 0
M  V30 40 H 39.246261 28.250248 57.984593 0
M  V30 41 H 41.399664 34.992595 62.967785 0
M  V30 42 H 39.458896 26.535525 56.501599 0
M  V30 43 H 37.536260 35.088517 59.410784 0
M  V30 44 H 39.468398 23.020672 57.853254 0
M  V30 45 H 39.165185 23.621572 56.285742 0
M  V30 46 H 40.281151 24.534190 57.325368 0
M  V30 47 H 39.093292 32.193881 59.922601 0
M  V30 48 H 39.771186 36.808849 63.433241 0
M  V30 49 H 40.471289 30.688383 51.911795 0
M  V30 50 H 39.067406 30.996196 50.955486 0
M  V30 51 H 36.267553 26.998539 57.562531 0
M  V30 52 H 36.119724 25.421059 58.252221 0
M  V30 53 H 37.502786 26.472571 58.635499 0
M  V30 54 H 35.824559 35.223426 60.987151 0
M  V30 55 H 36.691579 34.448636 62.252996 0
M  V30 56 H 39.825327 34.746986 60.060109 0
M  V30 57 H 39.347488 33.901476 61.528592 0
M  V30 58 H 36.142288 32.955980 59.913558 0
M  V30 59 H 38.433453 27.470222 52.790704 0
M  V30 60 H 39.561192 30.830521 55.698835 0
M  V30 61 H 38.509502 30.975852 53.461958 0
M  V30 62 H 37.699621 29.596573 52.761010 0
M  V30 63 H 36.834737 29.599014 57.778656 0
M  V30 64 H 37.067446 31.292979 57.541542 0
M  V30 65 H 36.268506 25.218054 55.082341 0
M  V30 66 H 37.274650 23.823748 55.295509 0
M  V30 67 H 35.928786 24.061552 56.350771 0
M  V30 68 H 40.346229 30.355548 59.871915 0
M  V30 69 H 40.296593 28.638121 60.100906 0
M  V30 70 H 41.254935 28.024607 51.852155 0
M  V30 71 H 40.003681 26.971546 51.125696 0
M  V30 72 H 36.508964 30.591899 59.877306 0
M  V30 73 H 39.513641 36.836949 61.054312 0
M  V30 74 H 39.380135 24.757592 54.668002 0
M  V30 75 H 38.113364 25.639688 53.906693 0
M  V30 76 H 40.012405 28.516211 55.768619 0
M  V30 77 H 38.417684 29.768657 61.296237 0
M  V30 78 H 37.870072 28.615877 60.091927 0
M  V30 79 H 37.486088 36.018510 63.743752 0
M  V30 80 H 37.467551 28.181146 56.454567 0
M  V30 81 H 37.249471 27.803481 54.794525 0
M  V30 82 H 40.399122 29.621472 53.907764 0
M  V30 83 H 40.841344 26.785799 54.486575 0
M  V30 84 H 40.511084 25.809044 53.088442 0
M  V30 85 H 39.306441 31.145731 57.598775 0
M  V30 END ATOM
M  V30 BEGIN BOND
M  V30 1 1 9 4
M  V30 2 1 10 2
M  V30 3 1 12 9
M  V30 4 1 13 5
M  V30 5 1 13 6
M  V30 6 1 14 6
M  V30 7 1 16 1
M  V30 8 1 17 6
M  V30 9 2 17 8
M  V30 10 1 20 16
M  V30 11 1 21 11
M  V30 12 1 22 16
M  V30 13 1 23 7
M  V30 14 1 23 9
M  V30 15 1 24 9
M  V30 16 1 25 1
M  V30 17 1 26 19
M  V30 18 1 27 8
M  V30 19 1 27 22
M  V30 20 1 28 5
M  V30 21 1 28 10
M  V30 22 1 28 14
M  V30 23 1 29 4
M  V30 24 1 31 20
M  V30 25 1 32 25
M  V30 26 1 32 27
M  V30 27 1 5 33 CFG=1
M  V30 28 1 34 4
M  V30 29 1 34 31
M  V30 30 1 35 19
M  V30 31 1 35 21
M  V30 32 1 35 31
M  V30 33 1 36 19
M  V30 34 1 36 29
M  V30 35 1 37 3
M  V30 36 1 37 11
M  V30 37 1 37 18
M  V30 38 1 37 26
M  V30 39 1 38 5
M  V30 40 2 38 15
M  V30 41 1 38 30
M  V30 42 1 39 1
M  V30 43 1 40 1
M  V30 44 1 41 2
M  V30 45 1 4 42 CFG=1
M  V30 46 1 6 43 CFG=3
M  V30 47 1 44 7
M  V30 48 1 45 7
M  V30 49 1 46 7
M  V30 50 1 47 8
M  V30 51 1 48 10
M  V30 52 1 49 11
M  V30 53 1 50 11
M  V30 54 1 51 12
M  V30 55 1 52 12
M  V30 56 1 53 12
M  V30 57 1 54 13
M  V30 58 1 55 13
M  V30 59 1 56 14
M  V30 60 1 57 14
M  V30 61 1 58 17
M  V30 62 1 19 59 CFG=3
M  V30 63 1 60 20
M  V30 64 1 61 21
M  V30 65 1 62 21
M  V30 66 1 63 22
M  V30 67 1 64 22
M  V30 68 1 65 24
M  V30 69 1 66 24
M  V30 70 1 67 24
M  V30 71 1 68 25
M  V30 72 1 69 25
M  V30 73 1 70 26
M  V30 74 1 71 26
M  V30 75 1 27 72 CFG=1
M  V30 76 1 28 73 CFG=3
M  V30 77 1 74 29
M  V30 78 1 75 29
M  V30 79 1 31 76 CFG=1
M  V30 80 1 77 32
M  V30 81 1 78 32
M  V30 82 1 79 33
M  V30 83 1 80 34
M  V30 84 1 81 34
M  V30 85 1 35 82 CFG=1
M  V30 86 1 83 36
M  V30 87 1 84 36
M  V30 88 1 16 85 CFG=3
M  V30 END BOND
M  V30 END CTAB
M  END
>  <i_epik_Tot_Q>  (1) 
0

>  <i_epik_Tot_abs_Q>  (1) 
2

>  <i_i_glide_confnum>  (1) 
272

>  <i_i_glide_lignum>  (1) 
239

>  <i_i_glide_posenum>  (1) 
183

>  <i_i_glide_rotatable_bonds>  (1) 
10

>  <i_lp_mmshare_version>  (1) 
72125

>  <i_m_source_file_index>  (1) 
91

>  <i_f3d_flags>  (1) 
0

>  <num_sample>  (1) 
100

>  <b_lp_Chiralities_Consistent>  (1) 
1

>  <r_epik_Charging_Adjusted_Penalty>  (1) 
1.5083745474312953

>  <r_epik_Ionization_Penalty>  (1) 
0.65750586125956467

>  <r_epik_Ionization_Penalty_Charging>  (1) 
0.6544614066189578

>  <r_epik_Ionization_Penalty_Neutral>  (1) 
0.0030444546406068235

>  <r_epik_State_Penalty>  (1) 
0.8539131408123376

>  <r_glide_ring_energy>  (1) 
0.52270073413302542

>  <r_i_docking_score>  (1) 
-5.1323916762440387

>  <r_i_glide_ecoul>  (1) 
-0.073708009095989624

>  <r_i_glide_eff_state_penalty>  (1) 
0.8539131408123376

>  <r_i_glide_einternal>  (1) 
23.604526899541053

>  <r_i_glide_emodel>  (1) 
-2.4592870007721999

>  <r_i_glide_emodel_strain>  (1) 
1.033683021131111

>  <r_i_glide_energy>  (1) 
-10.902102170289391

>  <r_i_glide_erotb>  (1) 
0.42002339013477186

>  <r_i_glide_esite>  (1) 
-0.026510551899083731

>  <r_i_glide_evdw>  (1) 
-10.828394161193401

>  <r_i_glide_gscore>  (1) 
-5.986304817056376

>  <r_i_glide_gscore_strain>  (1) 
0

>  <r_i_glide_hbond>  (1) 
0

>  <r_i_glide_ligand_efficiency>  (1) 
-0.13506293884852733

>  <r_i_glide_ligand_efficiency_ln>  (1) 
-1.1066946250647871

>  <r_i_glide_ligand_efficiency_sa>  (1) 
-0.4540782787787413

>  <r_i_glide_lipo>  (1) 
-4.0688317873026403

>  <r_i_glide_metal>  (1) 
-0

>  <r_i_glide_rewards>  (1) 
-1.7585099585653556

>  <r_lp_Energy>  (1) 
48.876987999999997

>  <s_epik_Chemistry_Notes>  (1) 
This compound has a N-S or N-O group and may undergo hydrolysis at high or low pH.

>  <s_epik_cmdline>  (1) 
J2VwaWtfcHl0aG9uJywgJy1waHQnLCAnMS4wJywgJy1waCcsICc3LjQnLCAnLXRuJywgJzgnLCAnLW1hJywgJzUwMCcsICctaW1hZScsICc8aW5maWxlLm1hZT4nLCAnLW9tYWUnLCAnPG91dGZpbGUubWFlPic=

>  <s_epik_input>  (1) 
RkMoRikoW0NIMl0xKVtDSDJdW0NIMl1bQ0BIXShbQ0BASF0xMilbQ0BIXShbQ0gyXVtDQEhdKFtDSDJdW0NIMl0yKUMoW0NIM10pKFtDSDNdKU9bQ0gzXSlbTkhdTjNbQ0gyXVtDSDJdW0NIMl1bQ0BIXShbQ0gyXTMpL1tDSF09W0NIXS9bQ0BASF0oW0NIMl1bQ0BdNChbT0hdKUMoPU8pW09IXSlbQ0gyXVtDQEBIXTRbTkhdW09IXQ==

>  <s_glide_docking_method>  (1) 
confgen

>  <s_i_glide_gridfile>  (1) 
gpcr_5ht2c_6bqh_protein_autoprepared_prepared

>  <s_lp_Force_Field>  (1) 
S-OPLS

>  <s_lp_Variant>  (1) 
DiffSBDD_90_num_sample_100-11

>  <s_m_source_file>  (1) 
generated__ligand_DiffSBDD_2026-05-06_prepared.sdf

>  <GenAI_Model>  (1) 
DiffSBDD

>  <Protein>  (1) 
GPCR_5HT2C

$$$$
DiffSBDD_44_num_sample_100
     RDKit          3D

  0  0  0  0  0  0  0  0  0  0999 V3000
M  V30 BEGIN CTAB
M  V30 COUNTS 58 59 0 0 1
M  V30 BEGIN ATOM
M  V30 1 C 37.594724 34.126110 58.672464 0
M  V30 2 O 37.467301 30.821431 61.453499 0 CHG=-1
M  V30 3 C 39.464094 29.877300 54.240234 0
M  V30 4 C 38.832677 33.518417 60.633580 0 CFG=1
M  V30 5 N 38.084094 32.347867 60.146043 0 CFG=1 CHG=1
M  V30 6 C 38.316473 27.770247 54.788920 0
M  V30 7 N 37.855742 29.225381 57.319675 0
M  V30 8 C 39.032884 29.064750 55.172065 0
M  V30 9 O 40.257944 28.758327 57.297055 0
M  V30 10 C 37.937371 34.627106 60.097861 0 CFG=1
M  V30 11 C 38.530897 36.025711 60.253514 0
M  V30 12 C 38.681121 29.868386 59.588829 0 CFG=1
M  V30 13 C 37.589815 29.543934 58.532951 0
M  V30 14 C 37.776183 32.618926 58.732506 0
M  V30 15 C 40.406511 27.349274 57.176229 0
M  V30 16 C 39.442258 29.224100 51.851452 0
M  V30 17 C 38.465612 31.018703 60.635337 0 CFG=2
M  V30 18 C 39.145057 29.403514 56.662067 0 CFG=2
M  V30 19 F 37.228934 28.421487 52.253547 0
M  V30 20 C 38.494637 28.020899 52.174525 0 CFG=2
M  V30 21 C 39.738135 30.185722 52.999749 0
M  V30 22 C 39.126434 28.571563 60.303873 0
M  V30 23 C 36.155286 29.621400 59.031088 0
M  V30 24 C 39.051716 33.541003 62.154169 0
M  V30 25 C 38.795971 27.169284 53.436033 0
M  V30 26 H 38.267403 34.421389 57.880049 0
M  V30 27 H 36.582394 34.411701 58.383449 0
M  V30 28 H 39.804969 33.546610 60.133863 0
M  V30 29 H 38.410704 27.016248 55.565838 0
M  V30 30 H 37.248771 27.984244 54.734347 0
M  V30 31 H 37.004419 34.615772 60.665997 0
M  V30 32 H 39.608175 36.015927 60.088740 0
M  V30 33 H 38.056047 36.744089 59.583832 0
M  V30 34 H 38.385071 36.387234 61.270261 0
M  V30 35 H 39.554021 30.219993 59.048119 0
M  V30 36 H 38.604723 32.306805 58.096114 0
M  V30 37 H 36.873634 32.143309 58.382476 0
M  V30 38 H 41.253993 27.021748 57.778708 0
M  V30 39 H 39.523789 26.819952 57.533761 0
M  V30 40 H 40.620675 27.050956 56.150332 0
M  V30 41 H 39.055640 29.791284 51.005510 0
M  V30 42 H 40.402586 28.828364 51.519100 0
M  V30 43 H 39.475246 31.135010 61.030345 0
M  V30 44 H 39.394984 30.464553 56.718856 0
M  V30 45 H 38.513227 27.356109 51.309440 0
M  V30 46 H 40.240596 31.109118 52.747943 0
M  V30 47 H 39.698227 27.920468 59.649929 0
M  V30 48 H 39.762416 28.780781 61.164980 0
M  V30 49 H 38.278147 27.986982 60.653294 0
M  V30 50 H 35.974053 28.960228 59.853431 0
M  V30 51 H 35.869816 30.617325 59.353864 0
M  V30 52 H 35.467551 29.331863 58.253504 0
M  V30 53 H 39.329383 34.529869 62.518566 0
M  V30 54 H 38.142847 33.221260 62.653509 0
M  V30 55 H 39.845080 32.857683 62.459634 0
M  V30 56 H 39.859886 26.932029 53.479864 0
M  V30 57 H 38.287390 26.214626 53.324491 0
M  V30 58 H 37.192831 32.401551 60.618111 0
M  V30 END ATOM
M  V30 BEGIN BOND
M  V30 1 1 5 4
M  V30 2 2 8 3
M  V30 3 1 8 6
M  V30 4 1 10 1
M  V30 5 1 10 4
M  V30 6 1 11 10
M  V30 7 2 13 7
M  V30 8 1 13 12
M  V30 9 1 14 1
M  V30 10 1 14 5
M  V30 11 1 15 9
M  V30 12 1 17 2
M  V30 13 1 17 5
M  V30 14 1 17 12
M  V30 15 1 18 7
M  V30 16 1 18 8
M  V30 17 1 18 9
M  V30 18 1 20 16
M  V30 19 1 20 19
M  V30 20 2 21 3
M  V30 21 1 21 16
M  V30 22 1 22 12
M  V30 23 1 23 13
M  V30 24 1 24 4
M  V30 25 1 25 6
M  V30 26 1 25 20
M  V30 27 1 26 1
M  V30 28 1 27 1
M  V30 29 1 4 28 CFG=3
M  V30 30 1 29 6
M  V30 31 1 30 6
M  V30 32 1 10 31 CFG=1
M  V30 33 1 32 11
M  V30 34 1 33 11
M  V30 35 1 34 11
M  V30 36 1 12 35 CFG=3
M  V30 37 1 36 14
M  V30 38 1 37 14
M  V30 39 1 38 15
M  V30 40 1 39 15
M  V30 41 1 40 15
M  V30 42 1 41 16
M  V30 43 1 42 16
M  V30 44 1 17 43 CFG=1
M  V30 45 1 18 44 CFG=3
M  V30 46 1 20 45 CFG=3
M  V30 47 1 46 21
M  V30 48 1 47 22
M  V30 49 1 48 22
M  V30 50 1 49 22
M  V30 51 1 50 23
M  V30 52 1 51 23
M  V30 53 1 52 23
M  V30 54 1 53 24
M  V30 55 1 54 24
M  V30 56 1 55 24
M  V30 57 1 56 25
M  V30 58 1 57 25
M  V30 59 1 5 58 CFG=1
M  V30 END BOND
M  V30 END CTAB
M  END
>  <i_epik_Tot_Q>  (1) 
0

>  <i_epik_Tot_abs_Q>  (1) 
2

>  <i_i_glide_confnum>  (1) 
18

>  <i_i_glide_lignum>  (1) 
118

>  <i_i_glide_posenum>  (1) 
117

>  <i_i_glide_rotatable_bonds>  (1) 
6

>  <i_lp_mmshare_version>  (1) 
72125

>  <i_m_source_file_index>  (1) 
45

>  <i_f3d_flags>  (1) 
0

>  <num_sample>  (1) 
100

>  <b_lp_Chiralities_Consistent>  (1) 
1

>  <r_epik_Charging_Adjusted_Penalty>  (1) 
0.41733257654759531

>  <r_epik_Ionization_Penalty>  (1) 
0.0069177268181324029

>  <r_epik_Ionization_Penalty_Charging>  (1) 
0.0066527375949913311

>  <r_epik_Ionization_Penalty_Neutral>  (1) 
0.00026498922314107146

>  <r_epik_State_Penalty>  (1) 
0.41067983895260396

>  <r_glide_ring_energy>  (1) 
0

>  <r_i_docking_score>  (1) 
-5.1249520273877014

>  <r_i_glide_ecoul>  (1) 
-4.5690229283652988

>  <r_i_glide_eff_state_penalty>  (1) 
0.41067983895260396

>  <r_i_glide_einternal>  (1) 
6.1261174490407591

>  <r_i_glide_emodel>  (1) 
-29.439863640508541

>  <r_i_glide_emodel_strain>  (1) 
6.9393846273830277

>  <r_i_glide_energy>  (1) 
-27.682428363836504

>  <r_i_glide_erotb>  (1) 
0.61440649929112812

>  <r_i_glide_esite>  (1) 
-0.035172242327363087

>  <r_i_glide_evdw>  (1) 
-23.113405435471204

>  <r_i_glide_gscore>  (1) 
-5.5356318663403057

>  <r_i_glide_gscore_strain>  (1) 
0.73484615684575694

>  <r_i_glide_hbond>  (1) 
-0.15530602338986335

>  <r_i_glide_ligand_efficiency>  (1) 
-0.20499808109550804

>  <r_i_glide_ligand_efficiency_ln>  (1) 
-1.2147672129098055

>  <r_i_glide_ligand_efficiency_sa>  (1) 
-0.59941802542286515

>  <r_i_glide_lipo>  (1) 
-2.8499641107380693

>  <r_i_glide_metal>  (1) 
-0

>  <r_i_glide_rewards>  (1) 
-2.0034184349935398

>  <r_lp_Energy>  (1) 
7.5226449999999998

>  <r_lp_tautomer_probability>  (1) 
0.49999399997599986

>  <s_epik_Chemistry_Notes>  (1) 
This compound has an imine and may undergo hydrolysis. This compound contains an acetal/aminal-like group ( X-CH(R)-Y where X, Y are N, S, or O) that may be acid/base labile, releasing an aldehyde.

>  <s_epik_cmdline>  (1) 
J2VwaWtfcHl0aG9uJywgJy1waHQnLCAnMS4wJywgJy1waCcsICc3LjQnLCAnLXRuJywgJzgnLCAnLW1hJywgJzUwMCcsICctaW1hZScsICc8aW5maWxlLm1hZT4nLCAnLW9tYWUnLCAnPG91dGZpbGUubWFlPic=

>  <s_epik_input>  (1) 
W0NIM11bQ0BIXTFbQ0gyXVtDSDJdTihbQ0BASF0xW0NIM10pW0NAQEhdKFtPSF0pW0NAQEhdKFtDSDNdKS9DKFtDSDNdKT1OXFtDQEBIXShPW0NIM10pQzI9Qz1bQ0hdW0NIMl1bQ0BASF0oRilbQ0gyXVtDSDJdMg==

>  <s_glide_docking_method>  (1) 
confgen

>  <s_i_glide_gridfile>  (1) 
gpcr_5ht2c_6bqh_protein_autoprepared_prepared

>  <s_lp_Force_Field>  (1) 
S-OPLS

>  <s_lp_Variant>  (1) 
DiffSBDD_44_num_sample_100-11

>  <s_m_source_file>  (1) 
generated__ligand_DiffSBDD_2026-05-06_prepared.sdf

>  <GenAI_Model>  (1) 
DiffSBDD

>  <Protein>  (1) 
GPCR_5HT2C

$$$$
DiffSBDD_1_num_sample_100
     RDKit          3D

  0  0  0  0  0  0  0  0  0  0999 V3000
M  V30 BEGIN CTAB
M  V30 COUNTS 63 66 0 0 1
M  V30 BEGIN ATOM
M  V30 1 C 39.414641 35.430983 61.908850 0
M  V30 2 C 38.837248 26.903421 57.544492 0
M  V30 3 O 39.431436 37.072807 63.431445 0
M  V30 4 C 38.025381 29.288003 57.946264 0 CFG=1
M  V30 5 C 39.867595 34.157142 61.304159 0
M  V30 6 C 38.571498 31.613175 57.467571 0
M  V30 7 C 39.186873 26.796153 53.834877 0
M  V30 8 C 38.805231 24.615694 57.258132 0
M  V30 9 N 38.307308 25.257324 56.016690 0 CHG=1
M  V30 10 C 36.157891 31.627100 60.360523 0
M  V30 11 C 39.245531 33.735312 59.968568 0
M  V30 12 C 38.589650 27.589116 55.016966 0 CFG=2
M  V30 13 C 38.099669 26.715720 56.230146 0 CFG=2
M  V30 14 C 37.764776 32.081582 58.689016 0 CFG=2
M  V30 15 C 37.342034 32.328418 61.056671 0
M  V30 16 C 39.923839 35.900961 63.001291 0
M  V30 17 N 39.067498 30.264020 57.657096 0
M  V30 18 C 38.790359 28.024767 58.294276 0
M  V30 19 O 40.721079 33.437602 61.823384 0
M  V30 20 C 37.475580 28.468484 54.414222 0
M  V30 21 C 38.456721 37.384033 62.354917 0
M  V30 22 C 37.147800 29.747948 59.140058 0
M  V30 23 C 39.607293 25.701218 57.968484 0
M  V30 24 N 36.668980 31.155278 59.053505 0 CFG=1 CHG=1
M  V30 25 O 37.067401 33.224361 58.253546 0
M  V30 26 C 38.356329 36.215626 61.266535 0
M  V30 27 C 38.480792 32.401812 60.011147 0 CFG=2
M  V30 28 O 40.283154 26.021436 54.253223 0
M  V30 29 H 37.380847 29.143399 57.089552 0
M  V30 30 H 39.397816 32.298790 57.273180 0
M  V30 31 H 37.942169 31.639071 56.574686 0
M  V30 32 H 39.530136 27.475415 53.053650 0
M  V30 33 H 38.434002 26.152338 53.379109 0
M  V30 34 H 39.396876 23.723130 57.053574 0
M  V30 35 H 37.947788 24.317138 57.865067 0
M  V30 36 H 37.485406 24.802547 55.645695 0
M  V30 37 H 35.726497 30.826124 60.961480 0
M  V30 38 H 35.359210 32.346898 60.174911 0
M  V30 39 H 40.029996 33.669473 59.220197 0
M  V30 40 H 38.579679 34.507659 59.600479 0
M  V30 41 H 39.372104 28.260753 55.374083 0
M  V30 42 H 37.045792 26.821438 56.430105 0
M  V30 43 H 37.669611 31.782054 61.942336 0
M  V30 44 H 37.027951 33.319693 61.384706 0
M  V30 45 H 40.706174 35.481056 63.618398 0
M  V30 46 H 39.577422 29.981300 56.824949 0
M  V30 47 H 39.343208 28.051467 59.223231 0
M  V30 48 H 36.657749 27.849502 54.049977 0
M  V30 49 H 37.067827 29.206769 55.098200 0
M  V30 50 H 37.846577 29.036124 53.560944 0
M  V30 51 H 37.477951 37.581743 62.795646 0
M  V30 52 H 38.777052 38.298789 61.853487 0
M  V30 53 H 36.256770 29.128467 59.205287 0
M  V30 54 H 37.705004 29.619478 60.069857 0
M  V30 55 H 40.624655 25.767180 57.578871 0
M  V30 56 H 39.644329 25.621445 59.053406 0
M  V30 57 H 36.461941 32.952703 57.561041 0
M  V30 58 H 38.608057 36.550868 60.261318 0
M  V30 59 H 37.392343 35.706191 61.289331 0
M  V30 60 H 39.189931 31.599974 60.222490 0
M  V30 61 H 40.782011 25.766377 53.489045 0
M  V30 62 H 39.062218 25.210657 55.335409 0
M  V30 63 H 35.951367 31.221788 58.329379 0
M  V30 END ATOM
M  V30 BEGIN BOND
M  V30 1 1 5 1
M  V30 2 1 9 8
M  V30 3 1 11 5
M  V30 4 1 12 7
M  V30 5 1 13 2
M  V30 6 1 13 9
M  V30 7 1 13 12
M  V30 8 1 14 6
M  V30 9 1 15 10
M  V30 10 2 16 1
M  V30 11 1 16 3
M  V30 12 1 17 4
M  V30 13 1 17 6
M  V30 14 2 18 2
M  V30 15 1 18 4
M  V30 16 2 19 5
M  V30 17 1 20 12
M  V30 18 1 21 3
M  V30 19 1 22 4
M  V30 20 1 23 2
M  V30 21 1 23 8
M  V30 22 1 24 10
M  V30 23 1 24 14
M  V30 24 1 24 22
M  V30 25 1 14 25 CFG=3
M  V30 26 1 26 1
M  V30 27 1 26 21
M  V30 28 1 27 11
M  V30 29 1 27 14
M  V30 30 1 27 15
M  V30 31 1 28 7
M  V30 32 1 4 29 CFG=3
M  V30 33 1 30 6
M  V30 34 1 31 6
M  V30 35 1 32 7
M  V30 36 1 33 7
M  V30 37 1 34 8
M  V30 38 1 35 8
M  V30 39 1 36 9
M  V30 40 1 37 10
M  V30 41 1 38 10
M  V30 42 1 39 11
M  V30 43 1 40 11
M  V30 44 1 12 41 CFG=1
M  V30 45 1 13 42 CFG=1
M  V30 46 1 43 15
M  V30 47 1 44 15
M  V30 48 1 45 16
M  V30 49 1 46 17
M  V30 50 1 47 18
M  V30 51 1 48 20
M  V30 52 1 49 20
M  V30 53 1 50 20
M  V30 54 1 51 21
M  V30 55 1 52 21
M  V30 56 1 53 22
M  V30 57 1 54 22
M  V30 58 1 55 23
M  V30 59 1 56 23
M  V30 60 1 57 25
M  V30 61 1 58 26
M  V30 62 1 59 26
M  V30 63 1 27 60 CFG=1
M  V30 64 1 61 28
M  V30 65 1 62 9
M  V30 66 1 24 63 CFG=3
M  V30 END BOND
M  V30 END CTAB
M  END
>  <i_epik_Tot_Q>  (1) 
2

>  <i_epik_Tot_abs_Q>  (1) 
2

>  <i_i_glide_confnum>  (1) 
228

>  <i_i_glide_lignum>  (1) 
18

>  <i_i_glide_posenum>  (1) 
270

>  <i_i_glide_rotatable_bonds>  (1) 
8

>  <i_lp_mmshare_version>  (1) 
72125

>  <i_m_source_file_index>  (1) 
2

>  <i_f3d_flags>  (1) 
0

>  <num_sample>  (1) 
100

>  <b_lp_Chiralities_Consistent>  (1) 
1

>  <r_epik_Charging_Adjusted_Penalty>  (1) 
2.3622130296898831

>  <r_epik_Ionization_Penalty>  (1) 
1.4312966064593899

>  <r_epik_Ionization_Penalty_Charging>  (1) 
1.1852885594971458

>  <r_epik_Ionization_Penalty_Neutral>  (1) 
0.24600804696224418

>  <r_epik_State_Penalty>  (1) 
1.176924470192737

>  <r_glide_ring_energy>  (1) 
0

>  <r_i_docking_score>  (1) 
-5.1167520795835344

>  <r_i_glide_ecoul>  (1) 
-5.6107723335828741

>  <r_i_glide_eff_state_penalty>  (1) 
1.176924470192737

>  <r_i_glide_einternal>  (1) 
9.5519430551271345

>  <r_i_glide_emodel>  (1) 
-52.440152639075237

>  <r_i_glide_emodel_strain>  (1) 
3.3631343014007768

>  <r_i_glide_energy>  (1) 
-37.255038535809376

>  <r_i_glide_erotb>  (1) 
0.75687532201182384

>  <r_i_glide_esite>  (1) 
-0.18109595976256493

>  <r_i_glide_evdw>  (1) 
-31.6442662022265

>  <r_i_glide_gscore>  (1) 
-6.2936765497762712

>  <r_i_glide_gscore_strain>  (1) 
0

>  <r_i_glide_hbond>  (1) 
-0.35999999999999999

>  <r_i_glide_ligand_efficiency>  (1) 
-0.18274114569941194

>  <r_i_glide_ligand_efficiency_ln>  (1) 
-1.1810966143370276

>  <r_i_glide_ligand_efficiency_sa>  (1) 
-0.55490974773875801

>  <r_i_glide_lipo>  (1) 
-2.7883605273399636

>  <r_i_glide_metal>  (1) 
-0

>  <r_i_glide_rewards>  (1) 
-1.2972662245368098

>  <r_lp_Energy>  (1) 
23.60812

>  <s_epik_cmdline>  (1) 
J2VwaWtfcHl0aG9uJywgJy1waHQnLCAnMS4wJywgJy1waCcsICc3LjQnLCAnLXRuJywgJzgnLCAnLW1hJywgJzUwMCcsICctaW1hZScsICc8aW5maWxlLm1hZT4nLCAnLW9tYWUnLCAnPG91dGZpbGUubWFlPic=

>  <s_epik_input>  (1) 
W0NIMl0xW0NIMl1PW0NIXT1DMUMoPU8pW0NIMl1bQ0BIXTJbQ0gyXVtDSDJdTihbQ0BAXTIzW09IXSlbQ0gyXVtDQEBIXShbTkhdW0NIMl0zKS9bQ0hdPUM0XFtDQEBIXShbTkhdW0NIMl1bQ0gyXTQpW0NASF0oW0NIM10pW0NIMl1bT0hd

>  <s_glide_docking_method>  (1) 
confgen

>  <s_i_glide_gridfile>  (1) 
gpcr_5ht2c_6bqh_protein_autoprepared_prepared

>  <s_lp_Force_Field>  (1) 
S-OPLS

>  <s_lp_Variant>  (1) 
DiffSBDD_1_num_sample_100-12

>  <s_m_source_file>  (1) 
generated__ligand_DiffSBDD_2026-05-06_prepared.sdf

>  <GenAI_Model>  (1) 
DiffSBDD

>  <Protein>  (1) 
GPCR_5HT2C

$$$$
DiffSBDD_1_num_sample_100
     RDKit          3D

  0  0  0  0  0  0  0  0  0  0999 V3000
M  V30 BEGIN CTAB
M  V30 COUNTS 63 66 0 0 1
M  V30 BEGIN ATOM
M  V30 1 C 40.099527 27.933873 57.650229 0
M  V30 2 C 39.777122 35.298817 61.440985 0
M  V30 3 O 41.829099 28.146442 59.053498 0
M  V30 4 C 37.813686 33.872217 60.638650 0 CFG=1
M  V30 5 C 38.722758 28.182417 57.168307 0
M  V30 6 C 38.299220 31.437657 60.400936 0
M  V30 7 C 36.933603 37.221349 63.344687 0
M  V30 8 C 41.371706 36.131389 62.876955 0
M  V30 9 N 40.061903 36.719080 63.247731 0 CHG=1
M  V30 10 C 37.937423 32.806365 56.963297 0
M  V30 11 C 37.835248 29.115619 57.989354 0
M  V30 12 C 37.805361 36.949676 62.102283 0 CFG=2
M  V30 13 C 38.985866 36.013660 62.506003 0 CFG=1
M  V30 14 C 37.711318 31.487993 58.979755 0 CFG=2
M  V30 15 C 38.053784 31.313208 56.583630 0
M  V30 16 C 40.555801 28.424013 58.759804 0
M  V30 17 N 37.698539 32.513300 61.213054 0
M  V30 18 C 39.267252 34.345698 60.631687 0
M  V30 19 O 38.276973 27.680972 56.137809 0
M  V30 20 C 38.223904 38.204269 61.307798 0
M  V30 21 C 42.231598 27.355817 57.871893 0
M  V30 22 C 37.246309 33.915869 59.193114 0
M  V30 23 C 41.218774 35.687799 61.418718 0
M  V30 24 N 37.926142 32.840590 58.437109 0 CFG=2 CHG=1
M  V30 25 O 36.300889 31.328371 59.053501 0
M  V30 26 C 41.007514 27.123533 56.849323 0
M  V30 27 C 38.318936 30.580999 57.914335 0 CFG=2
M  V30 28 O 35.826290 38.046847 63.053542 0
M  V30 29 H 37.202141 34.503254 61.267449 0
M  V30 30 H 39.384169 31.542709 60.371958 0
M  V30 31 H 38.097416 30.467891 60.857154 0
M  V30 32 H 37.532126 37.621426 64.158390 0
M  V30 33 H 36.520430 36.285832 63.719259 0
M  V30 34 H 41.544437 35.260553 63.511648 0
M  V30 35 H 42.194118 36.821416 63.053410 0
M  V30 36 H 40.073846 37.684565 62.955440 0
M  V30 37 H 38.803083 33.364947 56.607474 0
M  V30 38 H 37.067402 33.289425 56.544702 0
M  V30 39 H 37.832345 28.769401 59.022873 0
M  V30 40 H 36.806016 29.040545 57.638139 0
M  V30 41 H 37.129681 36.446932 61.419148 0
M  V30 42 H 38.667389 35.221395 63.162045 0
M  V30 43 H 38.855210 31.142369 55.863283 0
M  V30 44 H 37.136639 30.950180 56.117337 0
M  V30 45 H 40.050787 29.044455 59.484720 0
M  V30 46 H 36.704945 32.300543 61.271017 0
M  V30 47 H 39.917857 33.866084 59.919921 0
M  V30 48 H 39.187323 38.616334 61.605613 0
M  V30 49 H 38.267405 37.955017 60.249299 0
M  V30 50 H 37.488171 39.005275 61.374067 0
M  V30 51 H 43.053782 27.869305 57.372491 0
M  V30 52 H 42.631232 26.421429 58.253460 0
M  V30 53 H 36.161072 33.802321 59.177175 0
M  V30 54 H 37.456727 34.879908 58.729443 0
M  V30 55 H 41.867411 34.858004 61.147433 0
M  V30 56 H 41.376306 36.516548 60.729932 0
M  V30 57 H 35.913438 31.509780 58.171985 0
M  V30 58 H 40.667518 26.088239 56.787289 0
M  V30 59 H 41.148033 27.560911 55.861531 0
M  V30 60 H 39.397238 30.631271 58.051118 0
M  V30 61 H 36.128774 38.889044 62.749115 0
M  V30 62 H 39.926980 36.685245 64.249278 0
M  V30 63 H 38.898609 33.000620 58.645652 0
M  V30 END ATOM
M  V30 BEGIN BOND
M  V30 1 1 5 1
M  V30 2 1 9 8
M  V30 3 1 11 5
M  V30 4 1 12 7
M  V30 5 1 13 2
M  V30 6 1 13 9
M  V30 7 1 13 12
M  V30 8 1 14 6
M  V30 9 1 15 10
M  V30 10 2 16 1
M  V30 11 1 16 3
M  V30 12 1 17 4
M  V30 13 1 17 6
M  V30 14 2 18 2
M  V30 15 1 18 4
M  V30 16 2 19 5
M  V30 17 1 20 12
M  V30 18 1 21 3
M  V30 19 1 22 4
M  V30 20 1 23 2
M  V30 21 1 23 8
M  V30 22 1 24 10
M  V30 23 1 24 14
M  V30 24 1 24 22
M  V30 25 1 14 25 CFG=1
M  V30 26 1 26 1
M  V30 27 1 26 21
M  V30 28 1 27 11
M  V30 29 1 27 14
M  V30 30 1 27 15
M  V30 31 1 28 7
M  V30 32 1 4 29 CFG=1
M  V30 33 1 30 6
M  V30 34 1 31 6
M  V30 35 1 32 7
M  V30 36 1 33 7
M  V30 37 1 34 8
M  V30 38 1 35 8
M  V30 39 1 36 9
M  V30 40 1 37 10
M  V30 41 1 38 10
M  V30 42 1 39 11
M  V30 43 1 40 11
M  V30 44 1 12 41 CFG=3
M  V30 45 1 13 42 CFG=1
M  V30 46 1 43 15
M  V30 47 1 44 15
M  V30 48 1 45 16
M  V30 49 1 46 17
M  V30 50 1 47 18
M  V30 51 1 48 20
M  V30 52 1 49 20
M  V30 53 1 50 20
M  V30 54 1 51 21
M  V30 55 1 52 21
M  V30 56 1 53 22
M  V30 57 1 54 22
M  V30 58 1 55 23
M  V30 59 1 56 23
M  V30 60 1 57 25
M  V30 61 1 58 26
M  V30 62 1 59 26
M  V30 63 1 27 60 CFG=1
M  V30 64 1 61 28
M  V30 65 1 62 9
M  V30 66 1 24 63 CFG=1
M  V30 END BOND
M  V30 END CTAB
M  END
>  <i_epik_Tot_Q>  (1) 
2

>  <i_epik_Tot_abs_Q>  (1) 
2

>  <i_i_glide_confnum>  (1) 
219

>  <i_i_glide_lignum>  (1) 
13

>  <i_i_glide_posenum>  (1) 
71

>  <i_i_glide_rotatable_bonds>  (1) 
8

>  <i_lp_mmshare_version>  (1) 
72125

>  <i_m_source_file_index>  (1) 
2

>  <i_f3d_flags>  (1) 
0

>  <num_sample>  (1) 
100

>  <b_lp_Chiralities_Consistent>  (1) 
1

>  <r_epik_Charging_Adjusted_Penalty>  (1) 
2.3622130296898831

>  <r_epik_Ionization_Penalty>  (1) 
1.4312966064593899

>  <r_epik_Ionization_Penalty_Charging>  (1) 
1.1852885594971458

>  <r_epik_Ionization_Penalty_Neutral>  (1) 
0.24600804696224418

>  <r_epik_State_Penalty>  (1) 
1.176924470192737

>  <r_glide_ring_energy>  (1) 
0

>  <r_i_docking_score>  (1) 
-5.1134059619134247

>  <r_i_glide_ecoul>  (1) 
-10.124111278588568

>  <r_i_glide_eff_state_penalty>  (1) 
1.176924470192737

>  <r_i_glide_einternal>  (1) 
7.51898544289398

>  <r_i_glide_emodel>  (1) 
-49.833801697890692

>  <r_i_glide_emodel_strain>  (1) 
1.9126011912081822

>  <r_i_glide_energy>  (1) 
-36.081870745447048

>  <r_i_glide_erotb>  (1) 
0.75687532201182384

>  <r_i_glide_esite>  (1) 
-0.13656349926694136

>  <r_i_glide_evdw>  (1) 
-25.957759466858477

>  <r_i_glide_gscore>  (1) 
-6.2903304321061615

>  <r_i_glide_gscore_strain>  (1) 
0

>  <r_i_glide_hbond>  (1) 
-0.11169566899567011

>  <r_i_glide_ligand_efficiency>  (1) 
-0.18262164149690802

>  <r_i_glide_ligand_efficiency_ln>  (1) 
-1.1803242321324823

>  <r_i_glide_ligand_efficiency_sa>  (1) 
-0.55454686259534181

>  <r_i_glide_lipo>  (1) 
-2.4366198113512314

>  <r_i_glide_metal>  (1) 
-0

>  <r_i_glide_rewards>  (1) 
-1.5458221093729325

>  <r_lp_Energy>  (1) 
26.616364999999998

>  <s_epik_cmdline>  (1) 
J2VwaWtfcHl0aG9uJywgJy1waHQnLCAnMS4wJywgJy1waCcsICc3LjQnLCAnLXRuJywgJzgnLCAnLW1hJywgJzUwMCcsICctaW1hZScsICc8aW5maWxlLm1hZT4nLCAnLW9tYWUnLCAnPG91dGZpbGUubWFlPic=

>  <s_epik_input>  (1) 
W0NIMl0xW0NIMl1PW0NIXT1DMUMoPU8pW0NIMl1bQ0BIXTJbQ0gyXVtDSDJdTihbQ0BAXTIzW09IXSlbQ0gyXVtDQEBIXShbTkhdW0NIMl0zKS9bQ0hdPUM0XFtDQEBIXShbTkhdW0NIMl1bQ0gyXTQpW0NASF0oW0NIM10pW0NIMl1bT0hd

>  <s_glide_docking_method>  (1) 
confgen

>  <s_i_glide_gridfile>  (1) 
gpcr_5ht2c_6bqh_protein_autoprepared_prepared

>  <s_lp_Force_Field>  (1) 
S-OPLS

>  <s_lp_Variant>  (1) 
DiffSBDD_1_num_sample_100-7

>  <s_m_source_file>  (1) 
generated__ligand_DiffSBDD_2026-05-06_prepared.sdf

>  <GenAI_Model>  (1) 
DiffSBDD

>  <Protein>  (1) 
GPCR_5HT2C

$$$$
DiffSBDD_54_num_sample_100
     RDKit          3D

  0  0  0  0  0  0  0  0  0  0999 V3000
M  V30 BEGIN CTAB
M  V30 COUNTS 32 33 0 0 1
M  V30 BEGIN ATOM
M  V30 1 C 38.882904 28.879554 59.014212 0
M  V30 2 C 38.327473 29.053215 56.542829 0
M  V30 3 C 40.497145 30.808763 50.272504 0
M  V30 4 N 37.780219 29.419462 54.216243 0
M  V30 5 N 38.779682 29.749614 60.064728 0
M  V30 6 C 40.224310 28.691618 51.659704 0
M  V30 7 C 38.048797 30.842190 58.403102 0
M  V30 8 C 39.412003 27.409212 51.927011 0
M  V30 9 C 37.867390 29.862869 55.489288 0
M  V30 10 N 38.600658 27.269728 54.938015 0
M  V30 11 C 38.044136 27.622625 52.607239 0
M  V30 12 C 39.708197 29.512602 50.476597 0
M  V30 13 C 38.424045 29.550427 57.930591 0
M  V30 14 C 38.148963 28.144694 54.029911 0
M  V30 15 N 38.270926 30.963071 59.721396 0
M  V30 16 C 38.689413 27.741747 56.197152 0
M  V30 17 H 39.268956 27.877178 59.128509 0
M  V30 18 H 40.079413 31.394488 49.453505 0
M  V30 19 H 40.462133 31.424848 51.171172 0
M  V30 20 H 41.543924 30.608649 50.042220 0
M  V30 21 H 39.047284 29.540319 61.016754 0
M  V30 22 H 40.245430 29.316979 52.552566 0
M  V30 23 H 41.259329 28.421430 51.453501 0
M  V30 24 H 37.633452 31.676732 57.855995 0
M  V30 25 H 39.996700 26.743112 52.562279 0
M  V30 26 H 39.268612 26.873359 50.987540 0
M  V30 27 H 37.567147 30.885054 55.665920 0
M  V30 28 H 37.509039 26.674438 52.653502 0
M  V30 29 H 37.420534 28.286179 52.007587 0
M  V30 30 H 39.736153 28.917209 49.563646 0
M  V30 31 H 38.667403 29.761999 50.653501 0
M  V30 32 H 39.053101 27.052918 56.944862 0
M  V30 END ATOM
M  V30 BEGIN BOND
M  V30 1 1 5 1
M  V30 2 1 8 6
M  V30 3 1 9 2
M  V30 4 2 9 4
M  V30 5 1 11 8
M  V30 6 1 12 3
M  V30 7 1 12 6
M  V30 8 2 13 1
M  V30 9 1 13 2
M  V30 10 1 13 7
M  V30 11 1 14 4
M  V30 12 2 14 10
M  V30 13 1 14 11
M  V30 14 1 15 5
M  V30 15 2 15 7
M  V30 16 2 16 2
M  V30 17 1 16 10
M  V30 18 1 17 1
M  V30 19 1 18 3
M  V30 20 1 19 3
M  V30 21 1 20 3
M  V30 22 1 21 5
M  V30 23 1 22 6
M  V30 24 1 23 6
M  V30 25 1 24 7
M  V30 26 1 25 8
M  V30 27 1 26 8
M  V30 28 1 27 9
M  V30 29 1 28 11
M  V30 30 1 29 11
M  V30 31 1 30 12
M  V30 32 1 31 12
M  V30 33 1 32 16
M  V30 END BOND
M  V30 END CTAB
M  END
>  <i_epik_Tot_Q>  (1) 
0

>  <i_epik_Tot_abs_Q>  (1) 
0

>  <i_i_glide_confnum>  (1) 
35

>  <i_i_glide_lignum>  (1) 
142

>  <i_i_glide_posenum>  (1) 
25

>  <i_i_glide_rotatable_bonds>  (1) 
5

>  <i_lp_mmshare_version>  (1) 
72125

>  <i_m_source_file_index>  (1) 
55

>  <i_f3d_flags>  (1) 
0

>  <num_sample>  (1) 
100

>  <b_lp_Chiralities_Consistent>  (1) 
1

>  <r_epik_Charging_Adjusted_Penalty>  (1) 
0

>  <r_epik_Ionization_Penalty>  (1) 
2.7336504673295612e-06

>  <r_epik_Ionization_Penalty_Charging>  (1) 
0

>  <r_epik_Ionization_Penalty_Neutral>  (1) 
2.7336504673295612e-06

>  <r_epik_State_Penalty>  (1) 
-0

>  <r_glide_ring_energy>  (1) 
0

>  <r_i_docking_score>  (1) 
-5.1103083919070773

>  <r_i_glide_ecoul>  (1) 
-2.4816705435176956

>  <r_i_glide_eff_state_penalty>  (1) 
-0

>  <r_i_glide_einternal>  (1) 
2.6619679938774095

>  <r_i_glide_emodel>  (1) 
-40.649790035046856

>  <r_i_glide_emodel_strain>  (1) 
0

>  <r_i_glide_energy>  (1) 
-31.746397789672113

>  <r_i_glide_erotb>  (1) 
1.4325524447639233

>  <r_i_glide_esite>  (1) 
0

>  <r_i_glide_evdw>  (1) 
-29.264727246154418

>  <r_i_glide_gscore>  (1) 
-5.1103083919070773

>  <r_i_glide_gscore_strain>  (1) 
0

>  <r_i_glide_hbond>  (1) 
0

>  <r_i_glide_ligand_efficiency>  (1) 
-0.31939427449419233

>  <r_i_glide_ligand_efficiency_ln>  (1) 
-1.3545893200022858

>  <r_i_glide_ligand_efficiency_sa>  (1) 
-0.80482313930226823

>  <r_i_glide_lipo>  (1) 
-1.842575677639646

>  <r_i_glide_metal>  (1) 
-0

>  <r_i_glide_rewards>  (1) 
-2.8647982151959797

>  <r_lp_Energy>  (1) 
15.064480999999999

>  <r_lp_tautomer_probability>  (1) 
1

>  <s_epik_cmdline>  (1) 
J2VwaWtfcHl0aG9uJywgJy1waHQnLCAnMS4wJywgJy1waCcsICc3LjQnLCAnLXRuJywgJzgnLCAnLW1hJywgJzUwMCcsICctaW1hZScsICc8aW5maWxlLm1hZT4nLCAnLW9tYWUnLCAnPG91dGZpbGUubWFlPic=

>  <s_epik_input>  (1) 
W2NIXTFuW25IXVtjSF1jMS1jMltjSF1uYyhuW2NIXTIpW0NIMl1bQ0gyXVtDSDJdW0NIMl1bQ0gzXQ==

>  <s_glide_docking_method>  (1) 
confgen

>  <s_i_glide_gridfile>  (1) 
gpcr_5ht2c_6bqh_protein_autoprepared_prepared

>  <s_lp_Force_Field>  (1) 
S-OPLS

>  <s_lp_Variant>  (1) 
DiffSBDD_54_num_sample_100-1

>  <s_m_source_file>  (1) 
generated__ligand_DiffSBDD_2026-05-06_prepared.sdf

>  <GenAI_Model>  (1) 
DiffSBDD

>  <Protein>  (1) 
GPCR_5HT2C

$$$$
DiffSBDD_79_num_sample_100
     RDKit          3D

  0  0  0  0  0  0  0  0  0  0999 V3000
M  V30 BEGIN CTAB
M  V30 COUNTS 84 86 0 0 1
M  V30 BEGIN ATOM
M  V30 1 C 37.929103 34.957511 60.503415 0
M  V30 2 C 39.479430 31.483086 61.261481 0
M  V30 3 C 39.958797 30.114844 52.926016 0
M  V30 4 C 41.724144 30.399816 66.541176 0
M  V30 5 C 36.654148 34.405382 58.498291 0
M  V30 6 C 39.105736 28.323517 51.498911 0
M  V30 7 C 37.066709 33.874080 59.847961 0
M  V30 8 C 37.607787 30.630207 56.754362 0
M  V30 9 F 38.283492 27.279394 51.522325 0
M  V30 10 C 40.363621 29.732816 66.825710 0
M  V30 11 C 38.070055 32.021452 61.519146 0
M  V30 12 C 38.534260 28.749208 55.287292 0
M  V30 13 F 38.667396 29.222127 50.662898 0
M  V30 14 C 39.322553 28.941850 52.857725 0
M  V30 15 C 39.381120 31.065186 55.147362 0
M  V30 16 C 40.609719 29.347282 61.740103 0
M  V30 17 C 43.245191 28.496390 66.930739 0
M  V30 18 N 42.735132 29.435133 66.083528 0
M  V30 19 C 35.935767 33.152629 60.556657 0
M  V30 20 C 38.561330 30.169331 55.698416 0
M  V30 21 C 43.187850 29.569958 64.687329 0
M  V30 22 C 38.880896 29.528924 60.016860 0 CFG=2
M  V30 23 C 37.261994 32.403478 60.271126 0
M  V30 24 C 34.619319 32.774020 59.866585 0
M  V30 25 O 37.565649 29.960075 59.774678 0
M  V30 26 O 42.902715 28.409201 68.109950 0
M  V30 27 C 38.811173 28.016241 59.856321 0
M  V30 28 C 35.535226 33.756319 61.879031 0
M  V30 29 C 44.284569 27.519879 66.367227 0
M  V30 30 N 39.389199 30.026450 61.279235 0
M  V30 31 F 40.267339 27.965922 50.987537 0
M  V30 32 C 38.859463 28.219780 54.063180 0
M  V30 33 C 42.242541 28.893953 63.671795 0
M  V30 34 C 40.406314 30.758224 54.169320 0
M  V30 35 C 41.175736 29.840976 63.089420 0
M  V30 36 C 38.142911 31.492539 57.916937 0
M  V30 37 C 37.310110 31.258778 59.216142 0 CFG=2
M  V30 38 H 37.534809 35.950162 60.283487 0
M  V30 39 H 37.979133 34.872571 61.584965 0
M  V30 40 H 38.944971 34.905537 60.114030 0
M  V30 41 H 40.106009 31.861987 62.062685 0
M  V30 42 H 39.898422 31.866973 60.331698 0
M  V30 43 H 40.274573 30.594808 52.010694 0
M  V30 44 H 42.088987 30.924305 67.425892 0
M  V30 45 H 41.579975 31.173302 65.786541 0
M  V30 46 H 35.872961 35.152013 58.653520 0
M  V30 47 H 37.478698 34.867367 57.969780 0
M  V30 48 H 36.267742 33.625735 57.852156 0
M  V30 49 H 37.067431 31.306847 56.111885 0
M  V30 50 H 36.937162 29.830513 57.070933 0
M  V30 51 H 39.604532 30.479145 67.055689 0
M  V30 52 H 40.011987 29.157799 65.967932 0
M  V30 53 H 40.412929 29.052870 67.676479 0
M  V30 54 H 37.482140 31.316601 62.108587 0
M  V30 55 H 38.192143 32.873654 62.178247 0
M  V30 56 H 38.145905 28.052017 56.014866 0
M  V30 57 H 39.337880 32.094167 55.478140 0
M  V30 58 H 40.371355 28.292735 61.877845 0
M  V30 59 H 41.369567 29.385665 60.961628 0
M  V30 60 H 44.194159 29.184560 64.534922 0
M  V30 61 H 43.309307 30.628021 64.452283 0
M  V30 62 H 39.561994 29.847836 59.237101 0
M  V30 63 H 33.843720 33.512208 60.071977 0
M  V30 64 H 34.672798 32.711679 58.790138 0
M  V30 65 H 34.279853 31.806043 60.226280 0
M  V30 66 H 39.807682 27.575201 59.832602 0
M  V30 67 H 38.267415 27.621437 60.702532 0
M  V30 68 H 38.291140 27.761060 58.931941 0
M  V30 69 H 35.460289 34.821275 61.753862 0
M  V30 70 H 34.584641 33.366227 62.246329 0
M  V30 71 H 36.267412 33.621297 62.653152 0
M  V30 72 H 45.226832 28.025161 66.151480 0
M  V30 73 H 44.497239 26.738630 67.098113 0
M  V30 74 H 43.917299 27.028152 65.466235 0
M  V30 75 H 38.698467 27.157187 53.950149 0
M  V30 76 H 41.772806 28.007731 64.101165 0
M  V30 77 H 42.854490 28.529040 62.851304 0
M  V30 78 H 41.013273 31.621383 53.954879 0
M  V30 79 H 41.068646 30.059707 54.669565 0
M  V30 80 H 41.632329 30.820208 62.957256 0
M  V30 81 H 40.363758 29.963543 63.806181 0
M  V30 82 H 39.205145 31.347730 58.041749 0
M  V30 83 H 38.098246 32.528566 57.602502 0
M  V30 84 H 36.285389 31.144258 58.878079 0
M  V30 END ATOM
M  V30 BEGIN BOND
M  V30 1 1 7 1
M  V30 2 1 7 5
M  V30 3 1 9 6
M  V30 4 1 10 4
M  V30 5 1 11 2
M  V30 6 1 13 6
M  V30 7 2 14 3
M  V30 8 1 14 6
M  V30 9 1 18 4
M  V30 10 1 18 17
M  V30 11 1 19 7
M  V30 12 1 20 8
M  V30 13 1 20 12
M  V30 14 2 20 15
M  V30 15 1 21 18
M  V30 16 1 23 7
M  V30 17 1 23 11
M  V30 18 1 23 19
M  V30 19 1 24 19
M  V30 20 1 25 22
M  V30 21 2 26 17
M  V30 22 1 27 22
M  V30 23 1 28 19
M  V30 24 1 29 17
M  V30 25 1 30 2
M  V30 26 1 30 16
M  V30 27 1 30 22
M  V30 28 1 31 6
M  V30 29 2 32 12
M  V30 30 1 32 14
M  V30 31 1 33 21
M  V30 32 1 34 3
M  V30 33 1 34 15
M  V30 34 1 35 16
M  V30 35 1 35 33
M  V30 36 1 36 8
M  V30 37 1 37 23
M  V30 38 1 37 25
M  V30 39 1 37 36
M  V30 40 1 38 1
M  V30 41 1 39 1
M  V30 42 1 40 1
M  V30 43 1 41 2
M  V30 44 1 42 2
M  V30 45 1 43 3
M  V30 46 1 44 4
M  V30 47 1 45 4
M  V30 48 1 46 5
M  V30 49 1 47 5
M  V30 50 1 48 5
M  V30 51 1 49 8
M  V30 52 1 50 8
M  V30 53 1 51 10
M  V30 54 1 52 10
M  V30 55 1 53 10
M  V30 56 1 54 11
M  V30 57 1 55 11
M  V30 58 1 56 12
M  V30 59 1 57 15
M  V30 60 1 58 16
M  V30 61 1 59 16
M  V30 62 1 60 21
M  V30 63 1 61 21
M  V30 64 1 22 62 CFG=3
M  V30 65 1 63 24
M  V30 66 1 64 24
M  V30 67 1 65 24
M  V30 68 1 66 27
M  V30 69 1 67 27
M  V30 70 1 68 27
M  V30 71 1 69 28
M  V30 72 1 70 28
M  V30 73 1 71 28
M  V30 74 1 72 29
M  V30 75 1 73 29
M  V30 76 1 74 29
M  V30 77 1 75 32
M  V30 78 1 76 33
M  V30 79 1 77 33
M  V30 80 1 78 34
M  V30 81 1 79 34
M  V30 82 1 80 35
M  V30 83 1 81 35
M  V30 84 1 82 36
M  V30 85 1 83 36
M  V30 86 1 37 84 CFG=3
M  V30 END BOND
M  V30 END CTAB
M  END
>  <i_epik_Tot_Q>  (1) 
0

>  <i_epik_Tot_abs_Q>  (1) 
0

>  <i_i_glide_confnum>  (1) 
2095

>  <i_i_glide_lignum>  (1) 
200

>  <i_i_glide_posenum>  (1) 
326

>  <i_i_glide_rotatable_bonds>  (1) 
11

>  <i_lp_mmshare_version>  (1) 
72125

>  <i_m_source_file_index>  (1) 
80

>  <i_f3d_flags>  (1) 
0

>  <num_sample>  (1) 
100

>  <b_lp_Chiralities_Consistent>  (1) 
1

>  <r_epik_Charging_Adjusted_Penalty>  (1) 
0.2050768058510691

>  <r_epik_Ionization_Penalty>  (1) 
0.20507783400789523

>  <r_epik_Ionization_Penalty_Charging>  (1) 
0

>  <r_epik_Ionization_Penalty_Neutral>  (1) 
0.20507783400789523

>  <r_epik_State_Penalty>  (1) 
0.2050768058510691

>  <r_glide_ring_energy>  (1) 
0.00060120837358353487

>  <r_i_docking_score>  (1) 
-5.1077443796292021

>  <r_i_glide_ecoul>  (1) 
0.053811626279151481

>  <r_i_glide_eff_state_penalty>  (1) 
0.2050768058510691

>  <r_i_glide_einternal>  (1) 
29.092818088325892

>  <r_i_glide_emodel>  (1) 
-14.984925428419739

>  <r_i_glide_emodel_strain>  (1) 
5.9183859910064029

>  <r_i_glide_energy>  (1) 
-25.187450320271989

>  <r_i_glide_erotb>  (1) 
0.59792730839384334

>  <r_i_glide_esite>  (1) 
0

>  <r_i_glide_evdw>  (1) 
-25.241261946551141

>  <r_i_glide_gscore>  (1) 
-5.3128211854802716

>  <r_i_glide_gscore_strain>  (1) 
0.47959649775160074

>  <r_i_glide_hbond>  (1) 
0

>  <r_i_glide_ligand_efficiency>  (1) 
-0.13804714539538385

>  <r_i_glide_ligand_efficiency_ln>  (1) 
-1.1077500134241303

>  <r_i_glide_ligand_efficiency_sa>  (1) 
-0.46000371444384414

>  <r_i_glide_lipo>  (1) 
-3.117111695185026

>  <r_i_glide_metal>  (1) 
-0

>  <r_i_glide_rewards>  (1) 
-2.0192419430550053

>  <r_lp_Energy>  (1) 
53.665700999999999

>  <s_epik_Chemistry_Notes>  (1) 
This compound contains an acetal/aminal-like group ( X-CH(R)-Y where X, Y are N, S, or O) that may be acid/base labile, releasing an aldehyde.

>  <s_epik_cmdline>  (1) 
J2VwaWtfcHl0aG9uJywgJy1waHQnLCAnMS4wJywgJy1waCcsICc3LjQnLCAnLXRuJywgJzgnLCAnLW1hJywgJzUwMCcsICctaW1hZScsICc8aW5maWxlLm1hZT4nLCAnLW9tYWUnLCAnPG91dGZpbGUubWFlPic=

>  <s_epik_input>  (1) 
W0NIM11bQ0gyXU4oQyg9TylbQ0gzXSlbQ0gyXVtDSDJdW0NIMl1bQ0gyXU4oW0NIMl1bQ0gyXUMxMkMoW0NIM10pKFtDSDNdKUMxKFtDSDNdKVtDSDNdKVtDQEBIXShbQ0gzXSlPW0NASF0yW0NIMl1bQ0gyXUMoW0NIXT1bQ0hdMyk9W0NIXVtDSDJdW0NIXT1DM0MoRikoRilG

>  <s_glide_docking_method>  (1) 
confgen

>  <s_i_glide_gridfile>  (1) 
gpcr_5ht2c_6bqh_protein_autoprepared_prepared

>  <s_lp_Force_Field>  (1) 
S-OPLS

>  <s_lp_Variant>  (1) 
DiffSBDD_79_num_sample_100-2

>  <s_m_source_file>  (1) 
generated__ligand_DiffSBDD_2026-05-06_prepared.sdf

>  <GenAI_Model>  (1) 
DiffSBDD

>  <Protein>  (1) 
GPCR_5HT2C

$$$$
DiffSBDD_90_num_sample_100
     RDKit          3D

  0  0  0  0  0  0  0  0  0  0999 V3000
M  V30 BEGIN CTAB
M  V30 COUNTS 84 87 0 0 1
M  V30 BEGIN ATOM
M  V30 1 C 40.144503 28.594728 58.594206 0
M  V30 2 O 42.570543 34.326606 64.802124 0
M  V30 3 F 40.145424 30.011856 50.248625 0
M  V30 4 C 38.609741 26.220836 55.914106 0 CFG=1
M  V30 5 C 41.837189 31.777294 62.976740 0 CFG=2
M  V30 6 C 39.526223 31.135633 62.920645 0 CFG=1
M  V30 7 C 36.277870 23.248150 55.837753 0
M  V30 8 C 37.580051 30.918200 61.246458 0
M  V30 9 C 37.764165 25.083993 56.589920 0
M  V30 10 N 41.337519 33.914214 64.162143 0
M  V30 11 C 39.558250 30.771076 52.418084 0
M  V30 12 C 38.699265 24.212454 57.448960 0
M  V30 13 C 40.653637 31.610427 62.028924 0
M  V30 14 C 39.867423 31.927653 64.211106 0
M  V30 15 O 42.055099 29.387265 63.036153 0
M  V30 16 N 39.053148 29.417748 58.052254 0
M  V30 17 C 38.146055 31.472924 62.345696 0
M  V30 18 F 38.267489 29.313178 51.053492 0
M  V30 19 C 39.467426 27.953109 53.249013 0 CFG=2
M  V30 20 N 39.133330 29.830026 56.687178 0
M  V30 21 C 38.755016 30.360976 53.675721 0
M  V30 22 C 38.642936 30.452353 59.005521 0
M  V30 23 O 37.198457 24.285064 55.538216 0
M  V30 24 C 36.668048 25.607763 57.505149 0
M  V30 25 C 39.643063 27.834603 59.817978 0
M  V30 26 C 40.089453 28.327632 51.866688 0
M  V30 27 C 38.196695 29.842443 60.344313 0 CFG=1
M  V30 28 C 41.296329 32.449927 64.231115 0 CFG=1
M  V30 29 C 39.075432 25.749280 54.526510 0
M  V30 30 O 43.497890 30.587803 64.229397 0 CHG=-1
M  V30 31 C 39.157548 28.726418 55.708505 0 CFG=1
M  V30 32 C 39.188589 28.790710 60.913934 0
M  V30 33 O 42.667395 32.597585 62.224762 0
M  V30 34 C 38.024453 27.667426 55.848101 0
M  V30 35 C 39.481662 29.157601 54.264805 0 CFG=1
M  V30 36 C 40.079429 26.640844 53.816795 0
M  V30 37 C 39.511385 29.637826 51.359677 0
M  V30 38 C 42.525080 30.467317 63.453583 0
M  V30 39 H 40.496798 27.863298 57.873635 0
M  V30 40 H 40.997221 29.226816 58.847559 0
M  V30 41 H 42.259395 34.938927 65.453057 0
M  V30 42 H 39.507960 26.302549 56.526599 0
M  V30 43 H 39.585977 30.079200 63.172216 0
M  V30 44 H 36.324766 22.501766 55.053043 0
M  V30 45 H 36.515094 22.718766 56.753031 0
M  V30 46 H 35.255178 23.621316 55.853574 0
M  V30 47 H 36.594470 31.256924 60.953189 0
M  V30 48 H 41.480762 34.218018 63.208265 0
M  V30 49 H 40.597440 30.964086 52.683528 0
M  V30 50 H 39.243701 31.743880 52.045419 0
M  V30 51 H 39.199071 24.829602 58.195138 0
M  V30 52 H 38.176939 23.422127 57.983529 0
M  V30 53 H 39.467219 23.742113 56.849344 0
M  V30 54 H 40.900093 31.018286 61.154035 0
M  V30 55 H 40.367978 32.586279 61.629152 0
M  V30 56 H 39.636266 31.371163 65.123188 0
M  V30 57 H 39.289709 32.821461 64.160374 0
M  V30 58 H 37.588422 32.227446 62.875780 0
M  V30 59 H 38.423506 27.738399 53.026096 0
M  V30 60 H 39.940743 30.436356 56.567205 0
M  V30 61 H 38.724447 31.192266 54.379626 0
M  V30 62 H 37.720616 30.103831 53.453604 0
M  V30 63 H 37.822473 31.026178 58.569893 0
M  V30 64 H 39.465287 31.140599 59.176704 0
M  V30 65 H 37.052874 26.368315 58.180740 0
M  V30 66 H 35.868267 26.011457 56.898457 0
M  V30 67 H 36.267375 24.821140 58.137402 0
M  V30 68 H 38.822757 27.182970 59.525319 0
M  V30 69 H 40.442200 27.221509 60.212146 0
M  V30 70 H 41.172158 28.421389 51.853492 0
M  V30 71 H 39.869197 27.536679 51.148264 0
M  V30 72 H 37.329031 29.246152 60.066638 0
M  V30 73 H 41.780148 32.123204 65.155930 0
M  V30 74 H 39.529072 24.765776 54.653068 0
M  V30 75 H 38.220377 25.621420 53.861898 0
M  V30 76 H 40.079019 28.211629 55.962646 0
M  V30 77 H 40.107747 29.194594 61.300532 0
M  V30 78 H 38.757452 28.226300 61.738551 0
M  V30 79 H 43.407191 32.795711 62.783569 0
M  V30 80 H 37.468038 27.902936 56.748533 0
M  V30 81 H 37.299564 27.754074 55.038662 0
M  V30 82 H 40.468414 29.621457 54.384513 0
M  V30 83 H 40.891756 26.821305 54.515511 0
M  V30 84 H 40.513050 26.051673 53.012291 0
M  V30 END ATOM
M  V30 BEGIN BOND
M  V30 1 1 9 4
M  V30 2 1 10 2
M  V30 3 1 12 9
M  V30 4 1 13 5
M  V30 5 1 13 6
M  V30 6 1 14 6
M  V30 7 1 16 1
M  V30 8 1 17 6
M  V30 9 2 17 8
M  V30 10 1 20 16
M  V30 11 1 21 11
M  V30 12 1 22 16
M  V30 13 1 23 7
M  V30 14 1 23 9
M  V30 15 1 24 9
M  V30 16 1 25 1
M  V30 17 1 26 19
M  V30 18 1 27 8
M  V30 19 1 27 22
M  V30 20 1 28 5
M  V30 21 1 28 10
M  V30 22 1 28 14
M  V30 23 1 29 4
M  V30 24 1 31 20
M  V30 25 1 32 25
M  V30 26 1 32 27
M  V30 27 1 5 33 CFG=3
M  V30 28 1 34 4
M  V30 29 1 34 31
M  V30 30 1 35 19
M  V30 31 1 35 21
M  V30 32 1 35 31
M  V30 33 1 36 19
M  V30 34 1 36 29
M  V30 35 1 37 3
M  V30 36 1 37 11
M  V30 37 1 37 18
M  V30 38 1 37 26
M  V30 39 1 38 5
M  V30 40 2 38 15
M  V30 41 1 38 30
M  V30 42 1 39 1
M  V30 43 1 40 1
M  V30 44 1 41 2
M  V30 45 1 4 42 CFG=1
M  V30 46 1 6 43 CFG=1
M  V30 47 1 44 7
M  V30 48 1 45 7
M  V30 49 1 46 7
M  V30 50 1 47 8
M  V30 51 1 48 10
M  V30 52 1 49 11
M  V30 53 1 50 11
M  V30 54 1 51 12
M  V30 55 1 52 12
M  V30 56 1 53 12
M  V30 57 1 54 13
M  V30 58 1 55 13
M  V30 59 1 56 14
M  V30 60 1 57 14
M  V30 61 1 58 17
M  V30 62 1 19 59 CFG=3
M  V30 63 1 60 20
M  V30 64 1 61 21
M  V30 65 1 62 21
M  V30 66 1 63 22
M  V30 67 1 64 22
M  V30 68 1 65 24
M  V30 69 1 66 24
M  V30 70 1 67 24
M  V30 71 1 68 25
M  V30 72 1 69 25
M  V30 73 1 70 26
M  V30 74 1 71 26
M  V30 75 1 27 72 CFG=3
M  V30 76 1 28 73 CFG=1
M  V30 77 1 74 29
M  V30 78 1 75 29
M  V30 79 1 31 76 CFG=1
M  V30 80 1 77 32
M  V30 81 1 78 32
M  V30 82 1 79 33
M  V30 83 1 80 34
M  V30 84 1 81 34
M  V30 85 1 35 82 CFG=1
M  V30 86 1 83 36
M  V30 87 1 84 36
M  V30 END BOND
M  V30 END CTAB
M  END
>  <i_epik_Tot_Q>  (1) 
-1

>  <i_epik_Tot_abs_Q>  (1) 
1

>  <i_i_glide_confnum>  (1) 
505

>  <i_i_glide_lignum>  (1) 
229

>  <i_i_glide_posenum>  (1) 
245

>  <i_i_glide_rotatable_bonds>  (1) 
10

>  <i_lp_mmshare_version>  (1) 
72125

>  <i_m_source_file_index>  (1) 
91

>  <i_f3d_flags>  (1) 
0

>  <num_sample>  (1) 
100

>  <b_lp_Chiralities_Consistent>  (1) 
1

>  <r_epik_Charging_Adjusted_Penalty>  (1) 
0.43821527866000726

>  <r_epik_Ionization_Penalty>  (1) 
0.52002734918543769

>  <r_epik_Ionization_Penalty_Charging>  (1) 
0.00012691742049533285

>  <r_epik_Ionization_Penalty_Neutral>  (1) 
0.51990043176494238

>  <r_epik_State_Penalty>  (1) 
0.43808836123951195

>  <r_glide_ring_energy>  (1) 
0.52270073413307983

>  <r_i_docking_score>  (1) 
-5.1020494395396732

>  <r_i_glide_ecoul>  (1) 
0.010695567266623018

>  <r_i_glide_eff_state_penalty>  (1) 
0.43808836123951195

>  <r_i_glide_einternal>  (1) 
19.704295635393056

>  <r_i_glide_emodel>  (1) 
-11.00764929332157

>  <r_i_glide_emodel_strain>  (1) 
5.772913414588956

>  <r_i_glide_energy>  (1) 
-15.722957179322188

>  <r_i_glide_erotb>  (1) 
0.42146348941000378

>  <r_i_glide_esite>  (1) 
-0.0023564453701096083

>  <r_i_glide_evdw>  (1) 
-15.733652746588811

>  <r_i_glide_gscore>  (1) 
-5.5401378007791848

>  <r_i_glide_gscore_strain>  (1) 
0.443228353647239

>  <r_i_glide_hbond>  (1) 
-0.10120080754603084

>  <r_i_glide_ligand_efficiency>  (1) 
-0.13426445893525454

>  <r_i_glide_ligand_efficiency_ln>  (1) 
-1.1001519462531539

>  <r_i_glide_ligand_efficiency_sa>  (1) 
-0.45139380894749526

>  <r_i_glide_lipo>  (1) 
-4.3531909055425722

>  <r_i_glide_metal>  (1) 
-0

>  <r_i_glide_rewards>  (1) 
-1.1630031831382688

>  <r_lp_Energy>  (1) 
50.148589000000001

>  <s_epik_Chemistry_Notes>  (1) 
This compound has a N-S or N-O group and may undergo hydrolysis at high or low pH.

>  <s_epik_cmdline>  (1) 
J2VwaWtfcHl0aG9uJywgJy1waHQnLCAnMS4wJywgJy1waCcsICc3LjQnLCAnLXRuJywgJzgnLCAnLW1hJywgJzUwMCcsICctaW1hZScsICc8aW5maWxlLm1hZT4nLCAnLW9tYWUnLCAnPG91dGZpbGUubWFlPic=

>  <s_epik_input>  (1) 
RkMoRikoW0NIMl0xKVtDSDJdW0NIMl1bQ0BIXShbQ0BASF0xMilbQ0BIXShbQ0gyXVtDQEhdKFtDSDJdW0NIMl0yKUMoW0NIM10pKFtDSDNdKU9bQ0gzXSlbTkhdTjNbQ0gyXVtDSDJdW0NIMl1bQ0BIXShbQ0gyXTMpL1tDSF09W0NIXVxbQ0BASF0oW0NIMl1bQ0BdNChbT0hdKUMoPU8pW09IXSlbQ0gyXVtDQEBIXTRbTkhdW09IXQ==

>  <s_glide_docking_method>  (1) 
confgen

>  <s_i_glide_gridfile>  (1) 
gpcr_5ht2c_6bqh_protein_autoprepared_prepared

>  <s_lp_Force_Field>  (1) 
S-OPLS

>  <s_lp_Variant>  (1) 
DiffSBDD_90_num_sample_100-1

>  <s_m_source_file>  (1) 
generated__ligand_DiffSBDD_2026-05-06_prepared.sdf

>  <GenAI_Model>  (1) 
DiffSBDD

>  <Protein>  (1) 
GPCR_5HT2C

$$$$
DiffSBDD_1_num_sample_100
     RDKit          3D

  0  0  0  0  0  0  0  0  0  0999 V3000
M  V30 BEGIN CTAB
M  V30 COUNTS 63 66 0 0 1
M  V30 BEGIN ATOM
M  V30 1 C 41.046767 33.860693 62.801077 0
M  V30 2 C 38.167969 28.297431 55.592711 0
M  V30 3 O 42.308615 34.579382 64.507199 0
M  V30 4 C 37.814894 30.219582 57.200173 0 CFG=1
M  V30 5 C 40.480721 32.838302 61.895383 0
M  V30 6 C 38.592001 32.433144 57.693767 0
M  V30 7 C 37.779463 24.419077 55.321261 0
M  V30 8 C 38.438329 28.289593 53.290397 0
M  V30 9 N 38.531733 26.896271 53.790877 0 CHG=1
M  V30 10 C 36.223947 31.422949 60.463179 0
M  V30 11 C 39.487915 33.300926 60.814253 0
M  V30 12 C 37.499935 25.840383 55.829278 0 CFG=2
M  V30 13 C 38.537571 26.869094 55.279845 0 CFG=2
M  V30 14 C 37.790615 32.460927 59.017452 0 CFG=2
M  V30 15 C 37.463818 31.754524 61.316868 0
M  V30 16 C 41.867480 33.560182 63.755487 0
M  V30 17 N 38.987706 31.073750 57.322973 0
M  V30 18 C 38.226465 28.811640 56.834414 0
M  V30 19 O 40.777229 31.644377 61.973217 0
M  V30 20 C 37.398084 25.805705 57.371737 0
M  V30 21 C 41.624234 35.725993 63.860452 0
M  V30 22 C 37.052900 30.159549 58.540445 0
M  V30 23 C 37.744726 29.088063 54.391316 0
M  V30 24 N 36.667436 31.497969 59.053502 0 CFG=1 CHG=1
M  V30 25 O 37.101362 33.698199 59.106607 0
M  V30 26 C 40.686256 35.270912 62.637982 0
M  V30 27 C 38.561589 32.172587 60.314647 0 CFG=2
M  V30 28 O 36.667411 23.580051 55.550018 0
M  V30 29 H 37.148939 30.613786 56.431684 0
M  V30 30 H 39.467385 33.077172 57.771326 0
M  V30 31 H 37.981193 32.851530 56.891088 0
M  V30 32 H 38.667276 24.021424 55.810836 0
M  V30 33 H 37.963860 24.404591 54.253501 0
M  V30 34 H 37.911690 28.340649 52.336143 0
M  V30 35 H 39.448983 28.670748 53.135403 0
M  V30 36 H 39.345719 26.432469 53.413009 0
M  V30 37 H 35.791339 30.453302 60.706372 0
M  V30 38 H 35.447620 32.172131 60.626190 0
M  V30 39 H 40.063064 33.698260 59.980393 0
M  V30 40 H 38.876945 34.122611 61.185710 0
M  V30 41 H 36.521839 26.131633 55.453533 0
M  V30 42 H 39.545015 26.660630 55.644459 0
M  V30 43 H 37.791046 30.897850 61.908014 0
M  V30 44 H 37.229426 32.562201 62.011797 0
M  V30 45 H 42.251025 32.588937 64.034982 0
M  V30 46 H 39.471253 31.110497 56.430097 0
M  V30 47 H 38.560388 28.187544 57.649984 0
M  V30 48 H 38.379190 25.701298 57.836383 0
M  V30 49 H 36.918913 26.697679 57.770506 0
M  V30 50 H 36.788026 24.971192 57.718576 0
M  V30 51 H 41.032853 36.252111 64.610257 0
M  V30 52 H 42.383786 36.421358 63.504055 0
M  V30 53 H 36.146364 29.563899 58.421460 0
M  V30 54 H 37.663837 29.645608 59.285198 0
M  V30 55 H 36.667408 29.040701 54.283815 0
M  V30 56 H 38.060167 30.132049 54.410520 0
M  V30 57 H 37.096244 34.117077 58.256803 0
M  V30 58 H 41.004417 35.682324 61.679072 0
M  V30 59 H 39.629816 35.462770 62.829112 0
M  V30 60 H 39.169384 31.290145 60.108582 0
M  V30 61 H 35.925201 23.890804 55.053594 0
M  V30 62 H 37.702697 26.412650 53.474262 0
M  V30 63 H 35.932716 31.818740 58.417199 0
M  V30 END ATOM
M  V30 BEGIN BOND
M  V30 1 1 5 1
M  V30 2 1 9 8
M  V30 3 1 11 5
M  V30 4 1 12 7
M  V30 5 1 13 2
M  V30 6 1 13 9
M  V30 7 1 13 12
M  V30 8 1 14 6
M  V30 9 1 15 10
M  V30 10 2 16 1
M  V30 11 1 16 3
M  V30 12 1 17 4
M  V30 13 1 17 6
M  V30 14 2 18 2
M  V30 15 1 18 4
M  V30 16 2 19 5
M  V30 17 1 20 12
M  V30 18 1 21 3
M  V30 19 1 22 4
M  V30 20 1 23 2
M  V30 21 1 23 8
M  V30 22 1 24 10
M  V30 23 1 24 14
M  V30 24 1 24 22
M  V30 25 1 14 25 CFG=1
M  V30 26 1 26 1
M  V30 27 1 26 21
M  V30 28 1 27 11
M  V30 29 1 27 14
M  V30 30 1 27 15
M  V30 31 1 28 7
M  V30 32 1 4 29 CFG=3
M  V30 33 1 30 6
M  V30 34 1 31 6
M  V30 35 1 32 7
M  V30 36 1 33 7
M  V30 37 1 34 8
M  V30 38 1 35 8
M  V30 39 1 36 9
M  V30 40 1 37 10
M  V30 41 1 38 10
M  V30 42 1 39 11
M  V30 43 1 40 11
M  V30 44 1 12 41 CFG=3
M  V30 45 1 13 42 CFG=1
M  V30 46 1 43 15
M  V30 47 1 44 15
M  V30 48 1 45 16
M  V30 49 1 46 17
M  V30 50 1 47 18
M  V30 51 1 48 20
M  V30 52 1 49 20
M  V30 53 1 50 20
M  V30 54 1 51 21
M  V30 55 1 52 21
M  V30 56 1 53 22
M  V30 57 1 54 22
M  V30 58 1 55 23
M  V30 59 1 56 23
M  V30 60 1 57 25
M  V30 61 1 58 26
M  V30 62 1 59 26
M  V30 63 1 27 60 CFG=3
M  V30 64 1 61 28
M  V30 65 1 62 9
M  V30 66 1 24 63 CFG=3
M  V30 END BOND
M  V30 END CTAB
M  END
>  <i_epik_Tot_Q>  (1) 
2

>  <i_epik_Tot_abs_Q>  (1) 
2

>  <i_i_glide_confnum>  (1) 
222

>  <i_i_glide_lignum>  (1) 
16

>  <i_i_glide_posenum>  (1) 
335

>  <i_i_glide_rotatable_bonds>  (1) 
8

>  <i_lp_mmshare_version>  (1) 
72125

>  <i_m_source_file_index>  (1) 
2

>  <i_f3d_flags>  (1) 
0

>  <num_sample>  (1) 
100

>  <b_lp_Chiralities_Consistent>  (1) 
1

>  <r_epik_Charging_Adjusted_Penalty>  (1) 
2.3622130296898831

>  <r_epik_Ionization_Penalty>  (1) 
1.4312966064593899

>  <r_epik_Ionization_Penalty_Charging>  (1) 
1.1852885594971458

>  <r_epik_Ionization_Penalty_Neutral>  (1) 
0.24600804696224418

>  <r_epik_State_Penalty>  (1) 
1.176924470192737

>  <r_glide_ring_energy>  (1) 
0

>  <r_i_docking_score>  (1) 
-5.0999196351804281

>  <r_i_glide_ecoul>  (1) 
-6.59605170680946

>  <r_i_glide_eff_state_penalty>  (1) 
1.176924470192737

>  <r_i_glide_einternal>  (1) 
6.2853369883839711

>  <r_i_glide_emodel>  (1) 
-59.59952965275189

>  <r_i_glide_emodel_strain>  (1) 
0.26520441461072153

>  <r_i_glide_energy>  (1) 
-41.824778891451764

>  <r_i_glide_erotb>  (1) 
0.75687532201182384

>  <r_i_glide_esite>  (1) 
-0.15918392030969986

>  <r_i_glide_evdw>  (1) 
-35.228727184642302

>  <r_i_glide_gscore>  (1) 
-6.276844105373165

>  <r_i_glide_gscore_strain>  (1) 
0

>  <r_i_glide_hbond>  (1) 
-0.19695622120636869

>  <r_i_glide_ligand_efficiency>  (1) 
-0.18213998697072958

>  <r_i_glide_ligand_efficiency_ln>  (1) 
-1.1772111919467476

>  <r_i_glide_ligand_efficiency_sa>  (1) 
-0.55308427577289443

>  <r_i_glide_lipo>  (1) 
-2.626065885907003

>  <r_i_glide_metal>  (1) 
-0

>  <r_i_glide_rewards>  (1) 
-1.3006692847083832

>  <r_lp_Energy>  (1) 
23.737466999999999

>  <s_epik_cmdline>  (1) 
J2VwaWtfcHl0aG9uJywgJy1waHQnLCAnMS4wJywgJy1waCcsICc3LjQnLCAnLXRuJywgJzgnLCAnLW1hJywgJzUwMCcsICctaW1hZScsICc8aW5maWxlLm1hZT4nLCAnLW9tYWUnLCAnPG91dGZpbGUubWFlPic=

>  <s_epik_input>  (1) 
W0NIMl0xW0NIMl1PW0NIXT1DMUMoPU8pW0NIMl1bQ0BIXTJbQ0gyXVtDSDJdTihbQ0BAXTIzW09IXSlbQ0gyXVtDQEBIXShbTkhdW0NIMl0zKVxbQ0hdPUM0XFtDQEBIXShbTkhdW0NIMl1bQ0gyXTQpW0NASF0oW0NIM10pW0NIMl1bT0hd

>  <s_glide_docking_method>  (1) 
confgen

>  <s_i_glide_gridfile>  (1) 
gpcr_5ht2c_6bqh_protein_autoprepared_prepared

>  <s_lp_Force_Field>  (1) 
S-OPLS

>  <s_lp_Variant>  (1) 
DiffSBDD_1_num_sample_100-10

>  <s_m_source_file>  (1) 
generated__ligand_DiffSBDD_2026-05-06_prepared.sdf

>  <GenAI_Model>  (1) 
DiffSBDD

>  <Protein>  (1) 
GPCR_5HT2C

$$$$
DiffSBDD_90_num_sample_100
     RDKit          3D

  0  0  0  0  0  0  0  0  0  0999 V3000
M  V30 BEGIN CTAB
M  V30 COUNTS 85 88 0 0 1
M  V30 BEGIN ATOM
M  V30 1 C 40.243457 28.205490 59.763530 0
M  V30 2 O 37.467257 37.236241 59.416821 0
M  V30 3 F 38.145353 32.402356 54.288382 0
M  V30 4 C 38.758985 26.336849 56.004483 0 CFG=1
M  V30 5 C 36.387992 33.878784 60.688710 0 CFG=2
M  V30 6 C 38.740340 33.230125 60.479770 0 CFG=1
M  V30 7 C 36.798664 24.044927 55.052866 0
M  V30 8 C 40.201213 31.461861 61.591684 0
M  V30 9 C 38.474718 24.960681 56.669418 0
M  V30 10 N 36.667403 36.315934 60.173527 0
M  V30 11 C 39.725392 31.700765 55.851348 0
M  V30 12 C 39.774969 24.341785 57.176621 0
M  V30 13 C 37.413733 32.826477 61.140122 0
M  V30 14 C 38.644597 34.756704 60.477889 0
M  V30 15 O 34.667510 34.124330 59.053533 0
M  V30 16 N 39.717970 29.434015 59.160440 0
M  V30 17 C 40.003120 32.724805 61.158461 0
M  V30 18 F 37.730111 32.735683 56.379372 0
M  V30 19 C 38.174548 29.401845 54.801064 0 CFG=1
M  V30 20 N 39.079121 29.205319 57.823383 0 CHG=1
M  V30 21 C 40.333164 30.589180 54.990521 0
M  V30 22 C 38.689343 29.984971 60.037220 0
M  V30 23 O 38.073351 24.021430 55.675622 0
M  V30 24 C 37.510517 24.979939 57.870284 0
M  V30 25 C 40.823166 28.490092 61.151229 0
M  V30 26 C 37.420541 30.542480 55.525045 0
M  V30 27 C 39.191080 30.312446 61.476408 0 CFG=1
M  V30 28 C 37.216076 34.980423 59.971889 0 CFG=1
M  V30 29 C 37.468373 27.130063 55.845761 0
M  V30 30 O 34.910508 32.126488 60.005688 0 CHG=-1
M  V30 31 C 39.903832 28.654281 56.715493 0 CFG=1
M  V30 32 C 39.771932 29.039398 62.096023 0
M  V30 33 O 35.839367 34.374799 61.877588 0
M  V30 34 C 39.876162 27.117946 56.734385 0
M  V30 35 C 39.624140 29.261272 55.300440 0 CFG=1
M  V30 36 C 37.468704 28.050484 54.620491 0
M  V30 37 C 38.236350 31.868120 55.507616 0
M  V30 38 C 35.225082 33.325815 59.836868 0
M  V30 39 H 39.460958 27.448704 59.837081 0
M  V30 40 H 41.055700 27.811828 59.153186 0
M  V30 41 H 37.705696 37.870650 60.077134 0
M  V30 42 H 39.148582 26.113249 55.010261 0
M  V30 43 H 38.764089 32.912090 59.437018 0
M  V30 44 H 36.668104 23.091197 54.546268 0
M  V30 45 H 35.974670 24.150572 55.755514 0
M  V30 46 H 36.736774 24.817012 54.285623 0
M  V30 47 H 41.141382 31.220231 62.063721 0
M  V30 48 H 35.765737 36.384189 59.716751 0
M  V30 49 H 40.263989 32.633012 55.722005 0
M  V30 50 H 39.841545 31.481591 56.909208 0
M  V30 51 H 40.177427 24.821649 58.066607 0
M  V30 52 H 39.624332 23.297609 57.453523 0
M  V30 53 H 40.528691 24.421446 56.401222 0
M  V30 54 H 37.084254 31.826444 60.893491 0
M  V30 55 H 37.541281 32.834327 62.224504 0
M  V30 56 H 39.406973 35.217887 59.855274 0
M  V30 57 H 38.757921 35.148419 61.490893 0
M  V30 58 H 40.791681 33.452470 61.294267 0
M  V30 59 H 38.244930 29.759470 53.771998 0
M  V30 60 H 38.275394 28.615653 57.982056 0
M  V30 61 H 40.183174 30.849617 53.941351 0
M  V30 62 H 41.413885 30.512342 55.053177 0
M  V30 63 H 37.872088 29.267368 60.110946 0
M  V30 64 H 38.273812 30.850653 59.532500 0
M  V30 65 H 37.871308 25.653750 58.646970 0
M  V30 66 H 36.493476 25.279657 57.623267 0
M  V30 67 H 37.462600 23.982386 58.305809 0
M  V30 68 H 41.288488 27.621426 61.587539 0
M  V30 69 H 41.605413 29.219175 61.047874 0
M  V30 70 H 36.459153 30.711846 55.038009 0
M  V30 71 H 37.164271 30.262632 56.544458 0
M  V30 72 H 38.347171 30.568111 62.114395 0
M  V30 73 H 37.205132 34.780934 58.897493 0
M  V30 74 H 36.655616 26.422558 55.711971 0
M  V30 75 H 37.264248 27.648760 56.781366 0
M  V30 76 H 40.936743 28.886851 56.963554 0
M  V30 77 H 40.197709 29.239115 63.080806 0
M  V30 78 H 39.003974 28.283704 62.245490 0
M  V30 79 H 35.047057 34.825410 61.628829 0
M  V30 80 H 40.838296 26.756529 56.368931 0
M  V30 81 H 39.837364 26.825099 57.769550 0
M  V30 82 H 40.052583 28.521803 54.653301 0
M  V30 83 H 37.941426 27.520940 53.791984 0
M  V30 84 H 36.461727 28.195574 54.253584 0
M  V30 85 H 38.747205 30.117002 57.537424 0
M  V30 END ATOM
M  V30 BEGIN BOND
M  V30 1 1 9 4
M  V30 2 1 10 2
M  V30 3 1 12 9
M  V30 4 1 13 5
M  V30 5 1 13 6
M  V30 6 1 14 6
M  V30 7 1 16 1
M  V30 8 1 17 6
M  V30 9 2 17 8
M  V30 10 1 20 16
M  V30 11 1 21 11
M  V30 12 1 22 16
M  V30 13 1 23 7
M  V30 14 1 23 9
M  V30 15 1 24 9
M  V30 16 1 25 1
M  V30 17 1 26 19
M  V30 18 1 27 8
M  V30 19 1 27 22
M  V30 20 1 28 5
M  V30 21 1 28 10
M  V30 22 1 28 14
M  V30 23 1 29 4
M  V30 24 1 31 20
M  V30 25 1 32 25
M  V30 26 1 32 27
M  V30 27 1 5 33 CFG=1
M  V30 28 1 34 4
M  V30 29 1 34 31
M  V30 30 1 35 19
M  V30 31 1 35 21
M  V30 32 1 35 31
M  V30 33 1 36 19
M  V30 34 1 36 29
M  V30 35 1 37 3
M  V30 36 1 37 11
M  V30 37 1 37 18
M  V30 38 1 37 26
M  V30 39 1 38 5
M  V30 40 2 38 15
M  V30 41 1 38 30
M  V30 42 1 39 1
M  V30 43 1 40 1
M  V30 44 1 41 2
M  V30 45 1 4 42 CFG=3
M  V30 46 1 6 43 CFG=3
M  V30 47 1 44 7
M  V30 48 1 45 7
M  V30 49 1 46 7
M  V30 50 1 47 8
M  V30 51 1 48 10
M  V30 52 1 49 11
M  V30 53 1 50 11
M  V30 54 1 51 12
M  V30 55 1 52 12
M  V30 56 1 53 12
M  V30 57 1 54 13
M  V30 58 1 55 13
M  V30 59 1 56 14
M  V30 60 1 57 14
M  V30 61 1 58 17
M  V30 62 1 19 59 CFG=3
M  V30 63 1 60 20
M  V30 64 1 61 21
M  V30 65 1 62 21
M  V30 66 1 63 22
M  V30 67 1 64 22
M  V30 68 1 65 24
M  V30 69 1 66 24
M  V30 70 1 67 24
M  V30 71 1 68 25
M  V30 72 1 69 25
M  V30 73 1 70 26
M  V30 74 1 71 26
M  V30 75 1 27 72 CFG=1
M  V30 76 1 28 73 CFG=3
M  V30 77 1 74 29
M  V30 78 1 75 29
M  V30 79 1 31 76 CFG=1
M  V30 80 1 77 32
M  V30 81 1 78 32
M  V30 82 1 79 33
M  V30 83 1 80 34
M  V30 84 1 81 34
M  V30 85 1 35 82 CFG=3
M  V30 86 1 83 36
M  V30 87 1 84 36
M  V30 88 1 85 20
M  V30 END BOND
M  V30 END CTAB
M  END
>  <i_epik_Tot_Q>  (1) 
0

>  <i_epik_Tot_abs_Q>  (1) 
2

>  <i_i_glide_confnum>  (1) 
784

>  <i_i_glide_lignum>  (1) 
235

>  <i_i_glide_posenum>  (1) 
181

>  <i_i_glide_rotatable_bonds>  (1) 
10

>  <i_lp_mmshare_version>  (1) 
72125

>  <i_m_source_file_index>  (1) 
91

>  <i_f3d_flags>  (1) 
0

>  <num_sample>  (1) 
100

>  <b_lp_Chiralities_Consistent>  (1) 
1

>  <r_epik_Charging_Adjusted_Penalty>  (1) 
1.3235823108087639

>  <r_epik_Ionization_Penalty>  (1) 
0.58520961668590687

>  <r_epik_Ionization_Penalty_Charging>  (1) 
0.5818654171532841

>  <r_epik_Ionization_Penalty_Neutral>  (1) 
0.0033441995326227757

>  <r_epik_State_Penalty>  (1) 
0.74171689365547977

>  <r_glide_ring_energy>  (1) 
2.0052858141177801

>  <r_i_docking_score>  (1) 
-5.0966747391102194

>  <r_i_glide_ecoul>  (1) 
0.48520867991101269

>  <r_i_glide_eff_state_penalty>  (1) 
0.74171689365547977

>  <r_i_glide_einternal>  (1) 
3.6999745999377325

>  <r_i_glide_emodel>  (1) 
-29.585730332543562

>  <r_i_glide_emodel_strain>  (1) 
2.030834403224091

>  <r_i_glide_energy>  (1) 
-29.503014230128578

>  <r_i_glide_erotb>  (1) 
0.42002339013477186

>  <r_i_glide_esite>  (1) 
-0.16519783317713377

>  <r_i_glide_evdw>  (1) 
-29.988222910039589

>  <r_i_glide_gscore>  (1) 
-5.8383916327656991

>  <r_i_glide_gscore_strain>  (1) 
0

>  <r_i_glide_hbond>  (1) 
0

>  <r_i_glide_ligand_efficiency>  (1) 
-0.13412301945026894

>  <r_i_glide_ligand_efficiency_ln>  (1) 
-1.0989930027328958

>  <r_i_glide_ligand_efficiency_sa>  (1) 
-0.45091829287742324

>  <r_i_glide_lipo>  (1) 
-4.1389790209492539

>  <r_i_glide_metal>  (1) 
-0

>  <r_i_glide_rewards>  (1) 
-0.52760832525875578

>  <r_lp_Energy>  (1) 
57.103046999999997

>  <s_epik_Chemistry_Notes>  (1) 
This compound has a N-S or N-O group and may undergo hydrolysis at high or low pH.

>  <s_epik_cmdline>  (1) 
J2VwaWtfcHl0aG9uJywgJy1waHQnLCAnMS4wJywgJy1waCcsICc3LjQnLCAnLXRuJywgJzgnLCAnLW1hJywgJzUwMCcsICctaW1hZScsICc8aW5maWxlLm1hZT4nLCAnLW9tYWUnLCAnPG91dGZpbGUubWFlPic=

>  <s_epik_input>  (1) 
RkMoRikoW0NIMl0xKVtDSDJdW0NIMl1bQ0BIXShbQ0BASF0xMilbQ0BIXShbQ0gyXVtDQEhdKFtDSDJdW0NIMl0yKUMoW0NIM10pKFtDSDNdKU9bQ0gzXSlbTkhdTjNbQ0gyXVtDSDJdW0NIMl1bQ0BIXShbQ0gyXTMpL1tDSF09W0NIXVxbQ0BASF0oW0NIMl1bQ0BdNChbT0hdKUMoPU8pW09IXSlbQ0gyXVtDQEBIXTRbTkhdW09IXQ==

>  <s_glide_docking_method>  (1) 
confgen

>  <s_i_glide_gridfile>  (1) 
gpcr_5ht2c_6bqh_protein_autoprepared_prepared

>  <s_lp_Force_Field>  (1) 
S-OPLS

>  <s_lp_Variant>  (1) 
DiffSBDD_90_num_sample_100-7

>  <s_m_source_file>  (1) 
generated__ligand_DiffSBDD_2026-05-06_prepared.sdf

>  <GenAI_Model>  (1) 
DiffSBDD

>  <Protein>  (1) 
GPCR_5HT2C

$$$$
DiffSBDD_90_num_sample_100
     RDKit          3D

  0  0  0  0  0  0  0  0  0  0999 V3000
M  V30 BEGIN CTAB
M  V30 COUNTS 85 88 0 0 1
M  V30 BEGIN ATOM
M  V30 1 C 40.084533 29.060816 59.317263 0
M  V30 2 O 40.718207 36.820901 63.053580 0
M  V30 3 F 37.867367 23.706381 58.653501 0
M  V30 4 C 38.510518 28.127295 53.502388 0 CFG=1
M  V30 5 C 37.187495 36.583081 61.978511 0 CFG=2
M  V30 6 C 37.922388 34.733386 60.582735 0 CFG=1
M  V30 7 C 40.179689 30.595466 51.232033 0
M  V30 8 C 37.666342 32.398660 59.745342 0
M  V30 9 C 39.116984 28.562400 52.143940 0
M  V30 10 N 39.325805 36.536485 63.280409 0
M  V30 11 C 39.492451 25.444495 58.253690 0
M  V30 12 C 40.223429 27.677564 51.602105 0
M  V30 13 C 36.766450 35.203547 61.449595 0
M  V30 14 C 39.187437 35.437811 61.080143 0
M  V30 15 O 37.069913 37.621477 59.844108 0
M  V30 16 N 39.056289 29.279931 58.295600 0
M  V30 17 C 38.106138 33.254148 60.666744 0
M  V30 18 F 39.317532 23.611380 57.053552 0
M  V30 19 C 38.106107 25.794915 55.751018 0 CFG=2
M  V30 20 N 39.623060 29.195427 56.946431 0 CHG=1
M  V30 21 C 39.987291 26.352457 57.156196 0
M  V30 22 C 38.476585 30.602656 58.409636 0
M  V30 23 O 39.508300 29.932598 52.300113 0
M  V30 24 C 38.057088 28.418730 51.101464 0
M  V30 25 C 39.423761 29.072326 60.693668 0
M  V30 26 C 37.425678 24.871530 56.743782 0
M  V30 27 C 37.892774 30.905362 59.795073 0 CFG=1
M  V30 28 C 38.730816 36.608378 61.958680 0 CFG=1
M  V30 29 C 37.961858 26.690839 53.446943 0
M  V30 30 O 35.935694 38.546864 61.534559 0 CHG=-1
M  V30 31 C 38.843515 28.356021 56.010628 0 CFG=1
M  V30 32 C 38.844408 30.461943 60.939371 0
M  V30 33 O 36.618758 36.857513 63.241588 0
M  V30 34 C 39.498819 28.335495 54.653502 0
M  V30 35 C 38.699230 26.947507 56.584487 0 CFG=1
M  V30 36 C 37.193729 26.165709 54.641733 0
M  V30 37 C 38.496923 24.397928 57.708976 0
M  V30 38 C 36.688275 37.676561 61.037021 0
M  V30 39 H 40.573118 28.097100 59.215005 0
M  V30 40 H 40.871324 29.811074 59.262511 0
M  V30 41 H 41.153402 36.211036 63.631634 0
M  V30 42 H 37.663484 28.790216 53.681247 0
M  V30 43 H 37.725325 35.024738 59.548136 0
M  V30 44 H 40.374849 31.621351 51.543213 0
M  V30 45 H 41.140854 30.139948 50.996960 0
M  V30 46 H 39.578455 30.651336 50.326010 0
M  V30 47 H 37.119758 32.771888 58.886803 0
M  V30 48 H 39.015022 37.320775 63.840062 0
M  V30 49 H 39.035369 26.027503 59.052594 0
M  V30 50 H 40.383568 24.975976 58.653407 0
M  V30 51 H 39.867379 26.661701 51.431186 0
M  V30 52 H 40.601337 28.020480 50.643783 0
M  V30 53 H 41.061997 27.621427 52.253505 0
M  V30 54 H 35.867547 35.219858 60.838281 0
M  V30 55 H 36.551232 34.506395 62.253378 0
M  V30 56 H 39.799717 35.790137 60.253307 0
M  V30 57 H 39.827870 34.759866 61.648455 0
M  V30 58 H 38.635300 32.893030 61.531795 0
M  V30 59 H 38.890053 25.216103 55.266276 0
M  V30 60 H 39.672358 30.141744 56.594365 0
M  V30 61 H 40.718727 27.051625 57.532052 0
M  V30 62 H 40.552740 25.791960 56.412714 0
M  V30 63 H 37.689186 30.717360 57.659853 0
M  V30 64 H 39.236376 31.343350 58.163555 0
M  V30 65 H 37.867764 27.373506 50.876890 0
M  V30 66 H 37.130936 28.861399 51.453572 0
M  V30 67 H 38.411838 28.820963 50.171783 0
M  V30 68 H 38.667351 28.291992 60.745862 0
M  V30 69 H 40.155914 28.837988 61.469194 0
M  V30 70 H 36.623386 25.386095 57.278139 0
M  V30 71 H 36.967574 24.011589 56.253567 0
M  V30 72 H 36.933077 30.398429 59.899009 0
M  V30 73 H 39.073340 37.542872 61.507789 0
M  V30 74 H 37.243285 26.588709 52.653450 0
M  V30 75 H 38.783031 26.021807 53.214078 0
M  V30 76 H 37.855398 28.815765 55.927581 0
M  V30 77 H 39.701105 31.134063 61.007789 0
M  V30 78 H 38.336558 30.503414 61.903032 0
M  V30 79 H 36.140613 37.668042 63.072303 0
M  V30 80 H 39.998781 29.294222 54.524718 0
M  V30 81 H 40.267299 27.563396 54.654236 0
M  V30 82 H 37.992584 27.132863 57.399119 0
M  V30 83 H 36.450760 26.821430 55.039062 0
M  V30 84 H 36.667764 25.269626 54.310980 0
M  V30 85 H 40.553159 28.816320 57.052284 0
M  V30 END ATOM
M  V30 BEGIN BOND
M  V30 1 1 9 4
M  V30 2 1 10 2
M  V30 3 1 12 9
M  V30 4 1 13 5
M  V30 5 1 13 6
M  V30 6 1 14 6
M  V30 7 1 16 1
M  V30 8 1 17 6
M  V30 9 2 17 8
M  V30 10 1 20 16
M  V30 11 1 21 11
M  V30 12 1 22 16
M  V30 13 1 23 7
M  V30 14 1 23 9
M  V30 15 1 24 9
M  V30 16 1 25 1
M  V30 17 1 26 19
M  V30 18 1 27 8
M  V30 19 1 27 22
M  V30 20 1 28 5
M  V30 21 1 28 10
M  V30 22 1 28 14
M  V30 23 1 29 4
M  V30 24 1 31 20
M  V30 25 1 32 25
M  V30 26 1 32 27
M  V30 27 1 5 33 CFG=1
M  V30 28 1 34 4
M  V30 29 1 34 31
M  V30 30 1 35 19
M  V30 31 1 35 21
M  V30 32 1 35 31
M  V30 33 1 36 19
M  V30 34 1 36 29
M  V30 35 1 37 3
M  V30 36 1 37 11
M  V30 37 1 37 18
M  V30 38 1 37 26
M  V30 39 1 38 5
M  V30 40 2 38 15
M  V30 41 1 38 30
M  V30 42 1 39 1
M  V30 43 1 40 1
M  V30 44 1 41 2
M  V30 45 1 4 42 CFG=1
M  V30 46 1 6 43 CFG=3
M  V30 47 1 44 7
M  V30 48 1 45 7
M  V30 49 1 46 7
M  V30 50 1 47 8
M  V30 51 1 48 10
M  V30 52 1 49 11
M  V30 53 1 50 11
M  V30 54 1 51 12
M  V30 55 1 52 12
M  V30 56 1 53 12
M  V30 57 1 54 13
M  V30 58 1 55 13
M  V30 59 1 56 14
M  V30 60 1 57 14
M  V30 61 1 58 17
M  V30 62 1 19 59 CFG=3
M  V30 63 1 60 20
M  V30 64 1 61 21
M  V30 65 1 62 21
M  V30 66 1 63 22
M  V30 67 1 64 22
M  V30 68 1 65 24
M  V30 69 1 66 24
M  V30 70 1 67 24
M  V30 71 1 68 25
M  V30 72 1 69 25
M  V30 73 1 70 26
M  V30 74 1 71 26
M  V30 75 1 27 72 CFG=1
M  V30 76 1 28 73 CFG=3
M  V30 77 1 74 29
M  V30 78 1 75 29
M  V30 79 1 31 76 CFG=3
M  V30 80 1 77 32
M  V30 81 1 78 32
M  V30 82 1 79 33
M  V30 83 1 80 34
M  V30 84 1 81 34
M  V30 85 1 35 82 CFG=1
M  V30 86 1 83 36
M  V30 87 1 84 36
M  V30 88 1 85 20
M  V30 END BOND
M  V30 END CTAB
M  END
>  <i_epik_Tot_Q>  (1) 
0

>  <i_epik_Tot_abs_Q>  (1) 
2

>  <i_i_glide_confnum>  (1) 
1012

>  <i_i_glide_lignum>  (1) 
234

>  <i_i_glide_posenum>  (1) 
191

>  <i_i_glide_rotatable_bonds>  (1) 
10

>  <i_lp_mmshare_version>  (1) 
72125

>  <i_m_source_file_index>  (1) 
91

>  <i_f3d_flags>  (1) 
0

>  <num_sample>  (1) 
100

>  <b_lp_Chiralities_Consistent>  (1) 
1

>  <r_epik_Charging_Adjusted_Penalty>  (1) 
1.3235823108087639

>  <r_epik_Ionization_Penalty>  (1) 
0.58520961668590687

>  <r_epik_Ionization_Penalty_Charging>  (1) 
0.5818654171532841

>  <r_epik_Ionization_Penalty_Neutral>  (1) 
0.0033441995326227757

>  <r_epik_State_Penalty>  (1) 
0.74171689365547977

>  <r_glide_ring_energy>  (1) 
0.35261698705854638

>  <r_i_docking_score>  (1) 
-5.0934450762920909

>  <r_i_glide_ecoul>  (1) 
-0.39766500413491968

>  <r_i_glide_eff_state_penalty>  (1) 
0.74171689365547977

>  <r_i_glide_einternal>  (1) 
9.959633757647369

>  <r_i_glide_emodel>  (1) 
-12.037605423446877

>  <r_i_glide_emodel_strain>  (1) 
6.0579858237013724

>  <r_i_glide_energy>  (1) 
-11.828616257791024

>  <r_i_glide_erotb>  (1) 
0.42002339013477186

>  <r_i_glide_esite>  (1) 
-0.0098126092043514593

>  <r_i_glide_evdw>  (1) 
-11.430951253656104

>  <r_i_glide_gscore>  (1) 
-5.8351619699475705

>  <r_i_glide_gscore_strain>  (1) 
0.5144964559253431

>  <r_i_glide_hbond>  (1) 
-0.00026898241236821089

>  <r_i_glide_ligand_efficiency>  (1) 
-0.13403802832347608

>  <r_i_glide_ligand_efficiency_ln>  (1) 
-1.0982965924222527

>  <r_i_glide_ligand_efficiency_sa>  (1) 
-0.45063255479934955

>  <r_i_glide_lipo>  (1) 
-5.0594476858401221

>  <r_i_glide_metal>  (1) 
-0

>  <r_i_glide_rewards>  (1) 
-1.0689552252478005

>  <r_lp_Energy>  (1) 
50.269594999999995

>  <s_epik_Chemistry_Notes>  (1) 
This compound has a N-S or N-O group and may undergo hydrolysis at high or low pH.

>  <s_epik_cmdline>  (1) 
J2VwaWtfcHl0aG9uJywgJy1waHQnLCAnMS4wJywgJy1waCcsICc3LjQnLCAnLXRuJywgJzgnLCAnLW1hJywgJzUwMCcsICctaW1hZScsICc8aW5maWxlLm1hZT4nLCAnLW9tYWUnLCAnPG91dGZpbGUubWFlPic=

>  <s_epik_input>  (1) 
RkMoRikoW0NIMl0xKVtDSDJdW0NIMl1bQ0BIXShbQ0BASF0xMilbQ0BIXShbQ0gyXVtDQEhdKFtDSDJdW0NIMl0yKUMoW0NIM10pKFtDSDNdKU9bQ0gzXSlbTkhdTjNbQ0gyXVtDSDJdW0NIMl1bQ0BIXShbQ0gyXTMpL1tDSF09W0NIXS9bQ0BASF0oW0NIMl1bQ0BdNChbT0hdKUMoPU8pW09IXSlbQ0gyXVtDQEBIXTRbTkhdW09IXQ==

>  <s_glide_docking_method>  (1) 
confgen

>  <s_i_glide_gridfile>  (1) 
gpcr_5ht2c_6bqh_protein_autoprepared_prepared

>  <s_lp_Force_Field>  (1) 
S-OPLS

>  <s_lp_Variant>  (1) 
DiffSBDD_90_num_sample_100-6

>  <s_m_source_file>  (1) 
generated__ligand_DiffSBDD_2026-05-06_prepared.sdf

>  <GenAI_Model>  (1) 
DiffSBDD

>  <Protein>  (1) 
GPCR_5HT2C

$$$$
DiffSBDD_17_num_sample_100
     RDKit          3D

  0  0  0  0  0  0  0  0  0  0999 V3000
M  V30 BEGIN CTAB
M  V30 COUNTS 106 113 0 0 1
M  V30 BEGIN ATOM
M  V30 1 C 41.292386 28.729567 67.943416 0
M  V30 2 O 41.796962 32.459259 67.337087 0
M  V30 3 C 35.493124 32.459423 60.762755 0
M  V30 4 C 36.754386 35.957487 62.244058 0
M  V30 5 C 37.517418 36.656510 61.368350 0
M  V30 6 C 40.610469 34.469134 61.726945 0 CFG=1
M  V30 7 C 41.355859 29.983335 67.065031 0 CFG=1
M  V30 8 O 41.865777 33.927926 61.930779 0
M  V30 9 C 38.543411 29.224354 53.956257 0
M  V30 10 O 41.091925 36.275801 63.055307 0
M  V30 11 C 36.700625 34.420781 58.253716 0 CFG=1
M  V30 12 O 35.685550 31.468429 61.451554 0
M  V30 13 C 37.699359 29.624462 59.422239 0
M  V30 14 C 37.868127 36.226301 59.949368 0
M  V30 15 C 36.457870 33.692164 60.801157 0 CFG=2
M  V30 16 C 39.138828 27.393379 55.380666 0 CFG=2
M  V30 17 C 42.044913 31.147516 67.847364 0 CFG=1
M  V30 18 N 38.677082 30.510024 53.724257 0
M  V30 19 C 36.078884 34.530543 59.600596 0 CFG=1
M  V30 20 C 39.542988 32.545523 62.527783 0 CFG=2
M  V30 21 C 39.175421 31.607851 60.100824 0
M  V30 22 C 39.514690 30.791788 54.797229 0
M  V30 23 S 37.984309 26.633690 54.090730 0
M  V30 24 N 38.321042 28.621123 58.579785 0
M  V30 25 C 38.533873 32.193245 61.374490 0 CFG=2
M  V30 26 C 41.210983 32.481118 65.051275 0 CFG=2
M  V30 27 C 43.542917 30.943368 68.156989 0
M  V30 28 C 37.797080 28.224146 53.261471 0
M  V30 29 C 41.934208 32.538846 61.693938 0
M  V30 30 N 39.851337 29.733687 55.572156 0
M  V30 31 N 39.818362 25.623225 58.253218 0
M  V30 32 C 34.267318 32.547208 59.853537 0
M  V30 33 O 39.714132 33.956324 62.651257 0
M  V30 34 C 42.318264 32.687476 66.044722 0 CFG=1
M  V30 35 O 39.867054 24.791070 57.066423 0
M  V30 36 C 41.145138 30.052129 64.449424 0
M  V30 37 C 41.511337 31.472903 63.968004 0 CFG=1
M  V30 38 C 41.815985 33.853879 65.229804 0
M  V30 39 O 40.640567 35.854965 61.746000 0
M  V30 40 C 36.746578 35.726920 59.081573 0 CFG=2
M  V30 41 C 41.946760 29.582360 65.683024 0
M  V30 42 C 40.915733 31.800332 62.572258 0 CFG=1
M  V30 43 O 37.878253 33.392122 60.885826 0
M  V30 44 O 40.189726 28.213158 59.860640 0
M  V30 45 C 37.996550 33.886083 57.707234 0
M  V30 46 C 39.468004 28.016020 58.884287 0
M  V30 47 C 36.078284 34.587761 61.980055 0
M  V30 48 C 38.582906 27.174839 56.794588 0 CFG=1
M  V30 49 C 39.758646 27.000078 57.785961 0 CFG=2
M  V30 50 C 38.190954 31.025920 59.078864 0
M  V30 51 C 37.635610 28.231274 57.387654 0
M  V30 52 N 39.160192 28.765800 54.952867 0
M  V30 53 O 37.132947 28.421350 52.254446 0
M  V30 54 H 42.275393 28.289917 68.108287 0
M  V30 55 H 40.870439 28.946669 68.923251 0
M  V30 56 H 40.666261 27.975649 67.461395 0
M  V30 57 H 36.579864 36.379443 63.223579 0
M  V30 58 H 37.929765 37.603734 61.685181 0
M  V30 59 H 40.283211 34.227488 60.721546 0
M  V30 60 H 40.316709 30.277006 66.919372 0
M  V30 61 H 40.284709 36.230953 63.545454 0
M  V30 62 H 35.881674 34.094565 57.624015 0
M  V30 63 H 34.528296 32.750558 58.820382 0
M  V30 64 H 37.894201 29.401052 60.456480 0
M  V30 65 H 36.619128 29.574681 59.286647 0
M  V30 66 H 38.263526 37.108350 59.453650 0
M  V30 67 H 38.675325 35.508596 59.985357 0
M  V30 68 H 40.128194 26.956811 55.232371 0
M  V30 69 H 41.552098 31.184745 68.820061 0
M  V30 70 H 35.026572 34.806618 59.609653 0
M  V30 71 H 39.066994 32.263728 63.451611 0
M  V30 72 H 39.736166 32.421295 59.651138 0
M  V30 73 H 39.888781 30.814877 60.300017 0
M  V30 74 H 39.877277 31.789219 55.009060 0
M  V30 75 H 37.904332 31.429062 61.803826 0
M  V30 76 H 40.206505 32.388354 65.455959 0
M  V30 77 H 43.708296 30.043714 68.749440 0
M  V30 78 H 44.157862 30.854435 67.262087 0
M  V30 79 H 43.926667 31.785438 68.733374 0
M  V30 80 H 41.740132 32.324914 60.654119 0
M  V30 81 H 42.959991 32.212486 61.861230 0
M  V30 82 H 38.982212 25.295606 58.716685 0
M  V30 83 H 33.734708 31.621454 59.851731 0
M  V30 84 H 33.578302 33.313400 60.206177 0
M  V30 85 H 43.326696 32.331725 65.850741 0
M  V30 86 H 39.064641 25.012343 56.621082 0
M  V30 87 H 40.072038 29.961759 64.624915 0
M  V30 88 H 41.365795 29.343773 63.649460 0
M  V30 89 H 42.594193 31.448429 63.849280 0
M  V30 90 H 41.215443 34.606228 65.736023 0
M  V30 91 H 42.463313 34.224584 64.438260 0
M  V30 92 H 36.088588 36.521937 58.734251 0
M  V30 93 H 41.967110 28.492746 65.619712 0
M  V30 94 H 42.993361 29.866119 65.596545 0
M  V30 95 H 40.780315 30.819286 62.126560 0
M  V30 96 H 38.791597 33.941353 58.442986 0
M  V30 97 H 37.860098 32.883341 57.318774 0
M  V30 98 H 38.267058 34.471415 56.831140 0
M  V30 99 H 35.066022 34.820813 61.814808 0
M  V30 100 H 35.867403 34.021485 62.871488 0
M  V30 101 H 37.964019 26.274317 56.759921 0
M  V30 102 H 40.723128 27.262619 57.350896 0
M  V30 103 H 37.319847 31.666172 58.994236 0
M  V30 104 H 38.659222 31.018389 58.091419 0
M  V30 105 H 36.701543 27.769284 57.701338 0
M  V30 106 H 37.418921 29.094447 56.760398 0
M  V30 END ATOM
M  V30 BEGIN BOND
M  V30 1 2 5 4
M  V30 2 1 7 1
M  V30 3 1 8 6
M  V30 4 2 12 3
M  V30 5 1 14 5
M  V30 6 1 15 3
M  V30 7 1 17 2
M  V30 8 1 17 7
M  V30 9 2 18 9
M  V30 10 1 19 11
M  V30 11 1 19 15
M  V30 12 1 22 18
M  V30 13 1 23 16
M  V30 14 1 24 13
M  V30 15 1 25 20
M  V30 16 1 25 21
M  V30 17 1 27 17
M  V30 18 1 28 9
M  V30 19 1 28 23
M  V30 20 1 29 8
M  V30 21 2 30 22
M  V30 22 1 32 3
M  V30 23 1 33 6
M  V30 24 1 33 20
M  V30 25 1 34 2
M  V30 26 1 34 26
M  V30 27 1 35 31
M  V30 28 1 37 26
M  V30 29 1 37 36
M  V30 30 1 38 26
M  V30 31 1 38 34
M  V30 32 1 39 6
M  V30 33 1 39 10
M  V30 34 1 40 11
M  V30 35 1 40 14
M  V30 36 1 40 19
M  V30 37 1 41 7
M  V30 38 1 41 36
M  V30 39 1 42 20
M  V30 40 1 42 29
M  V30 41 1 42 37
M  V30 42 1 15 43 CFG=3
M  V30 43 1 43 25
M  V30 44 1 45 11
M  V30 45 1 46 24
M  V30 46 2 46 44
M  V30 47 1 47 4
M  V30 48 1 47 15
M  V30 49 1 48 16
M  V30 50 1 49 31
M  V30 51 1 49 46
M  V30 52 1 49 48
M  V30 53 1 50 13
M  V30 54 1 50 21
M  V30 55 1 51 24
M  V30 56 1 51 48
M  V30 57 1 52 9
M  V30 58 1 52 16
M  V30 59 1 52 30
M  V30 60 2 53 28
M  V30 61 1 54 1
M  V30 62 1 55 1
M  V30 63 1 56 1
M  V30 64 1 57 4
M  V30 65 1 58 5
M  V30 66 1 6 59 CFG=3
M  V30 67 1 7 60 CFG=3
M  V30 68 1 61 10
M  V30 69 1 11 62 CFG=3
M  V30 70 1 63 32
M  V30 71 1 64 13
M  V30 72 1 65 13
M  V30 73 1 66 14
M  V30 74 1 67 14
M  V30 75 1 16 68 CFG=1
M  V30 76 1 17 69 CFG=1
M  V30 77 1 19 70 CFG=3
M  V30 78 1 20 71 CFG=1
M  V30 79 1 72 21
M  V30 80 1 73 21
M  V30 81 1 74 22
M  V30 82 1 25 75 CFG=1
M  V30 83 1 26 76 CFG=1
M  V30 84 1 77 27
M  V30 85 1 78 27
M  V30 86 1 79 27
M  V30 87 1 80 29
M  V30 88 1 81 29
M  V30 89 1 82 31
M  V30 90 1 83 32
M  V30 91 1 84 32
M  V30 92 1 34 85 CFG=3
M  V30 93 1 86 35
M  V30 94 1 87 36
M  V30 95 1 88 36
M  V30 96 1 37 89 CFG=3
M  V30 97 1 90 38
M  V30 98 1 91 38
M  V30 99 1 40 92 CFG=3
M  V30 100 1 93 41
M  V30 101 1 94 41
M  V30 102 1 42 95 CFG=3
M  V30 103 1 96 45
M  V30 104 1 97 45
M  V30 105 1 98 45
M  V30 106 1 99 47
M  V30 107 1 100 47
M  V30 108 1 48 101 CFG=3
M  V30 109 1 49 102 CFG=3
M  V30 110 1 103 50
M  V30 111 1 104 50
M  V30 112 1 105 51
M  V30 113 1 106 51
M  V30 END BOND
M  V30 END CTAB
M  END
>  <i_epik_Tot_Q>  (1) 
0

>  <i_epik_Tot_abs_Q>  (1) 
0

>  <i_i_glide_confnum>  (1) 
4175

>  <i_i_glide_lignum>  (1) 
39

>  <i_i_glide_posenum>  (1) 
244

>  <i_i_glide_rotatable_bonds>  (1) 
14

>  <i_lp_mmshare_version>  (1) 
72125

>  <i_m_source_file_index>  (1) 
18

>  <i_f3d_flags>  (1) 
0

>  <num_sample>  (1) 
100

>  <b_lp_Chiralities_Consistent>  (1) 
1

>  <r_epik_Charging_Adjusted_Penalty>  (1) 
0

>  <r_epik_Ionization_Penalty>  (1) 
0.00082092263498994861

>  <r_epik_Ionization_Penalty_Charging>  (1) 
0

>  <r_epik_Ionization_Penalty_Neutral>  (1) 
0.00082092263498994861

>  <r_epik_State_Penalty>  (1) 
-0

>  <r_glide_ring_energy>  (1) 
2.4013288792846437

>  <r_i_docking_score>  (1) 
-5.0808776645077263

>  <r_i_glide_ecoul>  (1) 
-2.390834836747306

>  <r_i_glide_eff_state_penalty>  (1) 
-0

>  <r_i_glide_einternal>  (1) 
52.721497715852458

>  <r_i_glide_emodel>  (1) 
-7.1567941499065348

>  <r_i_glide_emodel_strain>  (1) 
16.344492283866515

>  <r_i_glide_energy>  (1) 
-43.211448707238318

>  <r_i_glide_erotb>  (1) 
0.21750603727348183

>  <r_i_glide_esite>  (1) 
-0.0052564808658644522

>  <r_i_glide_evdw>  (1) 
-40.820613870491009

>  <r_i_glide_gscore>  (1) 
-5.0808776645077263

>  <r_i_glide_gscore_strain>  (1) 
3.0861230709666287

>  <r_i_glide_hbond>  (1) 
-0.32000000000000001

>  <r_i_glide_ligand_efficiency>  (1) 
-0.095865616311466534

>  <r_i_glide_ligand_efficiency_ln>  (1) 
-1.0222493472977066

>  <r_i_glide_ligand_efficiency_sa>  (1) 
-0.36009864887038506

>  <r_i_glide_lipo>  (1) 
-3.2820846370290071

>  <r_i_glide_metal>  (1) 
-0

>  <r_i_glide_rewards>  (1) 
-2.3775097358163184

>  <r_lp_Energy>  (1) 
36.857391

>  <r_lp_tautomer_probability>  (1) 
1

>  <s_epik_Chemistry_Notes>  (1) 
This compound contains an acetal/aminal-like group ( X-CH(R)-Y where X, Y are N, S, or O) that may be acid/base labile, releasing an aldehyde. This compound has a N-S or N-O group and may undergo hydrolysis at high or low pH.

>  <s_epik_cmdline>  (1) 
J2VwaWtfcHl0aG9uJywgJy1waHQnLCAnMS4wJywgJy1waCcsICc3LjQnLCAnLXRuJywgJzgnLCAnLW1hJywgJzUwMCcsICctaW1hZScsICc8aW5maWxlLm1hZT4nLCAnLW9tYWUnLCAnPG91dGZpbGUubWFlPic=

>  <s_epik_input>  (1) 
W0NAQEhdMTJbQ0BASF0oW0NIMl0yKU9bQ0BIXShbQ0gzXSlbQ0BIXShbQ0gzXSlbQ0gyXVtDSDJdW0NASF0xW0NASF0oW0NIMl1PW0NAQEhdM09bT0hdKVtDQEBIXShPMylbQ0BASF0oT1tDQEBdNChDKFtPSF0pPVtDSDJdKVtDSDJdW0NIXT1bQ0hdW0NIMl1bQ0BIXShbQ0BIXTQ1KVtDSF01W0NIM10pW0NIMl1bQ0gyXVtDSDJdTjZDKD1PKVtDQEBIXShbTkhdW09IXSlbQ0BASF0oW0NIMl02KVtDQEBIXShTQzc9TyluKGM3OCluW2NIXW44

>  <s_glide_docking_method>  (1) 
confgen

>  <s_i_glide_gridfile>  (1) 
gpcr_5ht2c_6bqh_protein_autoprepared_prepared

>  <s_lp_Force_Field>  (1) 
S-OPLS

>  <s_lp_Variant>  (1) 
DiffSBDD_17_num_sample_100-1

>  <s_m_source_file>  (1) 
generated__ligand_DiffSBDD_2026-05-06_prepared.sdf

>  <GenAI_Model>  (1) 
DiffSBDD

>  <Protein>  (1) 
GPCR_5HT2C

$$$$
DiffSBDD_39_num_sample_100
     RDKit          3D

  0  0  0  0  0  0  0  0  0  0999 V3000
M  V30 BEGIN CTAB
M  V30 COUNTS 61 64 0 0 1
M  V30 BEGIN ATOM
M  V30 1 C 39.592961 31.357831 62.315880 0
M  V30 2 C 38.350840 32.890500 55.527336 0
M  V30 3 C 36.280840 33.581126 61.222254 0
M  V30 4 C 38.629373 33.238384 57.004085 0
M  V30 5 C 38.644422 32.034912 60.065244 0
M  V30 6 C 38.629614 30.447972 56.034459 0
M  V30 7 N 38.003370 26.972797 54.596404 0
M  V30 8 O 35.960219 32.369786 61.247433 0 CHG=-1
M  V30 9 C 38.488933 28.993091 55.829031 0
M  V30 10 C 39.815494 33.710644 61.656421 0
M  V30 11 O 35.852230 34.422156 62.029720 0
M  V30 12 C 40.474220 33.975614 62.876866 0
M  V30 13 C 40.682717 32.946661 63.811152 0
M  V30 14 N 37.981753 33.045102 59.419525 0
M  V30 15 C 40.451890 30.532649 64.559883 0
M  V30 16 C 38.168546 35.252885 60.566367 0
M  V30 17 C 37.955640 24.738042 55.606007 0
M  V30 18 C 37.553953 32.824554 58.022537 0
M  V30 19 C 42.785618 29.669206 63.922625 0
M  V30 20 C 38.738825 28.152141 57.031524 0
M  V30 21 C 37.223370 34.114441 60.113703 0 CFG=2
M  V30 22 C 38.300664 24.216752 57.052911 0
M  V30 23 O 43.607373 28.787394 64.253605 0 CHG=-1
M  V30 24 C 39.358944 32.384621 61.370746 0
M  V30 25 S 38.667477 25.621436 58.188252 0
M  V30 26 C 38.518190 26.717707 56.901065 0
M  V30 27 O 39.112832 28.639595 58.094021 0
M  V30 28 C 40.242822 31.639840 63.534367 0
M  V30 29 Cl 37.867490 29.197291 53.175524 0
M  V30 30 C 41.302747 29.333015 64.087021 0
M  V30 31 C 38.135208 28.351592 54.656002 0
M  V30 32 C 38.179163 31.421169 55.223891 0
M  V30 33 C 39.627101 34.835132 60.664981 0
M  V30 34 O 38.660342 30.879625 59.651797 0
M  V30 35 C 38.176342 26.213803 55.733201 0
M  V30 36 O 43.067424 30.797400 63.468990 0
M  V30 37 H 39.255500 30.351633 62.109714 0
M  V30 38 H 39.189351 33.221502 54.930098 0
M  V30 39 H 37.467616 33.425304 55.180731 0
M  V30 40 H 39.612384 32.877800 57.303539 0
M  V30 41 H 38.667279 34.316683 57.039731 0
M  V30 42 H 39.132574 30.760836 56.934865 0
M  V30 43 H 40.821008 34.975268 63.096286 0
M  V30 44 H 41.183395 33.161667 64.743708 0
M  V30 45 H 40.890649 30.953055 65.466220 0
M  V30 46 H 39.467338 30.173278 64.856782 0
M  V30 47 H 37.865702 35.684792 61.520878 0
M  V30 48 H 38.096900 36.073481 59.854145 0
M  V30 49 H 36.919138 24.527773 55.341229 0
M  V30 50 H 38.613957 24.310457 54.849682 0
M  V30 51 H 36.667370 33.404767 57.789848 0
M  V30 52 H 37.228112 31.793455 57.887349 0
M  V30 53 H 36.520478 34.597754 59.436119 0
M  V30 54 H 39.209774 23.621438 57.039711 0
M  V30 55 H 37.497251 23.606071 57.466351 0
M  V30 56 H 41.221582 28.530352 64.820521 0
M  V30 57 H 40.921822 28.934259 63.146600 0
M  V30 58 H 37.662134 31.198808 54.322978 0
M  V30 59 H 40.223418 35.693589 60.975781 0
M  V30 60 H 40.033851 34.544113 59.697603 0
M  V30 61 H 37.739392 26.529272 53.727086 0
M  V30 END ATOM
M  V30 BEGIN BOND
M  V30 1 1 4 2
M  V30 2 1 8 3
M  V30 3 1 9 6
M  V30 4 2 11 3
M  V30 5 1 12 10
M  V30 6 2 13 12
M  V30 7 1 14 5
M  V30 8 1 18 4
M  V30 9 1 18 14
M  V30 10 1 20 9
M  V30 11 1 21 3
M  V30 12 1 21 14
M  V30 13 1 21 16
M  V30 14 1 22 17
M  V30 15 1 23 19
M  V30 16 1 24 1
M  V30 17 1 24 5
M  V30 18 2 24 10
M  V30 19 1 25 22
M  V30 20 1 26 20
M  V30 21 1 26 25
M  V30 22 2 27 20
M  V30 23 2 28 1
M  V30 24 1 28 13
M  V30 25 1 28 15
M  V30 26 1 30 15
M  V30 27 1 30 19
M  V30 28 1 31 7
M  V30 29 2 31 9
M  V30 30 1 31 29
M  V30 31 1 32 2
M  V30 32 2 32 6
M  V30 33 1 33 10
M  V30 34 1 33 16
M  V30 35 2 34 5
M  V30 36 1 35 7
M  V30 37 1 35 17
M  V30 38 2 35 26
M  V30 39 2 36 19
M  V30 40 1 37 1
M  V30 41 1 38 2
M  V30 42 1 39 2
M  V30 43 1 40 4
M  V30 44 1 41 4
M  V30 45 1 42 6
M  V30 46 1 43 12
M  V30 47 1 44 13
M  V30 48 1 45 15
M  V30 49 1 46 15
M  V30 50 1 47 16
M  V30 51 1 48 16
M  V30 52 1 49 17
M  V30 53 1 50 17
M  V30 54 1 51 18
M  V30 55 1 52 18
M  V30 56 1 21 53 CFG=3
M  V30 57 1 54 22
M  V30 58 1 55 22
M  V30 59 1 56 30
M  V30 60 1 57 30
M  V30 61 1 58 32
M  V30 62 1 59 33
M  V30 63 1 60 33
M  V30 64 1 61 7
M  V30 END BOND
M  V30 END CTAB
M  END
>  <i_epik_Tot_Q>  (1) 
-2

>  <i_epik_Tot_abs_Q>  (1) 
2

>  <i_i_glide_confnum>  (1) 
242

>  <i_i_glide_lignum>  (1) 
98

>  <i_i_glide_posenum>  (1) 
144

>  <i_i_glide_rotatable_bonds>  (1) 
9

>  <i_lp_mmshare_version>  (1) 
72125

>  <i_m_source_file_index>  (1) 
40

>  <i_f3d_flags>  (1) 
0

>  <num_sample>  (1) 
100

>  <b_lp_Chiralities_Consistent>  (1) 
1

>  <r_epik_Charging_Adjusted_Penalty>  (1) 
2.4833595310622814

>  <r_epik_Ionization_Penalty>  (1) 
1.1966221344959846

>  <r_epik_Ionization_Penalty_Charging>  (1) 
1.1966221333468745

>  <r_epik_Ionization_Penalty_Neutral>  (1) 
1.1491101627543943e-09

>  <r_epik_State_Penalty>  (1) 
1.2867373977154066

>  <r_glide_ring_energy>  (1) 
0

>  <r_i_docking_score>  (1) 
-5.0805862650636797

>  <r_i_glide_ecoul>  (1) 
-1.7911027961211985

>  <r_i_glide_eff_state_penalty>  (1) 
1.2867373977154066

>  <r_i_glide_einternal>  (1) 
19.951489190444857

>  <r_i_glide_emodel>  (1) 
-48.132253616409926

>  <r_i_glide_emodel_strain>  (1) 
1.5305429930648273

>  <r_i_glide_energy>  (1) 
-43.21165837342555

>  <r_i_glide_erotb>  (1) 
0.44176053004123106

>  <r_i_glide_esite>  (1) 
-0.032003901031838804

>  <r_i_glide_evdw>  (1) 
-41.420555577304349

>  <r_i_glide_gscore>  (1) 
-6.3673236627790866

>  <r_i_glide_gscore_strain>  (1) 
0

>  <r_i_glide_hbond>  (1) 
0

>  <r_i_glide_ligand_efficiency>  (1) 
-0.14112739625176887

>  <r_i_glide_ligand_efficiency_ln>  (1) 
-1.1084466614585429

>  <r_i_glide_ligand_efficiency_sa>  (1) 
-0.46599239524926517

>  <r_i_glide_lipo>  (1) 
-3.4470780539249821

>  <r_i_glide_metal>  (1) 
-0

>  <r_i_glide_rewards>  (1) 
-0.99030903958009897

>  <r_lp_Energy>  (1) 
53.030488999999996

>  <s_epik_cmdline>  (1) 
J2VwaWtfcHl0aG9uJywgJy1waHQnLCAnMS4wJywgJy1waCcsICc3LjQnLCAnLXRuJywgJzgnLCAnLW1hJywgJzUwMCcsICctaW1hZScsICc8aW5maWxlLm1hZT4nLCAnLW9tYWUnLCAnPG91dGZpbGUubWFlPic=

>  <s_epik_input>  (1) 
W09IXUMoPU8pW0NIMl1bQ0gyXWMoW2NIXVtjSF0xKVtjSF1jKGMxMilDKD1PKU4oW0NAQEhdKEMoPU8pW09IXSlbQ0gyXVtDSDJdMilbQ0gyXVtDSDJdW0NIMl1cW0NIXT1bQ0hdXGMoYzNbT0hdKWMoQ2wpbmMoYzM0KVtDSDJdW0NIMl1TNA==

>  <s_glide_docking_method>  (1) 
confgen

>  <s_i_glide_gridfile>  (1) 
gpcr_5ht2c_6bqh_protein_autoprepared_prepared

>  <s_lp_Force_Field>  (1) 
S-OPLS

>  <s_lp_Variant>  (1) 
DiffSBDD_39_num_sample_100-5

>  <s_m_source_file>  (1) 
generated__ligand_DiffSBDD_2026-05-06_prepared.sdf

>  <GenAI_Model>  (1) 
DiffSBDD

>  <Protein>  (1) 
GPCR_5HT2C

$$$$
DiffSBDD_90_num_sample_100
     RDKit          3D

  0  0  0  0  0  0  0  0  0  0999 V3000
M  V30 BEGIN CTAB
M  V30 COUNTS 84 87 0 0 1
M  V30 BEGIN ATOM
M  V30 1 C 39.621999 27.784747 59.611734 0
M  V30 2 O 37.647361 37.376313 61.308315 0
M  V30 3 F 38.019361 32.206384 53.917568 0
M  V30 4 C 38.688328 26.147252 55.749484 0 CFG=1
M  V30 5 C 36.363228 33.827482 61.219976 0 CFG=2
M  V30 6 C 38.644400 33.238953 60.722124 0 CFG=1
M  V30 7 C 36.555169 23.714234 55.136736 0
M  V30 8 C 40.558783 31.674958 61.212887 0
M  V30 9 C 38.250432 24.898285 56.578337 0
M  V30 10 N 37.067382 36.167735 61.861224 0
M  V30 11 C 39.483060 31.567469 55.610535 0
M  V30 12 C 39.446208 24.272964 57.296265 0
M  V30 13 C 37.520181 32.922707 61.686544 0
M  V30 14 C 38.499323 34.730863 60.489288 0
M  V30 15 O 35.554791 31.942080 59.990085 0
M  V30 16 N 39.039773 28.946704 58.933366 0
M  V30 17 C 40.049372 32.909104 61.181333 0
M  V30 18 F 37.468315 32.614968 55.956206 0
M  V30 19 C 38.041101 29.268124 54.480243 0 CFG=1
M  V30 20 N 38.689730 28.881347 57.528711 0
M  V30 21 C 40.193720 30.459911 54.825816 0
M  V30 22 C 39.759466 30.145762 59.306444 0
M  V30 23 O 37.867628 23.892834 55.643233 0
M  V30 24 C 37.177720 25.133431 57.663614 0
M  V30 25 C 39.691306 28.003661 61.139031 0
M  V30 26 C 37.227798 30.383539 55.177216 0
M  V30 27 C 39.796990 30.427213 60.818464 0 CFG=1
M  V30 28 C 37.058679 35.155095 60.802450 0 CFG=1
M  V30 29 C 37.427355 26.931323 55.435592 0
M  V30 30 O 34.921018 33.972077 59.321922 0 CHG=-1
M  V30 31 C 39.673151 28.508949 56.479274 0 CFG=1
M  V30 32 C 40.419904 29.257281 61.541146 0
M  V30 33 O 35.450505 34.032688 62.253433 0
M  V30 34 C 39.846757 26.988899 56.373265 0
M  V30 35 C 39.460605 29.128773 55.046895 0 CFG=1
M  V30 36 C 37.394014 27.898478 54.251933 0
M  V30 37 C 38.025852 31.713948 55.155117 0
M  V30 38 C 35.548741 33.191605 60.071189 0
M  V30 39 H 39.031176 26.900901 59.392779 0
M  V30 40 H 40.629122 27.615814 59.229783 0
M  V30 41 H 38.422253 37.050199 60.877190 0
M  V30 42 H 39.072442 25.775385 54.798959 0
M  V30 43 H 38.439463 32.722799 59.781924 0
M  V30 44 H 36.506599 22.674647 54.820185 0
M  V30 45 H 35.749544 23.859526 55.852749 0
M  V30 46 H 36.378335 24.323957 54.251757 0
M  V30 47 H 41.575865 31.535610 61.544673 0
M  V30 48 H 37.661468 35.948613 62.648429 0
M  V30 49 H 39.992206 32.516366 55.488186 0
M  V30 50 H 39.514854 31.353978 56.675108 0
M  V30 51 H 39.709306 24.821437 58.200061 0
M  V30 52 H 39.276469 23.233391 57.574387 0
M  V30 53 H 40.303676 24.325348 56.649386 0
M  V30 54 H 37.254494 31.870889 61.751041 0
M  V30 55 H 37.882326 33.213523 62.652916 0
M  V30 56 H 38.682335 34.822587 59.453507 0
M  V30 57 H 39.245438 35.324671 61.018625 0
M  V30 58 H 40.665900 33.740725 61.494024 0
M  V30 59 H 38.160511 29.645110 53.462429 0
M  V30 60 H 37.809177 28.386349 57.408887 0
M  V30 61 H 40.178006 30.717693 53.767151 0
M  V30 62 H 41.251404 30.385419 55.053390 0
M  V30 63 H 39.289817 30.986017 58.799836 0
M  V30 64 H 40.774123 30.021112 58.935421 0
M  V30 65 H 37.492378 25.924456 58.336055 0
M  V30 66 H 36.202164 25.431981 57.283115 0
M  V30 67 H 37.036087 24.230714 58.253033 0
M  V30 68 H 38.694195 27.980770 61.574625 0
M  V30 69 H 40.267352 27.221450 61.603985 0
M  V30 70 H 36.274655 30.530719 54.669627 0
M  V30 71 H 36.967317 30.118557 56.200114 0
M  V30 72 H 38.769443 30.509337 61.159735 0
M  V30 73 H 36.586234 35.602150 59.925418 0
M  V30 74 H 36.667305 26.217082 55.176746 0
M  V30 75 H 37.067817 27.349687 56.369115 0
M  V30 76 H 40.637593 28.878502 56.825464 0
M  V30 77 H 41.466914 29.153816 61.270652 0
M  V30 78 H 40.373331 29.394488 62.623061 0
M  V30 79 H 34.746741 34.551029 61.891233 0
M  V30 80 H 40.747477 26.789541 55.793254 0
M  V30 81 H 40.112321 26.656428 57.364619 0
M  V30 82 H 39.867394 28.411191 54.345154 0
M  V30 83 H 37.867067 27.414775 53.395540 0
M  V30 84 H 36.358988 28.021500 53.945346 0
M  V30 END ATOM
M  V30 BEGIN BOND
M  V30 1 1 9 4
M  V30 2 1 10 2
M  V30 3 1 12 9
M  V30 4 1 13 5
M  V30 5 1 13 6
M  V30 6 1 14 6
M  V30 7 1 16 1
M  V30 8 1 17 6
M  V30 9 2 17 8
M  V30 10 1 20 16
M  V30 11 1 21 11
M  V30 12 1 22 16
M  V30 13 1 23 7
M  V30 14 1 23 9
M  V30 15 1 24 9
M  V30 16 1 25 1
M  V30 17 1 26 19
M  V30 18 1 27 8
M  V30 19 1 27 22
M  V30 20 1 28 5
M  V30 21 1 28 10
M  V30 22 1 28 14
M  V30 23 1 29 4
M  V30 24 1 31 20
M  V30 25 1 32 25
M  V30 26 1 32 27
M  V30 27 1 5 33 CFG=1
M  V30 28 1 34 4
M  V30 29 1 34 31
M  V30 30 1 35 19
M  V30 31 1 35 21
M  V30 32 1 35 31
M  V30 33 1 36 19
M  V30 34 1 36 29
M  V30 35 1 37 3
M  V30 36 1 37 11
M  V30 37 1 37 18
M  V30 38 1 37 26
M  V30 39 1 38 5
M  V30 40 2 38 15
M  V30 41 1 38 30
M  V30 42 1 39 1
M  V30 43 1 40 1
M  V30 44 1 41 2
M  V30 45 1 4 42 CFG=3
M  V30 46 1 6 43 CFG=3
M  V30 47 1 44 7
M  V30 48 1 45 7
M  V30 49 1 46 7
M  V30 50 1 47 8
M  V30 51 1 48 10
M  V30 52 1 49 11
M  V30 53 1 50 11
M  V30 54 1 51 12
M  V30 55 1 52 12
M  V30 56 1 53 12
M  V30 57 1 54 13
M  V30 58 1 55 13
M  V30 59 1 56 14
M  V30 60 1 57 14
M  V30 61 1 58 17
M  V30 62 1 19 59 CFG=3
M  V30 63 1 60 20
M  V30 64 1 61 21
M  V30 65 1 62 21
M  V30 66 1 63 22
M  V30 67 1 64 22
M  V30 68 1 65 24
M  V30 69 1 66 24
M  V30 70 1 67 24
M  V30 71 1 68 25
M  V30 72 1 69 25
M  V30 73 1 70 26
M  V30 74 1 71 26
M  V30 75 1 27 72 CFG=1
M  V30 76 1 28 73 CFG=3
M  V30 77 1 74 29
M  V30 78 1 75 29
M  V30 79 1 31 76 CFG=1
M  V30 80 1 77 32
M  V30 81 1 78 32
M  V30 82 1 79 33
M  V30 83 1 80 34
M  V30 84 1 81 34
M  V30 85 1 35 82 CFG=3
M  V30 86 1 83 36
M  V30 87 1 84 36
M  V30 END BOND
M  V30 END CTAB
M  END
>  <i_epik_Tot_Q>  (1) 
-1

>  <i_epik_Tot_abs_Q>  (1) 
1

>  <i_i_glide_confnum>  (1) 
2007

>  <i_i_glide_lignum>  (1) 
231

>  <i_i_glide_posenum>  (1) 
127

>  <i_i_glide_rotatable_bonds>  (1) 
10

>  <i_lp_mmshare_version>  (1) 
72125

>  <i_m_source_file_index>  (1) 
91

>  <i_f3d_flags>  (1) 
0

>  <num_sample>  (1) 
100

>  <b_lp_Chiralities_Consistent>  (1) 
1

>  <r_epik_Charging_Adjusted_Penalty>  (1) 
0.43821527866000726

>  <r_epik_Ionization_Penalty>  (1) 
0.52002734918543769

>  <r_epik_Ionization_Penalty_Charging>  (1) 
0.00012691742049533285

>  <r_epik_Ionization_Penalty_Neutral>  (1) 
0.51990043176494238

>  <r_epik_State_Penalty>  (1) 
0.43808836123951195

>  <r_glide_ring_energy>  (1) 
0.35261698705849204

>  <r_i_docking_score>  (1) 
-5.0758188353357268

>  <r_i_glide_ecoul>  (1) 
2.4425023540431985

>  <r_i_glide_eff_state_penalty>  (1) 
0.43808836123951195

>  <r_i_glide_einternal>  (1) 
52.449938109530784

>  <r_i_glide_emodel>  (1) 
2.3481922922860754

>  <r_i_glide_emodel_strain>  (1) 
1.516644099040164

>  <r_i_glide_energy>  (1) 
-20.655003832630968

>  <r_i_glide_erotb>  (1) 
0.42146348941000378

>  <r_i_glide_esite>  (1) 
-0.12013049998070145

>  <r_i_glide_evdw>  (1) 
-23.097506186674167

>  <r_i_glide_gscore>  (1) 
-5.5139071965752384

>  <r_i_glide_gscore_strain>  (1) 
0

>  <r_i_glide_hbond>  (1) 
0

>  <r_i_glide_ligand_efficiency>  (1) 
-0.13357417987725598

>  <r_i_glide_ligand_efficiency_ln>  (1) 
-1.0944958563605849

>  <r_i_glide_ligand_efficiency_sa>  (1) 
-0.4490731077306756

>  <r_i_glide_lipo>  (1) 
-4.2959553433942226

>  <r_i_glide_metal>  (1) 
-0

>  <r_i_glide_rewards>  (1) 
-0.73078488638308881

>  <r_lp_Energy>  (1) 
56.361058

>  <s_epik_Chemistry_Notes>  (1) 
This compound has a N-S or N-O group and may undergo hydrolysis at high or low pH.

>  <s_epik_cmdline>  (1) 
J2VwaWtfcHl0aG9uJywgJy1waHQnLCAnMS4wJywgJy1waCcsICc3LjQnLCAnLXRuJywgJzgnLCAnLW1hJywgJzUwMCcsICctaW1hZScsICc8aW5maWxlLm1hZT4nLCAnLW9tYWUnLCAnPG91dGZpbGUubWFlPic=

>  <s_epik_input>  (1) 
RkMoRikoW0NIMl0xKVtDSDJdW0NIMl1bQ0BIXShbQ0BASF0xMilbQ0BIXShbQ0gyXVtDQEhdKFtDSDJdW0NIMl0yKUMoW0NIM10pKFtDSDNdKU9bQ0gzXSlbTkhdTjNbQ0gyXVtDSDJdW0NIMl1bQ0BIXShbQ0gyXTMpL1tDSF09W0NIXVxbQ0BASF0oW0NIMl1bQ0BdNChbT0hdKUMoPU8pW09IXSlbQ0gyXVtDQEBIXTRbTkhdW09IXQ==

>  <s_glide_docking_method>  (1) 
confgen

>  <s_i_glide_gridfile>  (1) 
gpcr_5ht2c_6bqh_protein_autoprepared_prepared

>  <s_lp_Force_Field>  (1) 
S-OPLS

>  <s_lp_Variant>  (1) 
DiffSBDD_90_num_sample_100-3

>  <s_m_source_file>  (1) 
generated__ligand_DiffSBDD_2026-05-06_prepared.sdf

>  <GenAI_Model>  (1) 
DiffSBDD

>  <Protein>  (1) 
GPCR_5HT2C

$$$$
DiffSBDD_44_num_sample_100
     RDKit          3D

  0  0  0  0  0  0  0  0  0  0999 V3000
M  V30 BEGIN CTAB
M  V30 COUNTS 58 59 0 0 1
M  V30 BEGIN ATOM
M  V30 1 C 37.510094 31.627288 54.253432 0
M  V30 2 O 39.067399 32.524817 57.926512 0 CHG=-1
M  V30 3 C 39.417079 34.316787 61.757074 0
M  V30 4 C 38.826694 30.017541 55.481613 0 CFG=1
M  V30 5 N 38.287595 31.067668 56.393890 0 CFG=2 CHG=1
M  V30 6 C 37.241727 35.199377 61.037644 0
M  V30 7 N 38.724088 31.604273 61.110302 0
M  V30 8 C 38.213650 34.063664 61.305286 0
M  V30 9 O 36.640773 32.327889 61.853283 0
M  V30 10 C 38.076916 30.196638 54.163898 0 CFG=1
M  V30 11 C 37.067453 29.065945 54.042685 0
M  V30 12 C 38.149766 30.620434 58.874912 0 CFG=1
M  V30 13 C 38.911024 30.689796 60.236096 0
M  V30 14 C 38.080084 32.236825 55.523295 0
M  V30 15 C 35.430455 32.040438 61.178096 0
M  V30 16 C 40.231073 36.624752 62.120444 0
M  V30 17 C 38.982907 31.230922 57.709438 0 CFG=2
M  V30 18 C 37.720128 32.652081 60.996503 0 CFG=2
M  V30 19 F 38.970124 38.457561 61.453510 0
M  V30 20 C 38.797221 37.192289 61.844365 0 CFG=1
M  V30 21 C 40.383684 35.109737 62.135617 0
M  V30 22 C 37.686511 29.183093 58.592430 0
M  V30 23 C 39.920982 29.580190 60.464462 0
M  V30 24 C 40.323782 30.150262 55.195929 0
M  V30 25 C 37.931632 36.549131 60.730174 0
M  V30 26 H 36.420245 31.621357 54.253677 0
M  V30 27 H 37.867557 32.258165 53.453102 0
M  V30 28 H 38.649063 29.034986 55.921600 0
M  V30 29 H 36.627283 34.930830 60.177311 0
M  V30 30 H 36.561792 35.289966 61.884473 0
M  V30 31 H 38.719294 30.130957 53.285631 0
M  V30 32 H 36.313384 29.239667 54.804977 0
M  V30 33 H 36.624835 28.985655 53.053592 0
M  V30 34 H 37.520723 28.091634 54.232455 0
M  V30 35 H 37.197493 31.139931 58.918491 0
M  V30 36 H 37.460460 33.003732 55.978444 0
M  V30 37 H 39.036373 32.714683 55.301780 0
M  V30 38 H 34.667416 31.810369 61.918498 0
M  V30 39 H 35.089086 32.894222 60.591008 0
M  V30 40 H 35.534239 31.175199 60.524310 0
M  V30 41 H 40.581504 37.015308 63.076353 0
M  V30 42 H 40.934564 36.995809 61.374558 0
M  V30 43 H 39.867149 30.598054 57.656229 0
M  V30 44 H 37.370924 32.799245 59.979549 0
M  V30 45 H 38.221177 37.228030 62.769267 0
M  V30 46 H 41.343916 34.720069 62.436605 0
M  V30 47 H 37.149142 28.821501 59.462894 0
M  V30 48 H 36.987397 29.136687 57.757422 0
M  V30 49 H 38.511585 28.504470 58.376106 0
M  V30 50 H 40.480940 29.363500 59.555783 0
M  V30 51 H 40.631919 29.868869 61.238419 0
M  V30 52 H 39.415338 28.671942 60.795732 0
M  V30 53 H 40.602355 30.021473 54.152459 0
M  V30 54 H 40.669033 31.147694 55.452943 0
M  V30 55 H 40.860691 29.386840 55.757916 0
M  V30 56 H 38.554299 36.421430 59.853523 0
M  V30 57 H 37.146785 37.250978 60.447286 0
M  V30 58 H 37.337755 30.819969 56.642430 0
M  V30 END ATOM
M  V30 BEGIN BOND
M  V30 1 1 5 4
M  V30 2 2 8 3
M  V30 3 1 8 6
M  V30 4 1 10 1
M  V30 5 1 10 4
M  V30 6 1 11 10
M  V30 7 2 13 7
M  V30 8 1 13 12
M  V30 9 1 14 1
M  V30 10 1 14 5
M  V30 11 1 15 9
M  V30 12 1 17 2
M  V30 13 1 17 5
M  V30 14 1 17 12
M  V30 15 1 18 7
M  V30 16 1 18 8
M  V30 17 1 18 9
M  V30 18 1 20 16
M  V30 19 1 20 19
M  V30 20 2 21 3
M  V30 21 1 21 16
M  V30 22 1 22 12
M  V30 23 1 23 13
M  V30 24 1 24 4
M  V30 25 1 25 6
M  V30 26 1 25 20
M  V30 27 1 26 1
M  V30 28 1 27 1
M  V30 29 1 4 28 CFG=1
M  V30 30 1 29 6
M  V30 31 1 30 6
M  V30 32 1 10 31 CFG=3
M  V30 33 1 32 11
M  V30 34 1 33 11
M  V30 35 1 34 11
M  V30 36 1 12 35 CFG=1
M  V30 37 1 36 14
M  V30 38 1 37 14
M  V30 39 1 38 15
M  V30 40 1 39 15
M  V30 41 1 40 15
M  V30 42 1 41 16
M  V30 43 1 42 16
M  V30 44 1 17 43 CFG=3
M  V30 45 1 18 44 CFG=3
M  V30 46 1 20 45 CFG=1
M  V30 47 1 46 21
M  V30 48 1 47 22
M  V30 49 1 48 22
M  V30 50 1 49 22
M  V30 51 1 50 23
M  V30 52 1 51 23
M  V30 53 1 52 23
M  V30 54 1 53 24
M  V30 55 1 54 24
M  V30 56 1 55 24
M  V30 57 1 56 25
M  V30 58 1 57 25
M  V30 59 1 5 58 CFG=1
M  V30 END BOND
M  V30 END CTAB
M  END
>  <i_epik_Tot_Q>  (1) 
0

>  <i_epik_Tot_abs_Q>  (1) 
2

>  <i_i_glide_confnum>  (1) 
41

>  <i_i_glide_lignum>  (1) 
111

>  <i_i_glide_posenum>  (1) 
74

>  <i_i_glide_rotatable_bonds>  (1) 
6

>  <i_lp_mmshare_version>  (1) 
72125

>  <i_m_source_file_index>  (1) 
45

>  <i_f3d_flags>  (1) 
0

>  <num_sample>  (1) 
100

>  <b_lp_Chiralities_Consistent>  (1) 
1

>  <r_epik_Charging_Adjusted_Penalty>  (1) 
0.41733257654759531

>  <r_epik_Ionization_Penalty>  (1) 
0.0069177268181324029

>  <r_epik_Ionization_Penalty_Charging>  (1) 
0.0066527375949913311

>  <r_epik_Ionization_Penalty_Neutral>  (1) 
0.00026498922314107146

>  <r_epik_State_Penalty>  (1) 
0.41067983895260396

>  <r_glide_ring_energy>  (1) 
0

>  <r_i_docking_score>  (1) 
-5.0735076499395104

>  <r_i_glide_ecoul>  (1) 
-3.8725973204413973

>  <r_i_glide_eff_state_penalty>  (1) 
0.41067983895260396

>  <r_i_glide_einternal>  (1) 
15.930368735138211

>  <r_i_glide_emodel>  (1) 
-28.662301717881576

>  <r_i_glide_emodel_strain>  (1) 
3.730747670729798

>  <r_i_glide_energy>  (1) 
-26.582951875704214

>  <r_i_glide_erotb>  (1) 
0.61440649929112812

>  <r_i_glide_esite>  (1) 
-0.12169276007364326

>  <r_i_glide_evdw>  (1) 
-22.710354555262818

>  <r_i_glide_gscore>  (1) 
-5.4841874888921147

>  <r_i_glide_gscore_strain>  (1) 
0

>  <r_i_glide_hbond>  (1) 
-0.32881389332497807

>  <r_i_glide_ligand_efficiency>  (1) 
-0.20294030599758042

>  <r_i_glide_ligand_efficiency_ln>  (1) 
-1.2025733537909968

>  <r_i_glide_ligand_efficiency_sa>  (1) 
-0.59340105453527203

>  <r_i_glide_lipo>  (1) 
-2.0051973287468412

>  <r_i_glide_metal>  (1) 
-0

>  <r_i_glide_rewards>  (1) 
-1.9264826802084296

>  <r_lp_Energy>  (1) 
15.952547999999998

>  <r_lp_tautomer_probability>  (1) 
0.49999399997599986

>  <s_epik_Chemistry_Notes>  (1) 
This compound has an imine and may undergo hydrolysis. This compound contains an acetal/aminal-like group ( X-CH(R)-Y where X, Y are N, S, or O) that may be acid/base labile, releasing an aldehyde.

>  <s_epik_cmdline>  (1) 
J2VwaWtfcHl0aG9uJywgJy1waHQnLCAnMS4wJywgJy1waCcsICc3LjQnLCAnLXRuJywgJzgnLCAnLW1hJywgJzUwMCcsICctaW1hZScsICc8aW5maWxlLm1hZT4nLCAnLW9tYWUnLCAnPG91dGZpbGUubWFlPic=

>  <s_epik_input>  (1) 
W0NIM11bQ0BIXTFbQ0gyXVtDSDJdTihbQ0BASF0xW0NIM10pW0NAQEhdKFtPSF0pW0NAQEhdKFtDSDNdKS9DKFtDSDNdKT1OXFtDQEBIXShPW0NIM10pQzI9Qz1bQ0hdW0NIMl1bQ0BASF0oRilbQ0gyXVtDSDJdMg==

>  <s_glide_docking_method>  (1) 
confgen

>  <s_i_glide_gridfile>  (1) 
gpcr_5ht2c_6bqh_protein_autoprepared_prepared

>  <s_lp_Force_Field>  (1) 
S-OPLS

>  <s_lp_Variant>  (1) 
DiffSBDD_44_num_sample_100-4

>  <s_m_source_file>  (1) 
generated__ligand_DiffSBDD_2026-05-06_prepared.sdf

>  <GenAI_Model>  (1) 
DiffSBDD

>  <Protein>  (1) 
GPCR_5HT2C

$$$$
DiffSBDD_79_num_sample_100
     RDKit          3D

  0  0  0  0  0  0  0  0  0  0999 V3000
M  V30 BEGIN CTAB
M  V30 COUNTS 85 87 0 0 1
M  V30 BEGIN ATOM
M  V30 1 C 38.224397 26.375043 56.568390 0
M  V30 2 C 38.149243 31.496463 57.421041 0
M  V30 3 C 41.149483 31.388268 64.299560 0
M  V30 4 C 38.981584 37.798238 61.811322 0
M  V30 5 C 37.704017 27.851242 54.680603 0
M  V30 6 C 41.152534 30.165683 66.445703 0
M  V30 7 C 38.369813 27.814428 56.066040 0
M  V30 8 C 39.689780 28.716435 60.852452 0
M  V30 9 F 41.756014 29.095901 66.964127 0
M  V30 10 C 38.465568 39.033915 61.044380 0
M  V30 11 C 37.644723 30.237832 56.706769 0
M  V30 12 C 41.245968 28.625839 62.912404 0
M  V30 13 F 41.688085 31.249592 67.007568 0
M  V30 14 C 41.283412 30.209169 64.926016 0
M  V30 15 C 40.537011 30.785397 61.940035 0
M  V30 16 C 37.870937 33.040498 59.319172 0
M  V30 17 C 36.999654 36.421357 62.399332 0
M  V30 18 N 38.099121 36.632541 61.631414 0
M  V30 19 C 39.669744 28.605309 56.229138 0
M  V30 20 C 40.512632 29.440768 61.922863 0
M  V30 21 C 38.478879 35.665773 60.596285 0
M  V30 22 C 37.170668 30.646029 59.728284 0 CFG=2
M  V30 23 C 38.445281 28.992924 57.063718 0
M  V30 24 C 40.135846 29.645690 55.200917 0
M  V30 25 O 37.196157 29.369572 59.134343 0
M  V30 26 O 36.267499 35.440155 62.253489 0
M  V30 27 C 35.722145 31.002294 60.092957 0
M  V30 28 C 40.863912 27.789299 56.709803 0
M  V30 29 C 36.678076 37.447578 63.481086 0
M  V30 30 N 37.393957 31.809824 58.653358 0 CFG=2 CHG=1
M  V30 31 F 39.867566 30.119790 66.786953 0
M  V30 32 C 41.576995 28.954775 64.200908 0
M  V30 33 C 37.419047 35.568521 59.453675 0
M  V30 34 C 41.352938 31.617425 62.852757 0
M  V30 35 C 37.467385 34.306484 58.563467 0
M  V30 36 C 39.674768 29.288607 59.413148 0
M  V30 37 C 38.419639 28.810011 58.611603 0 CFG=2
M  V30 38 H 38.521859 25.669072 55.791302 0
M  V30 39 H 38.827519 26.155392 57.445340 0
M  V30 40 H 37.184696 26.173915 56.827676 0
M  V30 41 H 37.992700 32.329075 56.735031 0
M  V30 42 H 39.223101 31.463709 57.590175 0
M  V30 43 H 40.938802 32.270158 64.888661 0
M  V30 44 H 39.165859 38.020926 62.860163 0
M  V30 45 H 39.982845 37.557786 61.453896 0
M  V30 46 H 38.375805 27.409500 53.944071 0
M  V30 47 H 36.783158 27.268616 54.653479 0
M  V30 48 H 37.460982 28.850723 54.335711 0
M  V30 49 H 40.014991 27.675808 60.802472 0
M  V30 50 H 38.674645 28.678056 61.234681 0
M  V30 51 H 39.201202 39.838141 61.058322 0
M  V30 52 H 38.267546 38.794893 59.999253 0
M  V30 53 H 37.536833 39.430460 61.453391 0
M  V30 54 H 36.591847 30.021395 56.882845 0
M  V30 55 H 37.699012 30.443217 55.641546 0
M  V30 56 H 41.495115 27.621596 62.608168 0
M  V30 57 H 39.971616 31.331550 61.205023 0
M  V30 58 H 37.437768 33.088083 60.316296 0
M  V30 59 H 38.951196 32.994441 59.466520 0
M  V30 60 H 38.611143 34.721519 61.121993 0
M  V30 61 H 39.466013 35.887847 60.198638 0
M  V30 62 H 37.828789 30.736023 60.590078 0
M  V30 63 H 41.203990 29.621473 55.058227 0
M  V30 64 H 39.669849 29.510961 54.227087 0
M  V30 65 H 39.940943 30.660477 55.536584 0
M  V30 66 H 35.597727 32.042189 60.392505 0
M  V30 67 H 35.069041 30.821399 59.237852 0
M  V30 68 H 35.406788 30.421506 60.948867 0
M  V30 69 H 41.098334 27.050517 55.944946 0
M  V30 70 H 41.736529 28.418944 56.889778 0
M  V30 71 H 40.659577 27.243542 57.627807 0
M  V30 72 H 36.441578 38.421934 63.060164 0
M  V30 73 H 35.798230 37.120482 64.035802 0
M  V30 74 H 37.493584 37.523211 64.198668 0
M  V30 75 H 42.053617 28.173743 64.775114 0
M  V30 76 H 37.467493 36.459111 58.827803 0
M  V30 77 H 36.408978 35.591120 59.857758 0
M  V30 78 H 42.411041 31.489241 62.619560 0
M  V30 79 H 41.119768 32.662845 62.645151 0
M  V30 80 H 38.111249 34.421234 57.694268 0
M  V30 81 H 36.467105 34.164186 58.150311 0
M  V30 82 H 39.726355 30.368387 59.407857 0
M  V30 83 H 40.603563 28.992062 58.940305 0
M  V30 84 H 38.330983 27.744745 58.808356 0
M  V30 85 H 36.478918 32.012519 58.244803 0
M  V30 END ATOM
M  V30 BEGIN BOND
M  V30 1 1 7 1
M  V30 2 1 7 5
M  V30 3 1 9 6
M  V30 4 1 10 4
M  V30 5 1 11 2
M  V30 6 1 13 6
M  V30 7 2 14 3
M  V30 8 1 14 6
M  V30 9 1 18 4
M  V30 10 1 18 17
M  V30 11 1 19 7
M  V30 12 1 20 8
M  V30 13 1 20 12
M  V30 14 2 20 15
M  V30 15 1 21 18
M  V30 16 1 23 7
M  V30 17 1 23 11
M  V30 18 1 23 19
M  V30 19 1 24 19
M  V30 20 1 25 22
M  V30 21 2 26 17
M  V30 22 1 27 22
M  V30 23 1 28 19
M  V30 24 1 29 17
M  V30 25 1 30 2
M  V30 26 1 30 16
M  V30 27 1 30 22
M  V30 28 1 31 6
M  V30 29 2 32 12
M  V30 30 1 32 14
M  V30 31 1 33 21
M  V30 32 1 34 3
M  V30 33 1 34 15
M  V30 34 1 35 16
M  V30 35 1 35 33
M  V30 36 1 36 8
M  V30 37 1 37 23
M  V30 38 1 37 25
M  V30 39 1 37 36
M  V30 40 1 38 1
M  V30 41 1 39 1
M  V30 42 1 40 1
M  V30 43 1 41 2
M  V30 44 1 42 2
M  V30 45 1 43 3
M  V30 46 1 44 4
M  V30 47 1 45 4
M  V30 48 1 46 5
M  V30 49 1 47 5
M  V30 50 1 48 5
M  V30 51 1 49 8
M  V30 52 1 50 8
M  V30 53 1 51 10
M  V30 54 1 52 10
M  V30 55 1 53 10
M  V30 56 1 54 11
M  V30 57 1 55 11
M  V30 58 1 56 12
M  V30 59 1 57 15
M  V30 60 1 58 16
M  V30 61 1 59 16
M  V30 62 1 60 21
M  V30 63 1 61 21
M  V30 64 1 22 62 CFG=1
M  V30 65 1 63 24
M  V30 66 1 64 24
M  V30 67 1 65 24
M  V30 68 1 66 27
M  V30 69 1 67 27
M  V30 70 1 68 27
M  V30 71 1 69 28
M  V30 72 1 70 28
M  V30 73 1 71 28
M  V30 74 1 72 29
M  V30 75 1 73 29
M  V30 76 1 74 29
M  V30 77 1 75 32
M  V30 78 1 76 33
M  V30 79 1 77 33
M  V30 80 1 78 34
M  V30 81 1 79 34
M  V30 82 1 80 35
M  V30 83 1 81 35
M  V30 84 1 82 36
M  V30 85 1 83 36
M  V30 86 1 37 84 CFG=3
M  V30 87 1 30 85 CFG=3
M  V30 END BOND
M  V30 END CTAB
M  END
>  <i_epik_Tot_Q>  (1) 
1

>  <i_epik_Tot_abs_Q>  (1) 
1

>  <i_i_glide_confnum>  (1) 
692

>  <i_i_glide_lignum>  (1) 
204

>  <i_i_glide_posenum>  (1) 
261

>  <i_i_glide_rotatable_bonds>  (1) 
11

>  <i_lp_mmshare_version>  (1) 
72125

>  <i_m_source_file_index>  (1) 
80

>  <i_f3d_flags>  (1) 
0

>  <num_sample>  (1) 
100

>  <b_lp_Chiralities_Consistent>  (1) 
1

>  <r_epik_Charging_Adjusted_Penalty>  (1) 
1.4563538393833728

>  <r_epik_Ionization_Penalty>  (1) 
0.72817750760685918

>  <r_epik_Ionization_Penalty_Charging>  (1) 
0.72817691969168641

>  <r_epik_Ionization_Penalty_Neutral>  (1) 
5.8791517278497126e-07

>  <r_epik_State_Penalty>  (1) 
0.72817691969168641

>  <r_glide_ring_energy>  (1) 
0

>  <r_i_docking_score>  (1) 
-5.0734782677941075

>  <r_i_glide_ecoul>  (1) 
-3.3909848720928837

>  <r_i_glide_eff_state_penalty>  (1) 
0.72817691969168641

>  <r_i_glide_einternal>  (1) 
9.553124590020559

>  <r_i_glide_emodel>  (1) 
-31.307829294959831

>  <r_i_glide_emodel_strain>  (1) 
4.5445464189456573

>  <r_i_glide_energy>  (1) 
-35.415874362974598

>  <r_i_glide_erotb>  (1) 
0.59581955881290138

>  <r_i_glide_esite>  (1) 
-0.14364357431280736

>  <r_i_glide_evdw>  (1) 
-32.024889490881712

>  <r_i_glide_gscore>  (1) 
-5.8016551874857942

>  <r_i_glide_gscore_strain>  (1) 
0.13613660473641431

>  <r_i_glide_hbond>  (1) 
-0.20000000000000001

>  <r_i_glide_ligand_efficiency>  (1) 
-0.13712103426470562

>  <r_i_glide_ligand_efficiency_ln>  (1) 
-1.1003184970787343

>  <r_i_glide_ligand_efficiency_sa>  (1) 
-0.4569177066971456

>  <r_i_glide_lipo>  (1) 
-2.5539190497501707

>  <r_i_glide_metal>  (1) 
-0

>  <r_i_glide_rewards>  (1) 
-1.5261565216141144

>  <r_lp_Energy>  (1) 
61.755589999999998

>  <s_epik_Chemistry_Notes>  (1) 
This compound contains an acetal/aminal-like group ( X-CH(R)-Y where X, Y are N, S, or O) that may be acid/base labile, releasing an aldehyde.

>  <s_epik_cmdline>  (1) 
J2VwaWtfcHl0aG9uJywgJy1waHQnLCAnMS4wJywgJy1waCcsICc3LjQnLCAnLXRuJywgJzgnLCAnLW1hJywgJzUwMCcsICctaW1hZScsICc8aW5maWxlLm1hZT4nLCAnLW9tYWUnLCAnPG91dGZpbGUubWFlPic=

>  <s_epik_input>  (1) 
W0NIM11bQ0gyXU4oQyg9TylbQ0gzXSlbQ0gyXVtDSDJdW0NIMl1bQ0gyXU4oW0NIMl1bQ0gyXUMxMkMoW0NIM10pKFtDSDNdKUMxKFtDSDNdKVtDSDNdKVtDQEBIXShbQ0gzXSlPW0NASF0yW0NIMl1bQ0gyXUMoW0NIXT1bQ0hdMyk9W0NIXVtDSDJdW0NIXT1DM0MoRikoRilG

>  <s_glide_docking_method>  (1) 
confgen

>  <s_i_glide_gridfile>  (1) 
gpcr_5ht2c_6bqh_protein_autoprepared_prepared

>  <s_lp_Force_Field>  (1) 
S-OPLS

>  <s_lp_Variant>  (1) 
DiffSBDD_79_num_sample_100-6

>  <s_m_source_file>  (1) 
generated__ligand_DiffSBDD_2026-05-06_prepared.sdf

>  <GenAI_Model>  (1) 
DiffSBDD

>  <Protein>  (1) 
GPCR_5HT2C

$$$$
DiffSBDD_20_num_sample_100
     RDKit          3D

  0  0  0  0  0  0  0  0  0  0999 V3000
M  V30 BEGIN CTAB
M  V30 COUNTS 55 55 0 0 1
M  V30 BEGIN ATOM
M  V30 1 C 38.282726 26.074775 56.203648 0 CFG=1
M  V30 2 C 39.132050 28.256543 54.933851 0 CFG=2
M  V30 3 C 40.552047 27.963999 58.602743 0
M  V30 4 C 37.220076 23.925147 55.139714 0
M  V30 5 N 39.465367 28.822142 53.644135 0
M  V30 6 C 39.867346 30.505691 51.931967 0
M  V30 7 O 37.991116 31.865690 61.522566 0
M  V30 8 C 37.020916 30.993081 59.525959 0
M  V30 9 C 38.831042 29.180607 59.936881 0
M  V30 10 C 40.016182 31.444899 55.435113 0
M  V30 11 N 40.207562 28.769938 59.628901 0
M  V30 12 O 41.712982 27.642315 58.365831 0
M  V30 13 C 37.187306 26.109981 57.292901 0
M  V30 14 C 38.480142 24.622906 55.702167 0
M  V30 15 C 39.448720 30.055499 53.326136 0
M  V30 16 C 36.924039 31.542472 60.955577 0
M  V30 17 O 37.067402 30.421421 55.696272 0
M  V30 18 N 39.503726 27.549246 57.868980 0
M  V30 19 C 40.267313 27.435567 55.530781 0
M  V30 20 S 37.782021 27.093320 54.778136 0
M  V30 21 C 37.539527 31.309019 54.709495 0
M  V30 22 O 35.781162 31.621454 61.453484 0 CHG=-1
M  V30 23 C 39.647783 26.657242 56.706374 0 CFG=2
M  V30 24 C 39.026949 31.196479 54.290087 0 CFG=1
M  V30 25 C 38.412705 30.439567 59.152165 0
M  V30 26 H 38.875388 28.982857 55.685626 0
M  V30 27 H 37.467374 22.967916 54.682738 0
M  V30 28 H 36.487745 23.718814 55.919128 0
M  V30 29 H 36.727675 24.517790 54.368538 0
M  V30 30 H 39.856400 31.586655 51.797459 0
M  V30 31 H 36.763255 31.808689 58.849844 0
M  V30 32 H 36.259855 30.225045 59.384059 0
M  V30 33 H 38.108382 28.379452 59.798962 0
M  V30 34 H 38.815930 29.392370 61.006183 0
M  V30 35 H 41.037893 31.439465 55.053365 0
M  V30 36 H 39.839778 32.421247 55.888416 0
M  V30 37 H 39.942084 30.712594 56.234216 0
M  V30 38 H 40.938378 29.117161 60.229424 0
M  V30 39 H 37.473714 25.520003 58.163629 0
M  V30 40 H 36.974993 27.124175 57.630163 0
M  V30 41 H 36.246070 25.711804 56.923109 0
M  V30 42 H 39.247882 24.619468 54.927118 0
M  V30 43 H 38.878541 24.021442 56.518809 0
M  V30 44 H 36.395743 30.898405 56.202747 0
M  V30 45 H 38.576126 27.858209 58.116364 0
M  V30 46 H 40.658642 26.733762 54.793224 0
M  V30 47 H 41.090193 28.072199 55.853386 0
M  V30 48 H 36.887340 31.221583 53.853549 0
M  V30 49 H 37.387181 32.314061 55.104172 0
M  V30 50 H 40.314330 25.844040 56.999692 0
M  V30 51 H 39.118029 32.095742 53.693375 0
M  V30 52 H 39.148881 31.228763 59.294799 0
M  V30 53 H 38.416201 30.216340 58.085785 0
M  V30 54 H 40.875353 30.157337 51.715710 0
M  V30 55 H 39.212699 30.049604 51.187787 0
M  V30 END ATOM
M  V30 BEGIN BOND
M  V30 1 1 5 2
M  V30 2 1 11 3
M  V30 3 1 11 9
M  V30 4 2 12 3
M  V30 5 1 1 13 CFG=1
M  V30 6 1 14 1
M  V30 7 1 14 4
M  V30 8 2 15 5
M  V30 9 1 15 6
M  V30 10 2 16 7
M  V30 11 1 16 8
M  V30 12 1 18 3
M  V30 13 1 19 2
M  V30 14 1 20 1
M  V30 15 1 20 2
M  V30 16 1 21 17
M  V30 17 1 22 16
M  V30 18 1 23 1
M  V30 19 1 23 18
M  V30 20 1 23 19
M  V30 21 1 24 10
M  V30 22 1 24 15
M  V30 23 1 24 21
M  V30 24 1 25 8
M  V30 25 1 25 9
M  V30 26 1 2 26 CFG=1
M  V30 27 1 27 4
M  V30 28 1 28 4
M  V30 29 1 29 4
M  V30 30 1 30 6
M  V30 31 1 31 8
M  V30 32 1 32 8
M  V30 33 1 33 9
M  V30 34 1 34 9
M  V30 35 1 35 10
M  V30 36 1 36 10
M  V30 37 1 37 10
M  V30 38 1 38 11
M  V30 39 1 39 13
M  V30 40 1 40 13
M  V30 41 1 41 13
M  V30 42 1 42 14
M  V30 43 1 43 14
M  V30 44 1 44 17
M  V30 45 1 45 18
M  V30 46 1 46 19
M  V30 47 1 47 19
M  V30 48 1 48 21
M  V30 49 1 49 21
M  V30 50 1 23 50 CFG=1
M  V30 51 1 24 51 CFG=3
M  V30 52 1 52 25
M  V30 53 1 53 25
M  V30 54 1 54 6
M  V30 55 1 55 6
M  V30 END BOND
M  V30 END CTAB
M  END
>  <i_epik_Tot_Q>  (1) 
-1

>  <i_epik_Tot_abs_Q>  (1) 
1

>  <i_i_glide_confnum>  (1) 
1226

>  <i_i_glide_lignum>  (1) 
53

>  <i_i_glide_posenum>  (1) 
153

>  <i_i_glide_rotatable_bonds>  (1) 
12

>  <i_lp_mmshare_version>  (1) 
72125

>  <i_m_source_file_index>  (1) 
21

>  <i_f3d_flags>  (1) 
0

>  <num_sample>  (1) 
100

>  <b_lp_Chiralities_Consistent>  (1) 
1

>  <r_epik_Charging_Adjusted_Penalty>  (1) 
0.43743025276339675

>  <r_epik_Ionization_Penalty>  (1) 
0.026773266926762091

>  <r_epik_Ionization_Penalty_Charging>  (1) 
0.0015534882308521432

>  <r_epik_Ionization_Penalty_Neutral>  (1) 
0.025219778695909949

>  <r_epik_State_Penalty>  (1) 
0.43587676453254459

>  <r_glide_ring_energy>  (1) 
0

>  <r_i_docking_score>  (1) 
-5.0674521174829712

>  <r_i_glide_ecoul>  (1) 
-6.4998827646800557

>  <r_i_glide_eff_state_penalty>  (1) 
0.43587676453254459

>  <r_i_glide_einternal>  (1) 
16.729231902606415

>  <r_i_glide_emodel>  (1) 
-38.181615568771512

>  <r_i_glide_emodel_strain>  (1) 
1.124266073115983

>  <r_i_glide_energy>  (1) 
-35.989940879699915

>  <r_i_glide_erotb>  (1) 
1.2527341714622291

>  <r_i_glide_esite>  (1) 
-0.043833485307350172

>  <r_i_glide_evdw>  (1) 
-29.490058115019863

>  <r_i_glide_gscore>  (1) 
-5.5033288820155155

>  <r_i_glide_gscore_strain>  (1) 
0

>  <r_i_glide_hbond>  (1) 
-0.32000000000000001

>  <r_i_glide_ligand_efficiency>  (1) 
-0.20269808469931885

>  <r_i_glide_ligand_efficiency_ln>  (1) 
-1.201138011129133

>  <r_i_glide_ligand_efficiency_sa>  (1) 
-0.59269279516258233

>  <r_i_glide_lipo>  (1) 
-2.7655110284699527

>  <r_i_glide_metal>  (1) 
-0

>  <r_i_glide_rewards>  (1) 
-1.1772332192474395

>  <r_lp_Energy>  (1) 
16.070501

>  <r_lp_tautomer_probability>  (1) 
0.49999399997599986

>  <s_epik_Chemistry_Notes>  (1) 
This compound has an imine and may undergo hydrolysis. This compound contains an acetal/aminal-like group ( X-CH(R)-Y where X, Y are N, S, or O) that may be acid/base labile, releasing an aldehyde.

>  <s_epik_cmdline>  (1) 
J2VwaWtfcHl0aG9uJywgJy1waHQnLCAnMS4wJywgJy1waCcsICc3LjQnLCAnLXRuJywgJzgnLCAnLW1hJywgJzUwMCcsICctaW1hZScsICc8aW5maWxlLm1hZT4nLCAnLW9tYWUnLCAnPG91dGZpbGUubWFlPic=

>  <s_epik_input>  (1) 
W09IXVtDSDJdW0NAQEhdKFtDSDNdKUMoPVtDSDJdKVtOSF1bQ0BASF0oU1tDQEBdMShbQ0gzXSlbQ0gyXVtDSDNdKVtDSDJdW0NASF0xW05IXUMoPU8pW05IXVtDSDJdW0NIMl1bQ0gyXUMoPU8pW09IXQ==

>  <s_glide_docking_method>  (1) 
confgen

>  <s_i_glide_gridfile>  (1) 
gpcr_5ht2c_6bqh_protein_autoprepared_prepared

>  <s_lp_Force_Field>  (1) 
S-OPLS

>  <s_lp_Variant>  (1) 
DiffSBDD_20_num_sample_100-1

>  <s_m_source_file>  (1) 
generated__ligand_DiffSBDD_2026-05-06_prepared.sdf

>  <GenAI_Model>  (1) 
DiffSBDD

>  <Protein>  (1) 
GPCR_5HT2C

$$$$
DiffSBDD_39_num_sample_100
     RDKit          3D

  0  0  0  0  0  0  0  0  0  0999 V3000
M  V30 BEGIN CTAB
M  V30 COUNTS 61 64 0 0 1
M  V30 BEGIN ATOM
M  V30 1 C 40.267156 31.421345 63.782273 0
M  V30 2 C 36.581338 31.554434 59.453691 0
M  V30 3 C 37.314223 35.352827 61.453281 0
M  V30 4 C 37.163962 32.945218 59.113818 0
M  V30 5 C 39.280427 32.336720 61.627854 0
M  V30 6 C 37.566884 30.519428 57.369792 0
M  V30 7 N 39.035582 27.274000 55.996443 0
M  V30 8 O 36.464510 34.526270 61.853491 0 CHG=-1
M  V30 9 C 38.116354 29.451191 56.502983 0
M  V30 10 C 41.052093 33.631895 63.057688 0
M  V30 11 O 37.077244 36.557873 61.213761 0
M  V30 12 C 41.886241 33.685277 64.197994 0
M  V30 13 C 41.906271 32.625576 65.120452 0
M  V30 14 N 38.985139 33.451568 60.873290 0
M  V30 15 C 41.117450 30.350798 65.924200 0
M  V30 16 C 39.722183 35.461372 62.251047 0
M  V30 17 C 39.471838 26.459197 53.727840 0
M  V30 18 C 38.657313 33.182483 59.448548 0
M  V30 19 C 42.255789 28.601007 64.465824 0
M  V30 20 C 38.150508 29.761744 55.035462 0
M  V30 21 C 38.766560 34.886042 61.233715 0 CFG=2
M  V30 22 C 39.318058 27.109181 52.297239 0
M  V30 23 O 42.667403 29.199828 63.451064 0 CHG=-1
M  V30 24 C 40.213662 32.485873 62.845502 0
M  V30 25 S 38.667666 28.821077 52.417145 0
M  V30 26 C 38.616874 28.694222 54.134421 0
M  V30 27 O 37.796689 30.856550 54.597277 0
M  V30 28 C 41.099151 31.495601 64.915062 0
M  V30 29 Cl 38.629850 27.734728 58.569870 0
M  V30 30 C 42.297912 29.368024 65.783935 0
M  V30 31 C 38.571192 28.210059 56.908493 0
M  V30 32 C 37.160409 30.397190 58.652811 0
M  V30 33 C 41.061719 34.791982 62.102228 0
M  V30 34 O 38.836453 31.221903 61.353667 0
M  V30 35 C 39.017333 27.548911 54.644603 0
M  V30 36 O 41.815952 27.430329 64.501557 0
M  V30 37 H 39.652009 30.544689 63.632641 0
M  V30 38 H 35.514133 31.570465 59.234608 0
M  V30 39 H 36.625467 31.349934 60.519104 0
M  V30 40 H 37.041676 33.154598 58.053728 0
M  V30 41 H 36.527514 33.698766 59.560389 0
M  V30 42 H 37.467463 31.493406 56.921207 0
M  V30 43 H 42.513140 34.549130 64.365293 0
M  V30 44 H 42.545356 32.681072 65.989179 0
M  V30 45 H 41.134454 30.777585 66.927005 0
M  V30 46 H 40.177759 29.798612 65.856703 0
M  V30 47 H 39.333578 35.392407 63.268749 0
M  V30 48 H 39.834034 36.520296 62.049120 0
M  V30 49 H 40.492924 26.140583 53.940664 0
M  V30 50 H 38.790202 25.621568 53.855625 0
M  V30 51 H 39.238954 32.346295 59.065989 0
M  V30 52 H 38.998041 34.017880 58.838227 0
M  V30 53 H 39.042993 35.442311 60.337150 0
M  V30 54 H 38.681778 26.522538 51.639401 0
M  V30 55 H 40.267400 27.221915 51.799590 0
M  V30 56 H 43.246325 29.901318 65.843516 0
M  V30 57 H 42.292303 28.649290 66.604316 0
M  V30 58 H 37.210919 29.467641 59.165256 0
M  V30 59 H 41.842005 35.492939 62.404038 0
M  V30 60 H 41.303451 34.511592 61.071912 0
M  V30 61 H 39.358677 26.374011 56.322511 0
M  V30 END ATOM
M  V30 BEGIN BOND
M  V30 1 1 4 2
M  V30 2 1 8 3
M  V30 3 1 9 6
M  V30 4 2 11 3
M  V30 5 1 12 10
M  V30 6 2 13 12
M  V30 7 1 14 5
M  V30 8 1 18 4
M  V30 9 1 18 14
M  V30 10 1 20 9
M  V30 11 1 21 3
M  V30 12 1 21 14
M  V30 13 1 21 16
M  V30 14 1 22 17
M  V30 15 1 23 19
M  V30 16 1 24 1
M  V30 17 1 24 5
M  V30 18 2 24 10
M  V30 19 1 25 22
M  V30 20 1 26 20
M  V30 21 1 26 25
M  V30 22 2 27 20
M  V30 23 2 28 1
M  V30 24 1 28 13
M  V30 25 1 28 15
M  V30 26 1 30 15
M  V30 27 1 30 19
M  V30 28 1 31 7
M  V30 29 2 31 9
M  V30 30 1 31 29
M  V30 31 1 32 2
M  V30 32 2 32 6
M  V30 33 1 33 10
M  V30 34 1 33 16
M  V30 35 2 34 5
M  V30 36 1 35 7
M  V30 37 1 35 17
M  V30 38 2 35 26
M  V30 39 2 36 19
M  V30 40 1 37 1
M  V30 41 1 38 2
M  V30 42 1 39 2
M  V30 43 1 40 4
M  V30 44 1 41 4
M  V30 45 1 42 6
M  V30 46 1 43 12
M  V30 47 1 44 13
M  V30 48 1 45 15
M  V30 49 1 46 15
M  V30 50 1 47 16
M  V30 51 1 48 16
M  V30 52 1 49 17
M  V30 53 1 50 17
M  V30 54 1 51 18
M  V30 55 1 52 18
M  V30 56 1 21 53 CFG=3
M  V30 57 1 54 22
M  V30 58 1 55 22
M  V30 59 1 56 30
M  V30 60 1 57 30
M  V30 61 1 58 32
M  V30 62 1 59 33
M  V30 63 1 60 33
M  V30 64 1 61 7
M  V30 END BOND
M  V30 END CTAB
M  END
>  <i_epik_Tot_Q>  (1) 
-2

>  <i_epik_Tot_abs_Q>  (1) 
2

>  <i_i_glide_confnum>  (1) 
110

>  <i_i_glide_lignum>  (1) 
98

>  <i_i_glide_posenum>  (1) 
38

>  <i_i_glide_rotatable_bonds>  (1) 
9

>  <i_lp_mmshare_version>  (1) 
72125

>  <i_m_source_file_index>  (1) 
40

>  <i_f3d_flags>  (1) 
0

>  <num_sample>  (1) 
100

>  <b_lp_Chiralities_Consistent>  (1) 
1

>  <r_epik_Charging_Adjusted_Penalty>  (1) 
2.4833595310622814

>  <r_epik_Ionization_Penalty>  (1) 
1.1966221344959846

>  <r_epik_Ionization_Penalty_Charging>  (1) 
1.1966221333468745

>  <r_epik_Ionization_Penalty_Neutral>  (1) 
1.1491101627543943e-09

>  <r_epik_State_Penalty>  (1) 
1.2867373977154066

>  <r_glide_ring_energy>  (1) 
0

>  <r_i_docking_score>  (1) 
-5.0607627700662086

>  <r_i_glide_ecoul>  (1) 
-0.029174036626087307

>  <r_i_glide_eff_state_penalty>  (1) 
1.2867373977154066

>  <r_i_glide_einternal>  (1) 
21.078220042379545

>  <r_i_glide_emodel>  (1) 
-45.016737827392596

>  <r_i_glide_emodel_strain>  (1) 
4.1302559672942323

>  <r_i_glide_energy>  (1) 
-43.310363073004417

>  <r_i_glide_erotb>  (1) 
0.44176053004123106

>  <r_i_glide_esite>  (1) 
0

>  <r_i_glide_evdw>  (1) 
-43.281189036378329

>  <r_i_glide_gscore>  (1) 
-6.3475001677816154

>  <r_i_glide_gscore_strain>  (1) 
0.032563991823558069

>  <r_i_glide_hbond>  (1) 
-0.00016595127713701447

>  <r_i_glide_ligand_efficiency>  (1) 
-0.14057674361295025

>  <r_i_glide_ligand_efficiency_ln>  (1) 
-1.1041217104190368

>  <r_i_glide_ligand_efficiency_sa>  (1) 
-0.46417418029647417

>  <r_i_glide_lipo>  (1) 
-3.4505174081847403

>  <r_i_glide_metal>  (1) 
-0

>  <r_i_glide_rewards>  (1) 
-1.2027057728716966

>  <r_lp_Energy>  (1) 
53.030488999999996

>  <s_epik_cmdline>  (1) 
J2VwaWtfcHl0aG9uJywgJy1waHQnLCAnMS4wJywgJy1waCcsICc3LjQnLCAnLXRuJywgJzgnLCAnLW1hJywgJzUwMCcsICctaW1hZScsICc8aW5maWxlLm1hZT4nLCAnLW9tYWUnLCAnPG91dGZpbGUubWFlPic=

>  <s_epik_input>  (1) 
W09IXUMoPU8pW0NIMl1bQ0gyXWMoW2NIXVtjSF0xKVtjSF1jKGMxMilDKD1PKU4oW0NAQEhdKEMoPU8pW09IXSlbQ0gyXVtDSDJdMilbQ0gyXVtDSDJdW0NIMl1cW0NIXT1bQ0hdXGMoYzNbT0hdKWMoQ2wpbmMoYzM0KVtDSDJdW0NIMl1TNA==

>  <s_glide_docking_method>  (1) 
confgen

>  <s_i_glide_gridfile>  (1) 
gpcr_5ht2c_6bqh_protein_autoprepared_prepared

>  <s_lp_Force_Field>  (1) 
S-OPLS

>  <s_lp_Variant>  (1) 
DiffSBDD_39_num_sample_100-5

>  <s_m_source_file>  (1) 
generated__ligand_DiffSBDD_2026-05-06_prepared.sdf

>  <GenAI_Model>  (1) 
DiffSBDD

>  <Protein>  (1) 
GPCR_5HT2C

$$$$
DiffSBDD_52_num_sample_100
     RDKit          3D

  0  0  0  0  0  0  0  0  0  0999 V3000
M  V30 BEGIN CTAB
M  V30 COUNTS 25 25 0 0 1
M  V30 BEGIN ATOM
M  V30 1 C 39.246653 29.728391 54.737754 0 CFG=1
M  V30 2 O 37.308831 31.217803 54.653502 0
M  V30 3 C 38.535255 31.185545 56.766429 0 CFG=2
M  V30 4 S 39.067398 27.036090 54.193334 0
M  V30 5 C 38.972597 28.006588 52.685004 0 CFG=2
M  V30 6 S 39.467403 29.721208 52.924569 0
M  V30 7 O 38.377413 32.700779 58.632728 0
M  V30 8 C 38.595526 31.045881 55.226203 0 CFG=1
M  V30 9 O 37.467403 30.421427 57.295547 0
M  V30 10 C 38.379741 32.644562 57.222549 0
M  V30 11 N 37.597304 28.021437 52.253502 0
M  V30 12 C 38.520167 28.442347 55.193325 0
M  V30 13 H 40.257503 29.681795 55.144457 0
M  V30 14 H 36.830350 31.885795 55.133291 0
M  V30 15 H 39.464057 30.798098 57.188302 0
M  V30 16 H 39.581430 27.546572 51.905967 0
M  V30 17 H 37.688867 32.121053 58.928598 0
M  V30 18 H 39.215770 31.859741 54.847598 0
M  V30 19 H 36.634895 30.849450 57.053500 0
M  V30 20 H 37.467402 33.096640 56.834549 0
M  V30 21 H 39.218065 33.231932 56.852713 0
M  V30 22 H 37.534736 28.527037 51.382366 0
M  V30 23 H 37.275083 27.081410 52.046473 0
M  V30 24 H 38.690751 28.233422 56.249358 0
M  V30 25 H 37.446074 28.551492 55.052662 0
M  V30 END ATOM
M  V30 BEGIN BOND
M  V30 1 1 5 4
M  V30 2 1 6 1
M  V30 3 1 6 5
M  V30 4 1 8 1
M  V30 5 1 8 2
M  V30 6 1 8 3
M  V30 7 1 9 3
M  V30 8 1 10 3
M  V30 9 1 10 7
M  V30 10 1 11 5
M  V30 11 1 12 1
M  V30 12 1 12 4
M  V30 13 1 1 13 CFG=1
M  V30 14 1 14 2
M  V30 15 1 3 15 CFG=1
M  V30 16 1 5 16 CFG=3
M  V30 17 1 17 7
M  V30 18 1 8 18 CFG=3
M  V30 19 1 19 9
M  V30 20 1 20 10
M  V30 21 1 21 10
M  V30 22 1 22 11
M  V30 23 1 23 11
M  V30 24 1 24 12
M  V30 25 1 25 12
M  V30 END BOND
M  V30 END CTAB
M  END
>  <i_epik_Tot_Q>  (1) 
0

>  <i_epik_Tot_abs_Q>  (1) 
0

>  <i_i_glide_confnum>  (1) 
52

>  <i_i_glide_lignum>  (1) 
139

>  <i_i_glide_posenum>  (1) 
326

>  <i_i_glide_rotatable_bonds>  (1) 
6

>  <i_lp_mmshare_version>  (1) 
72125

>  <i_m_source_file_index>  (1) 
53

>  <i_f3d_flags>  (1) 
0

>  <num_sample>  (1) 
100

>  <b_lp_Chiralities_Consistent>  (1) 
1

>  <r_epik_Charging_Adjusted_Penalty>  (1) 
0.012458627256782779

>  <r_epik_Ionization_Penalty>  (1) 
0.012459545935989014

>  <r_epik_Ionization_Penalty_Charging>  (1) 
0

>  <r_epik_Ionization_Penalty_Neutral>  (1) 
0.012459545935989014

>  <r_epik_State_Penalty>  (1) 
0.012458627256782779

>  <r_glide_ring_energy>  (1) 
1.2668700789393423

>  <r_i_docking_score>  (1) 
-5.0605241198350299

>  <r_i_glide_ecoul>  (1) 
-10.248283028404149

>  <r_i_glide_eff_state_penalty>  (1) 
0.012458627256782779

>  <r_i_glide_einternal>  (1) 
15.170926440885616

>  <r_i_glide_emodel>  (1) 
-32.447354455130622

>  <r_i_glide_emodel_strain>  (1) 
0.14902549490548367

>  <r_i_glide_energy>  (1) 
-28.633758716489307

>  <r_i_glide_erotb>  (1) 
1.1173698675060917

>  <r_i_glide_esite>  (1) 
0

>  <r_i_glide_evdw>  (1) 
-18.385475688085158

>  <r_i_glide_gscore>  (1) 
-5.072982747091813

>  <r_i_glide_gscore_strain>  (1) 
0

>  <r_i_glide_hbond>  (1) 
-0.50278807579953777

>  <r_i_glide_ligand_efficiency>  (1) 
-0.42171034331958585

>  <r_i_glide_ligand_efficiency_ln>  (1) 
-1.4521261624448047

>  <r_i_glide_ligand_efficiency_sa>  (1) 
-0.96547567245997057

>  <r_i_glide_lipo>  (1) 
-1.09514824096157

>  <r_i_glide_metal>  (1) 
-0

>  <r_i_glide_rewards>  (1) 
-2.1359000591719171

>  <r_lp_Energy>  (1) 
-2.6088819999999999

>  <s_epik_Chemistry_Notes>  (1) 
This compound contains an acetal/aminal-like group ( X-CH(R)-Y where X, Y are N, S, or O) that may be acid/base labile, releasing an aldehyde.

>  <s_epik_cmdline>  (1) 
J2VwaWtfcHl0aG9uJywgJy1waHQnLCAnMS4wJywgJy1waCcsICc3LjQnLCAnLXRuJywgJzgnLCAnLW1hJywgJzUwMCcsICctaW1hZScsICc8aW5maWxlLm1hZT4nLCAnLW9tYWUnLCAnPG91dGZpbGUubWFlPic=

>  <s_epik_input>  (1) 
W0NIMl0xU1tDQEhdKFtOSDJdKVNbQ0BIXTFbQ0BASF0oW09IXSlbQ0BIXShbT0hdKVtDSDJdW09IXQ==

>  <s_glide_docking_method>  (1) 
confgen

>  <s_i_glide_gridfile>  (1) 
gpcr_5ht2c_6bqh_protein_autoprepared_prepared

>  <s_lp_Force_Field>  (1) 
S-OPLS

>  <s_lp_Variant>  (1) 
DiffSBDD_52_num_sample_100-2

>  <s_m_source_file>  (1) 
generated__ligand_DiffSBDD_2026-05-06_prepared.sdf

>  <GenAI_Model>  (1) 
DiffSBDD

>  <Protein>  (1) 
GPCR_5HT2C

$$$$
DiffSBDD_90_num_sample_100
     RDKit          3D

  0  0  0  0  0  0  0  0  0  0999 V3000
M  V30 BEGIN CTAB
M  V30 COUNTS 84 87 0 0 1
M  V30 BEGIN ATOM
M  V30 1 C 37.469453 32.482045 58.626210 0
M  V30 2 O 41.728416 35.163802 65.751040 0
M  V30 3 F 40.664635 24.827888 58.203180 0
M  V30 4 C 38.380096 29.731544 54.637496 0 CFG=1
M  V30 5 C 42.799115 31.597504 66.030557 0 CFG=2
M  V30 6 C 41.075882 31.257909 64.310655 0 CFG=1
M  V30 7 C 40.129349 30.766192 51.457197 0
M  V30 8 C 39.529023 31.702370 62.357844 0
M  V30 9 C 39.288699 30.685524 53.810861 0
M  V30 10 N 42.562870 34.013588 65.464239 0
M  V30 11 C 39.491353 26.622411 59.053417 0
M  V30 12 C 38.546117 32.021431 53.718939 0
M  V30 13 C 42.570896 31.042120 64.603676 0
M  V30 14 C 40.664590 32.451912 65.192925 0
M  V30 15 O 42.535579 29.358579 66.856536 0
M  V30 16 N 37.964075 31.112620 58.869018 0
M  V30 17 C 40.767089 31.492065 62.840174 0
M  V30 18 F 41.281113 26.786526 57.556289 0
M  V30 19 C 38.758059 27.199676 56.315550 0 CFG=2
M  V30 20 N 37.067478 30.143523 58.285159 0
M  V30 21 C 38.867757 27.950918 58.719587 0
M  V30 22 C 38.236519 30.913362 60.313801 0
M  V30 23 O 39.467394 30.077112 52.515516 0
M  V30 24 C 40.667425 30.853141 54.497739 0
M  V30 25 C 38.366196 33.587618 59.198190 0
M  V30 26 C 39.287309 25.827463 56.698385 0
M  V30 27 C 39.219825 31.948990 60.892408 0 CFG=1
M  V30 28 C 41.885917 32.852938 66.044733 0 CFG=1
M  V30 29 C 38.578562 28.278177 54.125855 0
M  V30 30 O 41.882438 31.029125 68.177610 0 CHG=-1
M  V30 31 C 37.544497 29.355796 57.113871 0 CFG=1
M  V30 32 C 38.661203 33.361490 60.684555 0
M  V30 33 O 44.163280 31.929274 66.253444 0
M  V30 34 C 38.514634 30.074133 56.167501 0
M  V30 35 C 37.993495 27.914346 57.463529 0 CFG=1
M  V30 36 C 38.025496 27.162662 54.980128 0
M  V30 37 C 40.231635 26.021529 57.870372 0
M  V30 38 C 42.365474 30.571389 67.116192 0
M  V30 39 H 37.370745 32.643217 57.554077 0
M  V30 40 H 36.468408 32.570757 59.051051 0
M  V30 41 H 41.647476 35.575967 64.902122 0
M  V30 42 H 37.334665 29.921484 54.389107 0
M  V30 43 H 40.522300 30.374879 64.636352 0
M  V30 44 H 40.357397 30.046347 50.670911 0
M  V30 45 H 39.503121 31.530938 50.999337 0
M  V30 46 H 41.067432 31.221422 51.754553 0
M  V30 47 H 38.688255 31.704744 63.034505 0
M  V30 48 H 43.395173 34.229037 65.995389 0
M  V30 49 H 38.704238 25.933387 59.358641 0
M  V30 50 H 40.167235 26.821437 59.878317 0
M  V30 51 H 38.880573 32.735897 54.471118 0
M  V30 52 H 38.667395 32.440261 52.734732 0
M  V30 53 H 37.469232 31.937402 53.853795 0
M  V30 54 H 42.871388 30.001555 64.473882 0
M  V30 55 H 43.156474 31.621439 63.893235 0
M  V30 56 H 39.867429 32.121228 65.853202 0
M  V30 57 H 40.267794 33.283154 64.611990 0
M  V30 58 H 41.608143 31.488593 62.163422 0
M  V30 59 H 39.678493 27.760536 56.159942 0
M  V30 60 H 36.236085 30.664191 57.988009 0
M  V30 61 H 38.257087 28.206233 59.577302 0
M  V30 62 H 39.648951 28.705863 58.619984 0
M  V30 63 H 38.670384 29.936037 60.488371 0
M  V30 64 H 37.292979 30.945556 60.859281 0
M  V30 65 H 40.616899 31.556806 55.328509 0
M  V30 66 H 41.031452 29.918148 54.912946 0
M  V30 67 H 41.449910 31.221439 53.853493 0
M  V30 68 H 39.300889 33.621312 58.637869 0
M  V30 69 H 37.868062 34.548029 59.060093 0
M  V30 70 H 38.470477 25.152069 56.957540 0
M  V30 71 H 39.833514 25.371511 55.870725 0
M  V30 72 H 40.155612 31.869708 60.342421 0
M  V30 73 H 41.583415 33.127050 67.056879 0
M  V30 74 H 38.118968 28.182562 53.140759 0
M  V30 75 H 39.634493 28.074246 53.971942 0
M  V30 76 H 36.667404 29.259846 56.502676 0
M  V30 77 H 37.747434 33.489226 61.266442 0
M  V30 78 H 39.371508 34.108848 61.041998 0
M  V30 79 H 44.452130 32.464085 65.532772 0
M  V30 80 H 38.327015 31.141612 56.251023 0
M  V30 81 H 39.521913 29.938511 56.556257 0
M  V30 82 H 37.102112 27.329539 57.695227 0
M  V30 83 H 36.947912 27.221186 55.053488 0
M  V30 84 H 38.221367 26.223899 54.460427 0
M  V30 END ATOM
M  V30 BEGIN BOND
M  V30 1 1 9 4
M  V30 2 1 10 2
M  V30 3 1 12 9
M  V30 4 1 13 5
M  V30 5 1 13 6
M  V30 6 1 14 6
M  V30 7 1 16 1
M  V30 8 1 17 6
M  V30 9 2 17 8
M  V30 10 1 20 16
M  V30 11 1 21 11
M  V30 12 1 22 16
M  V30 13 1 23 7
M  V30 14 1 23 9
M  V30 15 1 24 9
M  V30 16 1 25 1
M  V30 17 1 26 19
M  V30 18 1 27 8
M  V30 19 1 27 22
M  V30 20 1 28 5
M  V30 21 1 28 10
M  V30 22 1 28 14
M  V30 23 1 29 4
M  V30 24 1 31 20
M  V30 25 1 32 25
M  V30 26 1 32 27
M  V30 27 1 5 33 CFG=1
M  V30 28 1 34 4
M  V30 29 1 34 31
M  V30 30 1 35 19
M  V30 31 1 35 21
M  V30 32 1 35 31
M  V30 33 1 36 19
M  V30 34 1 36 29
M  V30 35 1 37 3
M  V30 36 1 37 11
M  V30 37 1 37 18
M  V30 38 1 37 26
M  V30 39 1 38 5
M  V30 40 2 38 15
M  V30 41 1 38 30
M  V30 42 1 39 1
M  V30 43 1 40 1
M  V30 44 1 41 2
M  V30 45 1 4 42 CFG=3
M  V30 46 1 6 43 CFG=1
M  V30 47 1 44 7
M  V30 48 1 45 7
M  V30 49 1 46 7
M  V30 50 1 47 8
M  V30 51 1 48 10
M  V30 52 1 49 11
M  V30 53 1 50 11
M  V30 54 1 51 12
M  V30 55 1 52 12
M  V30 56 1 53 12
M  V30 57 1 54 13
M  V30 58 1 55 13
M  V30 59 1 56 14
M  V30 60 1 57 14
M  V30 61 1 58 17
M  V30 62 1 19 59 CFG=3
M  V30 63 1 60 20
M  V30 64 1 61 21
M  V30 65 1 62 21
M  V30 66 1 63 22
M  V30 67 1 64 22
M  V30 68 1 65 24
M  V30 69 1 66 24
M  V30 70 1 67 24
M  V30 71 1 68 25
M  V30 72 1 69 25
M  V30 73 1 70 26
M  V30 74 1 71 26
M  V30 75 1 27 72 CFG=3
M  V30 76 1 28 73 CFG=1
M  V30 77 1 74 29
M  V30 78 1 75 29
M  V30 79 1 31 76 CFG=3
M  V30 80 1 77 32
M  V30 81 1 78 32
M  V30 82 1 79 33
M  V30 83 1 80 34
M  V30 84 1 81 34
M  V30 85 1 35 82 CFG=1
M  V30 86 1 83 36
M  V30 87 1 84 36
M  V30 END BOND
M  V30 END CTAB
M  END
>  <i_epik_Tot_Q>  (1) 
-1

>  <i_epik_Tot_abs_Q>  (1) 
1

>  <i_i_glide_confnum>  (1) 
1506

>  <i_i_glide_lignum>  (1) 
230

>  <i_i_glide_posenum>  (1) 
259

>  <i_i_glide_rotatable_bonds>  (1) 
10

>  <i_lp_mmshare_version>  (1) 
72125

>  <i_m_source_file_index>  (1) 
91

>  <i_f3d_flags>  (1) 
0

>  <num_sample>  (1) 
100

>  <b_lp_Chiralities_Consistent>  (1) 
1

>  <r_epik_Charging_Adjusted_Penalty>  (1) 
0.43821527866000726

>  <r_epik_Ionization_Penalty>  (1) 
0.52002734918543769

>  <r_epik_Ionization_Penalty_Charging>  (1) 
0.00012691742049533285

>  <r_epik_Ionization_Penalty_Neutral>  (1) 
0.51990043176494238

>  <r_epik_State_Penalty>  (1) 
0.43808836123951195

>  <r_glide_ring_energy>  (1) 
0.69230642483633709

>  <r_i_docking_score>  (1) 
-5.0602190949793933

>  <r_i_glide_ecoul>  (1) 
0.098640074512595932

>  <r_i_glide_eff_state_penalty>  (1) 
0.43808836123951195

>  <r_i_glide_einternal>  (1) 
12.453553983489428

>  <r_i_glide_emodel>  (1) 
-16.602696553222245

>  <r_i_glide_emodel_strain>  (1) 
4.3341024503112635

>  <r_i_glide_energy>  (1) 
-25.519652112015638

>  <r_i_glide_erotb>  (1) 
0.42146348941000378

>  <r_i_glide_esite>  (1) 
-0.15383954035349748

>  <r_i_glide_evdw>  (1) 
-25.618292186528233

>  <r_i_glide_gscore>  (1) 
-5.4983074562189049

>  <r_i_glide_gscore_strain>  (1) 
0.083525612577815878

>  <r_i_glide_hbond>  (1) 
-0.16

>  <r_i_glide_ligand_efficiency>  (1) 
-0.13316366039419456

>  <r_i_glide_ligand_efficiency_ln>  (1) 
-1.0911320934418915

>  <r_i_glide_ligand_efficiency_sa>  (1) 
-0.44769295132461134

>  <r_i_glide_lipo>  (1) 
-3.8247351264021834

>  <r_i_glide_metal>  (1) 
-0

>  <r_i_glide_rewards>  (1) 
-0.59860329330152073

>  <r_lp_Energy>  (1) 
50.567886999999999

>  <s_epik_Chemistry_Notes>  (1) 
This compound has a N-S or N-O group and may undergo hydrolysis at high or low pH.

>  <s_epik_cmdline>  (1) 
J2VwaWtfcHl0aG9uJywgJy1waHQnLCAnMS4wJywgJy1waCcsICc3LjQnLCAnLXRuJywgJzgnLCAnLW1hJywgJzUwMCcsICctaW1hZScsICc8aW5maWxlLm1hZT4nLCAnLW9tYWUnLCAnPG91dGZpbGUubWFlPic=

>  <s_epik_input>  (1) 
RkMoRikoW0NIMl0xKVtDSDJdW0NIMl1bQ0BIXShbQ0BASF0xMilbQ0BIXShbQ0gyXVtDQEhdKFtDSDJdW0NIMl0yKUMoW0NIM10pKFtDSDNdKU9bQ0gzXSlbTkhdTjNbQ0gyXVtDSDJdW0NIMl1bQ0BIXShbQ0gyXTMpL1tDSF09W0NIXS9bQ0BASF0oW0NIMl1bQ0BdNChbT0hdKUMoPU8pW09IXSlbQ0gyXVtDQEBIXTRbTkhdW09IXQ==

>  <s_glide_docking_method>  (1) 
confgen

>  <s_i_glide_gridfile>  (1) 
gpcr_5ht2c_6bqh_protein_autoprepared_prepared

>  <s_lp_Force_Field>  (1) 
S-OPLS

>  <s_lp_Variant>  (1) 
DiffSBDD_90_num_sample_100-2

>  <s_m_source_file>  (1) 
generated__ligand_DiffSBDD_2026-05-06_prepared.sdf

>  <GenAI_Model>  (1) 
DiffSBDD

>  <Protein>  (1) 
GPCR_5HT2C

$$$$
DiffSBDD_44_num_sample_100
     RDKit          3D

  0  0  0  0  0  0  0  0  0  0999 V3000
M  V30 BEGIN CTAB
M  V30 COUNTS 58 59 0 0 1
M  V30 BEGIN ATOM
M  V30 1 C 38.646718 28.715975 52.361868 0
M  V30 2 O 40.110508 27.669259 56.012148 0 CHG=-1
M  V30 3 C 37.188145 31.039625 60.504762 0
M  V30 4 C 39.633464 29.882255 54.329467 0 CFG=1
M  V30 5 N 38.667730 28.831304 54.767766 0 CFG=1 CHG=1
M  V30 6 C 39.101008 32.590550 60.440791 0
M  V30 7 N 38.894490 28.701060 59.794291 0
M  V30 8 C 38.479001 31.199681 60.349899 0
M  V30 9 O 40.523868 29.996033 60.944499 0
M  V30 10 C 39.360327 29.992849 52.817764 0 CFG=1
M  V30 11 C 40.468801 30.413125 51.853608 0
M  V30 12 C 38.660459 28.979614 57.316566 0 CFG=1
M  V30 13 C 38.667380 28.176650 58.642576 0
M  V30 14 C 38.426648 27.913022 53.630604 0
M  V30 15 C 40.185220 29.584428 62.264166 0
M  V30 16 C 35.673598 32.970519 60.812501 0
M  V30 17 C 38.871749 28.097714 56.047336 0 CFG=2
M  V30 18 C 39.433676 30.043488 60.024579 0 CFG=1
M  V30 19 F 36.438484 35.161605 60.587087 0
M  V30 20 C 36.824437 33.909926 60.347526 0 CFG=1
M  V30 21 C 35.968413 31.487039 60.658335 0
M  V30 22 C 37.343124 29.786823 57.252054 0
M  V30 23 C 38.349537 26.696254 58.494172 0
M  V30 24 C 39.387134 31.240721 55.017019 0
M  V30 25 C 38.193347 33.697471 61.045276 0
M  V30 26 H 39.238452 28.134537 51.653594 0
M  V30 27 H 37.700828 28.945067 51.871850 0
M  V30 28 H 40.667405 29.621447 54.529699 0
M  V30 29 H 40.008996 32.523445 61.040991 0
M  V30 30 H 39.416204 32.886001 59.440426 0
M  V30 31 H 38.667418 30.806219 52.814193 0
M  V30 32 H 41.103075 29.566255 51.604423 0
M  V30 33 H 40.045662 30.771295 50.913733 0
M  V30 34 H 41.067374 31.221490 52.264436 0
M  V30 35 H 39.499536 29.662759 57.307707 0
M  V30 36 H 39.142380 27.089066 53.657071 0
M  V30 37 H 37.427463 27.478070 53.673985 0
M  V30 38 H 41.078910 29.607523 62.887349 0
M  V30 39 H 39.447218 30.245798 62.718629 0
M  V30 40 H 39.796101 28.565699 62.282883 0
M  V30 41 H 34.779142 33.194277 60.228911 0
M  V30 42 H 35.418382 33.168186 61.853396 0
M  V30 43 H 38.033717 27.401098 56.029875 0
M  V30 44 H 39.867381 30.416740 59.115672 0
M  V30 45 H 36.945717 33.846782 59.264292 0
M  V30 46 H 35.123341 30.821444 60.671825 0
M  V30 47 H 37.430946 30.714380 57.812269 0
M  V30 48 H 37.049614 30.086503 56.249899 0
M  V30 49 H 36.501093 29.232795 57.667166 0
M  V30 50 H 37.401667 26.547058 57.979701 0
M  V30 51 H 39.140521 26.176539 57.954239 0
M  V30 52 H 38.267424 26.217887 59.453506 0
M  V30 53 H 39.877890 32.021439 54.450994 0
M  V30 54 H 38.330606 31.507133 55.056030 0
M  V30 55 H 39.797562 31.295413 56.021602 0
M  V30 56 H 38.036053 33.502824 62.106179 0
M  V30 57 H 38.753603 34.632548 61.003014 0
M  V30 58 H 37.796167 29.324591 54.886294 0
M  V30 END ATOM
M  V30 BEGIN BOND
M  V30 1 1 5 4
M  V30 2 2 8 3
M  V30 3 1 8 6
M  V30 4 1 10 1
M  V30 5 1 10 4
M  V30 6 1 11 10
M  V30 7 2 13 7
M  V30 8 1 13 12
M  V30 9 1 14 1
M  V30 10 1 14 5
M  V30 11 1 15 9
M  V30 12 1 17 2
M  V30 13 1 17 5
M  V30 14 1 17 12
M  V30 15 1 18 7
M  V30 16 1 18 8
M  V30 17 1 18 9
M  V30 18 1 20 16
M  V30 19 1 20 19
M  V30 20 2 21 3
M  V30 21 1 21 16
M  V30 22 1 22 12
M  V30 23 1 23 13
M  V30 24 1 24 4
M  V30 25 1 25 6
M  V30 26 1 25 20
M  V30 27 1 26 1
M  V30 28 1 27 1
M  V30 29 1 4 28 CFG=3
M  V30 30 1 29 6
M  V30 31 1 30 6
M  V30 32 1 10 31 CFG=1
M  V30 33 1 32 11
M  V30 34 1 33 11
M  V30 35 1 34 11
M  V30 36 1 12 35 CFG=1
M  V30 37 1 36 14
M  V30 38 1 37 14
M  V30 39 1 38 15
M  V30 40 1 39 15
M  V30 41 1 40 15
M  V30 42 1 41 16
M  V30 43 1 42 16
M  V30 44 1 17 43 CFG=1
M  V30 45 1 18 44 CFG=3
M  V30 46 1 20 45 CFG=3
M  V30 47 1 46 21
M  V30 48 1 47 22
M  V30 49 1 48 22
M  V30 50 1 49 22
M  V30 51 1 50 23
M  V30 52 1 51 23
M  V30 53 1 52 23
M  V30 54 1 53 24
M  V30 55 1 54 24
M  V30 56 1 55 24
M  V30 57 1 56 25
M  V30 58 1 57 25
M  V30 59 1 5 58 CFG=1
M  V30 END BOND
M  V30 END CTAB
M  END
>  <i_epik_Tot_Q>  (1) 
0

>  <i_epik_Tot_abs_Q>  (1) 
2

>  <i_i_glide_confnum>  (1) 
20

>  <i_i_glide_lignum>  (1) 
114

>  <i_i_glide_posenum>  (1) 
285

>  <i_i_glide_rotatable_bonds>  (1) 
6

>  <i_lp_mmshare_version>  (1) 
72125

>  <i_m_source_file_index>  (1) 
45

>  <i_f3d_flags>  (1) 
0

>  <num_sample>  (1) 
100

>  <b_lp_Chiralities_Consistent>  (1) 
1

>  <r_epik_Charging_Adjusted_Penalty>  (1) 
0.41733257654759531

>  <r_epik_Ionization_Penalty>  (1) 
0.0069177268181324029

>  <r_epik_Ionization_Penalty_Charging>  (1) 
0.0066527375949913311

>  <r_epik_Ionization_Penalty_Neutral>  (1) 
0.00026498922314107146

>  <r_epik_State_Penalty>  (1) 
0.41067983895260396

>  <r_glide_ring_energy>  (1) 
0

>  <r_i_docking_score>  (1) 
-5.0587890605571086

>  <r_i_glide_ecoul>  (1) 
-1.535645440503016

>  <r_i_glide_eff_state_penalty>  (1) 
0.41067983895260396

>  <r_i_glide_einternal>  (1) 
7.0004243597639224

>  <r_i_glide_emodel>  (1) 
-33.985203873401879

>  <r_i_glide_emodel_strain>  (1) 
3.7119177532387084

>  <r_i_glide_energy>  (1) 
-26.695534790593911

>  <r_i_glide_erotb>  (1) 
0.61440649929112812

>  <r_i_glide_esite>  (1) 
0

>  <r_i_glide_evdw>  (1) 
-25.159889350090896

>  <r_i_glide_gscore>  (1) 
-5.4694688995097129

>  <r_i_glide_gscore_strain>  (1) 
0

>  <r_i_glide_hbond>  (1) 
-0.21763936372600232

>  <r_i_glide_ligand_efficiency>  (1) 
-0.20235156242228436

>  <r_i_glide_ligand_efficiency_ln>  (1) 
-1.1990846070268368

>  <r_i_glide_ligand_efficiency_sa>  (1) 
-0.59167955787784754

>  <r_i_glide_lipo>  (1) 
-2.0480576434939621

>  <r_i_glide_metal>  (1) 
-0

>  <r_i_glide_rewards>  (1) 
-2.3298371080008797

>  <r_lp_Energy>  (1) 
9.5307370000000002

>  <r_lp_tautomer_probability>  (1) 
0.49999399997599986

>  <s_epik_Chemistry_Notes>  (1) 
This compound has an imine and may undergo hydrolysis. This compound contains an acetal/aminal-like group ( X-CH(R)-Y where X, Y are N, S, or O) that may be acid/base labile, releasing an aldehyde.

>  <s_epik_cmdline>  (1) 
J2VwaWtfcHl0aG9uJywgJy1waHQnLCAnMS4wJywgJy1waCcsICc3LjQnLCAnLXRuJywgJzgnLCAnLW1hJywgJzUwMCcsICctaW1hZScsICc8aW5maWxlLm1hZT4nLCAnLW9tYWUnLCAnPG91dGZpbGUubWFlPic=

>  <s_epik_input>  (1) 
W0NIM11bQ0BIXTFbQ0gyXVtDSDJdTihbQ0BASF0xW0NIM10pW0NAQEhdKFtPSF0pW0NAQEhdKFtDSDNdKS9DKFtDSDNdKT1OXFtDQEBIXShPW0NIM10pQzI9Qz1bQ0hdW0NIMl1bQ0BASF0oRilbQ0gyXVtDSDJdMg==

>  <s_glide_docking_method>  (1) 
confgen

>  <s_i_glide_gridfile>  (1) 
gpcr_5ht2c_6bqh_protein_autoprepared_prepared

>  <s_lp_Force_Field>  (1) 
S-OPLS

>  <s_lp_Variant>  (1) 
DiffSBDD_44_num_sample_100-7

>  <s_m_source_file>  (1) 
generated__ligand_DiffSBDD_2026-05-06_prepared.sdf

>  <GenAI_Model>  (1) 
DiffSBDD

>  <Protein>  (1) 
GPCR_5HT2C

$$$$
DiffSBDD_52_num_sample_100
     RDKit          3D

  0  0  0  0  0  0  0  0  0  0999 V3000
M  V30 BEGIN CTAB
M  V30 COUNTS 25 25 0 0 1
M  V30 BEGIN ATOM
M  V30 1 C 38.972435 29.377900 54.330500 0 CFG=1
M  V30 2 O 37.867405 28.801537 56.339205 0
M  V30 3 C 38.700241 30.981160 56.480525 0 CFG=2
M  V30 4 S 39.009294 28.096142 51.850784 0
M  V30 5 C 40.044997 29.567753 51.875907 0 CFG=2
M  V30 6 S 39.730996 30.651126 53.284976 0
M  V30 7 O 37.867479 32.797457 55.035654 0
M  V30 8 C 38.105932 29.920595 55.508983 0 CFG=1
M  V30 9 O 37.867511 31.071617 57.628128 0
M  V30 10 C 38.871938 32.422182 55.956015 0
M  V30 11 N 39.867942 30.320827 50.656265 0
M  V30 12 C 38.134700 28.466678 53.401679 0
M  V30 13 H 39.805626 28.801368 54.735128 0
M  V30 14 H 37.658098 29.155686 57.195453 0
M  V30 15 H 39.670703 30.633623 56.837304 0
M  V30 16 H 41.070111 29.219131 51.887595 0
M  V30 17 H 37.003957 32.825874 55.451967 0
M  V30 18 H 37.143100 30.278100 55.140459 0
M  V30 19 H 36.986898 31.354540 57.364063 0
M  V30 20 H 39.834083 32.499297 55.452849 0
M  V30 21 H 38.908341 33.143573 56.774071 0
M  V30 22 H 40.530985 31.082746 50.613733 0
M  V30 23 H 40.025275 29.729692 49.853445 0
M  V30 24 H 37.853231 27.537415 53.897209 0
M  V30 25 H 37.205473 28.968035 53.132198 0
M  V30 END ATOM
M  V30 BEGIN BOND
M  V30 1 1 5 4
M  V30 2 1 6 1
M  V30 3 1 6 5
M  V30 4 1 8 1
M  V30 5 1 8 2
M  V30 6 1 8 3
M  V30 7 1 9 3
M  V30 8 1 10 3
M  V30 9 1 10 7
M  V30 10 1 11 5
M  V30 11 1 12 1
M  V30 12 1 12 4
M  V30 13 1 1 13 CFG=1
M  V30 14 1 14 2
M  V30 15 1 3 15 CFG=1
M  V30 16 1 5 16 CFG=1
M  V30 17 1 17 7
M  V30 18 1 8 18 CFG=3
M  V30 19 1 19 9
M  V30 20 1 20 10
M  V30 21 1 21 10
M  V30 22 1 22 11
M  V30 23 1 23 11
M  V30 24 1 24 12
M  V30 25 1 25 12
M  V30 END BOND
M  V30 END CTAB
M  END
>  <i_epik_Tot_Q>  (1) 
0

>  <i_epik_Tot_abs_Q>  (1) 
0

>  <i_i_glide_confnum>  (1) 
81

>  <i_i_glide_lignum>  (1) 
139

>  <i_i_glide_posenum>  (1) 
396

>  <i_i_glide_rotatable_bonds>  (1) 
6

>  <i_lp_mmshare_version>  (1) 
72125

>  <i_m_source_file_index>  (1) 
53

>  <i_f3d_flags>  (1) 
0

>  <num_sample>  (1) 
100

>  <b_lp_Chiralities_Consistent>  (1) 
1

>  <r_epik_Charging_Adjusted_Penalty>  (1) 
0.012458627256782779

>  <r_epik_Ionization_Penalty>  (1) 
0.012459545935989014

>  <r_epik_Ionization_Penalty_Charging>  (1) 
0

>  <r_epik_Ionization_Penalty_Neutral>  (1) 
0.012459545935989014

>  <r_epik_State_Penalty>  (1) 
0.012458627256782779

>  <r_glide_ring_energy>  (1) 
1.828644863221095

>  <r_i_docking_score>  (1) 
-5.052355360839182

>  <r_i_glide_ecoul>  (1) 
-6.4610648215077422

>  <r_i_glide_eff_state_penalty>  (1) 
0.012458627256782779

>  <r_i_glide_einternal>  (1) 
6.731494118725915

>  <r_i_glide_emodel>  (1) 
-36.393529154466052

>  <r_i_glide_emodel_strain>  (1) 
0.57834415284357021

>  <r_i_glide_energy>  (1) 
-28.808131189558779

>  <r_i_glide_erotb>  (1) 
1.1173698675060917

>  <r_i_glide_esite>  (1) 
0

>  <r_i_glide_evdw>  (1) 
-22.347066368051035

>  <r_i_glide_gscore>  (1) 
-5.0648139880959651

>  <r_i_glide_gscore_strain>  (1) 
0

>  <r_i_glide_hbond>  (1) 
-0.31324832097342226

>  <r_i_glide_ligand_efficiency>  (1) 
-0.42102961340326517

>  <r_i_glide_ligand_efficiency_ln>  (1) 
-1.4497821229003467

>  <r_i_glide_ligand_efficiency_sa>  (1) 
-0.96391718999888176

>  <r_i_glide_lipo>  (1) 
-1.4874610427194532

>  <r_i_glide_metal>  (1) 
-0

>  <r_i_glide_rewards>  (1) 
-2.2949614502804683

>  <r_lp_Energy>  (1) 
-2.6088819999999999

>  <s_epik_Chemistry_Notes>  (1) 
This compound contains an acetal/aminal-like group ( X-CH(R)-Y where X, Y are N, S, or O) that may be acid/base labile, releasing an aldehyde.

>  <s_epik_cmdline>  (1) 
J2VwaWtfcHl0aG9uJywgJy1waHQnLCAnMS4wJywgJy1waCcsICc3LjQnLCAnLXRuJywgJzgnLCAnLW1hJywgJzUwMCcsICctaW1hZScsICc8aW5maWxlLm1hZT4nLCAnLW9tYWUnLCAnPG91dGZpbGUubWFlPic=

>  <s_epik_input>  (1) 
W0NIMl0xU1tDQEhdKFtOSDJdKVNbQ0BIXTFbQ0BASF0oW09IXSlbQ0BIXShbT0hdKVtDSDJdW09IXQ==

>  <s_glide_docking_method>  (1) 
confgen

>  <s_i_glide_gridfile>  (1) 
gpcr_5ht2c_6bqh_protein_autoprepared_prepared

>  <s_lp_Force_Field>  (1) 
S-OPLS

>  <s_lp_Variant>  (1) 
DiffSBDD_52_num_sample_100-2

>  <s_m_source_file>  (1) 
generated__ligand_DiffSBDD_2026-05-06_prepared.sdf

>  <GenAI_Model>  (1) 
DiffSBDD

>  <Protein>  (1) 
GPCR_5HT2C

$$$$
DiffSBDD_1_num_sample_100
     RDKit          3D

  0  0  0  0  0  0  0  0  0  0999 V3000
M  V30 BEGIN CTAB
M  V30 COUNTS 63 66 0 0 1
M  V30 BEGIN ATOM
M  V30 1 C 38.738417 27.425119 57.034718 0
M  V30 2 C 40.085766 34.778593 61.985866 0
M  V30 3 O 39.195645 25.951781 58.653500 0
M  V30 4 C 37.982577 33.639304 61.114947 0 CFG=1
M  V30 5 C 38.198596 28.682389 56.476778 0
M  V30 6 C 38.155077 31.249862 60.425619 0
M  V30 7 C 37.312361 37.279540 62.633597 0
M  V30 8 C 41.682993 35.486213 63.488856 0
M  V30 9 N 40.423878 36.223894 63.763563 0 CHG=1
M  V30 10 C 37.951674 33.276191 57.295328 0
M  V30 11 C 37.429562 29.620967 57.416854 0
M  V30 12 C 38.686260 36.915045 62.041129 0 CFG=2
M  V30 13 C 39.353205 35.767561 62.839467 0 CFG=1
M  V30 14 C 37.683972 31.642576 59.011726 0 CFG=2
M  V30 15 C 38.267404 31.918123 56.655437 0
M  V30 16 C 38.679182 27.130242 58.295208 0
M  V30 17 N 37.633195 32.231389 61.408664 0
M  V30 18 C 39.487828 33.836231 61.232562 0
M  V30 19 O 38.328880 28.993147 55.293567 0
M  V30 20 C 39.632110 38.116308 61.853504 0
M  V30 21 C 39.616662 25.410006 57.340110 0
M  V30 22 C 37.499695 34.025466 59.695362 0
M  V30 23 C 41.545174 34.906725 62.077497 0
M  V30 24 N 38.063938 33.043469 58.741392 0 CFG=2 CHG=1
M  V30 25 O 36.267404 31.661114 59.053502 0
M  V30 26 C 39.363592 26.449203 56.142295 0
M  V30 27 C 38.229828 30.873734 57.795831 0 CFG=2
M  V30 28 O 36.667374 38.267634 61.853503 0
M  V30 29 H 37.470815 34.279917 61.830421 0
M  V30 30 H 39.242129 31.191501 60.468323 0
M  V30 31 H 37.793233 30.250238 60.668608 0
M  V30 32 H 37.411420 37.621430 63.663148 0
M  V30 33 H 36.667236 36.400892 62.665087 0
M  V30 34 H 41.773264 34.676590 64.215380 0
M  V30 35 H 42.556464 36.130388 63.598330 0
M  V30 36 H 40.606714 37.207119 63.608007 0
M  V30 37 H 38.659900 34.021429 56.951605 0
M  V30 38 H 36.949297 33.621421 57.053502 0
M  V30 39 H 37.078077 29.107468 58.307826 0
M  V30 40 H 36.517898 29.923085 56.903000 0
M  V30 41 H 38.478724 36.543826 61.038195 0
M  V30 42 H 38.667403 35.221435 63.451726 0
M  V30 43 H 39.251806 31.925308 56.185602 0
M  V30 44 H 37.542688 31.705175 55.866838 0
M  V30 45 H 38.267404 27.705102 59.108304 0
M  V30 46 H 36.619427 32.162925 61.349346 0
M  V30 47 H 40.105072 33.160439 60.660348 0
M  V30 48 H 39.867404 38.626284 62.786876 0
M  V30 49 H 40.581400 37.766466 61.453502 0
M  V30 50 H 39.220353 38.855194 61.164473 0
M  V30 51 H 40.667403 25.153452 57.403293 0
M  V30 52 H 39.079476 24.479445 57.154104 0
M  V30 53 H 36.410909 34.067309 59.638831 0
M  V30 54 H 37.850720 35.023621 59.439260 0
M  V30 55 H 42.041255 33.944378 61.946888 0
M  V30 56 H 41.868013 35.614639 61.315048 0
M  V30 57 H 35.904601 31.621447 58.140700 0
M  V30 58 H 38.674993 26.075328 55.383310 0
M  V30 59 H 40.284284 26.828886 55.696961 0
M  V30 60 H 39.257384 30.584665 58.022071 0
M  V30 61 H 36.505703 37.939095 60.981705 0
M  V30 62 H 40.152796 36.105661 64.729399 0
M  V30 63 H 39.057100 33.063494 58.911243 0
M  V30 END ATOM
M  V30 BEGIN BOND
M  V30 1 1 5 1
M  V30 2 1 9 8
M  V30 3 1 11 5
M  V30 4 1 12 7
M  V30 5 1 13 2
M  V30 6 1 13 9
M  V30 7 1 13 12
M  V30 8 1 14 6
M  V30 9 1 15 10
M  V30 10 2 16 1
M  V30 11 1 16 3
M  V30 12 1 17 4
M  V30 13 1 17 6
M  V30 14 2 18 2
M  V30 15 1 18 4
M  V30 16 2 19 5
M  V30 17 1 20 12
M  V30 18 1 21 3
M  V30 19 1 22 4
M  V30 20 1 23 2
M  V30 21 1 23 8
M  V30 22 1 24 10
M  V30 23 1 24 14
M  V30 24 1 24 22
M  V30 25 1 14 25 CFG=1
M  V30 26 1 26 1
M  V30 27 1 26 21
M  V30 28 1 27 11
M  V30 29 1 27 14
M  V30 30 1 27 15
M  V30 31 1 28 7
M  V30 32 1 4 29 CFG=1
M  V30 33 1 30 6
M  V30 34 1 31 6
M  V30 35 1 32 7
M  V30 36 1 33 7
M  V30 37 1 34 8
M  V30 38 1 35 8
M  V30 39 1 36 9
M  V30 40 1 37 10
M  V30 41 1 38 10
M  V30 42 1 39 11
M  V30 43 1 40 11
M  V30 44 1 12 41 CFG=3
M  V30 45 1 13 42 CFG=1
M  V30 46 1 43 15
M  V30 47 1 44 15
M  V30 48 1 45 16
M  V30 49 1 46 17
M  V30 50 1 47 18
M  V30 51 1 48 20
M  V30 52 1 49 20
M  V30 53 1 50 20
M  V30 54 1 51 21
M  V30 55 1 52 21
M  V30 56 1 53 22
M  V30 57 1 54 22
M  V30 58 1 55 23
M  V30 59 1 56 23
M  V30 60 1 57 25
M  V30 61 1 58 26
M  V30 62 1 59 26
M  V30 63 1 27 60 CFG=1
M  V30 64 1 61 28
M  V30 65 1 62 9
M  V30 66 1 24 63 CFG=1
M  V30 END BOND
M  V30 END CTAB
M  END
>  <i_epik_Tot_Q>  (1) 
2

>  <i_epik_Tot_abs_Q>  (1) 
2

>  <i_i_glide_confnum>  (1) 
30

>  <i_i_glide_lignum>  (1) 
13

>  <i_i_glide_posenum>  (1) 
36

>  <i_i_glide_rotatable_bonds>  (1) 
8

>  <i_lp_mmshare_version>  (1) 
72125

>  <i_m_source_file_index>  (1) 
2

>  <i_f3d_flags>  (1) 
0

>  <num_sample>  (1) 
100

>  <b_lp_Chiralities_Consistent>  (1) 
1

>  <r_epik_Charging_Adjusted_Penalty>  (1) 
2.3622130296898831

>  <r_epik_Ionization_Penalty>  (1) 
1.4312966064593899

>  <r_epik_Ionization_Penalty_Charging>  (1) 
1.1852885594971458

>  <r_epik_Ionization_Penalty_Neutral>  (1) 
0.24600804696224418

>  <r_epik_State_Penalty>  (1) 
1.176924470192737

>  <r_glide_ring_energy>  (1) 
0

>  <r_i_docking_score>  (1) 
-5.0475343954379932

>  <r_i_glide_ecoul>  (1) 
-12.903620210729118

>  <r_i_glide_eff_state_penalty>  (1) 
1.176924470192737

>  <r_i_glide_einternal>  (1) 
3.1589590376631236

>  <r_i_glide_emodel>  (1) 
-49.532270401412518

>  <r_i_glide_emodel_strain>  (1) 
1.9158303631705706

>  <r_i_glide_energy>  (1) 
-33.806961417242562

>  <r_i_glide_erotb>  (1) 
0.75687532201182384

>  <r_i_glide_esite>  (1) 
-0.11546717335293391

>  <r_i_glide_evdw>  (1) 
-20.903341206513446

>  <r_i_glide_gscore>  (1) 
-6.22445886563073

>  <r_i_glide_gscore_strain>  (1) 
0

>  <r_i_glide_hbond>  (1) 
-0.090411381119714238

>  <r_i_glide_ligand_efficiency>  (1) 
-0.1802690855513569

>  <r_i_glide_ligand_efficiency_ln>  (1) 
-1.1651191405167203

>  <r_i_glide_ligand_efficiency_sa>  (1) 
-0.54740311715536083

>  <r_i_glide_lipo>  (1) 
-2.5298204418071029

>  <r_i_glide_metal>  (1) 
-0

>  <r_i_glide_rewards>  (1) 
-1.2649250994277632

>  <r_lp_Energy>  (1) 
26.616364999999998

>  <s_epik_cmdline>  (1) 
J2VwaWtfcHl0aG9uJywgJy1waHQnLCAnMS4wJywgJy1waCcsICc3LjQnLCAnLXRuJywgJzgnLCAnLW1hJywgJzUwMCcsICctaW1hZScsICc8aW5maWxlLm1hZT4nLCAnLW9tYWUnLCAnPG91dGZpbGUubWFlPic=

>  <s_epik_input>  (1) 
W0NIMl0xW0NIMl1PW0NIXT1DMUMoPU8pW0NIMl1bQ0BIXTJbQ0gyXVtDSDJdTihbQ0BAXTIzW09IXSlbQ0gyXVtDQEBIXShbTkhdW0NIMl0zKS9bQ0hdPUM0XFtDQEBIXShbTkhdW0NIMl1bQ0gyXTQpW0NASF0oW0NIM10pW0NIMl1bT0hd

>  <s_glide_docking_method>  (1) 
confgen

>  <s_i_glide_gridfile>  (1) 
gpcr_5ht2c_6bqh_protein_autoprepared_prepared

>  <s_lp_Force_Field>  (1) 
S-OPLS

>  <s_lp_Variant>  (1) 
DiffSBDD_1_num_sample_100-7

>  <s_m_source_file>  (1) 
generated__ligand_DiffSBDD_2026-05-06_prepared.sdf

>  <GenAI_Model>  (1) 
DiffSBDD

>  <Protein>  (1) 
GPCR_5HT2C

$$$$
DiffSBDD_79_num_sample_100
     RDKit          3D

  0  0  0  0  0  0  0  0  0  0999 V3000
M  V30 BEGIN CTAB
M  V30 COUNTS 85 87 0 0 1
M  V30 BEGIN ATOM
M  V30 1 C 39.067383 34.766586 62.280051 0
M  V30 2 C 37.740411 32.163107 57.913471 0
M  V30 3 C 41.990072 29.710136 66.620159 0
M  V30 4 C 39.474464 29.761128 51.592965 0
M  V30 5 C 38.516207 35.891724 60.253750 0
M  V30 6 C 44.214934 28.652684 66.486809 0
M  V30 7 C 38.356236 34.539582 60.938024 0
M  V30 8 C 40.130047 30.324128 62.459727 0
M  V30 9 F 45.069004 28.266047 65.539553 0
M  V30 10 C 40.667468 29.145981 50.863852 0
M  V30 11 C 38.598012 33.170722 58.680692 0
M  V30 12 C 42.394129 30.553796 63.669840 0
M  V30 13 F 44.893439 29.321483 67.419376 0
M  V30 14 C 43.115243 29.536745 65.910392 0
M  V30 15 C 40.267176 30.419685 64.920389 0
M  V30 16 C 37.636370 30.061809 56.644650 0
M  V30 17 C 38.630751 27.901288 52.954784 0
M  V30 18 N 39.222234 29.126685 52.892211 0
M  V30 19 C 37.047326 33.797348 60.701677 0
M  V30 20 C 40.927450 30.430685 63.753434 0
M  V30 21 C 39.700846 29.858249 54.087191 0
M  V30 22 C 38.690599 30.074677 59.016324 0 CFG=2
M  V30 23 C 38.349317 33.163520 60.187413 0
M  V30 24 C 35.966666 34.317888 59.743120 0
M  V30 25 O 39.415656 30.920287 59.853536 0
M  V30 26 O 38.267425 27.295500 51.951199 0
M  V30 27 C 39.666155 28.962647 58.587392 0
M  V30 28 C 36.297460 33.200095 61.853478 0
M  V30 29 C 38.424600 27.269633 54.333260 0
M  V30 30 N 38.407635 30.872666 57.636159 0 CFG=2 CHG=1
M  V30 31 F 43.705922 27.556965 67.051919 0
M  V30 32 C 43.332397 30.170576 64.592920 0
M  V30 33 C 38.805002 31.034681 54.513369 0
M  V30 34 C 40.871774 30.607387 66.256611 0
M  V30 35 C 37.493861 30.665397 55.220113 0
M  V30 36 C 39.590439 31.698476 62.029556 0
M  V30 37 C 38.698776 31.740531 60.768171 0 CFG=1
M  V30 38 H 39.045889 33.960230 62.989755 0
M  V30 39 H 38.637082 35.620942 62.804317 0
M  V30 40 H 40.120049 34.990021 62.102058 0
M  V30 41 H 37.467446 32.646367 56.977972 0
M  V30 42 H 36.820406 31.973650 58.466367 0
M  V30 43 H 41.898314 29.214655 67.576038 0
M  V30 44 H 38.606351 29.621449 50.952179 0
M  V30 45 H 39.627369 30.835557 51.701806 0
M  V30 46 H 38.253794 36.706239 60.929636 0
M  V30 47 H 39.561183 36.021385 59.978006 0
M  V30 48 H 37.867315 36.026721 59.395640 0
M  V30 49 H 40.771127 29.900018 61.685695 0
M  V30 50 H 39.307532 29.620027 62.592582 0
M  V30 51 H 40.838947 29.651880 49.913505 0
M  V30 52 H 41.574857 29.221098 51.453477 0
M  V30 53 H 40.498832 28.090155 50.653637 0
M  V30 54 H 39.658753 33.106231 58.455409 0
M  V30 55 H 38.288584 34.126456 58.282931 0
M  V30 56 H 42.782666 30.939583 62.739415 0
M  V30 57 H 39.191117 30.329130 64.906198 0
M  V30 58 H 38.108423 29.094933 56.531726 0
M  V30 59 H 36.648318 29.862672 57.057086 0
M  V30 60 H 40.667318 30.287966 53.820780 0
M  V30 61 H 39.927894 29.232193 54.946411 0
M  V30 62 H 37.780860 29.683915 59.475521 0
M  V30 63 H 35.467356 35.176315 60.186637 0
M  V30 64 H 36.334715 34.634422 58.771832 0
M  V30 65 H 35.217133 33.548724 59.552021 0
M  V30 66 H 39.149111 28.142262 58.092349 0
M  V30 67 H 40.454688 29.352581 57.943632 0
M  V30 68 H 40.133117 28.543009 59.479263 0
M  V30 69 H 35.669098 33.967724 62.309698 0
M  V30 70 H 35.660088 32.379619 61.520840 0
M  V30 71 H 36.986050 32.821162 62.605577 0
M  V30 72 H 37.657013 27.799301 54.888066 0
M  V30 73 H 38.057345 26.250609 54.205244 0
M  V30 74 H 39.345405 27.192425 54.910506 0
M  V30 75 H 44.362369 30.293451 64.292158 0
M  V30 76 H 38.569178 31.638756 53.636056 0
M  V30 77 H 39.379359 31.699552 55.159032 0
M  V30 78 H 41.190760 31.644607 66.366132 0
M  V30 79 H 40.081992 30.455789 66.993134 0
M  V30 80 H 36.931599 29.972143 54.595181 0
M  V30 81 H 36.875176 31.557103 55.230693 0
M  V30 82 H 38.989819 31.993887 62.879908 0
M  V30 83 H 40.426474 32.390696 61.920462 0
M  V30 84 H 37.771260 31.226181 61.020005 0
M  V30 85 H 39.292148 31.096291 57.205157 0
M  V30 END ATOM
M  V30 BEGIN BOND
M  V30 1 1 7 1
M  V30 2 1 7 5
M  V30 3 1 9 6
M  V30 4 1 10 4
M  V30 5 1 11 2
M  V30 6 1 13 6
M  V30 7 2 14 3
M  V30 8 1 14 6
M  V30 9 1 18 4
M  V30 10 1 18 17
M  V30 11 1 19 7
M  V30 12 1 20 8
M  V30 13 1 20 12
M  V30 14 2 20 15
M  V30 15 1 21 18
M  V30 16 1 23 7
M  V30 17 1 23 11
M  V30 18 1 23 19
M  V30 19 1 24 19
M  V30 20 1 25 22
M  V30 21 2 26 17
M  V30 22 1 27 22
M  V30 23 1 28 19
M  V30 24 1 29 17
M  V30 25 1 30 2
M  V30 26 1 30 16
M  V30 27 1 30 22
M  V30 28 1 31 6
M  V30 29 2 32 12
M  V30 30 1 32 14
M  V30 31 1 33 21
M  V30 32 1 34 3
M  V30 33 1 34 15
M  V30 34 1 35 16
M  V30 35 1 35 33
M  V30 36 1 36 8
M  V30 37 1 37 23
M  V30 38 1 37 25
M  V30 39 1 37 36
M  V30 40 1 38 1
M  V30 41 1 39 1
M  V30 42 1 40 1
M  V30 43 1 41 2
M  V30 44 1 42 2
M  V30 45 1 43 3
M  V30 46 1 44 4
M  V30 47 1 45 4
M  V30 48 1 46 5
M  V30 49 1 47 5
M  V30 50 1 48 5
M  V30 51 1 49 8
M  V30 52 1 50 8
M  V30 53 1 51 10
M  V30 54 1 52 10
M  V30 55 1 53 10
M  V30 56 1 54 11
M  V30 57 1 55 11
M  V30 58 1 56 12
M  V30 59 1 57 15
M  V30 60 1 58 16
M  V30 61 1 59 16
M  V30 62 1 60 21
M  V30 63 1 61 21
M  V30 64 1 22 62 CFG=1
M  V30 65 1 63 24
M  V30 66 1 64 24
M  V30 67 1 65 24
M  V30 68 1 66 27
M  V30 69 1 67 27
M  V30 70 1 68 27
M  V30 71 1 69 28
M  V30 72 1 70 28
M  V30 73 1 71 28
M  V30 74 1 72 29
M  V30 75 1 73 29
M  V30 76 1 74 29
M  V30 77 1 75 32
M  V30 78 1 76 33
M  V30 79 1 77 33
M  V30 80 1 78 34
M  V30 81 1 79 34
M  V30 82 1 80 35
M  V30 83 1 81 35
M  V30 84 1 82 36
M  V30 85 1 83 36
M  V30 86 1 37 84 CFG=1
M  V30 87 1 30 85 CFG=3
M  V30 END BOND
M  V30 END CTAB
M  END
>  <i_epik_Tot_Q>  (1) 
1

>  <i_epik_Tot_abs_Q>  (1) 
1

>  <i_i_glide_confnum>  (1) 
364

>  <i_i_glide_lignum>  (1) 
202

>  <i_i_glide_posenum>  (1) 
197

>  <i_i_glide_rotatable_bonds>  (1) 
11

>  <i_lp_mmshare_version>  (1) 
72125

>  <i_m_source_file_index>  (1) 
80

>  <i_f3d_flags>  (1) 
0

>  <num_sample>  (1) 
100

>  <b_lp_Chiralities_Consistent>  (1) 
1

>  <r_epik_Charging_Adjusted_Penalty>  (1) 
1.4563538393833728

>  <r_epik_Ionization_Penalty>  (1) 
0.72817750760685918

>  <r_epik_Ionization_Penalty_Charging>  (1) 
0.72817691969168641

>  <r_epik_Ionization_Penalty_Neutral>  (1) 
5.8791517278497126e-07

>  <r_epik_State_Penalty>  (1) 
0.72817691969168641

>  <r_glide_ring_energy>  (1) 
0

>  <r_i_docking_score>  (1) 
-5.0454548471118903

>  <r_i_glide_ecoul>  (1) 
-1.0489552476065711

>  <r_i_glide_eff_state_penalty>  (1) 
0.72817691969168641

>  <r_i_glide_einternal>  (1) 
13.734399496251967

>  <r_i_glide_emodel>  (1) 
-36.126387882532022

>  <r_i_glide_emodel_strain>  (1) 
0.6686029216876932

>  <r_i_glide_energy>  (1) 
-37.723254978489898

>  <r_i_glide_erotb>  (1) 
0.59581955881290138

>  <r_i_glide_esite>  (1) 
-0.066980139188932961

>  <r_i_glide_evdw>  (1) 
-36.674299730883327

>  <r_i_glide_gscore>  (1) 
-5.773631766803577

>  <r_i_glide_gscore_strain>  (1) 
0

>  <r_i_glide_hbond>  (1) 
0

>  <r_i_glide_ligand_efficiency>  (1) 
-0.13636364451653757

>  <r_i_glide_ligand_efficiency_ln>  (1) 
-1.0942408740949527

>  <r_i_glide_ligand_efficiency_sa>  (1) 
-0.45439391602808743

>  <r_i_glide_lipo>  (1) 
-2.8945323498513185

>  <r_i_glide_metal>  (1) 
-0

>  <r_i_glide_rewards>  (1) 
-1.4168805628910748

>  <r_lp_Energy>  (1) 
65.383792999999997

>  <s_epik_Chemistry_Notes>  (1) 
This compound contains an acetal/aminal-like group ( X-CH(R)-Y where X, Y are N, S, or O) that may be acid/base labile, releasing an aldehyde.

>  <s_epik_cmdline>  (1) 
J2VwaWtfcHl0aG9uJywgJy1waHQnLCAnMS4wJywgJy1waCcsICc3LjQnLCAnLXRuJywgJzgnLCAnLW1hJywgJzUwMCcsICctaW1hZScsICc8aW5maWxlLm1hZT4nLCAnLW9tYWUnLCAnPG91dGZpbGUubWFlPic=

>  <s_epik_input>  (1) 
W0NIM11bQ0gyXU4oQyg9TylbQ0gzXSlbQ0gyXVtDSDJdW0NIMl1bQ0gyXU4oW0NIMl1bQ0gyXUMxMkMoW0NIM10pKFtDSDNdKUMxKFtDSDNdKVtDSDNdKVtDQEBIXShbQ0gzXSlPW0NASF0yW0NIMl1bQ0gyXUMoW0NIXT1bQ0hdMyk9W0NIXVtDSDJdW0NIXT1DM0MoRikoRilG

>  <s_glide_docking_method>  (1) 
confgen

>  <s_i_glide_gridfile>  (1) 
gpcr_5ht2c_6bqh_protein_autoprepared_prepared

>  <s_lp_Force_Field>  (1) 
S-OPLS

>  <s_lp_Variant>  (1) 
DiffSBDD_79_num_sample_100-4

>  <s_m_source_file>  (1) 
generated__ligand_DiffSBDD_2026-05-06_prepared.sdf

>  <GenAI_Model>  (1) 
DiffSBDD

>  <Protein>  (1) 
GPCR_5HT2C

$$$$
DiffSBDD_44_num_sample_100
     RDKit          3D

  0  0  0  0  0  0  0  0  0  0999 V3000
M  V30 BEGIN CTAB
M  V30 COUNTS 58 59 0 0 1
M  V30 BEGIN ATOM
M  V30 1 C 39.399291 28.271223 50.379923 0
M  V30 2 O 37.465278 29.221367 54.148647 0 CHG=-1
M  V30 3 C 39.264579 28.035114 59.547833 0
M  V30 4 C 40.100122 29.795314 52.025076 0 CFG=1
M  V30 5 N 38.928714 29.108416 52.587437 0 CFG=1 CHG=1
M  V30 6 C 37.555045 28.900177 58.000450 0
M  V30 7 N 37.862968 26.475365 56.458253 0
M  V30 8 C 38.544113 27.829844 58.476936 0
M  V30 9 O 38.267403 25.431049 58.486364 0
M  V30 10 C 39.872515 29.714516 50.524455 0 CFG=1
M  V30 11 C 41.067484 30.148055 49.665948 0
M  V30 12 C 39.288553 27.744768 54.800463 0 CFG=1
M  V30 13 C 38.162563 26.747455 55.248369 0
M  V30 14 C 38.663733 27.953573 51.696840 0
M  V30 15 C 38.191745 24.149502 57.853548 0
M  V30 16 C 39.092232 30.092906 60.904723 0
M  V30 17 C 38.752470 29.039445 54.064674 0 CFG=2
M  V30 18 C 38.656430 26.525490 57.665810 0 CFG=1
M  V30 19 F 37.613682 31.799341 60.377471 0
M  V30 20 C 37.810904 30.507819 60.112427 0 CFG=1
M  V30 21 C 39.652400 28.712842 60.594772 0
M  V30 22 C 40.361595 28.161953 55.846489 0
M  V30 23 C 37.401559 26.104256 54.117819 0
M  V30 24 C 40.268934 31.221413 52.493507 0
M  V30 25 C 37.830439 30.330213 58.567172 0
M  V30 26 H 40.247752 27.598064 50.253648 0
M  V30 27 H 38.748069 28.169878 49.520271 0
M  V30 28 H 40.991328 29.221768 52.253279 0
M  V30 29 H 37.579452 28.989391 56.916404 0
M  V30 30 H 36.543786 28.583452 58.253390 0
M  V30 31 H 39.050794 30.371967 50.253669 0
M  V30 32 H 42.014278 30.021446 50.184160 0
M  V30 33 H 41.093178 29.621009 48.712248 0
M  V30 34 H 41.002818 31.216051 49.453567 0
M  V30 35 H 39.867476 27.182218 54.073332 0
M  V30 36 H 39.053063 27.017593 52.084108 0
M  V30 37 H 37.590501 27.846347 51.543317 0
M  V30 38 H 37.867400 23.410272 58.584502 0
M  V30 39 H 37.451432 24.102754 57.054365 0
M  V30 40 H 39.160357 23.848431 57.453348 0
M  V30 41 H 38.876575 30.137787 61.972818 0
M  V30 42 H 39.887508 30.815789 60.723114 0
M  V30 43 H 39.348871 29.846926 54.472755 0
M  V30 44 H 39.701888 26.311248 57.460986 0
M  V30 45 H 36.925446 30.021349 60.513681 0
M  V30 46 H 40.395701 28.321969 61.274440 0
M  V30 47 H 40.970421 27.326976 56.187718 0
M  V30 48 H 41.067485 28.884407 55.453489 0
M  V30 49 H 39.944622 28.708495 56.679850 0
M  V30 50 H 36.793911 26.820334 53.566313 0
M  V30 51 H 38.097800 25.621488 53.453432 0
M  V30 52 H 36.740852 25.326249 54.504116 0
M  V30 53 H 41.067260 31.621423 51.885052 0
M  V30 54 H 39.377747 31.829074 52.357951 0
M  V30 55 H 40.597787 31.276653 53.529491 0
M  V30 56 H 38.775311 30.704735 58.171950 0
M  V30 57 H 37.067583 30.985708 58.148950 0
M  V30 58 H 38.161308 29.732943 52.394497 0
M  V30 END ATOM
M  V30 BEGIN BOND
M  V30 1 1 5 4
M  V30 2 2 8 3
M  V30 3 1 8 6
M  V30 4 1 10 1
M  V30 5 1 10 4
M  V30 6 1 11 10
M  V30 7 2 13 7
M  V30 8 1 13 12
M  V30 9 1 14 1
M  V30 10 1 14 5
M  V30 11 1 15 9
M  V30 12 1 17 2
M  V30 13 1 17 5
M  V30 14 1 17 12
M  V30 15 1 18 7
M  V30 16 1 18 8
M  V30 17 1 18 9
M  V30 18 1 20 16
M  V30 19 1 20 19
M  V30 20 2 21 3
M  V30 21 1 21 16
M  V30 22 1 22 12
M  V30 23 1 23 13
M  V30 24 1 24 4
M  V30 25 1 25 6
M  V30 26 1 25 20
M  V30 27 1 26 1
M  V30 28 1 27 1
M  V30 29 1 4 28 CFG=3
M  V30 30 1 29 6
M  V30 31 1 30 6
M  V30 32 1 10 31 CFG=1
M  V30 33 1 32 11
M  V30 34 1 33 11
M  V30 35 1 34 11
M  V30 36 1 12 35 CFG=3
M  V30 37 1 36 14
M  V30 38 1 37 14
M  V30 39 1 38 15
M  V30 40 1 39 15
M  V30 41 1 40 15
M  V30 42 1 41 16
M  V30 43 1 42 16
M  V30 44 1 17 43 CFG=1
M  V30 45 1 18 44 CFG=3
M  V30 46 1 20 45 CFG=1
M  V30 47 1 46 21
M  V30 48 1 47 22
M  V30 49 1 48 22
M  V30 50 1 49 22
M  V30 51 1 50 23
M  V30 52 1 51 23
M  V30 53 1 52 23
M  V30 54 1 53 24
M  V30 55 1 54 24
M  V30 56 1 55 24
M  V30 57 1 56 25
M  V30 58 1 57 25
M  V30 59 1 5 58 CFG=3
M  V30 END BOND
M  V30 END CTAB
M  END
>  <i_epik_Tot_Q>  (1) 
0

>  <i_epik_Tot_abs_Q>  (1) 
2

>  <i_i_glide_confnum>  (1) 
3

>  <i_i_glide_lignum>  (1) 
114

>  <i_i_glide_posenum>  (1) 
48

>  <i_i_glide_rotatable_bonds>  (1) 
6

>  <i_lp_mmshare_version>  (1) 
72125

>  <i_m_source_file_index>  (1) 
45

>  <i_f3d_flags>  (1) 
0

>  <num_sample>  (1) 
100

>  <b_lp_Chiralities_Consistent>  (1) 
1

>  <r_epik_Charging_Adjusted_Penalty>  (1) 
0.41733257654759531

>  <r_epik_Ionization_Penalty>  (1) 
0.0069177268181324029

>  <r_epik_Ionization_Penalty_Charging>  (1) 
0.0066527375949913311

>  <r_epik_Ionization_Penalty_Neutral>  (1) 
0.00026498922314107146

>  <r_epik_State_Penalty>  (1) 
0.41067983895260396

>  <r_glide_ring_energy>  (1) 
0

>  <r_i_docking_score>  (1) 
-5.0448039977911536

>  <r_i_glide_ecoul>  (1) 
-1.4613758947544087

>  <r_i_glide_eff_state_penalty>  (1) 
0.41067983895260396

>  <r_i_glide_einternal>  (1) 
8.2834714215568468

>  <r_i_glide_emodel>  (1) 
-28.703077081104951

>  <r_i_glide_emodel_strain>  (1) 
10.769143942371585

>  <r_i_glide_energy>  (1) 
-29.149237839483103

>  <r_i_glide_erotb>  (1) 
0.61440649929112812

>  <r_i_glide_esite>  (1) 
-0.01168283877167541

>  <r_i_glide_evdw>  (1) 
-27.687861944728695

>  <r_i_glide_gscore>  (1) 
-5.4554838367437579

>  <r_i_glide_gscore_strain>  (1) 
1.6922859855928962

>  <r_i_glide_hbond>  (1) 
0

>  <r_i_glide_ligand_efficiency>  (1) 
-0.20179215991164615

>  <r_i_glide_ligand_efficiency_ln>  (1) 
-1.1957697280527935

>  <r_i_glide_ligand_efficiency_sa>  (1) 
-0.59004385501394063

>  <r_i_glide_lipo>  (1) 
-3.4039093133545282

>  <r_i_glide_metal>  (1) 
-0

>  <r_i_glide_rewards>  (1) 
-2.7429846880519828

>  <r_lp_Energy>  (1) 
9.5307370000000002

>  <r_lp_tautomer_probability>  (1) 
0.49999399997599986

>  <s_epik_Chemistry_Notes>  (1) 
This compound has an imine and may undergo hydrolysis. This compound contains an acetal/aminal-like group ( X-CH(R)-Y where X, Y are N, S, or O) that may be acid/base labile, releasing an aldehyde.

>  <s_epik_cmdline>  (1) 
J2VwaWtfcHl0aG9uJywgJy1waHQnLCAnMS4wJywgJy1waCcsICc3LjQnLCAnLXRuJywgJzgnLCAnLW1hJywgJzUwMCcsICctaW1hZScsICc8aW5maWxlLm1hZT4nLCAnLW9tYWUnLCAnPG91dGZpbGUubWFlPic=

>  <s_epik_input>  (1) 
W0NIM11bQ0BIXTFbQ0gyXVtDSDJdTihbQ0BASF0xW0NIM10pW0NAQEhdKFtPSF0pW0NAQEhdKFtDSDNdKS9DKFtDSDNdKT1OXFtDQEBIXShPW0NIM10pQzI9Qz1bQ0hdW0NIMl1bQ0BASF0oRilbQ0gyXVtDSDJdMg==

>  <s_glide_docking_method>  (1) 
confgen

>  <s_i_glide_gridfile>  (1) 
gpcr_5ht2c_6bqh_protein_autoprepared_prepared

>  <s_lp_Force_Field>  (1) 
S-OPLS

>  <s_lp_Variant>  (1) 
DiffSBDD_44_num_sample_100-7

>  <s_m_source_file>  (1) 
generated__ligand_DiffSBDD_2026-05-06_prepared.sdf

>  <GenAI_Model>  (1) 
DiffSBDD

>  <Protein>  (1) 
GPCR_5HT2C

$$$$
DiffSBDD_20_num_sample_100
     RDKit          3D

  0  0  0  0  0  0  0  0  0  0999 V3000
M  V30 BEGIN CTAB
M  V30 COUNTS 55 55 0 0 1
M  V30 BEGIN ATOM
M  V30 1 C 39.305069 27.268788 57.744093 0 CFG=1
M  V30 2 C 38.956827 29.928900 58.007153 0 CFG=2
M  V30 3 C 37.799342 26.747979 54.703264 0
M  V30 4 C 38.100341 24.908599 57.929519 0
M  V30 5 N 38.496148 30.921396 58.964437 0
M  V30 6 C 38.432659 32.670983 57.225490 0
M  V30 7 O 39.867446 30.535793 51.862713 0
M  V30 8 C 39.628890 28.643222 50.438512 0
M  V30 9 C 39.047069 27.783853 52.818392 0
M  V30 10 C 36.189700 33.490745 59.337107 0
M  V30 11 N 38.117561 26.819694 53.400806 0
M  V30 12 O 37.067503 25.875584 55.159918 0
M  V30 13 C 40.552267 26.883304 56.915059 0
M  V30 14 C 38.869774 26.060482 58.613102 0
M  V30 15 C 38.224152 32.127345 58.635900 0
M  V30 16 C 40.267183 29.981844 50.815839 0
M  V30 17 O 37.067319 31.580302 61.453497 0
M  V30 18 N 38.347383 27.722468 55.448925 0
M  V30 19 C 37.772931 29.276667 57.291531 0
M  V30 20 S 39.808879 28.599818 58.877384 0
M  V30 21 C 37.834584 32.724781 61.128049 0
M  V30 22 O 41.144978 30.421438 50.044895 0 CHG=-1
M  V30 23 C 38.121388 27.832196 56.894421 0 CFG=2
M  V30 24 C 37.658816 33.139254 59.644433 0 CFG=2
M  V30 25 C 38.554792 28.119067 51.407297 0
M  V30 26 H 39.662841 30.330976 57.279452 0
M  V30 27 H 37.867405 24.111955 58.636101 0
M  V30 28 H 37.126948 25.217815 57.557956 0
M  V30 29 H 38.665935 24.477128 57.103503 0
M  V30 30 H 38.146017 33.720145 57.160329 0
M  V30 31 H 40.408897 27.893303 50.330697 0
M  V30 32 H 39.187459 28.772277 49.453534 0
M  V30 33 H 39.182229 28.702885 53.386762 0
M  V30 34 H 40.011835 27.281395 52.752027 0
M  V30 35 H 36.074531 33.914331 58.338488 0
M  V30 36 H 35.547208 32.611153 59.393616 0
M  V30 37 H 35.803056 34.222597 60.046459 0
M  V30 38 H 37.718465 26.132615 52.776682 0
M  V30 39 H 40.355799 26.044623 56.246629 0
M  V30 40 H 40.909599 27.718759 56.311929 0
M  V30 41 H 41.377465 26.591505 57.564900 0
M  V30 42 H 39.769346 25.636951 59.053549 0
M  V30 43 H 38.267430 26.430771 59.439890 0
M  V30 44 H 37.285958 30.922685 60.803337 0
M  V30 45 H 38.936634 28.411079 55.006571 0
M  V30 46 H 36.921939 29.241162 57.974856 0
M  V30 47 H 37.436181 29.867604 56.439441 0
M  V30 48 H 37.535401 33.539481 61.787955 0
M  V30 49 H 38.884093 32.519682 61.343068 0
M  V30 50 H 37.213088 27.290414 57.147887 0
M  V30 51 H 38.237855 34.054646 59.517803 0
M  V30 52 H 38.148273 27.212578 50.961155 0
M  V30 53 H 37.726485 28.821798 51.474654 0
M  V30 54 H 39.479403 32.600744 56.933930 0
M  V30 55 H 37.825834 32.126116 56.503614 0
M  V30 END ATOM
M  V30 BEGIN BOND
M  V30 1 1 5 2
M  V30 2 1 11 3
M  V30 3 1 11 9
M  V30 4 2 12 3
M  V30 5 1 1 13 CFG=3
M  V30 6 1 14 1
M  V30 7 1 14 4
M  V30 8 2 15 5
M  V30 9 1 15 6
M  V30 10 2 16 7
M  V30 11 1 16 8
M  V30 12 1 18 3
M  V30 13 1 19 2
M  V30 14 1 20 1
M  V30 15 1 20 2
M  V30 16 1 21 17
M  V30 17 1 22 16
M  V30 18 1 23 1
M  V30 19 1 23 18
M  V30 20 1 23 19
M  V30 21 1 24 10
M  V30 22 1 24 15
M  V30 23 1 24 21
M  V30 24 1 25 8
M  V30 25 1 25 9
M  V30 26 1 2 26 CFG=3
M  V30 27 1 27 4
M  V30 28 1 28 4
M  V30 29 1 29 4
M  V30 30 1 30 6
M  V30 31 1 31 8
M  V30 32 1 32 8
M  V30 33 1 33 9
M  V30 34 1 34 9
M  V30 35 1 35 10
M  V30 36 1 36 10
M  V30 37 1 37 10
M  V30 38 1 38 11
M  V30 39 1 39 13
M  V30 40 1 40 13
M  V30 41 1 41 13
M  V30 42 1 42 14
M  V30 43 1 43 14
M  V30 44 1 44 17
M  V30 45 1 45 18
M  V30 46 1 46 19
M  V30 47 1 47 19
M  V30 48 1 48 21
M  V30 49 1 49 21
M  V30 50 1 23 50 CFG=1
M  V30 51 1 24 51 CFG=1
M  V30 52 1 52 25
M  V30 53 1 53 25
M  V30 54 1 54 6
M  V30 55 1 55 6
M  V30 END BOND
M  V30 END CTAB
M  END
>  <i_epik_Tot_Q>  (1) 
-1

>  <i_epik_Tot_abs_Q>  (1) 
1

>  <i_i_glide_confnum>  (1) 
884

>  <i_i_glide_lignum>  (1) 
56

>  <i_i_glide_posenum>  (1) 
131

>  <i_i_glide_rotatable_bonds>  (1) 
12

>  <i_lp_mmshare_version>  (1) 
72125

>  <i_m_source_file_index>  (1) 
21

>  <i_f3d_flags>  (1) 
0

>  <num_sample>  (1) 
100

>  <b_lp_Chiralities_Consistent>  (1) 
1

>  <r_epik_Charging_Adjusted_Penalty>  (1) 
0.43743025276339681

>  <r_epik_Ionization_Penalty>  (1) 
0.026773266926762091

>  <r_epik_Ionization_Penalty_Charging>  (1) 
0.0015534882308521432

>  <r_epik_Ionization_Penalty_Neutral>  (1) 
0.025219778695909949

>  <r_epik_State_Penalty>  (1) 
0.43587676453254465

>  <r_glide_ring_energy>  (1) 
0

>  <r_i_docking_score>  (1) 
-5.0311442698989879

>  <r_i_glide_ecoul>  (1) 
-3.5935088473086512

>  <r_i_glide_eff_state_penalty>  (1) 
0.43587676453254465

>  <r_i_glide_einternal>  (1) 
20.757825168877911

>  <r_i_glide_emodel>  (1) 
-42.497063237205893

>  <r_i_glide_emodel_strain>  (1) 
3.1847760574857134

>  <r_i_glide_energy>  (1) 
-43.760836899451142

>  <r_i_glide_erotb>  (1) 
1.2527341714622291

>  <r_i_glide_esite>  (1) 
-0.059744820955474565

>  <r_i_glide_evdw>  (1) 
-40.167328052142494

>  <r_i_glide_gscore>  (1) 
-5.4670210344315322

>  <r_i_glide_gscore_strain>  (1) 
0

>  <r_i_glide_hbond>  (1) 
-0.32000000000000001

>  <r_i_glide_ligand_efficiency>  (1) 
-0.20124577079595951

>  <r_i_glide_ligand_efficiency_ln>  (1) 
-1.1925319631933378

>  <r_i_glide_ligand_efficiency_sa>  (1) 
-0.58844620354770638

>  <r_i_glide_lipo>  (1) 
-2.3604298570352396

>  <r_i_glide_metal>  (1) 
-0

>  <r_i_glide_rewards>  (1) 
-1.4321877981996245

>  <r_lp_Energy>  (1) 
19.737282

>  <r_lp_tautomer_probability>  (1) 
0.49999399997599986

>  <s_epik_Chemistry_Notes>  (1) 
This compound has an imine and may undergo hydrolysis. This compound contains an acetal/aminal-like group ( X-CH(R)-Y where X, Y are N, S, or O) that may be acid/base labile, releasing an aldehyde.

>  <s_epik_cmdline>  (1) 
J2VwaWtfcHl0aG9uJywgJy1waHQnLCAnMS4wJywgJy1waCcsICc3LjQnLCAnLXRuJywgJzgnLCAnLW1hJywgJzUwMCcsICctaW1hZScsICc8aW5maWxlLm1hZT4nLCAnLW9tYWUnLCAnPG91dGZpbGUubWFlPic=

>  <s_epik_input>  (1) 
W09IXVtDSDJdW0NAQEhdKFtDSDNdKUMoPVtDSDJdKVtOSF1bQ0BASF0oU1tDQEBdMShbQ0gzXSlbQ0gyXVtDSDNdKVtDSDJdW0NASF0xW05IXUMoPU8pW05IXVtDSDJdW0NIMl1bQ0gyXUMoPU8pW09IXQ==

>  <s_glide_docking_method>  (1) 
confgen

>  <s_i_glide_gridfile>  (1) 
gpcr_5ht2c_6bqh_protein_autoprepared_prepared

>  <s_lp_Force_Field>  (1) 
S-OPLS

>  <s_lp_Variant>  (1) 
DiffSBDD_20_num_sample_100-4

>  <s_m_source_file>  (1) 
generated__ligand_DiffSBDD_2026-05-06_prepared.sdf

>  <GenAI_Model>  (1) 
DiffSBDD

>  <Protein>  (1) 
GPCR_5HT2C

$$$$
DiffSBDD_99_num_sample_100
     RDKit          3D

  0  0  0  0  0  0  0  0  0  0999 V3000
M  V30 BEGIN CTAB
M  V30 COUNTS 90 93 0 0 1
M  V30 BEGIN ATOM
M  V30 1 C 40.866736 28.806748 65.996547 0
M  V30 2 C 40.939399 31.029783 64.794326 0 CFG=1
M  V30 3 C 39.949280 25.729669 54.942113 0
M  V30 4 C 37.885675 29.272349 55.432836 0
M  V30 5 O 37.908790 24.421237 56.610178 0 CHG=-1
M  V30 6 O 42.777497 27.743963 68.833303 0
M  V30 7 O 41.867738 29.571153 63.057173 0
M  V30 8 C 37.943984 30.810601 60.123969 0
M  V30 9 O 41.334944 32.083345 67.701821 0
M  V30 10 C 41.827272 30.843827 67.215210 0 CFG=1
M  V30 11 C 36.652077 29.631670 58.273565 0
M  V30 12 C 42.115580 28.460499 68.082860 0
M  V30 13 C 39.341319 30.226280 57.227451 0
M  V30 14 C 41.468836 27.950013 66.848864 0
M  V30 15 O 39.867168 26.421344 53.708295 0
M  V30 16 C 38.550075 25.402389 57.042988 0
M  V30 17 C 41.874462 33.263711 67.126566 0
M  V30 18 C 39.445658 31.991873 61.831131 0 CFG=2
M  V30 19 C 37.354227 30.938016 58.704882 0 CFG=2
M  V30 20 C 41.960408 33.265378 65.591596 0
M  V30 21 C 39.669807 27.788446 56.483009 0 CFG=2
M  V30 22 C 41.525914 26.448980 66.630654 0
M  V30 23 C 39.536923 33.163796 62.821029 0 CFG=2
M  V30 24 C 40.782949 27.624211 57.550416 0
M  V30 25 C 38.388656 31.364942 57.635895 0
M  V30 26 C 38.172172 34.640187 61.242389 0
M  V30 27 C 37.633582 28.520816 57.873583 0
M  V30 28 O 38.807812 25.628417 58.244555 0
M  V30 29 C 39.429956 34.532980 62.122691 0
M  V30 30 C 41.923940 29.932768 68.437720 0
M  V30 31 C 40.785819 32.574908 64.868040 0 CFG=1
M  V30 32 C 38.068083 33.474963 60.250685 0
M  V30 33 O 40.758190 33.164086 63.565358 0
M  V30 34 C 40.720442 31.907753 61.000056 0
M  V30 35 C 38.159183 32.100334 60.970320 0 CFG=1
M  V30 36 C 42.190718 30.593776 63.979710 0
M  V30 37 C 38.625397 28.933297 56.761470 0 CFG=2
M  V30 38 C 40.814916 30.322425 66.171773 0 CFG=2
M  V30 39 C 39.056744 26.423097 55.991025 0 CFG=1
M  V30 40 H 40.389263 28.414818 65.108921 0
M  V30 41 H 40.062118 30.680321 64.259715 0
M  V30 42 H 40.983074 25.688568 55.279110 0
M  V30 43 H 39.630844 24.704352 54.754552 0
M  V30 44 H 38.592548 29.530592 54.643999 0
M  V30 45 H 37.274859 28.460500 55.052996 0
M  V30 46 H 37.201808 30.113951 55.525053 0
M  V30 47 H 41.643637 28.786325 63.534532 0
M  V30 48 H 38.848811 30.211727 60.069557 0
M  V30 49 H 37.267538 30.185063 60.703273 0
M  V30 50 H 42.830716 30.946451 66.798485 0
M  V30 51 H 35.986633 29.272872 59.059928 0
M  V30 52 H 36.001365 29.836553 57.430203 0
M  V30 53 H 39.972261 30.019854 58.088542 0
M  V30 54 H 39.998039 30.584915 56.436509 0
M  V30 55 H 38.960986 26.428330 53.437758 0
M  V30 56 H 41.243824 34.090705 67.454433 0
M  V30 57 H 42.863445 33.447890 67.548148 0
M  V30 58 H 39.360777 31.058516 62.379174 0
M  V30 59 H 36.577705 31.697281 58.747744 0
M  V30 60 H 42.017392 34.307203 65.272372 0
M  V30 61 H 42.907967 32.827569 65.280888 0
M  V30 62 H 40.231421 28.159647 55.625352 0
M  V30 63 H 41.043122 25.928832 67.459409 0
M  V30 64 H 41.013431 26.161337 65.712520 0
M  V30 65 H 42.560412 26.110974 66.562232 0
M  V30 66 H 38.675295 33.060081 63.453495 0
M  V30 67 H 40.387958 27.552042 58.562407 0
M  V30 68 H 41.375411 26.728737 57.371524 0
M  V30 69 H 41.483425 28.456762 57.535924 0
M  V30 70 H 37.866603 31.750448 56.761973 0
M  V30 71 H 38.991762 32.200449 57.975729 0
M  V30 72 H 37.272036 34.656923 61.853346 0
M  V30 73 H 38.181711 35.587808 60.701471 0
M  V30 74 H 38.185012 28.207155 58.758833 0
M  V30 75 H 37.066164 27.651077 57.555526 0
M  V30 76 H 39.416908 35.323306 62.873813 0
M  V30 77 H 40.317997 34.710289 61.515715 0
M  V30 78 H 41.008390 30.004797 69.023372 0
M  V30 79 H 42.738339 30.258941 69.085081 0
M  V30 80 H 39.867585 32.821399 65.394961 0
M  V30 81 H 37.122521 33.573093 59.717700 0
M  V30 82 H 38.851186 33.602488 59.509318 0
M  V30 83 H 40.667516 32.688970 60.253559 0
M  V30 84 H 41.629213 32.075478 61.568648 0
M  V30 85 H 40.828224 30.935168 60.523450 0
M  V30 86 H 37.323292 32.109066 61.673635 0
M  V30 87 H 43.005174 30.260075 64.620933 0
M  V30 88 H 42.600837 31.425233 63.409757 0
M  V30 89 H 39.811721 30.524366 66.551624 0
M  V30 90 H 38.132043 26.629243 55.462828 0
M  V30 END ATOM
M  V30 BEGIN BOND
M  V30 1 1 10 9
M  V30 2 2 12 6
M  V30 3 2 14 1
M  V30 4 1 14 12
M  V30 5 1 15 3
M  V30 6 1 16 5
M  V30 7 1 17 9
M  V30 8 1 19 8
M  V30 9 1 19 11
M  V30 10 1 20 17
M  V30 11 1 22 14
M  V30 12 1 23 18
M  V30 13 1 24 21
M  V30 14 1 25 13
M  V30 15 1 25 19
M  V30 16 1 27 11
M  V30 17 2 28 16
M  V30 18 1 29 23
M  V30 19 1 29 26
M  V30 20 1 30 10
M  V30 21 1 30 12
M  V30 22 1 31 2
M  V30 23 1 31 20
M  V30 24 1 32 26
M  V30 25 1 33 23
M  V30 26 1 33 31
M  V30 27 1 34 18
M  V30 28 1 35 8
M  V30 29 1 35 18
M  V30 30 1 35 32
M  V30 31 1 36 2
M  V30 32 1 36 7
M  V30 33 1 37 4 CFG=3
M  V30 34 1 37 13
M  V30 35 1 37 21
M  V30 36 1 37 27
M  V30 37 1 38 1
M  V30 38 1 38 2
M  V30 39 1 38 10
M  V30 40 1 39 3
M  V30 41 1 39 16
M  V30 42 1 39 21
M  V30 43 1 40 1
M  V30 44 1 2 41 CFG=3
M  V30 45 1 42 3
M  V30 46 1 43 3
M  V30 47 1 44 4
M  V30 48 1 45 4
M  V30 49 1 46 4
M  V30 50 1 47 7
M  V30 51 1 48 8
M  V30 52 1 49 8
M  V30 53 1 10 50 CFG=3
M  V30 54 1 51 11
M  V30 55 1 52 11
M  V30 56 1 53 13
M  V30 57 1 54 13
M  V30 58 1 55 15
M  V30 59 1 56 17
M  V30 60 1 57 17
M  V30 61 1 18 58 CFG=1
M  V30 62 1 19 59 CFG=1
M  V30 63 1 60 20
M  V30 64 1 61 20
M  V30 65 1 21 62 CFG=3
M  V30 66 1 63 22
M  V30 67 1 64 22
M  V30 68 1 65 22
M  V30 69 1 23 66 CFG=1
M  V30 70 1 67 24
M  V30 71 1 68 24
M  V30 72 1 69 24
M  V30 73 1 70 25
M  V30 74 1 71 25
M  V30 75 1 72 26
M  V30 76 1 73 26
M  V30 77 1 74 27
M  V30 78 1 75 27
M  V30 79 1 76 29
M  V30 80 1 77 29
M  V30 81 1 78 30
M  V30 82 1 79 30
M  V30 83 1 31 80 CFG=1
M  V30 84 1 81 32
M  V30 85 1 82 32
M  V30 86 1 83 34
M  V30 87 1 84 34
M  V30 88 1 85 34
M  V30 89 1 35 86 CFG=1
M  V30 90 1 87 36
M  V30 91 1 88 36
M  V30 92 1 38 89 CFG=1
M  V30 93 1 39 90 CFG=3
M  V30 END BOND
M  V30 END CTAB
M  END
>  <i_epik_Tot_Q>  (1) 
-1

>  <i_epik_Tot_abs_Q>  (1) 
1

>  <i_i_glide_confnum>  (1) 
934

>  <i_i_glide_lignum>  (1) 
271

>  <i_i_glide_posenum>  (1) 
308

>  <i_i_glide_rotatable_bonds>  (1) 
11

>  <i_lp_mmshare_version>  (1) 
72125

>  <i_m_source_file_index>  (1) 
100

>  <i_f3d_flags>  (1) 
0

>  <num_sample>  (1) 
100

>  <b_lp_Chiralities_Consistent>  (1) 
1

>  <r_epik_Charging_Adjusted_Penalty>  (1) 
0.00057086010642688853

>  <r_epik_Ionization_Penalty>  (1) 
0.00057120619039141747

>  <r_epik_Ionization_Penalty_Charging>  (1) 
0.00057086010642688853

>  <r_epik_Ionization_Penalty_Neutral>  (1) 
3.4608396452890624e-07

>  <r_epik_State_Penalty>  (1) 
-0

>  <r_glide_ring_energy>  (1) 
1.9990264318667856

>  <r_i_docking_score>  (1) 
-5.0293900040052506

>  <r_i_glide_ecoul>  (1) 
-4.558613563502103

>  <r_i_glide_eff_state_penalty>  (1) 
-0

>  <r_i_glide_einternal>  (1) 
7.4945827180809488

>  <r_i_glide_emodel>  (1) 
-32.066809943072307

>  <r_i_glide_emodel_strain>  (1) 
9.2811598565668376

>  <r_i_glide_energy>  (1) 
-41.977818492802186

>  <r_i_glide_erotb>  (1) 
0.55239913660624596

>  <r_i_glide_esite>  (1) 
-0.016776176190537225

>  <r_i_glide_evdw>  (1) 
-37.419204929300079

>  <r_i_glide_gscore>  (1) 
-5.0293900040052506

>  <r_i_glide_gscore_strain>  (1) 
1.3202899641417094

>  <r_i_glide_hbond>  (1) 
-0.20353798582823696

>  <r_i_glide_ligand_efficiency>  (1) 
-0.12895871805141668

>  <r_i_glide_ligand_efficiency_ln>  (1) 
-1.0784439845840164

>  <r_i_glide_ligand_efficiency_sa>  (1) 
-0.4373262803324019

>  <r_i_glide_lipo>  (1) 
-3.0916873325159049

>  <r_i_glide_metal>  (1) 
-0

>  <r_i_glide_rewards>  (1) 
-1.035325329228207

>  <r_lp_Energy>  (1) 
48.540740999999997

>  <r_lp_tautomer_probability>  (1) 
1

>  <s_epik_cmdline>  (1) 
J2VwaWtfcHl0aG9uJywgJy1waHQnLCAnMS4wJywgJy1waCcsICc3LjQnLCAnLXRuJywgJzgnLCAnLW1hJywgJzUwMCcsICctaW1hZScsICc8aW5maWxlLm1hZT4nLCAnLW9tYWUnLCAnPG91dGZpbGUubWFlPic=

>  <s_epik_input>  (1) 
Tz1DKFtDSDJdMSlDKFtDSDNdKT1bQ0hdW0NAQEhdKFtDQEhdMTIpW0NASF0oW0NIMl1bT0hdKVtDQEBIXShbQ0gyXVtDSDJdTzIpT1tDQEhdKFtDQEBIXTNbQ0gzXSlbQ0gyXVtDSDJdW0NIMl1bQ0BIXTNbQ0gyXVtDQEhdKFtDSDJdW0NIMl00KVtDSDJdW0NIMl1bQ0BAXTQoW0NIM10pW0NAQEhdKFtDSDNdKVtDQEBIXShbQ0gyXVtPSF0pQyg9TylbT0hd

>  <s_glide_docking_method>  (1) 
confgen

>  <s_i_glide_gridfile>  (1) 
gpcr_5ht2c_6bqh_protein_autoprepared_prepared

>  <s_lp_Force_Field>  (1) 
S-OPLS

>  <s_lp_Variant>  (1) 
DiffSBDD_99_num_sample_100-1

>  <s_m_source_file>  (1) 
generated__ligand_DiffSBDD_2026-05-06_prepared.sdf

>  <GenAI_Model>  (1) 
DiffSBDD

>  <Protein>  (1) 
GPCR_5HT2C

$$$$
DiffSBDD_29_num_sample_100
     RDKit          3D

  0  0  0  0  0  0  0  0  0  0999 V3000
M  V30 BEGIN CTAB
M  V30 COUNTS 86 90 0 0 1
M  V30 BEGIN ATOM
M  V30 1 F 39.467410 30.827441 52.677977 0
M  V30 2 C 39.300492 32.000565 56.843857 0
M  V30 3 C 37.393280 28.829777 53.597512 0
M  V30 4 C 38.768039 31.168009 61.340304 0 CFG=2
M  V30 5 C 39.150644 36.352338 61.201811 0
M  V30 6 C 38.564609 30.831916 62.810627 0
M  V30 7 C 40.108091 29.206442 51.219079 0
M  V30 8 N 38.774272 30.617669 56.650635 0 CFG=1 CHG=1
M  V30 9 C 36.871410 32.993288 61.040567 0 CFG=1
M  V30 10 C 40.336373 36.032388 64.009809 0
M  V30 11 C 38.995920 28.213272 57.652815 0
M  V30 12 C 40.521523 35.124454 62.830338 0 CFG=1
M  V30 13 C 39.346791 29.592540 52.174339 0
M  V30 14 C 39.107068 29.294845 58.679247 0 CFG=2
M  V30 15 C 38.081210 32.728023 54.829543 0
M  V30 16 C 36.477023 34.656589 59.134931 0
M  V30 17 C 38.426016 32.657375 60.974217 0 CFG=1
M  V30 18 C 37.894480 30.071198 59.162475 0 CFG=1
M  V30 19 C 38.478399 27.371560 51.892069 0
M  V30 20 N 37.531584 31.389068 54.771904 0
M  V30 21 N 38.436173 28.657949 52.598383 0
M  V30 22 F 41.059745 29.969140 50.653026 0
M  V30 23 S 40.405033 33.373521 63.007092 0
M  V30 24 C 38.497427 30.385001 55.236103 0 CFG=2
M  V30 25 C 38.310537 33.031209 56.301810 0
M  V30 26 C 34.655469 33.007064 59.758170 0
M  V30 27 O 36.673215 29.588188 58.635363 0
M  V30 28 C 39.522836 33.680436 61.418987 0 CFG=2
M  V30 29 C 37.883818 30.108660 60.652545 0
M  V30 30 C 40.089542 37.410528 63.389658 0
M  V30 31 C 39.051538 37.500082 62.228863 0
M  V30 32 C 37.917076 28.998020 54.985469 0
M  V30 33 O 36.434877 34.045079 61.853485 0
M  V30 34 C 39.257343 35.087391 61.973708 0 CFG=2
M  V30 35 C 39.608369 29.566976 57.299208 0 CFG=2
M  V30 36 C 36.169399 33.259134 59.685156 0
M  V30 37 O 40.131275 30.913953 61.053598 0
M  V30 38 S 39.867349 27.621468 50.653589 0
M  V30 39 H 39.467281 32.227168 57.891472 0
M  V30 40 H 40.249576 32.107570 56.316552 0
M  V30 41 H 36.780465 27.927857 53.581754 0
M  V30 42 H 36.682190 29.621274 53.453564 0
M  V30 43 H 38.320942 36.359782 60.498159 0
M  V30 44 H 40.082262 36.421436 60.653503 0
M  V30 45 H 37.586088 31.221607 63.053538 0
M  V30 46 H 38.599649 29.762776 62.970305 0
M  V30 47 H 39.291883 31.201268 63.519787 0
M  V30 48 H 36.361135 32.148762 61.491599 0
M  V30 49 H 39.471850 35.774109 64.608604 0
M  V30 50 H 41.208311 36.023549 64.666164 0
M  V30 51 H 39.676015 27.371861 57.764916 0
M  V30 52 H 37.990508 27.928137 57.364538 0
M  V30 53 H 41.416244 35.355400 62.246547 0
M  V30 54 H 39.871225 29.102341 59.426472 0
M  V30 55 H 37.403494 33.446205 54.373919 0
M  V30 56 H 39.012647 32.758306 54.273190 0
M  V30 57 H 36.203328 35.453248 59.824603 0
M  V30 58 H 37.526479 34.764986 58.870828 0
M  V30 59 H 35.880824 34.821064 58.253511 0
M  V30 60 H 38.598968 32.699981 59.904662 0
M  V30 61 H 37.948417 31.089447 58.839795 0
M  V30 62 H 38.680208 26.539430 52.570318 0
M  V30 63 H 37.542745 27.221501 51.363420 0
M  V30 64 H 36.677552 31.370832 55.327123 0
M  V30 65 H 39.471017 30.470021 54.766261 0
M  V30 66 H 37.377812 32.991887 56.859125 0
M  V30 67 H 38.667465 34.048428 56.419920 0
M  V30 68 H 34.168773 33.622324 60.511632 0
M  V30 69 H 34.180675 33.223675 58.802418 0
M  V30 70 H 34.451041 31.964436 59.995650 0
M  V30 71 H 36.030478 30.287350 58.612588 0
M  V30 72 H 40.288106 33.754265 60.648651 0
M  V30 73 H 38.267424 29.145065 60.961538 0
M  V30 74 H 36.850160 30.192176 60.984254 0
M  V30 75 H 39.867411 38.146862 64.157845 0
M  V30 76 H 41.067108 37.621483 62.982500 0
M  V30 77 H 38.051503 37.487932 62.662156 0
M  V30 78 H 39.151802 38.455574 61.714334 0
M  V30 79 H 38.636083 28.203635 55.170705 0
M  V30 80 H 37.068091 28.873735 55.649102 0
M  V30 81 H 36.779618 34.854227 61.512351 0
M  V30 82 H 38.422021 35.045212 62.652992 0
M  V30 83 H 40.667389 29.620382 57.143811 0
M  V30 84 H 36.517397 32.551376 58.944190 0
M  V30 85 H 40.648583 31.459331 61.630591 0
M  V30 86 H 37.870448 30.570045 57.103064 0
M  V30 END ATOM
M  V30 BEGIN BOND
M  V30 1 1 6 4
M  V30 2 1 8 2
M  V30 3 1 12 10
M  V30 4 1 13 1
M  V30 5 2 13 7
M  V30 6 1 14 11
M  V30 7 1 17 4
M  V30 8 1 17 9
M  V30 9 1 18 14
M  V30 10 1 20 15
M  V30 11 1 21 3
M  V30 12 1 21 13
M  V30 13 1 21 19
M  V30 14 1 22 7
M  V30 15 1 23 12
M  V30 16 1 24 8
M  V30 17 1 24 20
M  V30 18 1 25 2
M  V30 19 1 25 15
M  V30 20 1 27 18
M  V30 21 1 28 17
M  V30 22 1 28 23
M  V30 23 1 29 4
M  V30 24 1 29 18
M  V30 25 1 30 10
M  V30 26 1 31 5
M  V30 27 1 31 30
M  V30 28 1 32 3
M  V30 29 1 32 24
M  V30 30 1 33 9
M  V30 31 1 34 5
M  V30 32 1 34 12
M  V30 33 1 34 28
M  V30 34 1 35 8
M  V30 35 1 35 11
M  V30 36 1 35 14
M  V30 37 1 36 9
M  V30 38 1 36 16
M  V30 39 1 36 26
M  V30 40 1 4 37 CFG=3
M  V30 41 1 38 7
M  V30 42 1 38 19
M  V30 43 1 39 2
M  V30 44 1 40 2
M  V30 45 1 41 3
M  V30 46 1 42 3
M  V30 47 1 43 5
M  V30 48 1 44 5
M  V30 49 1 45 6
M  V30 50 1 46 6
M  V30 51 1 47 6
M  V30 52 1 9 48 CFG=1
M  V30 53 1 49 10
M  V30 54 1 50 10
M  V30 55 1 51 11
M  V30 56 1 52 11
M  V30 57 1 12 53 CFG=3
M  V30 58 1 14 54 CFG=1
M  V30 59 1 55 15
M  V30 60 1 56 15
M  V30 61 1 57 16
M  V30 62 1 58 16
M  V30 63 1 59 16
M  V30 64 1 17 60 CFG=3
M  V30 65 1 18 61 CFG=3
M  V30 66 1 62 19
M  V30 67 1 63 19
M  V30 68 1 64 20
M  V30 69 1 24 65 CFG=3
M  V30 70 1 66 25
M  V30 71 1 67 25
M  V30 72 1 68 26
M  V30 73 1 69 26
M  V30 74 1 70 26
M  V30 75 1 71 27
M  V30 76 1 28 72 CFG=3
M  V30 77 1 73 29
M  V30 78 1 74 29
M  V30 79 1 75 30
M  V30 80 1 76 30
M  V30 81 1 77 31
M  V30 82 1 78 31
M  V30 83 1 79 32
M  V30 84 1 80 32
M  V30 85 1 81 33
M  V30 86 1 34 82 CFG=1
M  V30 87 1 35 83 CFG=1
M  V30 88 1 84 36
M  V30 89 1 85 37
M  V30 90 1 8 86 CFG=1
M  V30 END BOND
M  V30 END CTAB
M  END
>  <i_epik_Tot_Q>  (1) 
1

>  <i_epik_Tot_abs_Q>  (1) 
1

>  <i_i_glide_confnum>  (1) 
138

>  <i_i_glide_lignum>  (1) 
77

>  <i_i_glide_posenum>  (1) 
101

>  <i_i_glide_rotatable_bonds>  (1) 
14

>  <i_lp_mmshare_version>  (1) 
72125

>  <i_m_source_file_index>  (1) 
30

>  <i_f3d_flags>  (1) 
0

>  <num_sample>  (1) 
100

>  <b_lp_Chiralities_Consistent>  (1) 
1

>  <r_epik_Charging_Adjusted_Penalty>  (1) 
1.7477768688038313

>  <r_epik_Ionization_Penalty>  (1) 
0.56833185219894722

>  <r_epik_Ionization_Penalty_Charging>  (1) 
0.56833130032608237

>  <r_epik_Ionization_Penalty_Neutral>  (1) 
5.5187286482775955e-07

>  <r_epik_State_Penalty>  (1) 
1.179445568477749

>  <r_glide_ring_energy>  (1) 
2.2046325848136337

>  <r_i_docking_score>  (1) 
-5.022203195880147

>  <r_i_glide_ecoul>  (1) 
-5.3291116989322171

>  <r_i_glide_eff_state_penalty>  (1) 
1.179445568477749

>  <r_i_glide_einternal>  (1) 
31.356912408673413

>  <r_i_glide_emodel>  (1) 
-10.028315807946875

>  <r_i_glide_emodel_strain>  (1) 
7.7206599538589842

>  <r_i_glide_energy>  (1) 
-27.12495864492843

>  <r_i_glide_erotb>  (1) 
0.46833353265868582

>  <r_i_glide_esite>  (1) 
-0.036683571393588181

>  <r_i_glide_evdw>  (1) 
-21.795846945996214

>  <r_i_glide_gscore>  (1) 
-6.2016487643578957

>  <r_i_glide_gscore_strain>  (1) 
0.93016498846474605

>  <r_i_glide_hbond>  (1) 
-0.15481073853062041

>  <r_i_glide_ligand_efficiency>  (1) 
-0.13216324199684598

>  <r_i_glide_ligand_efficiency_ln>  (1) 
-1.0829347472816448

>  <r_i_glide_ligand_efficiency_sa>  (1) 
-0.44432956927621614

>  <r_i_glide_lipo>  (1) 
-3.4072653886939537

>  <r_i_glide_metal>  (1) 
-0

>  <r_i_glide_rewards>  (1) 
-2.1122284847235231

>  <r_lp_Energy>  (1) 
42.636096999999999

>  <s_epik_Chemistry_Notes>  (1) 
This compound has an imine and may undergo hydrolysis. This compound contains an acetal/aminal-like group ( X-CH(R)-Y where X, Y are N, S, or O) that may be acid/base labile, releasing an aldehyde.

>  <s_epik_cmdline>  (1) 
J2VwaWtfcHl0aG9uJywgJy1waHQnLCAnMS4wJywgJy1waCcsICc3LjQnLCAnLXRuJywgJzgnLCAnLW1hJywgJzUwMCcsICctaW1hZScsICc8aW5maWxlLm1hZT4nLCAnLW9tYWUnLCAnPG91dGZpbGUubWFlPic=

>  <s_epik_input>  (1) 
RkMxPUMoRilOKFtDSDJdUzEpW0NIMl1bQ0gyXVtDQEhdMltOSF1bQ0gyXVtDSDJdW0NIMl1OMltDQEBIXTNbQ0gyXVtDQEBIXTNbQ0BASF0oW09IXSlbQ0gyXVtDQEBdKFtDSDNdKShbT0hdKVtDQEBIXShbQ0BASF0oW09IXSlbQ0hdKFtDSDNdKVtDSDNdKVtDQEhdKFM0KVtDQEBIXShbQ0BASF00NSlbQ0gyXVtDSDJdW0NIMl1bQ0gyXTU=

>  <s_glide_docking_method>  (1) 
confgen

>  <s_i_glide_gridfile>  (1) 
gpcr_5ht2c_6bqh_protein_autoprepared_prepared

>  <s_lp_Force_Field>  (1) 
S-OPLS

>  <s_lp_Variant>  (1) 
DiffSBDD_29_num_sample_100-7

>  <s_m_source_file>  (1) 
generated__ligand_DiffSBDD_2026-05-06_prepared.sdf

>  <GenAI_Model>  (1) 
DiffSBDD

>  <Protein>  (1) 
GPCR_5HT2C

$$$$
DiffSBDD_52_num_sample_100
     RDKit          3D

  0  0  0  0  0  0  0  0  0  0999 V3000
M  V30 BEGIN CTAB
M  V30 COUNTS 25 25 0 0 1
M  V30 BEGIN ATOM
M  V30 1 C 38.984511 28.965024 53.237235 0 CFG=1
M  V30 2 O 37.467403 27.938059 54.653513 0
M  V30 3 C 38.442125 29.842188 55.685463 0 CFG=2
M  V30 4 S 39.555971 28.298943 50.653498 0
M  V30 5 C 39.852009 30.044539 50.914171 0 CFG=1
M  V30 6 S 39.867403 30.453122 52.665927 0
M  V30 7 O 37.867405 32.130134 54.981257 0
M  V30 8 C 37.935566 29.231734 54.341111 0 CFG=1
M  V30 9 O 37.467401 29.655756 56.701088 0
M  V30 10 C 38.805405 31.345294 55.691335 0
M  V30 11 N 41.107519 30.421429 50.315088 0
M  V30 12 C 38.375538 28.250575 52.012019 0
M  V30 13 H 39.733290 28.294031 53.649873 0
M  V30 14 H 37.136315 27.987845 55.541457 0
M  V30 15 H 39.321358 29.284803 56.012825 0
M  V30 16 H 39.067407 30.609953 50.419056 0
M  V30 17 H 37.088345 32.273643 55.509936 0
M  V30 18 H 37.099043 29.811552 53.951247 0
M  V30 19 H 36.806709 30.340049 56.639593 0
M  V30 20 H 39.783555 31.496028 55.237028 0
M  V30 21 H 38.898539 31.724914 56.709965 0
M  V30 22 H 41.058669 30.259091 49.321156 0
M  V30 23 H 41.252141 31.415651 50.436514 0
M  V30 24 H 38.110513 27.214721 52.223939 0
M  V30 25 H 37.467402 28.762086 51.698392 0
M  V30 END ATOM
M  V30 BEGIN BOND
M  V30 1 1 5 4
M  V30 2 1 6 1
M  V30 3 1 6 5
M  V30 4 1 8 1
M  V30 5 1 8 2
M  V30 6 1 8 3
M  V30 7 1 9 3
M  V30 8 1 10 3
M  V30 9 1 10 7
M  V30 10 1 11 5
M  V30 11 1 12 1
M  V30 12 1 12 4
M  V30 13 1 1 13 CFG=1
M  V30 14 1 14 2
M  V30 15 1 3 15 CFG=1
M  V30 16 1 5 16 CFG=3
M  V30 17 1 17 7
M  V30 18 1 8 18 CFG=3
M  V30 19 1 19 9
M  V30 20 1 20 10
M  V30 21 1 21 10
M  V30 22 1 22 11
M  V30 23 1 23 11
M  V30 24 1 24 12
M  V30 25 1 25 12
M  V30 END BOND
M  V30 END CTAB
M  END
>  <i_epik_Tot_Q>  (1) 
0

>  <i_epik_Tot_abs_Q>  (1) 
0

>  <i_i_glide_confnum>  (1) 
27

>  <i_i_glide_lignum>  (1) 
138

>  <i_i_glide_posenum>  (1) 
105

>  <i_i_glide_rotatable_bonds>  (1) 
6

>  <i_lp_mmshare_version>  (1) 
72125

>  <i_m_source_file_index>  (1) 
53

>  <i_f3d_flags>  (1) 
0

>  <num_sample>  (1) 
100

>  <b_lp_Chiralities_Consistent>  (1) 
1

>  <r_epik_Charging_Adjusted_Penalty>  (1) 
0.012458627256782779

>  <r_epik_Ionization_Penalty>  (1) 
0.012459545935989014

>  <r_epik_Ionization_Penalty_Charging>  (1) 
0

>  <r_epik_Ionization_Penalty_Neutral>  (1) 
0.012459545935989014

>  <r_epik_State_Penalty>  (1) 
0.012458627256782779

>  <r_glide_ring_energy>  (1) 
0

>  <r_i_docking_score>  (1) 
-5.0172159568051979

>  <r_i_glide_ecoul>  (1) 
-3.992963380122835

>  <r_i_glide_eff_state_penalty>  (1) 
0.012458627256782779

>  <r_i_glide_einternal>  (1) 
6.5845229662405451

>  <r_i_glide_emodel>  (1) 
-33.812588106942698

>  <r_i_glide_emodel_strain>  (1) 
0.53728316344482963

>  <r_i_glide_energy>  (1) 
-26.991266338487453

>  <r_i_glide_erotb>  (1) 
1.1173698675060917

>  <r_i_glide_esite>  (1) 
0

>  <r_i_glide_evdw>  (1) 
-22.998302958364619

>  <r_i_glide_gscore>  (1) 
-5.029674584061981

>  <r_i_glide_gscore_strain>  (1) 
0

>  <r_i_glide_hbond>  (1) 
-0.28524242800089455

>  <r_i_glide_ligand_efficiency>  (1) 
-0.41810132973376651

>  <r_i_glide_ligand_efficiency_ln>  (1) 
-1.439698810041415

>  <r_i_glide_ligand_efficiency_sa>  (1) 
-0.95721309395345877

>  <r_i_glide_lipo>  (1) 
-1.8286367704318374

>  <r_i_glide_metal>  (1) 
-0

>  <r_i_glide_rewards>  (1) 
-2.2843055981986842

>  <r_lp_Energy>  (1) 
-4.7131299999999996

>  <s_epik_Chemistry_Notes>  (1) 
This compound contains an acetal/aminal-like group ( X-CH(R)-Y where X, Y are N, S, or O) that may be acid/base labile, releasing an aldehyde.

>  <s_epik_cmdline>  (1) 
J2VwaWtfcHl0aG9uJywgJy1waHQnLCAnMS4wJywgJy1waCcsICc3LjQnLCAnLXRuJywgJzgnLCAnLW1hJywgJzUwMCcsICctaW1hZScsICc8aW5maWxlLm1hZT4nLCAnLW9tYWUnLCAnPG91dGZpbGUubWFlPic=

>  <s_epik_input>  (1) 
W0NIMl0xU1tDQEhdKFtOSDJdKVNbQ0BIXTFbQ0BASF0oW09IXSlbQ0BIXShbT0hdKVtDSDJdW09IXQ==

>  <s_glide_docking_method>  (1) 
confgen

>  <s_i_glide_gridfile>  (1) 
gpcr_5ht2c_6bqh_protein_autoprepared_prepared

>  <s_lp_Force_Field>  (1) 
S-OPLS

>  <s_lp_Variant>  (1) 
DiffSBDD_52_num_sample_100-1

>  <s_m_source_file>  (1) 
generated__ligand_DiffSBDD_2026-05-06_prepared.sdf

>  <GenAI_Model>  (1) 
DiffSBDD

>  <Protein>  (1) 
GPCR_5HT2C

$$$$
DiffSBDD_90_num_sample_100
     RDKit          3D

  0  0  0  0  0  0  0  0  0  0999 V3000
M  V30 BEGIN CTAB
M  V30 COUNTS 85 88 0 0 1
M  V30 BEGIN ATOM
M  V30 1 C 37.890490 29.613135 59.316972 0
M  V30 2 O 38.267431 39.621354 59.971693 0
M  V30 3 F 39.617036 31.474683 52.602372 0
M  V30 4 C 38.625014 26.447933 55.968524 0 CFG=1
M  V30 5 C 37.254691 36.844166 62.282934 0 CFG=2
M  V30 6 C 37.285669 35.430600 60.256956 0 CFG=1
M  V30 7 C 36.788169 23.491670 55.207617 0
M  V30 8 C 39.094044 33.702858 59.758786 0
M  V30 9 C 38.110136 25.103550 56.556606 0
M  V30 10 N 38.382327 38.687934 61.053521 0
M  V30 11 C 39.275233 31.739498 54.894083 0
M  V30 12 C 39.211234 24.524318 57.453388 0
M  V30 13 C 36.920150 35.442178 61.737998 0
M  V30 14 C 37.118492 36.888503 59.792412 0
M  V30 15 O 36.474486 36.821496 64.544411 0
M  V30 16 N 37.600046 30.485926 58.148297 0 CFG=2 CHG=1
M  V30 17 C 38.717536 34.961557 60.062082 0
M  V30 18 F 37.867407 32.383775 53.453569 0
M  V30 19 C 39.119428 28.947450 53.967197 0 CFG=1
M  V30 20 N 37.752490 29.754355 56.822752 0
M  V30 21 C 40.312744 30.724444 55.250954 0
M  V30 22 C 38.264087 31.826504 58.208952 0
M  V30 23 O 38.013795 24.174077 55.465574 0
M  V30 24 C 36.808356 25.219370 57.380525 0
M  V30 25 C 37.806218 30.293091 60.673706 0
M  V30 26 C 38.057904 29.969902 53.588073 0
M  V30 27 C 38.160981 32.516417 59.599348 0 CFG=1
M  V30 28 C 37.226920 37.790854 61.038071 0 CFG=1
M  V30 29 C 37.800041 26.922671 54.761741 0
M  V30 30 O 35.322181 38.024883 63.076413 0 CHG=-1
M  V30 31 C 39.022048 29.027876 56.652022 0 CFG=1
M  V30 32 C 38.600286 31.572504 60.712453 0
M  V30 33 O 38.574233 36.749218 62.818318 0
M  V30 34 C 38.895235 27.537192 57.048245 0
M  V30 35 C 39.789448 29.281259 55.332614 0 CFG=1
M  V30 36 C 38.704083 27.502035 53.685255 0
M  V30 37 C 38.704397 31.382426 53.568886 0
M  V30 38 C 36.264295 37.266967 63.398989 0
M  V30 39 H 38.882757 29.170052 59.259227 0
M  V30 40 H 37.155542 28.821500 59.293646 0
M  V30 41 H 39.046993 39.439731 59.465507 0
M  V30 42 H 39.609812 26.197324 55.572455 0
M  V30 43 H 36.602727 34.804350 59.688566 0
M  V30 44 H 36.932556 22.821887 54.361789 0
M  V30 45 H 36.467925 22.875292 56.048843 0
M  V30 46 H 35.985799 24.181100 54.940544 0
M  V30 47 H 40.141247 33.491897 59.627535 0
M  V30 48 H 38.388092 39.294223 61.853507 0
M  V30 49 H 39.664157 32.750514 54.938521 0
M  V30 50 H 38.460702 31.756640 55.601334 0
M  V30 51 H 39.410456 25.199254 58.284549 0
M  V30 52 H 38.939648 23.543124 57.845766 0
M  V30 53 H 40.146386 24.419851 56.905208 0
M  V30 54 H 35.867401 35.214201 61.854589 0
M  V30 55 H 37.444690 34.647177 62.253481 0
M  V30 56 H 36.114207 37.001334 59.381032 0
M  V30 57 H 37.811186 37.170179 58.997435 0
M  V30 58 H 39.480486 35.716471 60.177419 0
M  V30 59 H 39.867177 29.116325 53.198576 0
M  V30 60 H 37.721923 30.553964 56.203994 0
M  V30 61 H 41.145743 30.788705 54.552442 0
M  V30 62 H 40.660793 31.100298 56.181844 0
M  V30 63 H 37.788542 32.483520 57.477954 0
M  V30 64 H 39.303177 31.723382 57.909123 0
M  V30 65 H 36.851088 25.955347 58.172036 0
M  V30 66 H 35.931843 25.453922 56.774896 0
M  V30 67 H 36.667331 24.273043 57.894279 0
M  V30 68 H 38.267110 29.629807 61.410929 0
M  V30 69 H 36.767181 30.473590 60.949913 0
M  V30 70 H 37.700064 29.621313 52.620885 0
M  V30 71 H 37.203902 29.936841 54.261845 0
M  V30 72 H 37.121493 32.788222 59.774669 0
M  V30 73 H 36.342973 38.429736 61.037497 0
M  V30 74 H 37.249249 26.103843 54.299210 0
M  V30 75 H 37.067408 27.659653 55.053102 0
M  V30 76 H 39.704409 29.455928 57.382371 0
M  V30 77 H 39.663520 31.336358 60.615960 0
M  V30 78 H 38.470673 32.049054 61.687325 0
M  V30 79 H 39.177363 36.677115 62.095008 0
M  V30 80 H 39.838879 27.272008 57.525850 0
M  V30 81 H 38.166905 27.465405 57.842318 0
M  V30 82 H 40.670168 28.649106 55.454398 0
M  V30 83 H 39.588002 26.878756 53.546917 0
M  V30 84 H 38.187190 27.445763 52.724954 0
M  V30 85 H 36.609188 30.711688 58.172273 0
M  V30 END ATOM
M  V30 BEGIN BOND
M  V30 1 1 9 4
M  V30 2 1 10 2
M  V30 3 1 12 9
M  V30 4 1 13 5
M  V30 5 1 13 6
M  V30 6 1 14 6
M  V30 7 1 16 1
M  V30 8 1 17 6
M  V30 9 2 17 8
M  V30 10 1 20 16
M  V30 11 1 21 11
M  V30 12 1 22 16
M  V30 13 1 23 7
M  V30 14 1 23 9
M  V30 15 1 24 9
M  V30 16 1 25 1
M  V30 17 1 26 19
M  V30 18 1 27 8
M  V30 19 1 27 22
M  V30 20 1 28 5
M  V30 21 1 28 10
M  V30 22 1 28 14
M  V30 23 1 29 4
M  V30 24 1 31 20
M  V30 25 1 32 25
M  V30 26 1 32 27
M  V30 27 1 5 33 CFG=1
M  V30 28 1 34 4
M  V30 29 1 34 31
M  V30 30 1 35 19
M  V30 31 1 35 21
M  V30 32 1 35 31
M  V30 33 1 36 19
M  V30 34 1 36 29
M  V30 35 1 37 3
M  V30 36 1 37 11
M  V30 37 1 37 18
M  V30 38 1 37 26
M  V30 39 1 38 5
M  V30 40 2 38 15
M  V30 41 1 38 30
M  V30 42 1 39 1
M  V30 43 1 40 1
M  V30 44 1 41 2
M  V30 45 1 4 42 CFG=3
M  V30 46 1 6 43 CFG=3
M  V30 47 1 44 7
M  V30 48 1 45 7
M  V30 49 1 46 7
M  V30 50 1 47 8
M  V30 51 1 48 10
M  V30 52 1 49 11
M  V30 53 1 50 11
M  V30 54 1 51 12
M  V30 55 1 52 12
M  V30 56 1 53 12
M  V30 57 1 54 13
M  V30 58 1 55 13
M  V30 59 1 56 14
M  V30 60 1 57 14
M  V30 61 1 58 17
M  V30 62 1 19 59 CFG=3
M  V30 63 1 60 20
M  V30 64 1 61 21
M  V30 65 1 62 21
M  V30 66 1 63 22
M  V30 67 1 64 22
M  V30 68 1 65 24
M  V30 69 1 66 24
M  V30 70 1 67 24
M  V30 71 1 68 25
M  V30 72 1 69 25
M  V30 73 1 70 26
M  V30 74 1 71 26
M  V30 75 1 27 72 CFG=1
M  V30 76 1 28 73 CFG=1
M  V30 77 1 74 29
M  V30 78 1 75 29
M  V30 79 1 31 76 CFG=1
M  V30 80 1 77 32
M  V30 81 1 78 32
M  V30 82 1 79 33
M  V30 83 1 80 34
M  V30 84 1 81 34
M  V30 85 1 35 82 CFG=1
M  V30 86 1 83 36
M  V30 87 1 84 36
M  V30 88 1 16 85 CFG=1
M  V30 END BOND
M  V30 END CTAB
M  END
>  <i_epik_Tot_Q>  (1) 
0

>  <i_epik_Tot_abs_Q>  (1) 
2

>  <i_i_glide_confnum>  (1) 
169

>  <i_i_glide_lignum>  (1) 
242

>  <i_i_glide_posenum>  (1) 
12

>  <i_i_glide_rotatable_bonds>  (1) 
10

>  <i_lp_mmshare_version>  (1) 
72125

>  <i_m_source_file_index>  (1) 
91

>  <i_f3d_flags>  (1) 
0

>  <num_sample>  (1) 
100

>  <b_lp_Chiralities_Consistent>  (1) 
1

>  <r_epik_Charging_Adjusted_Penalty>  (1) 
1.5083745474312953

>  <r_epik_Ionization_Penalty>  (1) 
0.65750586125956467

>  <r_epik_Ionization_Penalty_Charging>  (1) 
0.6544614066189578

>  <r_epik_Ionization_Penalty_Neutral>  (1) 
0.0030444546406068235

>  <r_epik_State_Penalty>  (1) 
0.8539131408123376

>  <r_glide_ring_energy>  (1) 
0.48000684916915476

>  <r_i_docking_score>  (1) 
-5.0037208972535874

>  <r_i_glide_ecoul>  (1) 
1.2244980297097094

>  <r_i_glide_eff_state_penalty>  (1) 
0.8539131408123376

>  <r_i_glide_einternal>  (1) 
39.798669001048808

>  <r_i_glide_emodel>  (1) 
9.1844593763738658

>  <r_i_glide_emodel_strain>  (1) 
4.6462253583300424

>  <r_i_glide_energy>  (1) 
-10.773619114816858

>  <r_i_glide_erotb>  (1) 
0.42002339013477186

>  <r_i_glide_esite>  (1) 
-0.11102685075893658

>  <r_i_glide_evdw>  (1) 
-11.998117144526567

>  <r_i_glide_gscore>  (1) 
-5.8576340380659246

>  <r_i_glide_gscore_strain>  (1) 
0.16155633958251059

>  <r_i_glide_hbond>  (1) 
-0.11086210060372935

>  <r_i_glide_ligand_efficiency>  (1) 
-0.13167686571719966

>  <r_i_glide_ligand_efficiency_ln>  (1) 
-1.0789494200036174

>  <r_i_glide_ligand_efficiency_sa>  (1) 
-0.44269438418559492

>  <r_i_glide_lipo>  (1) 
-4.4974760500410209

>  <r_i_glide_metal>  (1) 
-0

>  <r_i_glide_rewards>  (1) 
-1.3036176136096485

>  <r_lp_Energy>  (1) 
47.513490999999995

>  <s_epik_Chemistry_Notes>  (1) 
This compound has a N-S or N-O group and may undergo hydrolysis at high or low pH.

>  <s_epik_cmdline>  (1) 
J2VwaWtfcHl0aG9uJywgJy1waHQnLCAnMS4wJywgJy1waCcsICc3LjQnLCAnLXRuJywgJzgnLCAnLW1hJywgJzUwMCcsICctaW1hZScsICc8aW5maWxlLm1hZT4nLCAnLW9tYWUnLCAnPG91dGZpbGUubWFlPic=

>  <s_epik_input>  (1) 
RkMoRikoW0NIMl0xKVtDSDJdW0NIMl1bQ0BIXShbQ0BASF0xMilbQ0BIXShbQ0gyXVtDQEhdKFtDSDJdW0NIMl0yKUMoW0NIM10pKFtDSDNdKU9bQ0gzXSlbTkhdTjNbQ0gyXVtDSDJdW0NIMl1bQ0BIXShbQ0gyXTMpL1tDSF09W0NIXVxbQ0BASF0oW0NIMl1bQ0BdNChbT0hdKUMoPU8pW09IXSlbQ0gyXVtDQEBIXTRbTkhdW09IXQ==

>  <s_glide_docking_method>  (1) 
confgen

>  <s_i_glide_gridfile>  (1) 
gpcr_5ht2c_6bqh_protein_autoprepared_prepared

>  <s_lp_Force_Field>  (1) 
S-OPLS

>  <s_lp_Variant>  (1) 
DiffSBDD_90_num_sample_100-14

>  <s_m_source_file>  (1) 
generated__ligand_DiffSBDD_2026-05-06_prepared.sdf

>  <GenAI_Model>  (1) 
DiffSBDD

>  <Protein>  (1) 
GPCR_5HT2C

$$$$
DiffSBDD_54_num_sample_100
     RDKit          3D

  0  0  0  0  0  0  0  0  0  0999 V3000
M  V30 BEGIN CTAB
M  V30 COUNTS 32 33 0 0 1
M  V30 BEGIN ATOM
M  V30 1 C 37.957428 31.358319 58.363950 0
M  V30 2 C 38.214357 29.391996 56.781764 0
M  V30 3 C 40.544503 30.529953 50.253497 0
M  V30 4 N 37.467403 29.355075 54.483673 0
M  V30 5 N 38.296451 31.562465 59.672762 0
M  V30 6 C 39.156376 28.935644 51.670393 0
M  V30 7 C 38.940490 29.586862 59.265457 0
M  V30 8 C 38.966677 27.503736 52.194878 0
M  V30 9 C 37.611879 29.994483 55.663378 0
M  V30 10 N 38.537796 27.413788 55.433580 0
M  V30 11 C 37.760735 27.359980 53.140114 0
M  V30 12 C 40.369859 29.093138 50.755994 0
M  V30 13 C 38.356648 30.098939 58.069998 0
M  V30 14 C 37.932992 28.099000 54.454279 0
M  V30 15 N 38.904443 30.492669 60.253743 0
M  V30 16 C 38.667787 28.075641 56.601635 0
M  V30 17 H 37.467404 32.114509 57.766972 0
M  V30 18 H 41.425042 30.619544 49.616522 0
M  V30 19 H 39.679062 30.854978 49.675173 0
M  V30 20 H 40.667419 31.221430 51.087179 0
M  V30 21 H 38.124328 32.415138 60.186697 0
M  V30 22 H 38.267403 29.221430 51.116361 0
M  V30 23 H 39.253522 29.634387 52.501201 0
M  V30 24 H 39.377965 28.617025 59.451712 0
M  V30 25 H 39.867407 27.165870 52.706764 0
M  V30 26 H 38.828784 26.834267 51.344571 0
M  V30 27 H 37.236170 31.004879 55.712995 0
M  V30 28 H 37.587341 26.305093 53.355189 0
M  V30 29 H 36.853580 27.717661 52.653501 0
M  V30 30 H 41.265650 28.796705 51.301333 0
M  V30 31 H 40.267403 28.421429 49.903641 0
M  V30 32 H 39.142228 27.538416 57.409131 0
M  V30 END ATOM
M  V30 BEGIN BOND
M  V30 1 1 5 1
M  V30 2 1 8 6
M  V30 3 1 9 2
M  V30 4 2 9 4
M  V30 5 1 11 8
M  V30 6 1 12 3
M  V30 7 1 12 6
M  V30 8 2 13 1
M  V30 9 1 13 2
M  V30 10 1 13 7
M  V30 11 1 14 4
M  V30 12 2 14 10
M  V30 13 1 14 11
M  V30 14 1 15 5
M  V30 15 2 15 7
M  V30 16 2 16 2
M  V30 17 1 16 10
M  V30 18 1 17 1
M  V30 19 1 18 3
M  V30 20 1 19 3
M  V30 21 1 20 3
M  V30 22 1 21 5
M  V30 23 1 22 6
M  V30 24 1 23 6
M  V30 25 1 24 7
M  V30 26 1 25 8
M  V30 27 1 26 8
M  V30 28 1 27 9
M  V30 29 1 28 11
M  V30 30 1 29 11
M  V30 31 1 30 12
M  V30 32 1 31 12
M  V30 33 1 32 16
M  V30 END BOND
M  V30 END CTAB
M  END
>  <i_epik_Tot_Q>  (1) 
0

>  <i_epik_Tot_abs_Q>  (1) 
0

>  <i_i_glide_confnum>  (1) 
19

>  <i_i_glide_lignum>  (1) 
142

>  <i_i_glide_posenum>  (1) 
99

>  <i_i_glide_rotatable_bonds>  (1) 
5

>  <i_lp_mmshare_version>  (1) 
72125

>  <i_m_source_file_index>  (1) 
55

>  <i_f3d_flags>  (1) 
0

>  <num_sample>  (1) 
100

>  <b_lp_Chiralities_Consistent>  (1) 
1

>  <r_epik_Charging_Adjusted_Penalty>  (1) 
0

>  <r_epik_Ionization_Penalty>  (1) 
2.7336504673295612e-06

>  <r_epik_Ionization_Penalty_Charging>  (1) 
0

>  <r_epik_Ionization_Penalty_Neutral>  (1) 
2.7336504673295612e-06

>  <r_epik_State_Penalty>  (1) 
-0

>  <r_glide_ring_energy>  (1) 
0

>  <r_i_docking_score>  (1) 
-4.9972475860761403

>  <r_i_glide_ecoul>  (1) 
-2.8294063430907879

>  <r_i_glide_eff_state_penalty>  (1) 
-0

>  <r_i_glide_einternal>  (1) 
0.98561217442103954

>  <r_i_glide_emodel>  (1) 
-41.148267649378376

>  <r_i_glide_emodel_strain>  (1) 
0

>  <r_i_glide_energy>  (1) 
-31.633123521120595

>  <r_i_glide_erotb>  (1) 
1.4325524447639233

>  <r_i_glide_esite>  (1) 
-0.021701633879702389

>  <r_i_glide_evdw>  (1) 
-28.803717178029807

>  <r_i_glide_gscore>  (1) 
-4.9972475860761403

>  <r_i_glide_gscore_strain>  (1) 
0

>  <r_i_glide_hbond>  (1) 
0

>  <r_i_glide_ligand_efficiency>  (1) 
-0.31232797412975877

>  <r_i_glide_ligand_efficiency_ln>  (1) 
-1.3246202949759338

>  <r_i_glide_ligand_efficiency_sa>  (1) 
-0.78701717815420891

>  <r_i_glide_lipo>  (1) 
-1.8415454395421997

>  <r_i_glide_metal>  (1) 
-0

>  <r_i_glide_rewards>  (1) 
-2.7019561470530524

>  <r_lp_Energy>  (1) 
15.064480999999999

>  <r_lp_tautomer_probability>  (1) 
1

>  <s_epik_cmdline>  (1) 
J2VwaWtfcHl0aG9uJywgJy1waHQnLCAnMS4wJywgJy1waCcsICc3LjQnLCAnLXRuJywgJzgnLCAnLW1hJywgJzUwMCcsICctaW1hZScsICc8aW5maWxlLm1hZT4nLCAnLW9tYWUnLCAnPG91dGZpbGUubWFlPic=

>  <s_epik_input>  (1) 
W2NIXTFuW25IXVtjSF1jMS1jMltjSF1uYyhuW2NIXTIpW0NIMl1bQ0gyXVtDSDJdW0NIMl1bQ0gzXQ==

>  <s_glide_docking_method>  (1) 
confgen

>  <s_i_glide_gridfile>  (1) 
gpcr_5ht2c_6bqh_protein_autoprepared_prepared

>  <s_lp_Force_Field>  (1) 
S-OPLS

>  <s_lp_Variant>  (1) 
DiffSBDD_54_num_sample_100-1

>  <s_m_source_file>  (1) 
generated__ligand_DiffSBDD_2026-05-06_prepared.sdf

>  <GenAI_Model>  (1) 
DiffSBDD

>  <Protein>  (1) 
GPCR_5HT2C

$$$$
DiffSBDD_32_num_sample_100
     RDKit          3D

  0  0  0  0  0  0  0  0  0  0999 V3000
M  V30 BEGIN CTAB
M  V30 COUNTS 84 87 0 0 1
M  V30 BEGIN ATOM
M  V30 1 C 39.067414 31.383399 58.790371 0 CFG=2
M  V30 2 O 40.002331 32.261655 62.967486 0 CHG=-1
M  V30 3 O 39.467391 27.221510 50.311599 0
M  V30 4 C 37.866491 28.821362 52.079594 0
M  V30 5 C 41.770268 27.426023 58.253681 0
M  V30 6 C 37.824289 34.265916 61.751605 0
M  V30 7 O 38.924208 28.853512 58.650930 0
M  V30 8 C 37.618193 36.521081 60.605608 0
M  V30 9 C 38.106103 28.906011 55.763484 0 CFG=1
M  V30 10 C 36.294351 31.007988 60.379473 0
M  V30 11 C 38.268970 27.386981 52.353844 0 CFG=2
M  V30 12 C 35.967196 33.922386 60.147701 0
M  V30 13 C 37.783667 31.318225 56.711422 0
M  V30 14 C 36.771167 36.285645 59.614032 0
M  V30 15 O 36.714542 37.175013 58.653501 0
M  V30 16 C 35.870043 35.130188 59.527007 0
M  V30 17 C 38.950417 26.448385 58.648605 0
M  V30 18 C 39.468141 31.218739 62.539729 0
M  V30 19 O 39.568601 30.092290 63.053501 0
M  V30 20 C 38.644630 31.317839 61.240874 0 CFG=2
M  V30 21 O 36.676633 36.159177 62.653503 0
M  V30 22 C 37.122223 30.026220 56.182958 0
M  V30 23 C 37.025038 33.436697 61.060669 0
M  V30 24 C 37.736640 35.742338 61.817501 0 CFG=1
M  V30 25 C 38.089241 27.711509 56.755847 0
M  V30 26 C 39.732754 30.014252 58.466376 0
M  V30 27 N 36.667354 30.778995 58.956264 0 CHG=1
M  V30 28 C 38.321656 27.244162 53.869484 0
M  V30 29 C 38.165945 29.519498 53.381837 0
M  V30 30 C 39.584452 27.043655 51.697108 0
M  V30 31 C 43.177111 27.637344 57.712065 0
M  V30 32 N 37.771343 28.512380 54.380041 0 CFG=2 CHG=1
M  V30 33 C 39.199598 27.709361 57.816722 0 CFG=1
M  V30 34 C 39.467451 31.945240 60.150490 0
M  V30 35 C 40.642696 27.578863 57.211348 0
M  V30 36 C 37.201093 31.907943 61.259395 0 CFG=1
M  V30 37 C 37.681976 31.593157 58.253247 0 CFG=1
M  V30 38 H 39.467410 32.154666 58.144546 0
M  V30 39 H 39.433330 26.364497 49.890457 0
M  V30 40 H 36.793647 28.821362 51.883250 0
M  V30 41 H 38.366036 29.273918 51.224799 0
M  V30 42 H 41.626119 28.073343 59.115110 0
M  V30 43 H 41.744879 26.422137 58.653503 0
M  V30 44 H 38.558835 33.841196 62.393275 0
M  V30 45 H 38.230910 37.411001 60.563151 0
M  V30 46 H 39.117224 29.295759 55.695863 0
M  V30 47 H 36.320792 30.021562 60.809371 0
M  V30 48 H 35.240604 31.268501 60.467604 0
M  V30 49 H 37.478214 26.759475 51.984614 0
M  V30 50 H 35.197644 33.218753 59.887248 0
M  V30 51 H 37.378304 32.182077 56.189561 0
M  V30 52 H 38.796691 31.381551 56.321458 0
M  V30 53 H 36.264121 36.763648 57.923691 0
M  V30 54 H 35.036483 35.236152 58.850000 0
M  V30 55 H 39.077878 25.542226 58.055094 0
M  V30 56 H 39.666506 26.400652 59.453504 0
M  V30 57 H 37.945474 26.419370 59.052511 0
M  V30 58 H 38.554456 30.260239 60.984574 0
M  V30 59 H 36.738527 35.701506 63.478503 0
M  V30 60 H 36.348999 29.637990 56.840321 0
M  V30 61 H 36.525882 30.348381 55.329780 0
M  V30 62 H 38.665972 36.063823 62.290820 0
M  V30 63 H 37.128361 27.664291 57.270737 0
M  V30 64 H 38.149000 26.747045 56.258829 0
M  V30 65 H 40.603089 29.881625 59.100098 0
M  V30 66 H 40.111782 30.080277 57.454201 0
M  V30 67 H 36.942507 29.812193 58.852014 0
M  V30 68 H 39.346826 27.108399 54.222193 0
M  V30 69 H 37.727891 26.386521 54.189121 0
M  V30 70 H 37.647231 30.468310 53.483048 0
M  V30 71 H 39.235689 29.725057 53.454781 0
M  V30 72 H 40.364055 27.700365 52.079687 0
M  V30 73 H 39.867406 26.021774 51.922736 0
M  V30 74 H 43.882489 27.607904 58.534666 0
M  V30 75 H 43.462702 26.826748 57.052519 0
M  V30 76 H 43.287466 28.590178 57.195936 0
M  V30 77 H 40.516138 31.748045 60.348456 0
M  V30 78 H 39.416430 33.031157 60.140171 0
M  V30 79 H 40.669671 26.692693 56.575023 0
M  V30 80 H 40.889897 28.390092 56.531769 0
M  V30 81 H 36.832555 31.766683 62.271383 0
M  V30 82 H 37.409498 32.641867 58.367668 0
M  V30 83 H 36.766052 28.426254 54.328485 0
M  V30 84 H 35.844276 30.954691 58.382646 0
M  V30 END ATOM
M  V30 BEGIN BOND
M  V30 1 1 11 4
M  V30 2 2 14 8
M  V30 3 1 15 14
M  V30 4 2 16 12
M  V30 5 1 16 14
M  V30 6 1 18 2
M  V30 7 2 19 18
M  V30 8 1 20 18
M  V30 9 1 22 9
M  V30 10 1 22 13
M  V30 11 2 23 6
M  V30 12 1 23 12
M  V30 13 1 24 6
M  V30 14 1 24 8
M  V30 15 1 24 21
M  V30 16 1 25 9
M  V30 17 1 26 1
M  V30 18 1 26 7
M  V30 19 1 27 10
M  V30 20 1 28 11
M  V30 21 1 29 4
M  V30 22 1 30 3
M  V30 23 1 30 11
M  V30 24 1 31 5
M  V30 25 1 32 9
M  V30 26 1 32 28
M  V30 27 1 32 29
M  V30 28 1 33 7
M  V30 29 1 33 17 CFG=1
M  V30 30 1 33 25
M  V30 31 1 34 1
M  V30 32 1 34 20
M  V30 33 1 35 5
M  V30 34 1 35 33
M  V30 35 1 36 10
M  V30 36 1 36 20
M  V30 37 1 36 23
M  V30 38 1 37 1
M  V30 39 1 37 13
M  V30 40 1 37 27
M  V30 41 1 1 38 CFG=3
M  V30 42 1 39 3
M  V30 43 1 40 4
M  V30 44 1 41 4
M  V30 45 1 42 5
M  V30 46 1 43 5
M  V30 47 1 44 6
M  V30 48 1 45 8
M  V30 49 1 9 46 CFG=3
M  V30 50 1 47 10
M  V30 51 1 48 10
M  V30 52 1 11 49 CFG=3
M  V30 53 1 50 12
M  V30 54 1 51 13
M  V30 55 1 52 13
M  V30 56 1 53 15
M  V30 57 1 54 16
M  V30 58 1 55 17
M  V30 59 1 56 17
M  V30 60 1 57 17
M  V30 61 1 20 58 CFG=3
M  V30 62 1 59 21
M  V30 63 1 60 22
M  V30 64 1 61 22
M  V30 65 1 24 62 CFG=1
M  V30 66 1 63 25
M  V30 67 1 64 25
M  V30 68 1 65 26
M  V30 69 1 66 26
M  V30 70 1 67 27
M  V30 71 1 68 28
M  V30 72 1 69 28
M  V30 73 1 70 29
M  V30 74 1 71 29
M  V30 75 1 72 30
M  V30 76 1 73 30
M  V30 77 1 74 31
M  V30 78 1 75 31
M  V30 79 1 76 31
M  V30 80 1 77 34
M  V30 81 1 78 34
M  V30 82 1 79 35
M  V30 83 1 80 35
M  V30 84 1 36 81 CFG=1
M  V30 85 1 37 82 CFG=3
M  V30 86 1 32 83 CFG=1
M  V30 87 1 84 27
M  V30 END BOND
M  V30 END CTAB
M  END
>  <i_epik_Tot_Q>  (1) 
1

>  <i_epik_Tot_abs_Q>  (1) 
3

>  <i_i_glide_confnum>  (1) 
39

>  <i_i_glide_lignum>  (1) 
87

>  <i_i_glide_posenum>  (1) 
9

>  <i_i_glide_rotatable_bonds>  (1) 
9

>  <i_lp_mmshare_version>  (1) 
72125

>  <i_m_source_file_index>  (1) 
33

>  <i_f3d_flags>  (1) 
0

>  <num_sample>  (1) 
100

>  <b_lp_Chiralities_Consistent>  (1) 
1

>  <r_epik_Charging_Adjusted_Penalty>  (1) 
0.016900800142501185

>  <r_epik_Ionization_Penalty>  (1) 
0.019380071947909534

>  <r_epik_Ionization_Penalty_Charging>  (1) 
0.016900800142501185

>  <r_epik_Ionization_Penalty_Neutral>  (1) 
0.0024792718054083493

>  <r_epik_State_Penalty>  (1) 
-0

>  <r_glide_ring_energy>  (1) 
0.61486460330699788

>  <r_i_docking_score>  (1) 
-4.9948644925217716

>  <r_i_glide_ecoul>  (1) 
-8.624912680324023

>  <r_i_glide_eff_state_penalty>  (1) 
-0

>  <r_i_glide_einternal>  (1) 
10.995644073684078

>  <r_i_glide_emodel>  (1) 
-47.959903851122576

>  <r_i_glide_emodel_strain>  (1) 
7.6470152087962049

>  <r_i_glide_energy>  (1) 
-8.4375505736410172

>  <r_i_glide_erotb>  (1) 
0.30428459818937692

>  <r_i_glide_esite>  (1) 
-0.10000000000000001

>  <r_i_glide_evdw>  (1) 
0.18736210668300507

>  <r_i_glide_gscore>  (1) 
-4.9948644925217716

>  <r_i_glide_gscore_strain>  (1) 
0.91175380219905122

>  <r_i_glide_hbond>  (1) 
-0.93260426680231012

>  <r_i_glide_ligand_efficiency>  (1) 
-0.13499633763572355

>  <r_i_glide_ligand_efficiency_ln>  (1) 
-1.0832690121905393

>  <r_i_glide_ligand_efficiency_sa>  (1) 
-0.44983774616193312

>  <r_i_glide_lipo>  (1) 
-3.0308265912543293

>  <r_i_glide_metal>  (1) 
-0

>  <r_i_glide_rewards>  (1) 
-0.8631032381391075

>  <r_lp_Energy>  (1) 
56.582617999999997

>  <r_lp_tautomer_probability>  (1) 
1

>  <s_epik_cmdline>  (1) 
J2VwaWtfcHl0aG9uJywgJy1waHQnLCAnMS4wJywgJy1waCcsICc3LjQnLCAnLXRuJywgJzgnLCAnLW1hJywgJzUwMCcsICctaW1hZScsICc8aW5maWxlLm1hZT4nLCAnLW9tYWUnLCAnPG91dGZpbGUubWFlPic=

>  <s_epik_input>  (1) 
W09IXUMxPVtDSF1bQ0BASF0oW09IXSlbQ0hdPUMoW0NIXT1bQ0hdMSlbQ0BIXShbQ0BASF0oW0NIMl0yKUMoPU8pW09IXSlbQ0gyXVtOSF1bQ0BASF0oW0NAQEhdMjMpW0NIMl1bQ0gyXVtDQEBIXShbQ0gyXVtDQF0oW0NIM10pKE9bQ0gyXTMpW0NIMl1bQ0gyXVtDSDNdKU4oW0NIMl00KVtDSDJdW0NIMl1bQ0BIXTRbQ0gyXVtPSF0=

>  <s_glide_docking_method>  (1) 
confgen

>  <s_i_glide_gridfile>  (1) 
gpcr_5ht2c_6bqh_protein_autoprepared_prepared

>  <s_lp_Force_Field>  (1) 
S-OPLS

>  <s_lp_Variant>  (1) 
DiffSBDD_32_num_sample_100-2

>  <s_m_source_file>  (1) 
generated__ligand_DiffSBDD_2026-05-06_prepared.sdf

>  <GenAI_Model>  (1) 
DiffSBDD

>  <Protein>  (1) 
GPCR_5HT2C

$$$$
DiffSBDD_90_num_sample_100
     RDKit          3D

  0  0  0  0  0  0  0  0  0  0999 V3000
M  V30 BEGIN CTAB
M  V30 COUNTS 85 88 0 0 1
M  V30 BEGIN ATOM
M  V30 1 C 37.542884 32.091572 58.642624 0
M  V30 2 O 44.718361 30.610790 66.200217 0
M  V30 3 F 39.467377 23.732347 57.453534 0
M  V30 4 C 38.489050 29.779830 54.610016 0 CFG=1
M  V30 5 C 42.235969 28.225780 64.764623 0 CFG=2
M  V30 6 C 40.699212 30.102345 64.375552 0 CFG=1
M  V30 7 C 38.129745 32.742848 54.776778 0
M  V30 8 C 39.393682 30.995182 62.397406 0
M  V30 9 C 39.413497 30.821652 53.883434 0
M  V30 10 N 44.277455 29.575597 65.287230 0
M  V30 11 C 39.067353 25.763749 58.518244 0
M  V30 12 C 40.715269 31.104202 54.654570 0
M  V30 13 C 40.755170 28.582757 64.628390 0
M  V30 14 C 42.042601 30.664965 64.893403 0
M  V30 15 O 43.680992 26.739708 65.951930 0
M  V30 16 N 37.979012 30.686122 58.846089 0 CFG=2 CHG=1
M  V30 17 C 40.498534 30.421895 62.902144 0
M  V30 18 F 40.652283 25.458204 56.864385 0
M  V30 19 C 38.386654 26.859002 55.897196 0 CFG=2
M  V30 20 N 37.069721 29.731309 58.176908 0
M  V30 21 C 38.826309 27.265469 58.334723 0
M  V30 22 C 38.158339 30.387792 60.289414 0
M  V30 23 O 38.667426 32.021365 53.671900 0
M  V30 24 C 39.867467 30.419281 52.453777 0
M  V30 25 C 38.534758 33.090216 59.256759 0
M  V30 26 C 38.441956 25.340783 56.105245 0
M  V30 27 C 39.203302 31.318571 60.929185 0 CFG=1
M  V30 28 C 42.830126 29.468920 65.457815 0 CFG=1
M  V30 29 C 38.488575 28.394515 53.905480 0
M  V30 30 O 41.564869 26.104388 65.650760 0 CHG=-1
M  V30 31 C 37.611297 29.089829 56.968779 0 CFG=1
M  V30 32 C 38.798878 32.790041 60.737781 0
M  V30 33 O 42.744196 28.117173 63.453588 0
M  V30 34 C 38.726967 29.783012 56.163417 0
M  V30 35 C 37.858078 27.569575 57.173560 0 CFG=1
M  V30 36 C 37.717241 27.258511 54.573648 0
M  V30 37 C 39.437843 25.044283 57.225417 0
M  V30 38 C 42.516356 26.909186 65.523867 0
M  V30 39 H 36.546513 32.234512 59.064631 0
M  V30 40 H 37.467261 32.301909 57.579403 0
M  V30 41 H 44.648702 30.182629 67.041901 0
M  V30 42 H 37.465397 30.122593 54.458279 0
M  V30 43 H 39.869748 30.525695 64.942770 0
M  V30 44 H 37.590584 33.611594 54.401250 0
M  V30 45 H 37.411766 32.153919 55.341663 0
M  V30 46 H 38.900975 33.113103 55.451342 0
M  V30 47 H 38.580313 31.250957 63.053422 0
M  V30 48 H 44.729294 28.739158 65.648575 0
M  V30 49 H 38.182997 25.295047 58.937136 0
M  V30 50 H 39.866654 25.621441 59.236351 0
M  V30 51 H 41.178389 30.171543 54.967570 0
M  V30 52 H 41.460109 31.619990 54.062024 0
M  V30 53 H 40.563412 31.712057 55.539500 0
M  V30 54 H 40.245811 28.363482 65.567949 0
M  V30 55 H 40.267470 27.996839 63.847224 0
M  V30 56 H 41.893248 31.428879 65.656692 0
M  V30 57 H 42.605056 31.133749 64.083410 0
M  V30 58 H 41.310262 30.162021 62.242781 0
M  V30 59 H 39.430479 27.150628 55.786553 0
M  V30 60 H 36.352132 30.387436 57.879339 0
M  V30 61 H 38.414155 27.631870 59.268319 0
M  V30 62 H 39.779455 27.772608 58.185256 0
M  V30 63 H 38.488787 29.363039 60.426793 0
M  V30 64 H 37.197963 30.476850 60.799867 0
M  V30 65 H 40.612564 29.625695 52.466172 0
M  V30 66 H 39.067286 30.064427 51.812936 0
M  V30 67 H 40.324832 31.265707 51.941520 0
M  V30 68 H 38.145917 34.102202 59.146735 0
M  V30 69 H 39.467666 33.062842 58.697465 0
M  V30 70 H 37.454578 24.947638 56.350975 0
M  V30 71 H 38.770316 24.832861 55.197772 0
M  V30 72 H 40.160260 31.149412 60.435153 0
M  V30 73 H 42.605784 29.385021 66.523065 0
M  V30 74 H 38.047786 28.504467 52.915407 0
M  V30 75 H 39.503599 28.052977 53.734472 0
M  V30 76 H 36.753148 29.221872 56.326060 0
M  V30 77 H 37.900698 33.010317 61.317252 0
M  V30 78 H 39.582093 33.450648 61.113246 0
M  V30 79 H 43.677048 27.977109 63.529124 0
M  V30 80 H 38.801606 30.815531 56.481226 0
M  V30 81 H 39.691614 29.341784 56.414273 0
M  V30 82 H 36.902498 27.122101 57.453228 0
M  V30 83 H 36.667476 27.511876 54.653466 0
M  V30 84 H 37.742955 26.412251 53.885464 0
M  V30 85 H 38.868950 30.567022 58.385273 0
M  V30 END ATOM
M  V30 BEGIN BOND
M  V30 1 1 9 4
M  V30 2 1 10 2
M  V30 3 1 12 9
M  V30 4 1 13 5
M  V30 5 1 13 6
M  V30 6 1 14 6
M  V30 7 1 16 1
M  V30 8 1 17 6
M  V30 9 2 17 8
M  V30 10 1 20 16
M  V30 11 1 21 11
M  V30 12 1 22 16
M  V30 13 1 23 7
M  V30 14 1 23 9
M  V30 15 1 24 9
M  V30 16 1 25 1
M  V30 17 1 26 19
M  V30 18 1 27 8
M  V30 19 1 27 22
M  V30 20 1 28 5
M  V30 21 1 28 10
M  V30 22 1 28 14
M  V30 23 1 29 4
M  V30 24 1 31 20
M  V30 25 1 32 25
M  V30 26 1 32 27
M  V30 27 1 5 33 CFG=3
M  V30 28 1 34 4
M  V30 29 1 34 31
M  V30 30 1 35 19
M  V30 31 1 35 21
M  V30 32 1 35 31
M  V30 33 1 36 19
M  V30 34 1 36 29
M  V30 35 1 37 3
M  V30 36 1 37 11
M  V30 37 1 37 18
M  V30 38 1 37 26
M  V30 39 1 38 5
M  V30 40 2 38 15
M  V30 41 1 38 30
M  V30 42 1 39 1
M  V30 43 1 40 1
M  V30 44 1 41 2
M  V30 45 1 4 42 CFG=1
M  V30 46 1 6 43 CFG=1
M  V30 47 1 44 7
M  V30 48 1 45 7
M  V30 49 1 46 7
M  V30 50 1 47 8
M  V30 51 1 48 10
M  V30 52 1 49 11
M  V30 53 1 50 11
M  V30 54 1 51 12
M  V30 55 1 52 12
M  V30 56 1 53 12
M  V30 57 1 54 13
M  V30 58 1 55 13
M  V30 59 1 56 14
M  V30 60 1 57 14
M  V30 61 1 58 17
M  V30 62 1 19 59 CFG=3
M  V30 63 1 60 20
M  V30 64 1 61 21
M  V30 65 1 62 21
M  V30 66 1 63 22
M  V30 67 1 64 22
M  V30 68 1 65 24
M  V30 69 1 66 24
M  V30 70 1 67 24
M  V30 71 1 68 25
M  V30 72 1 69 25
M  V30 73 1 70 26
M  V30 74 1 71 26
M  V30 75 1 27 72 CFG=3
M  V30 76 1 28 73 CFG=1
M  V30 77 1 74 29
M  V30 78 1 75 29
M  V30 79 1 31 76 CFG=3
M  V30 80 1 77 32
M  V30 81 1 78 32
M  V30 82 1 79 33
M  V30 83 1 80 34
M  V30 84 1 81 34
M  V30 85 1 35 82 CFG=1
M  V30 86 1 83 36
M  V30 87 1 84 36
M  V30 88 1 16 85 CFG=3
M  V30 END BOND
M  V30 END CTAB
M  END
>  <i_epik_Tot_Q>  (1) 
0

>  <i_epik_Tot_abs_Q>  (1) 
2

>  <i_i_glide_confnum>  (1) 
233

>  <i_i_glide_lignum>  (1) 
240

>  <i_i_glide_posenum>  (1) 
270

>  <i_i_glide_rotatable_bonds>  (1) 
10

>  <i_lp_mmshare_version>  (1) 
72125

>  <i_m_source_file_index>  (1) 
91

>  <i_f3d_flags>  (1) 
0

>  <num_sample>  (1) 
100

>  <b_lp_Chiralities_Consistent>  (1) 
1

>  <r_epik_Charging_Adjusted_Penalty>  (1) 
1.5083745474312953

>  <r_epik_Ionization_Penalty>  (1) 
0.65750586125956467

>  <r_epik_Ionization_Penalty_Charging>  (1) 
0.6544614066189578

>  <r_epik_Ionization_Penalty_Neutral>  (1) 
0.0030444546406068235

>  <r_epik_State_Penalty>  (1) 
0.8539131408123376

>  <r_glide_ring_energy>  (1) 
0.16952212376528442

>  <r_i_docking_score>  (1) 
-4.9911330160263745

>  <r_i_glide_ecoul>  (1) 
-0.20850032956488995

>  <r_i_glide_eff_state_penalty>  (1) 
0.8539131408123376

>  <r_i_glide_einternal>  (1) 
11.32527275619767

>  <r_i_glide_emodel>  (1) 
-61.635452122134936

>  <r_i_glide_emodel_strain>  (1) 
1.0726132360132112

>  <r_i_glide_energy>  (1) 
-30.272911583497212

>  <r_i_glide_erotb>  (1) 
0.42002339013477186

>  <r_i_glide_esite>  (1) 
-0.045361713365551955

>  <r_i_glide_evdw>  (1) 
-30.06441125393232

>  <r_i_glide_gscore>  (1) 
-5.8450461568387118

>  <r_i_glide_gscore_strain>  (1) 
0

>  <r_i_glide_hbond>  (1) 
-0.16

>  <r_i_glide_ligand_efficiency>  (1) 
-0.13134560568490458

>  <r_i_glide_ligand_efficiency_ln>  (1) 
-1.0762351025130814

>  <r_i_glide_ligand_efficiency_sa>  (1) 
-0.44158069610376344

>  <r_i_glide_lipo>  (1) 
-3.6398214083561737

>  <r_i_glide_metal>  (1) 
-0

>  <r_i_glide_rewards>  (1) 
-0.88539081312040746

>  <r_lp_Energy>  (1) 
52.906404999999999

>  <s_epik_Chemistry_Notes>  (1) 
This compound has a N-S or N-O group and may undergo hydrolysis at high or low pH.

>  <s_epik_cmdline>  (1) 
J2VwaWtfcHl0aG9uJywgJy1waHQnLCAnMS4wJywgJy1waCcsICc3LjQnLCAnLXRuJywgJzgnLCAnLW1hJywgJzUwMCcsICctaW1hZScsICc8aW5maWxlLm1hZT4nLCAnLW9tYWUnLCAnPG91dGZpbGUubWFlPic=

>  <s_epik_input>  (1) 
RkMoRikoW0NIMl0xKVtDSDJdW0NIMl1bQ0BIXShbQ0BASF0xMilbQ0BIXShbQ0gyXVtDQEhdKFtDSDJdW0NIMl0yKUMoW0NIM10pKFtDSDNdKU9bQ0gzXSlbTkhdTjNbQ0gyXVtDSDJdW0NIMl1bQ0BIXShbQ0gyXTMpL1tDSF09W0NIXS9bQ0BASF0oW0NIMl1bQ0BdNChbT0hdKUMoPU8pW09IXSlbQ0gyXVtDQEBIXTRbTkhdW09IXQ==

>  <s_glide_docking_method>  (1) 
confgen

>  <s_i_glide_gridfile>  (1) 
gpcr_5ht2c_6bqh_protein_autoprepared_prepared

>  <s_lp_Force_Field>  (1) 
S-OPLS

>  <s_lp_Variant>  (1) 
DiffSBDD_90_num_sample_100-12

>  <s_m_source_file>  (1) 
generated__ligand_DiffSBDD_2026-05-06_prepared.sdf

>  <GenAI_Model>  (1) 
DiffSBDD

>  <Protein>  (1) 
GPCR_5HT2C

$$$$
DiffSBDD_5_num_sample_100
     RDKit          3D

  0  0  0  0  0  0  0  0  0  0999 V3000
M  V30 BEGIN CTAB
M  V30 COUNTS 50 52 0 0 1
M  V30 BEGIN ATOM
M  V30 1 C 38.267132 27.492459 52.230444 0
M  V30 2 O 36.667440 29.926383 54.686436 0
M  V30 3 C 39.458848 29.076326 59.806701 0
M  V30 4 C 35.376861 31.751053 60.127463 0
M  V30 5 C 38.319524 29.638366 58.933511 0 CFG=1
M  V30 6 C 35.292666 33.691566 61.730315 0
M  V30 7 C 38.074171 31.571163 60.604351 0
M  V30 8 C 39.216211 28.452595 51.496133 0
M  V30 9 C 38.630744 27.919656 56.267281 0
M  V30 10 C 38.625601 31.393583 57.123411 0
M  V30 11 N 37.375441 32.514006 61.282700 0
M  V30 12 N 37.867460 27.915742 55.238890 0
M  V30 13 S 40.191212 27.621398 59.051683 0
M  V30 14 C 37.102448 28.182032 52.980352 0
M  V30 15 C 37.480997 30.672868 59.684758 0
M  V30 16 C 36.103377 30.764931 59.453571 0
M  V30 17 C 39.579898 29.071897 56.688493 0 CFG=1
M  V30 18 C 39.867169 31.093501 55.065736 0
M  V30 19 C 37.574136 28.939026 54.239074 0 CFG=1
M  V30 20 C 39.113930 31.862267 55.853859 0
M  V30 21 C 38.824542 30.124729 57.553760 0
M  V30 22 C 40.730597 28.436400 57.527706 0
M  V30 23 C 36.049105 32.599985 61.018648 0
M  V30 24 C 40.278198 29.677333 55.429598 0
M  V30 25 H 38.827462 26.854837 52.915132 0
M  V30 26 H 37.867630 26.821367 51.477125 0
M  V30 27 H 37.055073 30.434943 55.385592 0
M  V30 28 H 40.244809 29.816556 59.956903 0
M  V30 29 H 39.089108 28.785541 60.789528 0
M  V30 30 H 34.317097 31.867042 59.952593 0
M  V30 31 H 37.635618 28.812097 58.737716 0
M  V30 32 H 35.001369 34.421401 60.976308 0
M  V30 33 H 35.869335 34.220136 62.479560 0
M  V30 34 H 34.404480 33.284874 62.216042 0
M  V30 35 H 39.134985 31.538121 60.798429 0
M  V30 36 H 39.938049 27.895322 50.898450 0
M  V30 37 H 39.780270 29.088898 52.176667 0
M  V30 38 H 38.667797 29.100585 50.813082 0
M  V30 39 H 38.656281 27.056890 56.935357 0
M  V30 40 H 38.085681 32.086450 57.750142 0
M  V30 41 H 36.588286 28.821407 52.275548 0
M  V30 42 H 36.359573 27.438795 53.266285 0
M  V30 43 H 35.614989 30.103670 58.748356 0
M  V30 44 H 40.224570 31.476405 54.120677 0
M  V30 45 H 38.394680 29.518651 53.873679 0
M  V30 46 H 38.870705 32.866163 55.534413 0
M  V30 47 H 41.302756 27.719111 56.932659 0
M  V30 48 H 41.426338 29.207154 57.853778 0
M  V30 49 H 41.356345 29.621368 55.453471 0
M  V30 50 H 40.150944 29.020597 54.592398 0
M  V30 END ATOM
M  V30 BEGIN BOND
M  V30 1 1 5 3
M  V30 2 1 8 1
M  V30 3 1 11 7
M  V30 4 2 12 9
M  V30 5 1 13 3
M  V30 6 1 14 1
M  V30 7 1 15 5
M  V30 8 2 15 7
M  V30 9 2 16 4
M  V30 10 1 16 15
M  V30 11 1 17 9 CFG=3
M  V30 12 1 19 2
M  V30 13 1 19 12
M  V30 14 1 19 14
M  V30 15 1 20 10
M  V30 16 2 20 18
M  V30 17 1 21 5
M  V30 18 2 21 10
M  V30 19 1 21 17
M  V30 20 1 22 13
M  V30 21 1 22 17
M  V30 22 1 23 4
M  V30 23 1 23 6
M  V30 24 2 23 11
M  V30 25 1 24 17
M  V30 26 1 24 18
M  V30 27 1 25 1
M  V30 28 1 26 1
M  V30 29 1 27 2
M  V30 30 1 28 3
M  V30 31 1 29 3
M  V30 32 1 30 4
M  V30 33 1 5 31 CFG=3
M  V30 34 1 32 6
M  V30 35 1 33 6
M  V30 36 1 34 6
M  V30 37 1 35 7
M  V30 38 1 36 8
M  V30 39 1 37 8
M  V30 40 1 38 8
M  V30 41 1 39 9
M  V30 42 1 40 10
M  V30 43 1 41 14
M  V30 44 1 42 14
M  V30 45 1 43 16
M  V30 46 1 44 18
M  V30 47 1 19 45 CFG=3
M  V30 48 1 46 20
M  V30 49 1 47 22
M  V30 50 1 48 22
M  V30 51 1 49 24
M  V30 52 1 50 24
M  V30 END BOND
M  V30 END CTAB
M  END
>  <i_epik_Tot_Q>  (1) 
0

>  <i_epik_Tot_abs_Q>  (1) 
0

>  <i_i_glide_confnum>  (1) 
8

>  <i_i_glide_lignum>  (1) 
24

>  <i_i_glide_posenum>  (1) 
144

>  <i_i_glide_rotatable_bonds>  (1) 
6

>  <i_lp_mmshare_version>  (1) 
72125

>  <i_m_source_file_index>  (1) 
6

>  <i_f3d_flags>  (1) 
0

>  <num_sample>  (1) 
100

>  <b_lp_Chiralities_Consistent>  (1) 
1

>  <r_epik_Charging_Adjusted_Penalty>  (1) 
0.0081103479682914613

>  <r_epik_Ionization_Penalty>  (1) 
0.0085425111303935736

>  <r_epik_Ionization_Penalty_Charging>  (1) 
0

>  <r_epik_Ionization_Penalty_Neutral>  (1) 
0.0085425111303935736

>  <r_epik_State_Penalty>  (1) 
0.0081103479682914613

>  <r_glide_ring_energy>  (1) 
0

>  <r_i_docking_score>  (1) 
-4.9903164280164463

>  <r_i_glide_ecoul>  (1) 
-2.0929788154654982

>  <r_i_glide_eff_state_penalty>  (1) 
0.0081103479682914613

>  <r_i_glide_einternal>  (1) 
4.0341796111299821

>  <r_i_glide_emodel>  (1) 
-28.159156511180399

>  <r_i_glide_emodel_strain>  (1) 
5.246816809673831

>  <r_i_glide_energy>  (1) 
-30.037309006573643

>  <r_i_glide_erotb>  (1) 
0.64660109196089122

>  <r_i_glide_esite>  (1) 
0

>  <r_i_glide_evdw>  (1) 
-27.944330191108143

>  <r_i_glide_gscore>  (1) 
-4.9984267759847381

>  <r_i_glide_gscore_strain>  (1) 
0.31170420241845775

>  <r_i_glide_hbond>  (1) 
0

>  <r_i_glide_ligand_efficiency>  (1) 
-0.20792985116735194

>  <r_i_glide_ligand_efficiency_ln>  (1) 
-1.1944117119239837

>  <r_i_glide_ligand_efficiency_sa>  (1) 
-0.59977347700039341

>  <r_i_glide_lipo>  (1) 
-2.2323984370547119

>  <r_i_glide_metal>  (1) 
-0

>  <r_i_glide_rewards>  (1) 
-2.013170301434144

>  <r_lp_Energy>  (1) 
34.052436999999998

>  <s_epik_Chemistry_Notes>  (1) 
This compound has an imine and may undergo hydrolysis. This compound contains an acetal/aminal-like group ( X-CH(R)-Y where X, Y are N, S, or O) that may be acid/base labile, releasing an aldehyde.

>  <s_epik_cmdline>  (1) 
J2VwaWtfcHl0aG9uJywgJy1waHQnLCAnMS4wJywgJy1waCcsICc3LjQnLCAnLXRuJywgJzgnLCAnLW1hJywgJzUwMCcsICctaW1hZScsICc8aW5maWxlLm1hZT4nLCAnLW9tYWUnLCAnPG91dGZpbGUubWFlPic=

>  <s_epik_input>  (1) 
W0NIM11bQ0gyXVtDSDJdW0NAQEhdKFtPSF0pL049W0NIXVxbQ0BAXTEyQyg9W0NIXVtDSF09W0NIXVtDSDJdMilbQ0BASF0oW0NIMl1TW0NIMl0xKWMzW2NIXW5jKFtDSDNdKVtjSF1bY0hdMw==

>  <s_glide_docking_method>  (1) 
confgen

>  <s_i_glide_gridfile>  (1) 
gpcr_5ht2c_6bqh_protein_autoprepared_prepared

>  <s_lp_Force_Field>  (1) 
S-OPLS

>  <s_lp_Variant>  (1) 
DiffSBDD_5_num_sample_100-2

>  <s_m_source_file>  (1) 
generated__ligand_DiffSBDD_2026-05-06_prepared.sdf

>  <GenAI_Model>  (1) 
DiffSBDD

>  <Protein>  (1) 
GPCR_5HT2C

$$$$
DiffSBDD_57_num_sample_100
     RDKit          3D

  0  0  0  0  0  0  0  0  0  0999 V3000
M  V30 BEGIN CTAB
M  V30 COUNTS 38 40 0 0 1
M  V30 BEGIN ATOM
M  V30 1 C 39.483963 31.195790 61.272971 0
M  V30 2 C 40.141258 28.866393 61.004588 0
M  V30 3 N 39.025125 34.823787 62.253337 0
M  V30 4 O 41.473313 28.021429 63.301665 0
M  V30 5 C 40.160904 27.826468 57.580882 0
M  V30 6 C 38.946797 29.994672 56.839099 0
M  V30 7 C 40.438165 34.832583 62.576029 0 CFG=2
M  V30 8 C 41.481850 29.184391 63.732542 0
M  V30 9 N 38.803109 31.197830 60.101965 0
M  V30 10 C 40.162701 30.060888 61.778549 0
M  V30 11 C 38.787890 30.057132 59.378901 0
M  V30 12 C 39.408395 27.629579 58.908419 0
M  V30 13 C 39.443318 28.873817 59.781501 0
M  V30 14 C 39.481411 32.511816 62.054259 0 CFG=1
M  V30 15 C 39.338081 28.547025 56.499448 0
M  V30 16 C 38.026452 30.115683 58.064016 0
M  V30 17 Cl 41.067633 36.025309 61.453301 0
M  V30 18 S 41.133314 33.196535 62.254041 0
M  V30 19 N 40.857525 30.173988 63.055434 0
M  V30 20 C 38.702497 33.666773 61.431219 0
M  V30 21 O 42.057823 29.477952 64.799821 0 CHG=-1
M  V30 22 H 40.643350 27.974671 61.314364 0
M  V30 23 H 38.758483 35.685763 61.797172 0
M  V30 24 H 41.111988 28.334479 57.755015 0
M  V30 25 H 40.422192 26.842840 57.189158 0
M  V30 26 H 39.830815 30.619219 56.969446 0
M  V30 27 H 38.416960 30.403291 55.976431 0
M  V30 28 H 40.619330 35.177902 63.594355 0
M  V30 29 H 39.867173 26.806780 59.454327 0
M  V30 30 H 38.377278 27.323994 58.729302 0
M  V30 31 H 39.074590 32.315145 63.046937 0
M  V30 32 H 39.917814 28.553670 55.575713 0
M  V30 33 H 38.438639 27.969180 56.280295 0
M  V30 34 H 37.244729 29.356450 58.051151 0
M  V30 35 H 37.502824 31.072838 58.009075 0
M  V30 36 H 40.874254 31.089951 63.476658 0
M  V30 37 H 39.037037 33.849514 60.408476 0
M  V30 38 H 37.628467 33.482302 61.406698 0
M  V30 END ATOM
M  V30 BEGIN BOND
M  V30 1 1 7 3
M  V30 2 2 8 4
M  V30 3 1 9 1
M  V30 4 2 10 1
M  V30 5 1 10 2
M  V30 6 2 11 9
M  V30 7 1 12 5
M  V30 8 2 13 2
M  V30 9 1 13 11
M  V30 10 1 13 12
M  V30 11 1 14 1
M  V30 12 1 15 5
M  V30 13 1 15 6
M  V30 14 1 16 6
M  V30 15 1 16 11
M  V30 16 1 17 7
M  V30 17 1 18 7
M  V30 18 1 18 14
M  V30 19 1 19 8
M  V30 20 1 19 10
M  V30 21 1 20 3
M  V30 22 1 20 14
M  V30 23 1 21 8
M  V30 24 1 22 2
M  V30 25 1 23 3
M  V30 26 1 24 5
M  V30 27 1 25 5
M  V30 28 1 26 6
M  V30 29 1 27 6
M  V30 30 1 7 28 CFG=1
M  V30 31 1 29 12
M  V30 32 1 30 12
M  V30 33 1 14 31 CFG=1
M  V30 34 1 32 15
M  V30 35 1 33 15
M  V30 36 1 34 16
M  V30 37 1 35 16
M  V30 38 1 36 19
M  V30 39 1 37 20
M  V30 40 1 38 20
M  V30 END BOND
M  V30 END CTAB
M  END
>  <i_epik_Tot_Q>  (1) 
-1

>  <i_epik_Tot_abs_Q>  (1) 
1

>  <i_i_glide_confnum>  (1) 
1

>  <i_i_glide_lignum>  (1) 
146

>  <i_i_glide_posenum>  (1) 
309

>  <i_i_glide_rotatable_bonds>  (1) 
3

>  <i_lp_mmshare_version>  (1) 
72125

>  <i_m_source_file_index>  (1) 
58

>  <i_f3d_flags>  (1) 
0

>  <num_sample>  (1) 
100

>  <b_lp_Chiralities_Consistent>  (1) 
1

>  <r_epik_Charging_Adjusted_Penalty>  (1) 
0.030249611806120975

>  <r_epik_Ionization_Penalty>  (1) 
0.0034756844334769034

>  <r_epik_Ionization_Penalty_Charging>  (1) 
0.00037093854589671571

>  <r_epik_Ionization_Penalty_Neutral>  (1) 
0.0031047458875801876

>  <r_epik_State_Penalty>  (1) 
0.02987867326022426

>  <r_glide_ring_energy>  (1) 
0

>  <r_i_docking_score>  (1) 
-4.984106632700632

>  <r_i_glide_ecoul>  (1) 
0.6934643273637634

>  <r_i_glide_eff_state_penalty>  (1) 
0.02987867326022426

>  <r_i_glide_einternal>  (1) 
8.0815405717032505

>  <r_i_glide_emodel>  (1) 
-33.462118654511855

>  <r_i_glide_emodel_strain>  (1) 
2.1850759131498734

>  <r_i_glide_energy>  (1) 
-31.805427316622179

>  <r_i_glide_erotb>  (1) 
0.35125710597842541

>  <r_i_glide_esite>  (1) 
-0.02186748494897011

>  <r_i_glide_evdw>  (1) 
-32.498891643985942

>  <r_i_glide_gscore>  (1) 
-5.0139853059608566

>  <r_i_glide_gscore_strain>  (1) 
0

>  <r_i_glide_hbond>  (1) 
0

>  <r_i_glide_ligand_efficiency>  (1) 
-0.23733841108098247

>  <r_i_glide_ligand_efficiency_ln>  (1) 
-1.2323102935994792

>  <r_i_glide_ligand_efficiency_sa>  (1) 
-0.6547986803152035

>  <r_i_glide_lipo>  (1) 
-2.3314255420185286

>  <r_i_glide_metal>  (1) 
-0

>  <r_i_glide_rewards>  (1) 
-1.4910244518770501

>  <r_lp_Energy>  (1) 
18.504829000000001

>  <s_epik_Chemistry_Notes>  (1) 
This compound contains an acetal/aminal-like group ( X-CH(R)-Y where X, Y are N, S, or O) that may be acid/base labile, releasing an aldehyde.

>  <s_epik_cmdline>  (1) 
J2VwaWtfcHl0aG9uJywgJy1waHQnLCAnMS4wJywgJy1waCcsICc3LjQnLCAnLXRuJywgJzgnLCAnLW1hJywgJzUwMCcsICctaW1hZScsICc8aW5maWxlLm1hZT4nLCAnLW9tYWUnLCAnPG91dGZpbGUubWFlPic=

>  <s_epik_input>  (1) 
Q2xbQ0BIXTFbTkhdW0NIMl1bQ0BIXShTMSljKG4yKWMoW05IXUMoPU8pW09IXSlbY0hdYyhjMjMpW0NIMl1bQ0gyXVtDSDJdW0NIMl1bQ0gyXTM=

>  <s_glide_docking_method>  (1) 
confgen

>  <s_i_glide_gridfile>  (1) 
gpcr_5ht2c_6bqh_protein_autoprepared_prepared

>  <s_lp_Force_Field>  (1) 
S-OPLS

>  <s_lp_Variant>  (1) 
DiffSBDD_57_num_sample_100-1

>  <s_m_source_file>  (1) 
generated__ligand_DiffSBDD_2026-05-06_prepared.sdf

>  <GenAI_Model>  (1) 
DiffSBDD

>  <Protein>  (1) 
GPCR_5HT2C

$$$$
DiffSBDD_93_num_sample_100
     RDKit          3D

  0  0  0  0  0  0  0  0  0  0999 V3000
M  V30 BEGIN CTAB
M  V30 COUNTS 74 77 0 0 1
M  V30 BEGIN ATOM
M  V30 1 C 40.820710 32.232999 65.185690 0
M  V30 2 S 36.657095 31.772901 59.453546 0
M  V30 3 C 41.379935 30.677131 67.124074 0 CFG=2
M  V30 4 O 39.626251 27.960401 57.569249 0
M  V30 5 C 37.383304 36.711481 63.058841 0
M  V30 6 C 39.386866 29.725415 59.881594 0 CFG=1
M  V30 7 C 36.648306 36.358006 60.057335 0
M  V30 8 C 36.248668 34.029096 60.781410 0
M  V30 9 C 41.367570 31.916493 68.023811 0
M  V30 10 N 37.807053 32.392998 61.783013 0
M  V30 11 C 38.493294 37.451572 62.355885 0
M  V30 12 C 40.815841 30.990515 65.749805 0
M  V30 13 C 40.233951 32.456168 63.825279 0
M  V30 14 C 39.017308 31.548398 61.758358 0 CFG=1
M  V30 15 C 42.099294 33.044926 67.305832 0
M  V30 16 Cl 42.667385 34.338497 65.053569 0
M  V30 17 O 36.824434 38.993605 61.453489 0
M  V30 18 C 41.436960 33.417150 65.964451 0 CFG=1
M  V30 19 C 40.318533 33.841156 63.178860 0
M  V30 20 C 37.952494 31.232973 58.308691 0
M  V30 21 C 39.895726 28.272190 59.949099 0
M  V30 22 C 39.623494 31.434451 63.155953 0
M  V30 23 C 37.806881 37.332442 59.967910 0
M  V30 24 C 38.470560 29.827955 58.626668 0 CFG=1
M  V30 25 C 37.416209 33.022849 60.512339 0 CFG=1
M  V30 26 C 38.007847 38.267654 61.161239 0 CFG=2
M  V30 27 C 39.200896 29.297467 57.375407 0
M  V30 28 C 40.561348 27.846337 58.627634 0
M  V30 29 C 36.611400 35.776754 62.480765 0
M  V30 30 S 38.848198 33.941477 59.853516 0
M  V30 31 N 36.667466 35.377346 61.156837 0
M  V30 32 C 40.667163 29.473585 67.755120 0
M  V30 33 C 38.698326 30.125984 61.212327 0
M  V30 34 H 42.418053 30.382743 66.966028 0
M  V30 35 H 37.248217 36.933800 64.106918 0
M  V30 36 H 40.266632 30.352839 59.767983 0
M  V30 37 H 36.587026 35.833916 59.102090 0
M  V30 38 H 35.736250 36.945012 60.123221 0
M  V30 39 H 35.577042 33.621045 61.538091 0
M  V30 40 H 35.627729 34.114617 59.888159 0
M  V30 41 H 40.344876 32.219373 68.249101 0
M  V30 42 H 41.854917 31.697928 68.973807 0
M  V30 43 H 38.002073 33.173533 62.394380 0
M  V30 44 H 39.214003 36.705266 62.018507 0
M  V30 45 H 39.067430 38.021042 63.083431 0
M  V30 46 H 40.401169 30.151965 65.230437 0
M  V30 47 H 39.817574 31.985751 61.165390 0
M  V30 48 H 42.170139 33.926335 67.943884 0
M  V30 49 H 43.125027 32.719839 67.125236 0
M  V30 50 H 36.972173 39.565900 62.188618 0
M  V30 51 H 40.622059 34.108728 66.174096 0
M  V30 52 H 41.216937 33.928069 62.567867 0
M  V30 53 H 39.465974 34.084451 62.559197 0
M  V30 54 H 40.315645 34.640501 63.915866 0
M  V30 55 H 37.467396 31.219690 57.332605 0
M  V30 56 H 38.771589 31.933766 58.193070 0
M  V30 57 H 39.047629 27.621540 60.154060 0
M  V30 58 H 40.598866 28.143067 60.772608 0
M  V30 59 H 39.546351 30.467281 63.605264 0
M  V30 60 H 37.713980 37.918968 59.054116 0
M  V30 61 H 38.667400 36.698373 59.853588 0
M  V30 62 H 37.601618 29.186076 58.784992 0
M  V30 63 H 38.783512 38.989674 60.902752 0
M  V30 64 H 38.533685 29.310263 56.513747 0
M  V30 65 H 40.050850 29.932488 57.122733 0
M  V30 66 H 40.883777 26.809461 58.653501 0
M  V30 67 H 41.448197 28.447665 58.422327 0
M  V30 68 H 35.867429 35.236197 63.053425 0
M  V30 69 H 39.668590 32.893058 59.769823 0
M  V30 70 H 40.824886 28.571432 67.163039 0
M  V30 71 H 41.040705 29.266016 68.758617 0
M  V30 72 H 39.589458 29.621501 67.825924 0
M  V30 73 H 37.624157 30.021438 61.118868 0
M  V30 74 H 38.959116 29.372062 61.954333 0
M  V30 END ATOM
M  V30 BEGIN BOND
M  V30 1 1 9 3
M  V30 2 1 11 5
M  V30 3 2 12 1
M  V30 4 1 12 3
M  V30 5 1 13 1
M  V30 6 1 14 10
M  V30 7 1 15 9
M  V30 8 1 18 1
M  V30 9 1 18 15
M  V30 10 1 18 16
M  V30 11 1 19 13
M  V30 12 1 20 2
M  V30 13 1 21 6
M  V30 14 2 22 13
M  V30 15 1 22 14
M  V30 16 1 23 7
M  V30 17 1 24 6
M  V30 18 1 24 20
M  V30 19 1 25 2
M  V30 20 1 25 8
M  V30 21 1 25 10
M  V30 22 1 26 11
M  V30 23 1 26 17
M  V30 24 1 26 23
M  V30 25 1 27 4
M  V30 26 1 27 24
M  V30 27 1 28 4
M  V30 28 1 28 21
M  V30 29 2 29 5
M  V30 30 1 25 30 CFG=3
M  V30 31 1 31 7
M  V30 32 1 31 8
M  V30 33 1 31 29
M  V30 34 1 32 3
M  V30 35 1 33 6
M  V30 36 1 33 14
M  V30 37 1 3 34 CFG=3
M  V30 38 1 35 5
M  V30 39 1 6 36 CFG=3
M  V30 40 1 37 7
M  V30 41 1 38 7
M  V30 42 1 39 8
M  V30 43 1 40 8
M  V30 44 1 41 9
M  V30 45 1 42 9
M  V30 46 1 43 10
M  V30 47 1 44 11
M  V30 48 1 45 11
M  V30 49 1 46 12
M  V30 50 1 14 47 CFG=3
M  V30 51 1 48 15
M  V30 52 1 49 15
M  V30 53 1 50 17
M  V30 54 1 18 51 CFG=1
M  V30 55 1 52 19
M  V30 56 1 53 19
M  V30 57 1 54 19
M  V30 58 1 55 20
M  V30 59 1 56 20
M  V30 60 1 57 21
M  V30 61 1 58 21
M  V30 62 1 59 22
M  V30 63 1 60 23
M  V30 64 1 61 23
M  V30 65 1 24 62 CFG=1
M  V30 66 1 26 63 CFG=3
M  V30 67 1 64 27
M  V30 68 1 65 27
M  V30 69 1 66 28
M  V30 70 1 67 28
M  V30 71 1 68 29
M  V30 72 1 69 30
M  V30 73 1 70 32
M  V30 74 1 71 32
M  V30 75 1 72 32
M  V30 76 1 73 33
M  V30 77 1 74 33
M  V30 END BOND
M  V30 END CTAB
M  END
>  <i_epik_Tot_Q>  (1) 
0

>  <i_epik_Tot_abs_Q>  (1) 
0

>  <i_i_glide_confnum>  (1) 
37

>  <i_i_glide_lignum>  (1) 
253

>  <i_i_glide_posenum>  (1) 
379

>  <i_i_glide_rotatable_bonds>  (1) 
6

>  <i_lp_mmshare_version>  (1) 
72125

>  <i_m_source_file_index>  (1) 
94

>  <i_f3d_flags>  (1) 
0

>  <num_sample>  (1) 
100

>  <b_lp_Chiralities_Consistent>  (1) 
1

>  <r_epik_Charging_Adjusted_Penalty>  (1) 
0.20325292957253988

>  <r_epik_Ionization_Penalty>  (1) 
0.031936562948065232

>  <r_epik_Ionization_Penalty_Charging>  (1) 
3.6030848355623751e-07

>  <r_epik_Ionization_Penalty_Neutral>  (1) 
0.031936202639581676

>  <r_epik_State_Penalty>  (1) 
0.20325256926405633

>  <r_glide_ring_energy>  (1) 
0

>  <r_i_docking_score>  (1) 
-4.9741127103465885

>  <r_i_glide_ecoul>  (1) 
0.40337933746575982

>  <r_i_glide_eff_state_penalty>  (1) 
0.20325256926405633

>  <r_i_glide_einternal>  (1) 
19.943936447774217

>  <r_i_glide_emodel>  (1) 
-22.806159322434276

>  <r_i_glide_emodel_strain>  (1) 
4.9124386783998091

>  <r_i_glide_energy>  (1) 
-29.531067647184422

>  <r_i_glide_erotb>  (1) 
0.31140238833871409

>  <r_i_glide_esite>  (1) 
0

>  <r_i_glide_evdw>  (1) 
-29.934446984650183

>  <r_i_glide_gscore>  (1) 
-5.1773652796106449

>  <r_i_glide_gscore_strain>  (1) 
0.22810966959995227

>  <r_i_glide_hbond>  (1) 
0

>  <r_i_glide_ligand_efficiency>  (1) 
-0.15073068819232086

>  <r_i_glide_ligand_efficiency_ln>  (1) 
-1.1062169122038223

>  <r_i_glide_ligand_efficiency_sa>  (1) 
-0.48347385696076578

>  <r_i_glide_lipo>  (1) 
-3.698385247973349

>  <r_i_glide_metal>  (1) 
-0

>  <r_i_glide_rewards>  (1) 
-0.58227664096331622

>  <r_lp_Energy>  (1) 
31.372437999999999

>  <s_epik_Chemistry_Notes>  (1) 
This compound has an imine and may undergo hydrolysis.

>  <s_epik_cmdline>  (1) 
J2VwaWtfcHl0aG9uJywgJy1waHQnLCAnMS4wJywgJy1waCcsICc3LjQnLCAnLXRuJywgJzgnLCAnLW1hJywgJzUwMCcsICctaW1hZScsICc8aW5maWxlLm1hZT4nLCAnLW9tYWUnLCAnPG91dGZpbGUubWFlPic=

>  <s_epik_input>  (1) 
Q2xbQ0BIXTFbQ0gyXVtDSDJdW0NAQEhdKFtDSDNdKVtDSF09QzEvQyhbQ0gzXSk9W0NIXS9bQ0BASF0oW0NIMl0yKVtOSF1bQ0BAXShbU0hdKShTW0NIMl1bQ0BIXShbQ0BASF0yMylbQ0gyXU9bQ0gyXVtDSDJdMylbQ0gyXU4oW0NIMl1bQ0gyXTQpW0NIXT1bQ0hdW0NIMl1bQ0BASF00W09IXQ==

>  <s_glide_docking_method>  (1) 
confgen

>  <s_i_glide_gridfile>  (1) 
gpcr_5ht2c_6bqh_protein_autoprepared_prepared

>  <s_lp_Force_Field>  (1) 
S-OPLS

>  <s_lp_Variant>  (1) 
DiffSBDD_93_num_sample_100-5

>  <s_m_source_file>  (1) 
generated__ligand_DiffSBDD_2026-05-06_prepared.sdf

>  <GenAI_Model>  (1) 
DiffSBDD

>  <Protein>  (1) 
GPCR_5HT2C

$$$$
DiffSBDD_1_num_sample_100
     RDKit          3D

  0  0  0  0  0  0  0  0  0  0999 V3000
M  V30 BEGIN CTAB
M  V30 COUNTS 63 66 0 0 1
M  V30 BEGIN ATOM
M  V30 1 C 40.792877 34.273488 62.719710 0
M  V30 2 C 38.158843 28.249675 55.597741 0
M  V30 3 O 40.897396 36.421431 63.327443 0
M  V30 4 C 37.811810 30.159375 57.215025 0 CFG=1
M  V30 5 C 40.343238 33.135307 61.894127 0
M  V30 6 C 38.575933 32.382904 57.668370 0
M  V30 7 C 37.767262 24.379108 55.321236 0
M  V30 8 C 38.430529 28.254855 53.296063 0
M  V30 9 N 38.503625 26.857481 53.787367 0 CHG=1
M  V30 10 C 36.232032 31.388206 60.465772 0
M  V30 11 C 39.366106 33.424085 60.745373 0
M  V30 12 C 37.477954 25.796464 55.828156 0 CFG=2
M  V30 13 C 38.517727 26.822282 55.276167 0 CFG=2
M  V30 14 C 37.767420 32.423383 58.988765 0 CFG=2
M  V30 15 C 37.472953 31.746749 61.304652 0
M  V30 16 C 40.417244 35.491743 62.496841 0
M  V30 17 N 38.980651 31.021260 57.315462 0
M  V30 18 C 38.217456 28.753986 56.842445 0
M  V30 19 O 40.722173 31.980099 62.091203 0
M  V30 20 C 37.377484 25.759595 57.370961 0
M  V30 21 C 41.720927 35.598138 64.247933 0
M  V30 22 C 37.073870 30.099948 58.565959 0
M  V30 23 C 37.744196 29.052473 54.401225 0
M  V30 24 N 36.667403 31.438402 59.053501 0 CFG=1 CHG=1
M  V30 25 O 37.044841 33.644029 59.044961 0
M  V30 26 C 41.698826 34.040999 63.845258 0
M  V30 27 C 38.547261 32.204010 60.292871 0 CFG=2
M  V30 28 O 36.667402 23.525259 55.555971 0
M  V30 29 H 37.128948 30.546872 56.458133 0
M  V30 30 H 39.449211 33.032346 57.739296 0
M  V30 31 H 37.965466 32.786960 56.858432 0
M  V30 32 H 38.665786 24.006513 55.809353 0
M  V30 33 H 37.948837 24.364855 54.253501 0
M  V30 34 H 37.907377 28.319259 52.340962 0
M  V30 35 H 39.445675 28.625426 53.145692 0
M  V30 36 H 39.307516 26.383052 53.401451 0
M  V30 37 H 35.807213 30.421430 60.730772 0
M  V30 38 H 35.451516 32.135345 60.617244 0
M  V30 39 H 39.933394 33.820089 59.904966 0
M  V30 40 H 38.667189 34.204365 61.044172 0
M  V30 41 H 36.497834 26.082569 55.453503 0
M  V30 42 H 39.526285 26.606745 55.633770 0
M  V30 43 H 37.830880 30.889906 61.877104 0
M  V30 44 H 37.225445 32.534919 62.017564 0
M  V30 45 H 39.761195 35.869666 61.726706 0
M  V30 46 H 39.452111 31.049385 56.415949 0
M  V30 47 H 38.544941 28.122348 57.654818 0
M  V30 48 H 38.359543 25.658894 57.834601 0
M  V30 49 H 36.893308 26.648440 57.770892 0
M  V30 50 H 36.771742 24.921720 57.717863 0
M  V30 51 H 42.740993 35.982620 64.249819 0
M  V30 52 H 41.340970 35.729069 65.261902 0
M  V30 53 H 36.179760 29.481777 58.471566 0
M  V30 54 H 37.710498 29.617293 59.310712 0
M  V30 55 H 36.667403 29.016210 54.291663 0
M  V30 56 H 38.068128 30.093880 54.427665 0
M  V30 57 H 37.046460 34.050801 58.189213 0
M  V30 58 H 41.256250 33.401562 64.610229 0
M  V30 59 H 42.667399 33.661539 63.519446 0
M  V30 60 H 39.223491 31.364650 60.120828 0
M  V30 61 H 35.916083 23.830163 55.069648 0
M  V30 62 H 37.663792 26.391467 53.472597 0
M  V30 63 H 35.924247 31.735106 58.414968 0
M  V30 END ATOM
M  V30 BEGIN BOND
M  V30 1 1 5 1
M  V30 2 1 9 8
M  V30 3 1 11 5
M  V30 4 1 12 7
M  V30 5 1 13 2
M  V30 6 1 13 9
M  V30 7 1 13 12
M  V30 8 1 14 6
M  V30 9 1 15 10
M  V30 10 2 16 1
M  V30 11 1 16 3
M  V30 12 1 17 4
M  V30 13 1 17 6
M  V30 14 2 18 2
M  V30 15 1 18 4
M  V30 16 2 19 5
M  V30 17 1 20 12
M  V30 18 1 21 3
M  V30 19 1 22 4
M  V30 20 1 23 2
M  V30 21 1 23 8
M  V30 22 1 24 10
M  V30 23 1 24 14
M  V30 24 1 24 22
M  V30 25 1 14 25 CFG=1
M  V30 26 1 26 1
M  V30 27 1 26 21
M  V30 28 1 27 11
M  V30 29 1 27 14
M  V30 30 1 27 15
M  V30 31 1 28 7
M  V30 32 1 4 29 CFG=3
M  V30 33 1 30 6
M  V30 34 1 31 6
M  V30 35 1 32 7
M  V30 36 1 33 7
M  V30 37 1 34 8
M  V30 38 1 35 8
M  V30 39 1 36 9
M  V30 40 1 37 10
M  V30 41 1 38 10
M  V30 42 1 39 11
M  V30 43 1 40 11
M  V30 44 1 12 41 CFG=3
M  V30 45 1 13 42 CFG=3
M  V30 46 1 43 15
M  V30 47 1 44 15
M  V30 48 1 45 16
M  V30 49 1 46 17
M  V30 50 1 47 18
M  V30 51 1 48 20
M  V30 52 1 49 20
M  V30 53 1 50 20
M  V30 54 1 51 21
M  V30 55 1 52 21
M  V30 56 1 53 22
M  V30 57 1 54 22
M  V30 58 1 55 23
M  V30 59 1 56 23
M  V30 60 1 57 25
M  V30 61 1 58 26
M  V30 62 1 59 26
M  V30 63 1 27 60 CFG=3
M  V30 64 1 61 28
M  V30 65 1 62 9
M  V30 66 1 24 63 CFG=3
M  V30 END BOND
M  V30 END CTAB
M  END
>  <i_epik_Tot_Q>  (1) 
2

>  <i_epik_Tot_abs_Q>  (1) 
2

>  <i_i_glide_confnum>  (1) 
312

>  <i_i_glide_lignum>  (1) 
16

>  <i_i_glide_posenum>  (1) 
56

>  <i_i_glide_rotatable_bonds>  (1) 
8

>  <i_lp_mmshare_version>  (1) 
72125

>  <i_m_source_file_index>  (1) 
2

>  <i_f3d_flags>  (1) 
0

>  <num_sample>  (1) 
100

>  <b_lp_Chiralities_Consistent>  (1) 
1

>  <r_epik_Charging_Adjusted_Penalty>  (1) 
2.3622130296898831

>  <r_epik_Ionization_Penalty>  (1) 
1.4312966064593899

>  <r_epik_Ionization_Penalty_Charging>  (1) 
1.1852885594971458

>  <r_epik_Ionization_Penalty_Neutral>  (1) 
0.24600804696224418

>  <r_epik_State_Penalty>  (1) 
1.176924470192737

>  <r_glide_ring_energy>  (1) 
0

>  <r_i_docking_score>  (1) 
-4.9682970952800076

>  <r_i_glide_ecoul>  (1) 
-5.2911183988720421

>  <r_i_glide_eff_state_penalty>  (1) 
1.176924470192737

>  <r_i_glide_einternal>  (1) 
3.6240141009619595

>  <r_i_glide_emodel>  (1) 
-58.935970087742056

>  <r_i_glide_emodel_strain>  (1) 
0.28942741420915752

>  <r_i_glide_energy>  (1) 
-40.298970778144522

>  <r_i_glide_erotb>  (1) 
0.75687532201182384

>  <r_i_glide_esite>  (1) 
-0.16252352495686584

>  <r_i_glide_evdw>  (1) 
-35.007852379272478

>  <r_i_glide_gscore>  (1) 
-6.1452215654727445

>  <r_i_glide_gscore_strain>  (1) 
0

>  <r_i_glide_hbond>  (1) 
-0.20000000000000001

>  <r_i_glide_ligand_efficiency>  (1) 
-0.17743918197428599

>  <r_i_glide_ligand_efficiency_ln>  (1) 
-1.1468288451320314

>  <r_i_glide_ligand_efficiency_sa>  (1) 
-0.53880986316175572

>  <r_i_glide_lipo>  (1) 
-2.6796479731713814

>  <r_i_glide_metal>  (1) 
-0

>  <r_i_glide_rewards>  (1) 
-1.3158650105618916

>  <r_lp_Energy>  (1) 
23.737466999999999

>  <s_epik_cmdline>  (1) 
J2VwaWtfcHl0aG9uJywgJy1waHQnLCAnMS4wJywgJy1waCcsICc3LjQnLCAnLXRuJywgJzgnLCAnLW1hJywgJzUwMCcsICctaW1hZScsICc8aW5maWxlLm1hZT4nLCAnLW9tYWUnLCAnPG91dGZpbGUubWFlPic=

>  <s_epik_input>  (1) 
W0NIMl0xW0NIMl1PW0NIXT1DMUMoPU8pW0NIMl1bQ0BIXTJbQ0gyXVtDSDJdTihbQ0BAXTIzW09IXSlbQ0gyXVtDQEBIXShbTkhdW0NIMl0zKVxbQ0hdPUM0XFtDQEBIXShbTkhdW0NIMl1bQ0gyXTQpW0NASF0oW0NIM10pW0NIMl1bT0hd

>  <s_glide_docking_method>  (1) 
confgen

>  <s_i_glide_gridfile>  (1) 
gpcr_5ht2c_6bqh_protein_autoprepared_prepared

>  <s_lp_Force_Field>  (1) 
S-OPLS

>  <s_lp_Variant>  (1) 
DiffSBDD_1_num_sample_100-10

>  <s_m_source_file>  (1) 
generated__ligand_DiffSBDD_2026-05-06_prepared.sdf

>  <GenAI_Model>  (1) 
DiffSBDD

>  <Protein>  (1) 
GPCR_5HT2C

$$$$
DiffSBDD_93_num_sample_100
     RDKit          3D

  0  0  0  0  0  0  0  0  0  0999 V3000
M  V30 BEGIN CTAB
M  V30 COUNTS 74 77 0 0 1
M  V30 BEGIN ATOM
M  V30 1 C 39.467704 29.254030 53.643576 0
M  V30 2 S 38.267358 28.821694 59.853457 0
M  V30 3 C 40.100088 28.828429 51.206258 0 CFG=2
M  V30 4 O 42.905703 28.389306 57.988903 0
M  V30 5 C 37.258287 32.852037 61.962926 0
M  V30 6 C 40.187131 27.439834 57.730068 0 CFG=1
M  V30 7 C 37.918731 33.741198 59.212203 0
M  V30 8 C 38.363394 31.380256 58.741005 0
M  V30 9 C 39.221076 27.573782 51.238266 0
M  V30 10 N 37.175996 29.460074 57.483345 0 CHG=1
M  V30 11 C 36.567152 34.182762 61.645534 0
M  V30 12 C 40.051366 29.651745 52.479704 0
M  V30 13 C 39.593449 30.158044 54.829752 0
M  V30 14 C 38.159947 28.797704 56.547819 0 CFG=1
M  V30 15 C 39.304989 26.934837 52.633926 0
M  V30 16 Cl 37.067184 28.021103 53.428711 0
M  V30 17 O 34.679564 33.223110 60.486775 0
M  V30 18 C 38.802083 27.892839 53.709458 0 CFG=2
M  V30 19 C 40.372469 31.430335 54.681925 0
M  V30 20 C 39.987361 28.967841 59.932820 0
M  V30 21 C 41.275601 27.218581 56.650582 0
M  V30 22 C 39.058629 29.924643 56.058455 0
M  V30 23 C 36.430404 33.951470 59.042876 0
M  V30 24 C 40.649235 28.630007 58.607658 0 CFG=1
M  V30 25 C 37.513528 30.068810 58.811174 0 CFG=1
M  V30 26 C 35.712752 34.188994 60.362713 0 CFG=2
M  V30 27 C 42.017104 28.251526 59.056246 0
M  V30 28 C 42.712033 27.221610 57.271608 0
M  V30 29 C 37.929084 32.098895 61.078452 0
M  V30 30 S 35.868117 30.411492 59.453845 0 CHG=-1
M  V30 31 N 38.127314 32.405879 59.742588 0
M  V30 32 C 39.932632 29.734990 49.986232 0
M  V30 33 C 38.753036 27.476487 57.146818 0
M  V30 34 H 41.123441 28.467352 51.163065 0
M  V30 35 H 37.162908 32.495869 62.962639 0
M  V30 36 H 40.209222 26.543692 58.353783 0
M  V30 37 H 38.386484 34.489529 59.847810 0
M  V30 38 H 38.412041 33.836557 58.243984 0
M  V30 39 H 38.107785 31.858978 57.793092 0
M  V30 40 H 39.427414 31.175002 58.737537 0
M  V30 41 H 38.192006 27.836384 51.000487 0
M  V30 42 H 39.537513 26.866883 50.471503 0
M  V30 43 H 36.473871 28.768582 57.705250 0
M  V30 44 H 37.294591 34.995651 61.651376 0
M  V30 45 H 35.868803 34.407474 62.457509 0
M  V30 46 H 40.552894 30.604042 52.429295 0
M  V30 47 H 37.468470 28.520002 55.777461 0
M  V30 48 H 38.720159 26.026083 52.708251 0
M  V30 49 H 40.327550 26.641463 52.855956 0
M  V30 50 H 35.041425 32.375608 60.231489 0
M  V30 51 H 39.015325 27.385015 54.626662 0
M  V30 52 H 40.321332 32.043124 55.581750 0
M  V30 53 H 41.425584 31.227205 54.497050 0
M  V30 54 H 39.877866 32.018971 53.907053 0
M  V30 55 H 40.276360 29.953241 60.301327 0
M  V30 56 H 40.267324 28.252097 60.708776 0
M  V30 57 H 41.216430 28.022194 55.918747 0
M  V30 58 H 41.069343 26.295798 56.106635 0
M  V30 59 H 39.288905 30.643995 56.790283 0
M  V30 60 H 36.016696 33.037033 58.647961 0
M  V30 61 H 36.208650 34.726593 58.307242 0
M  V30 62 H 40.715869 29.535489 58.015622 0
M  V30 63 H 35.292907 35.177954 60.253949 0
M  V30 64 H 42.267109 28.821558 59.891597 0
M  V30 65 H 42.032867 27.272536 59.529961 0
M  V30 66 H 43.573593 27.101789 56.653542 0
M  V30 67 H 42.878429 26.421436 57.962437 0
M  V30 68 H 38.348284 31.147004 61.366967 0
M  V30 69 H 40.792680 30.395917 49.878906 0
M  V30 70 H 39.837586 29.183850 49.054763 0
M  V30 71 H 39.067295 30.375722 50.101267 0
M  V30 72 H 38.660983 26.648334 56.449759 0
M  V30 73 H 38.055374 27.105843 57.895704 0
M  V30 74 H 36.686816 30.204269 56.990543 0
M  V30 END ATOM
M  V30 BEGIN BOND
M  V30 1 1 9 3
M  V30 2 1 11 5
M  V30 3 2 12 1
M  V30 4 1 12 3
M  V30 5 1 13 1
M  V30 6 1 14 10
M  V30 7 1 15 9
M  V30 8 1 18 1
M  V30 9 1 18 15
M  V30 10 1 18 16
M  V30 11 1 19 13
M  V30 12 1 20 2
M  V30 13 1 21 6
M  V30 14 2 22 13
M  V30 15 1 22 14
M  V30 16 1 23 7
M  V30 17 1 24 6
M  V30 18 1 24 20
M  V30 19 1 25 2
M  V30 20 1 25 8
M  V30 21 1 25 10
M  V30 22 1 26 11
M  V30 23 1 26 17
M  V30 24 1 26 23
M  V30 25 1 27 4
M  V30 26 1 27 24
M  V30 27 1 28 4
M  V30 28 1 28 21
M  V30 29 2 29 5
M  V30 30 1 25 30 CFG=1
M  V30 31 1 31 7
M  V30 32 1 31 8
M  V30 33 1 31 29
M  V30 34 1 32 3
M  V30 35 1 33 6
M  V30 36 1 33 14
M  V30 37 1 3 34 CFG=3
M  V30 38 1 35 5
M  V30 39 1 6 36 CFG=1
M  V30 40 1 37 7
M  V30 41 1 38 7
M  V30 42 1 39 8
M  V30 43 1 40 8
M  V30 44 1 41 9
M  V30 45 1 42 9
M  V30 46 1 43 10
M  V30 47 1 44 11
M  V30 48 1 45 11
M  V30 49 1 46 12
M  V30 50 1 14 47 CFG=3
M  V30 51 1 48 15
M  V30 52 1 49 15
M  V30 53 1 50 17
M  V30 54 1 18 51 CFG=1
M  V30 55 1 52 19
M  V30 56 1 53 19
M  V30 57 1 54 19
M  V30 58 1 55 20
M  V30 59 1 56 20
M  V30 60 1 57 21
M  V30 61 1 58 21
M  V30 62 1 59 22
M  V30 63 1 60 23
M  V30 64 1 61 23
M  V30 65 1 24 62 CFG=3
M  V30 66 1 26 63 CFG=3
M  V30 67 1 64 27
M  V30 68 1 65 27
M  V30 69 1 66 28
M  V30 70 1 67 28
M  V30 71 1 68 29
M  V30 72 1 69 32
M  V30 73 1 70 32
M  V30 74 1 71 32
M  V30 75 1 72 33
M  V30 76 1 73 33
M  V30 77 1 74 10
M  V30 END BOND
M  V30 END CTAB
M  END
>  <i_epik_Tot_Q>  (1) 
0

>  <i_epik_Tot_abs_Q>  (1) 
2

>  <i_i_glide_confnum>  (1) 
63

>  <i_i_glide_lignum>  (1) 
258

>  <i_i_glide_posenum>  (1) 
188

>  <i_i_glide_rotatable_bonds>  (1) 
5

>  <i_lp_mmshare_version>  (1) 
72125

>  <i_m_source_file_index>  (1) 
94

>  <i_f3d_flags>  (1) 
0

>  <num_sample>  (1) 
100

>  <b_lp_Chiralities_Consistent>  (1) 
1

>  <r_epik_Charging_Adjusted_Penalty>  (1) 
0.80501984278308969

>  <r_epik_Ionization_Penalty>  (1) 
0.072421558423421364

>  <r_epik_Ionization_Penalty_Charging>  (1) 
0.072408791886815996

>  <r_epik_Ionization_Penalty_Neutral>  (1) 
1.2766536605372598e-05

>  <r_epik_State_Penalty>  (1) 
0.73261105089627365

>  <r_glide_ring_energy>  (1) 
0

>  <r_i_docking_score>  (1) 
-4.9673978134001624

>  <r_i_glide_ecoul>  (1) 
-2.6678827980261679

>  <r_i_glide_eff_state_penalty>  (1) 
0.73261105089627365

>  <r_i_glide_einternal>  (1) 
10.908320531214013

>  <r_i_glide_emodel>  (1) 
-8.3366621717111666

>  <r_i_glide_emodel_strain>  (1) 
4.9037789600637609

>  <r_i_glide_energy>  (1) 
-11.55472555575613

>  <r_i_glide_erotb>  (1) 
0.31140238833871409

>  <r_i_glide_esite>  (1) 
-0.091683033937137948

>  <r_i_glide_evdw>  (1) 
-8.886842757729962

>  <r_i_glide_gscore>  (1) 
-5.7000088642964357

>  <r_i_glide_gscore_strain>  (1) 
0.22594474001594023

>  <r_i_glide_hbond>  (1) 
-0.16498684716275297

>  <r_i_glide_ligand_efficiency>  (1) 
-0.15052720646667159

>  <r_i_glide_ligand_efficiency_ln>  (1) 
-1.1047235538908129

>  <r_i_glide_ligand_efficiency_sa>  (1) 
-0.48282118234021892

>  <r_i_glide_lipo>  (1) 
-4.2361615539607751

>  <r_i_glide_metal>  (1) 
-0

>  <r_i_glide_rewards>  (1) 
-0.90000000000000002

>  <r_lp_Energy>  (1) 
40.875704999999996

>  <s_epik_Chemistry_Notes>  (1) 
This compound has an imine and may undergo hydrolysis.

>  <s_epik_cmdline>  (1) 
J2VwaWtfcHl0aG9uJywgJy1waHQnLCAnMS4wJywgJy1waCcsICc3LjQnLCAnLXRuJywgJzgnLCAnLW1hJywgJzUwMCcsICctaW1hZScsICc8aW5maWxlLm1hZT4nLCAnLW9tYWUnLCAnPG91dGZpbGUubWFlPic=

>  <s_epik_input>  (1) 
Q2xbQ0BIXTFbQ0gyXVtDSDJdW0NAQEhdKFtDSDNdKVtDSF09QzEvQyhbQ0gzXSk9W0NIXVxbQ0BASF0oW0NIMl0yKVtOSF1bQ0BAXShbU0hdKShTW0NIMl1bQ0BIXShbQ0BASF0yMylbQ0gyXU9bQ0gyXVtDSDJdMylbQ0gyXU4oW0NIMl1bQ0gyXTQpW0NIXT1bQ0hdW0NIMl1bQ0BASF00W09IXQ==

>  <s_glide_docking_method>  (1) 
confgen

>  <s_i_glide_gridfile>  (1) 
gpcr_5ht2c_6bqh_protein_autoprepared_prepared

>  <s_lp_Force_Field>  (1) 
S-OPLS

>  <s_lp_Variant>  (1) 
DiffSBDD_93_num_sample_100-10

>  <s_m_source_file>  (1) 
generated__ligand_DiffSBDD_2026-05-06_prepared.sdf

>  <GenAI_Model>  (1) 
DiffSBDD

>  <Protein>  (1) 
GPCR_5HT2C

$$$$
DiffSBDD_44_num_sample_100
     RDKit          3D

  0  0  0  0  0  0  0  0  0  0999 V3000
M  V30 BEGIN CTAB
M  V30 COUNTS 58 59 0 0 1
M  V30 BEGIN ATOM
M  V30 1 C 38.013882 25.483671 54.662424 0
M  V30 2 O 39.727590 26.025033 58.653543 0 CHG=-1
M  V30 3 C 38.668690 29.032080 53.448754 0
M  V30 4 C 37.546835 24.812610 56.944875 0 CFG=1
M  V30 5 N 38.545087 25.897906 56.914617 0 CFG=1 CHG=1
M  V30 6 C 39.297776 31.389059 53.443649 0
M  V30 7 N 40.122734 29.258185 56.041990 0
M  V30 8 C 38.927464 30.103992 54.148757 0
M  V30 9 O 39.202522 31.359517 56.259524 0
M  V30 10 C 37.538546 24.312888 55.505983 0 CFG=1
M  V30 11 C 36.238417 23.721416 55.053658 0
M  V30 12 C 39.078547 28.193704 58.039113 0 CFG=1
M  V30 13 C 40.251417 28.531781 57.085365 0
M  V30 14 C 38.302002 26.589150 55.642573 0
M  V30 15 C 38.062917 32.176107 56.409322 0
M  V30 16 C 39.216841 28.832799 51.055581 0
M  V30 17 C 38.720471 26.672409 58.157448 0 CFG=2
M  V30 18 C 38.973294 30.081209 55.680551 0 CFG=2
M  V30 19 F 39.467339 31.008951 50.070511 0
M  V30 20 C 39.956915 30.220259 51.021616 0 CFG=1
M  V30 21 C 38.753491 28.280637 52.388348 0
M  V30 22 C 39.248912 28.877080 59.412294 0
M  V30 23 C 41.595154 27.917685 57.457948 0
M  V30 24 C 37.867214 23.697621 57.936970 0
M  V30 25 C 40.267338 31.095015 52.276081 0
M  V30 26 H 37.337447 25.785381 53.862305 0
M  V30 27 H 38.982016 25.216461 54.253403 0
M  V30 28 H 36.578274 25.251035 57.192436 0
M  V30 29 H 38.427098 31.971717 53.148827 0
M  V30 30 H 39.843022 32.021480 54.139077 0
M  V30 31 H 38.267374 23.538571 55.386531 0
M  V30 32 H 35.467495 24.421718 55.305806 0
M  V30 33 H 36.267476 23.621495 53.976683 0
M  V30 34 H 36.021118 22.758485 55.518776 0
M  V30 35 H 38.160957 28.633577 57.671881 0
M  V30 36 H 37.467280 27.285109 55.713130 0
M  V30 37 H 39.187832 27.086129 55.275454 0
M  V30 38 H 38.374361 33.192117 56.651643 0
M  V30 39 H 37.467398 32.214382 55.498972 0
M  V30 40 H 37.467489 31.799760 57.238059 0
M  V30 41 H 39.892298 28.086562 50.637295 0
M  V30 42 H 38.361402 28.821533 50.390684 0
M  V30 43 H 37.761123 26.660526 58.651937 0
M  V30 44 H 38.014696 29.682501 56.001148 0
M  V30 45 H 40.944049 29.996385 50.612655 0
M  V30 46 H 38.550591 27.221924 52.430821 0
M  V30 47 H 39.408130 29.950288 59.301141 0
M  V30 48 H 38.358309 28.744117 60.026356 0
M  V30 49 H 40.088317 28.470836 59.975967 0
M  V30 50 H 41.774120 27.960292 58.531806 0
M  V30 51 H 41.632115 26.875807 57.142817 0
M  V30 52 H 42.420112 28.421512 56.960833 0
M  V30 53 H 37.149147 22.882956 57.853462 0
M  V30 54 H 38.867722 23.290646 57.795907 0
M  V30 55 H 37.827880 24.084259 58.951240 0
M  V30 56 H 40.657513 32.021077 51.879012 0
M  V30 57 H 41.067308 30.647102 52.822598 0
M  V30 58 H 39.448107 25.451706 56.841459 0
M  V30 END ATOM
M  V30 BEGIN BOND
M  V30 1 1 5 4
M  V30 2 2 8 3
M  V30 3 1 8 6
M  V30 4 1 10 1
M  V30 5 1 10 4
M  V30 6 1 11 10
M  V30 7 2 13 7
M  V30 8 1 13 12
M  V30 9 1 14 1
M  V30 10 1 14 5
M  V30 11 1 15 9
M  V30 12 1 17 2
M  V30 13 1 17 5
M  V30 14 1 17 12
M  V30 15 1 18 7
M  V30 16 1 18 8
M  V30 17 1 18 9
M  V30 18 1 20 16
M  V30 19 1 20 19
M  V30 20 2 21 3
M  V30 21 1 21 16
M  V30 22 1 22 12
M  V30 23 1 23 13
M  V30 24 1 24 4
M  V30 25 1 25 6
M  V30 26 1 25 20
M  V30 27 1 26 1
M  V30 28 1 27 1
M  V30 29 1 4 28 CFG=1
M  V30 30 1 29 6
M  V30 31 1 30 6
M  V30 32 1 10 31 CFG=1
M  V30 33 1 32 11
M  V30 34 1 33 11
M  V30 35 1 34 11
M  V30 36 1 12 35 CFG=3
M  V30 37 1 36 14
M  V30 38 1 37 14
M  V30 39 1 38 15
M  V30 40 1 39 15
M  V30 41 1 40 15
M  V30 42 1 41 16
M  V30 43 1 42 16
M  V30 44 1 17 43 CFG=1
M  V30 45 1 18 44 CFG=1
M  V30 46 1 20 45 CFG=3
M  V30 47 1 46 21
M  V30 48 1 47 22
M  V30 49 1 48 22
M  V30 50 1 49 22
M  V30 51 1 50 23
M  V30 52 1 51 23
M  V30 53 1 52 23
M  V30 54 1 53 24
M  V30 55 1 54 24
M  V30 56 1 55 24
M  V30 57 1 56 25
M  V30 58 1 57 25
M  V30 59 1 5 58 CFG=3
M  V30 END BOND
M  V30 END CTAB
M  END
>  <i_epik_Tot_Q>  (1) 
0

>  <i_epik_Tot_abs_Q>  (1) 
2

>  <i_i_glide_confnum>  (1) 
18

>  <i_i_glide_lignum>  (1) 
110

>  <i_i_glide_posenum>  (1) 
65

>  <i_i_glide_rotatable_bonds>  (1) 
6

>  <i_lp_mmshare_version>  (1) 
72125

>  <i_m_source_file_index>  (1) 
45

>  <i_f3d_flags>  (1) 
0

>  <num_sample>  (1) 
100

>  <b_lp_Chiralities_Consistent>  (1) 
1

>  <r_epik_Charging_Adjusted_Penalty>  (1) 
0.41733257654759531

>  <r_epik_Ionization_Penalty>  (1) 
0.0069177268181324029

>  <r_epik_Ionization_Penalty_Charging>  (1) 
0.0066527375949913311

>  <r_epik_Ionization_Penalty_Neutral>  (1) 
0.00026498922314107146

>  <r_epik_State_Penalty>  (1) 
0.41067983895260396

>  <r_glide_ring_energy>  (1) 
0

>  <r_i_docking_score>  (1) 
-4.9652034268652203

>  <r_i_glide_ecoul>  (1) 
-1.3660545863103359

>  <r_i_glide_eff_state_penalty>  (1) 
0.41067983895260396

>  <r_i_glide_einternal>  (1) 
6.3195562640896803

>  <r_i_glide_emodel>  (1) 
-17.011648133362286

>  <r_i_glide_emodel_strain>  (1) 
12.494208190392811

>  <r_i_glide_energy>  (1) 
-19.589153861112241

>  <r_i_glide_erotb>  (1) 
0.61440649929112812

>  <r_i_glide_esite>  (1) 
0

>  <r_i_glide_evdw>  (1) 
-18.223099274801903

>  <r_i_glide_gscore>  (1) 
-5.3758832658178246

>  <r_i_glide_gscore_strain>  (1) 
2.1235520475982028

>  <r_i_glide_hbond>  (1) 
0

>  <r_i_glide_ligand_efficiency>  (1) 
-0.19860813707460881

>  <r_i_glide_ligand_efficiency_ln>  (1) 
-1.1769020073067296

>  <r_i_glide_ligand_efficiency_sa>  (1) 
-0.58073371575956856

>  <r_i_glide_lipo>  (1) 
-4.1955031245069883

>  <r_i_glide_metal>  (1) 
-0

>  <r_i_glide_rewards>  (1) 
-2.8022755365135215

>  <r_lp_Energy>  (1) 
10.814218

>  <r_lp_tautomer_probability>  (1) 
0.49999399997599986

>  <s_epik_Chemistry_Notes>  (1) 
This compound has an imine and may undergo hydrolysis. This compound contains an acetal/aminal-like group ( X-CH(R)-Y where X, Y are N, S, or O) that may be acid/base labile, releasing an aldehyde.

>  <s_epik_cmdline>  (1) 
J2VwaWtfcHl0aG9uJywgJy1waHQnLCAnMS4wJywgJy1waCcsICc3LjQnLCAnLXRuJywgJzgnLCAnLW1hJywgJzUwMCcsICctaW1hZScsICc8aW5maWxlLm1hZT4nLCAnLW9tYWUnLCAnPG91dGZpbGUubWFlPic=

>  <s_epik_input>  (1) 
W0NIM11bQ0BIXTFbQ0gyXVtDSDJdTihbQ0BASF0xW0NIM10pW0NAQEhdKFtPSF0pW0NAQEhdKFtDSDNdKS9DKFtDSDNdKT1OXFtDQEBIXShPW0NIM10pQzI9Qz1bQ0hdW0NIMl1bQ0BASF0oRilbQ0gyXVtDSDJdMg==

>  <s_glide_docking_method>  (1) 
confgen

>  <s_i_glide_gridfile>  (1) 
gpcr_5ht2c_6bqh_protein_autoprepared_prepared

>  <s_lp_Force_Field>  (1) 
S-OPLS

>  <s_lp_Variant>  (1) 
DiffSBDD_44_num_sample_100-3

>  <s_m_source_file>  (1) 
generated__ligand_DiffSBDD_2026-05-06_prepared.sdf

>  <GenAI_Model>  (1) 
DiffSBDD

>  <Protein>  (1) 
GPCR_5HT2C

$$$$
DiffSBDD_4_num_sample_100
     RDKit          3D

  0  0  0  0  0  0  0  0  0  0999 V3000
M  V30 BEGIN CTAB
M  V30 COUNTS 37 37 0 0 1
M  V30 BEGIN ATOM
M  V30 1 C 39.863190 30.007833 51.822758 0
M  V30 2 C 38.295431 29.118533 55.826012 0
M  V30 3 C 38.886322 28.309096 53.482336 0
M  V30 4 C 38.558650 31.551762 56.307054 0
M  V30 5 C 37.673166 32.530438 58.571574 0 CFG=1
M  V30 6 O 38.880825 33.143184 58.989531 0
M  V30 7 C 38.003245 31.260382 57.729641 0
M  V30 8 C 39.171906 30.719489 54.128098 0
M  V30 9 C 36.790674 32.299693 59.838705 0
M  V30 10 N 38.665132 30.499118 55.432482 0
M  V30 11 O 35.500127 31.881285 59.453286 0
M  V30 12 C 36.544627 33.604123 60.620631 0
M  V30 13 O 38.884727 32.702574 56.002997 0
M  V30 14 C 39.299794 29.741023 53.206152 0
M  V30 15 C 37.344462 31.211579 60.773421 0
M  V30 16 C 37.878615 28.249960 54.629074 0
M  V30 17 H 39.140550 29.708710 51.063744 0
M  V30 18 H 40.085360 31.065696 51.678888 0
M  V30 19 H 40.782827 29.446382 51.661547 0
M  V30 20 H 39.163975 28.671895 56.311537 0
M  V30 21 H 37.472699 29.049274 56.532910 0
M  V30 22 H 38.435600 27.884467 52.583010 0
M  V30 23 H 39.762900 27.701002 53.702353 0
M  V30 24 H 37.145786 33.241976 57.931343 0
M  V30 25 H 38.676631 34.014056 59.293339 0
M  V30 26 H 38.695078 30.611201 58.269000 0
M  V30 27 H 37.067508 30.723782 57.631465 0
M  V30 28 H 39.456329 31.742617 53.933769 0
M  V30 29 H 35.402535 32.020908 58.491539 0
M  V30 30 H 37.455796 33.975605 61.085170 0
M  V30 31 H 36.159684 34.386320 59.968725 0
M  V30 32 H 35.818262 33.458743 61.421201 0
M  V30 33 H 38.362568 31.436344 61.087562 0
M  V30 34 H 36.734427 31.128073 61.669753 0
M  V30 35 H 37.348520 30.236681 60.288274 0
M  V30 36 H 36.916219 28.600251 54.261570 0
M  V30 37 H 37.731256 27.220116 54.945548 0
M  V30 END ATOM
M  V30 BEGIN BOND
M  V30 1 1 6 5
M  V30 2 1 7 4
M  V30 3 1 7 5
M  V30 4 1 9 5
M  V30 5 1 10 2
M  V30 6 1 10 4
M  V30 7 1 10 8
M  V30 8 1 11 9
M  V30 9 1 12 9
M  V30 10 2 13 4
M  V30 11 1 14 1
M  V30 12 1 14 3
M  V30 13 2 14 8
M  V30 14 1 15 9
M  V30 15 1 16 2
M  V30 16 1 16 3
M  V30 17 1 17 1
M  V30 18 1 18 1
M  V30 19 1 19 1
M  V30 20 1 20 2
M  V30 21 1 21 2
M  V30 22 1 22 3
M  V30 23 1 23 3
M  V30 24 1 5 24 CFG=3
M  V30 25 1 25 6
M  V30 26 1 26 7
M  V30 27 1 27 7
M  V30 28 1 28 8
M  V30 29 1 29 11
M  V30 30 1 30 12
M  V30 31 1 31 12
M  V30 32 1 32 12
M  V30 33 1 33 15
M  V30 34 1 34 15
M  V30 35 1 35 15
M  V30 36 1 36 16
M  V30 37 1 37 16
M  V30 END BOND
M  V30 END CTAB
M  END
>  <i_epik_Tot_Q>  (1) 
0

>  <i_epik_Tot_abs_Q>  (1) 
0

>  <i_i_glide_confnum>  (1) 
10

>  <i_i_glide_lignum>  (1) 
22

>  <i_i_glide_posenum>  (1) 
220

>  <i_i_glide_rotatable_bonds>  (1) 
6

>  <i_lp_mmshare_version>  (1) 
72125

>  <i_m_source_file_index>  (1) 
5

>  <i_f3d_flags>  (1) 
0

>  <num_sample>  (1) 
100

>  <b_lp_Chiralities_Consistent>  (1) 
1

>  <r_epik_Charging_Adjusted_Penalty>  (1) 
0

>  <r_epik_Ionization_Penalty>  (1) 
1.0105412208656501e-07

>  <r_epik_Ionization_Penalty_Charging>  (1) 
0

>  <r_epik_Ionization_Penalty_Neutral>  (1) 
1.0105412208656501e-07

>  <r_epik_State_Penalty>  (1) 
-0

>  <r_glide_ring_energy>  (1) 
0

>  <r_i_docking_score>  (1) 
-4.9584968048984202

>  <r_i_glide_ecoul>  (1) 
-8.1634338091891063

>  <r_i_glide_eff_state_penalty>  (1) 
-0

>  <r_i_glide_einternal>  (1) 
4.8924173218163496

>  <r_i_glide_emodel>  (1) 
-37.810252994170277

>  <r_i_glide_emodel_strain>  (1) 
0.84310431018433007

>  <r_i_glide_energy>  (1) 
-30.460863664766485

>  <r_i_glide_erotb>  (1) 
1.3172280880396094

>  <r_i_glide_esite>  (1) 
-0.070214662888747378

>  <r_i_glide_evdw>  (1) 
-22.297429855577381

>  <r_i_glide_gscore>  (1) 
-4.9584968048984202

>  <r_i_glide_gscore_strain>  (1) 
0

>  <r_i_glide_hbond>  (1) 
-0.16

>  <r_i_glide_ligand_efficiency>  (1) 
-0.30990605030615126

>  <r_i_glide_ligand_efficiency_ln>  (1) 
-1.3143486263603541

>  <r_i_glide_ligand_efficiency_sa>  (1) 
-0.78091431254099897

>  <r_i_glide_lipo>  (1) 
-1.4187855178210149

>  <r_i_glide_metal>  (1) 
-0

>  <r_i_glide_rewards>  (1) 
-2.2873381480710315

>  <r_lp_Energy>  (1) 
15.980511999999999

>  <r_lp_tautomer_probability>  (1) 
1

>  <s_epik_cmdline>  (1) 
J2VwaWtfcHl0aG9uJywgJy1waHQnLCAnMS4wJywgJy1waCcsICc3LjQnLCAnLXRuJywgJzgnLCAnLW1hJywgJzUwMCcsICctaW1hZScsICc8aW5maWxlLm1hZT4nLCAnLW9tYWUnLCAnPG91dGZpbGUubWFlPic=

>  <s_epik_input>  (1) 
W0NIM11DKD1bQ0hdMSlbQ0gyXVtDSDJdW0NIMl1OMUMoPU8pW0NIMl1bQ0BIXShbT0hdKUMoW09IXSkoW0NIM10pW0NIM10=

>  <s_glide_docking_method>  (1) 
confgen

>  <s_i_glide_gridfile>  (1) 
gpcr_5ht2c_6bqh_protein_autoprepared_prepared

>  <s_lp_Force_Field>  (1) 
S-OPLS

>  <s_lp_Variant>  (1) 
DiffSBDD_4_num_sample_100-1

>  <s_m_source_file>  (1) 
generated__ligand_DiffSBDD_2026-05-06_prepared.sdf

>  <GenAI_Model>  (1) 
DiffSBDD

>  <Protein>  (1) 
GPCR_5HT2C

$$$$
DiffSBDD_79_num_sample_100
     RDKit          3D

  0  0  0  0  0  0  0  0  0  0999 V3000
M  V30 BEGIN CTAB
M  V30 COUNTS 84 86 0 0 1
M  V30 BEGIN ATOM
M  V30 1 C 37.353857 35.076609 60.177935 0
M  V30 2 C 39.239899 32.168669 62.459137 0
M  V30 3 C 39.032398 30.440814 53.693600 0
M  V30 4 C 43.691584 30.886480 67.499046 0
M  V30 5 C 36.929209 33.625807 58.252228 0
M  V30 6 C 38.995816 28.217371 52.608253 0
M  V30 7 C 36.949806 33.656342 59.768751 0
M  V30 8 C 39.466540 30.142900 58.266757 0
M  V30 9 F 39.896983 28.723054 51.765537 0
M  V30 10 C 44.728676 32.003233 67.237157 0
M  V30 11 C 37.842334 32.617360 62.069670 0
M  V30 12 C 38.238340 28.994986 56.312111 0
M  V30 13 F 39.430130 27.025441 53.020191 0
M  V30 14 C 38.726598 29.137974 53.797466 0
M  V30 15 C 39.216397 31.253496 56.072489 0
M  V30 16 C 40.186828 30.436534 63.828397 0
M  V30 17 C 44.635542 28.676307 66.845549 0
M  V30 18 N 43.816150 29.728684 66.577969 0
M  V30 19 C 35.884387 32.873135 60.504588 0
M  V30 20 C 38.970918 30.168847 56.823973 0
M  V30 21 C 42.980144 29.721206 65.360672 0
M  V30 22 C 39.317532 29.899963 61.577671 0 CFG=2
M  V30 23 C 37.339417 32.434605 60.650626 0
M  V30 24 C 34.893594 31.935384 59.871024 0
M  V30 25 O 38.131798 30.021495 60.840224 0
M  V30 26 O 44.735611 27.703861 66.096490 0
M  V30 27 C 39.509325 28.385413 61.739536 0
M  V30 28 C 35.093948 33.509097 61.629536 0
M  V30 29 C 45.448977 28.725161 68.135586 0
M  V30 30 N 39.251245 30.737999 62.746871 0
M  V30 31 F 37.868023 28.027078 51.929240 0
M  V30 32 C 38.133166 28.554483 55.017850 0
M  V30 33 C 42.404666 31.061028 64.872901 0
M  V30 34 C 38.727360 31.477916 54.701371 0
M  V30 35 C 41.630572 30.904846 63.564712 0
M  V30 36 C 39.067410 31.384995 59.128192 0
M  V30 37 C 37.862148 31.137613 59.986928 0 CFG=2
M  V30 38 H 36.927842 35.807871 59.491645 0
M  V30 39 H 37.017037 35.360767 61.169538 0
M  V30 40 H 38.438136 35.177435 60.151788 0
M  V30 41 H 39.474219 32.703779 63.381421 0
M  V30 42 H 39.995364 32.477270 61.741948 0
M  V30 43 H 39.468668 30.803950 52.773566 0
M  V30 44 H 42.691002 31.309119 67.476348 0
M  V30 45 H 43.767701 30.564568 68.538015 0
M  V30 46 H 35.978971 34.021357 57.892615 0
M  V30 47 H 37.733585 34.229910 57.833353 0
M  V30 48 H 37.067196 32.625272 57.855574 0
M  V30 49 H 39.121675 29.221833 58.732170 0
M  V30 50 H 40.545572 30.020155 58.233842 0
M  V30 51 H 44.638574 32.795287 67.982710 0
M  V30 52 H 45.758861 31.651593 67.271802 0
M  V30 53 H 44.585684 32.466421 66.263648 0
M  V30 54 H 37.116509 32.152960 62.727353 0
M  V30 55 H 37.827527 33.681189 62.253515 0
M  V30 56 H 37.775147 28.364257 57.057709 0
M  V30 57 H 39.766595 32.074017 56.505729 0
M  V30 58 H 39.801147 30.936407 64.716545 0
M  V30 59 H 40.184606 29.375625 64.072187 0
M  V30 60 H 42.163508 29.016937 65.519352 0
M  V30 61 H 43.576958 29.315527 64.541241 0
M  V30 62 H 40.201663 30.186510 61.019126 0
M  V30 63 H 33.988821 32.447293 59.540301 0
M  V30 64 H 35.275402 31.360814 59.053394 0
M  V30 65 H 34.667376 31.221514 60.650378 0
M  V30 66 H 40.442259 28.154427 62.253506 0
M  V30 67 H 38.669884 27.921900 62.252779 0
M  V30 68 H 39.572202 27.940219 60.746604 0
M  V30 69 H 34.267655 34.021433 61.165041 0
M  V30 70 H 34.653090 32.736536 62.253087 0
M  V30 71 H 35.651663 34.191002 62.266630 0
M  V30 72 H 44.832224 28.493889 69.002794 0
M  V30 73 H 46.272417 28.009445 68.089678 0
M  V30 74 H 45.867430 29.715686 68.253089 0
M  V30 75 H 37.599547 27.626028 54.882924 0
M  V30 76 H 43.198489 31.774805 64.699438 0
M  V30 77 H 41.747400 31.515777 65.613096 0
M  V30 78 H 37.652212 31.652366 54.743004 0
M  V30 79 H 39.157774 32.412745 54.344146 0
M  V30 80 H 42.137593 30.218597 62.888795 0
M  V30 81 H 41.661497 31.873203 63.070273 0
M  V30 82 H 39.832653 31.684643 59.853113 0
M  V30 83 H 39.014313 32.275992 58.518083 0
M  V30 84 H 37.130757 30.745190 59.294520 0
M  V30 END ATOM
M  V30 BEGIN BOND
M  V30 1 1 7 1
M  V30 2 1 7 5
M  V30 3 1 9 6
M  V30 4 1 10 4
M  V30 5 1 11 2
M  V30 6 1 13 6
M  V30 7 2 14 3
M  V30 8 1 14 6
M  V30 9 1 18 4
M  V30 10 1 18 17
M  V30 11 1 19 7
M  V30 12 1 20 8
M  V30 13 1 20 12
M  V30 14 2 20 15
M  V30 15 1 21 18
M  V30 16 1 23 7
M  V30 17 1 23 11
M  V30 18 1 23 19
M  V30 19 1 24 19
M  V30 20 1 25 22
M  V30 21 2 26 17
M  V30 22 1 27 22
M  V30 23 1 28 19
M  V30 24 1 29 17
M  V30 25 1 30 2
M  V30 26 1 30 16
M  V30 27 1 30 22
M  V30 28 1 31 6
M  V30 29 2 32 12
M  V30 30 1 32 14
M  V30 31 1 33 21
M  V30 32 1 34 3
M  V30 33 1 34 15
M  V30 34 1 35 16
M  V30 35 1 35 33
M  V30 36 1 36 8
M  V30 37 1 37 23
M  V30 38 1 37 25
M  V30 39 1 37 36
M  V30 40 1 38 1
M  V30 41 1 39 1
M  V30 42 1 40 1
M  V30 43 1 41 2
M  V30 44 1 42 2
M  V30 45 1 43 3
M  V30 46 1 44 4
M  V30 47 1 45 4
M  V30 48 1 46 5
M  V30 49 1 47 5
M  V30 50 1 48 5
M  V30 51 1 49 8
M  V30 52 1 50 8
M  V30 53 1 51 10
M  V30 54 1 52 10
M  V30 55 1 53 10
M  V30 56 1 54 11
M  V30 57 1 55 11
M  V30 58 1 56 12
M  V30 59 1 57 15
M  V30 60 1 58 16
M  V30 61 1 59 16
M  V30 62 1 60 21
M  V30 63 1 61 21
M  V30 64 1 22 62 CFG=3
M  V30 65 1 63 24
M  V30 66 1 64 24
M  V30 67 1 65 24
M  V30 68 1 66 27
M  V30 69 1 67 27
M  V30 70 1 68 27
M  V30 71 1 69 28
M  V30 72 1 70 28
M  V30 73 1 71 28
M  V30 74 1 72 29
M  V30 75 1 73 29
M  V30 76 1 74 29
M  V30 77 1 75 32
M  V30 78 1 76 33
M  V30 79 1 77 33
M  V30 80 1 78 34
M  V30 81 1 79 34
M  V30 82 1 80 35
M  V30 83 1 81 35
M  V30 84 1 82 36
M  V30 85 1 83 36
M  V30 86 1 37 84 CFG=3
M  V30 END BOND
M  V30 END CTAB
M  END
>  <i_epik_Tot_Q>  (1) 
0

>  <i_epik_Tot_abs_Q>  (1) 
0

>  <i_i_glide_confnum>  (1) 
752

>  <i_i_glide_lignum>  (1) 
200

>  <i_i_glide_posenum>  (1) 
230

>  <i_i_glide_rotatable_bonds>  (1) 
11

>  <i_lp_mmshare_version>  (1) 
72125

>  <i_m_source_file_index>  (1) 
80

>  <i_f3d_flags>  (1) 
0

>  <num_sample>  (1) 
100

>  <b_lp_Chiralities_Consistent>  (1) 
1

>  <r_epik_Charging_Adjusted_Penalty>  (1) 
0.2050768058510691

>  <r_epik_Ionization_Penalty>  (1) 
0.20507783400789523

>  <r_epik_Ionization_Penalty_Charging>  (1) 
0

>  <r_epik_Ionization_Penalty_Neutral>  (1) 
0.20507783400789523

>  <r_epik_State_Penalty>  (1) 
0.2050768058510691

>  <r_glide_ring_energy>  (1) 
0

>  <r_i_docking_score>  (1) 
-4.9558034983427008

>  <r_i_glide_ecoul>  (1) 
0.077460230647761197

>  <r_i_glide_eff_state_penalty>  (1) 
0.2050768058510691

>  <r_i_glide_einternal>  (1) 
24.644138063836401

>  <r_i_glide_emodel>  (1) 
-25.345383041777307

>  <r_i_glide_emodel_strain>  (1) 
6.1939344917570622

>  <r_i_glide_energy>  (1) 
-33.892606136006727

>  <r_i_glide_erotb>  (1) 
0.59792730839384334

>  <r_i_glide_esite>  (1) 
-0.00060361323178488168

>  <r_i_glide_evdw>  (1) 
-33.970066366654486

>  <r_i_glide_gscore>  (1) 
-5.1608803041937703

>  <r_i_glide_gscore_strain>  (1) 
0.54848362293926556

>  <r_i_glide_hbond>  (1) 
0

>  <r_i_glide_ligand_efficiency>  (1) 
-0.13394063509034326

>  <r_i_glide_ligand_efficiency_ln>  (1) 
-1.0747975982727256

>  <r_i_glide_ligand_efficiency_sa>  (1) 
-0.44631991107137864

>  <r_i_glide_lipo>  (1) 
-2.2931615779079033

>  <r_i_glide_metal>  (1) 
-0

>  <r_i_glide_rewards>  (1) 
-2.3266417606516305

>  <r_lp_Energy>  (1) 
53.665700999999999

>  <s_epik_Chemistry_Notes>  (1) 
This compound contains an acetal/aminal-like group ( X-CH(R)-Y where X, Y are N, S, or O) that may be acid/base labile, releasing an aldehyde.

>  <s_epik_cmdline>  (1) 
J2VwaWtfcHl0aG9uJywgJy1waHQnLCAnMS4wJywgJy1waCcsICc3LjQnLCAnLXRuJywgJzgnLCAnLW1hJywgJzUwMCcsICctaW1hZScsICc8aW5maWxlLm1hZT4nLCAnLW9tYWUnLCAnPG91dGZpbGUubWFlPic=

>  <s_epik_input>  (1) 
W0NIM11bQ0gyXU4oQyg9TylbQ0gzXSlbQ0gyXVtDSDJdW0NIMl1bQ0gyXU4oW0NIMl1bQ0gyXUMxMkMoW0NIM10pKFtDSDNdKUMxKFtDSDNdKVtDSDNdKVtDQEBIXShbQ0gzXSlPW0NASF0yW0NIMl1bQ0gyXUMoW0NIXT1bQ0hdMyk9W0NIXVtDSDJdW0NIXT1DM0MoRikoRilG

>  <s_glide_docking_method>  (1) 
confgen

>  <s_i_glide_gridfile>  (1) 
gpcr_5ht2c_6bqh_protein_autoprepared_prepared

>  <s_lp_Force_Field>  (1) 
S-OPLS

>  <s_lp_Variant>  (1) 
DiffSBDD_79_num_sample_100-2

>  <s_m_source_file>  (1) 
generated__ligand_DiffSBDD_2026-05-06_prepared.sdf

>  <GenAI_Model>  (1) 
DiffSBDD

>  <Protein>  (1) 
GPCR_5HT2C

$$$$
DiffSBDD_4_num_sample_100
     RDKit          3D

  0  0  0  0  0  0  0  0  0  0999 V3000
M  V30 BEGIN CTAB
M  V30 COUNTS 37 37 0 0 1
M  V30 BEGIN ATOM
M  V30 1 C 39.810984 29.855366 51.670665 0
M  V30 2 C 38.257264 29.097496 55.702726 0
M  V30 3 C 38.769327 28.230684 53.365265 0
M  V30 4 C 38.594595 31.529747 56.134627 0
M  V30 5 C 37.738180 32.573538 58.380947 0 CFG=1
M  V30 6 O 38.966427 33.220683 58.655318 0
M  V30 7 C 38.035612 31.282186 57.562018 0
M  V30 8 C 39.165489 30.636849 53.966705 0
M  V30 9 C 36.982612 32.348650 59.728940 0
M  V30 10 N 38.661037 30.459088 55.278065 0
M  V30 11 O 35.671144 31.904817 59.453503 0
M  V30 12 C 36.790991 33.664009 60.509827 0
M  V30 13 O 38.965357 32.663844 55.813015 0
M  V30 14 C 39.243994 29.637384 53.061693 0
M  V30 15 C 37.639707 31.278610 60.621866 0
M  V30 16 C 37.783358 28.222032 54.532876 0
M  V30 17 H 39.057898 29.642622 50.910832 0
M  V30 18 H 40.146603 30.884446 51.536393 0
M  V30 19 H 40.663345 29.197506 51.498189 0
M  V30 20 H 39.125198 28.630917 56.170417 0
M  V30 21 H 37.466752 29.063470 56.443599 0
M  V30 22 H 38.282027 27.813508 52.482614 0
M  V30 23 H 39.627136 27.595016 53.579149 0
M  V30 24 H 37.131437 33.249325 57.770214 0
M  V30 25 H 39.351612 33.451575 57.820378 0
M  V30 26 H 38.738552 30.644604 58.097341 0
M  V30 27 H 37.088397 30.752288 57.504754 0
M  V30 28 H 39.492007 31.643893 53.752431 0
M  V30 29 H 35.515524 32.019777 58.497570 0
M  V30 30 H 37.745105 34.098186 60.807050 0
M  V30 31 H 36.262239 34.409945 59.914287 0
M  V30 32 H 36.213540 33.503662 61.421203 0
M  V30 33 H 38.658208 31.563171 60.888610 0
M  V30 34 H 37.082959 31.137729 61.548205 0
M  V30 35 H 37.681876 30.306735 60.130351 0
M  V30 36 H 36.821622 28.595106 54.181212 0
M  V30 37 H 37.610757 27.198254 54.866077 0
M  V30 END ATOM
M  V30 BEGIN BOND
M  V30 1 1 6 5
M  V30 2 1 7 4
M  V30 3 1 7 5
M  V30 4 1 9 5
M  V30 5 1 10 2
M  V30 6 1 10 4
M  V30 7 1 10 8
M  V30 8 1 11 9
M  V30 9 1 12 9
M  V30 10 2 13 4
M  V30 11 1 14 1
M  V30 12 1 14 3
M  V30 13 2 14 8
M  V30 14 1 15 9
M  V30 15 1 16 2
M  V30 16 1 16 3
M  V30 17 1 17 1
M  V30 18 1 18 1
M  V30 19 1 19 1
M  V30 20 1 20 2
M  V30 21 1 21 2
M  V30 22 1 22 3
M  V30 23 1 23 3
M  V30 24 1 5 24 CFG=3
M  V30 25 1 25 6
M  V30 26 1 26 7
M  V30 27 1 27 7
M  V30 28 1 28 8
M  V30 29 1 29 11
M  V30 30 1 30 12
M  V30 31 1 31 12
M  V30 32 1 32 12
M  V30 33 1 33 15
M  V30 34 1 34 15
M  V30 35 1 35 15
M  V30 36 1 36 16
M  V30 37 1 37 16
M  V30 END BOND
M  V30 END CTAB
M  END
>  <i_epik_Tot_Q>  (1) 
0

>  <i_epik_Tot_abs_Q>  (1) 
0

>  <i_i_glide_confnum>  (1) 
10

>  <i_i_glide_lignum>  (1) 
22

>  <i_i_glide_posenum>  (1) 
220

>  <i_i_glide_rotatable_bonds>  (1) 
6

>  <i_lp_mmshare_version>  (1) 
72125

>  <i_m_source_file_index>  (1) 
5

>  <i_f3d_flags>  (1) 
0

>  <num_sample>  (1) 
100

>  <b_lp_Chiralities_Consistent>  (1) 
1

>  <r_epik_Charging_Adjusted_Penalty>  (1) 
0

>  <r_epik_Ionization_Penalty>  (1) 
1.0105412208656501e-07

>  <r_epik_Ionization_Penalty_Charging>  (1) 
0

>  <r_epik_Ionization_Penalty_Neutral>  (1) 
1.0105412208656501e-07

>  <r_epik_State_Penalty>  (1) 
-0

>  <r_glide_ring_energy>  (1) 
0

>  <r_i_docking_score>  (1) 
-4.9546951117306604

>  <r_i_glide_ecoul>  (1) 
-8.2708313827424824

>  <r_i_glide_eff_state_penalty>  (1) 
-0

>  <r_i_glide_einternal>  (1) 
4.9471347747572754

>  <r_i_glide_emodel>  (1) 
-38.179182352222753

>  <r_i_glide_emodel_strain>  (1) 
0.99960839105619925

>  <r_i_glide_energy>  (1) 
-31.021812552539267

>  <r_i_glide_erotb>  (1) 
1.3172280880396094

>  <r_i_glide_esite>  (1) 
-0.064248177579971005

>  <r_i_glide_evdw>  (1) 
-22.750981169796784

>  <r_i_glide_gscore>  (1) 
-4.9546951117306604

>  <r_i_glide_gscore_strain>  (1) 
0

>  <r_i_glide_hbond>  (1) 
-0.16

>  <r_i_glide_ligand_efficiency>  (1) 
-0.30966844448316627

>  <r_i_glide_ligand_efficiency_ln>  (1) 
-1.3133409116456947

>  <r_i_glide_ligand_efficiency_sa>  (1) 
-0.78031558338508622

>  <r_i_glide_lipo>  (1) 
-1.4385759538971838

>  <r_i_glide_metal>  (1) 
-0

>  <r_i_glide_rewards>  (1) 
-2.2309253023919036

>  <r_lp_Energy>  (1) 
15.980511999999999

>  <r_lp_tautomer_probability>  (1) 
1

>  <s_epik_cmdline>  (1) 
J2VwaWtfcHl0aG9uJywgJy1waHQnLCAnMS4wJywgJy1waCcsICc3LjQnLCAnLXRuJywgJzgnLCAnLW1hJywgJzUwMCcsICctaW1hZScsICc8aW5maWxlLm1hZT4nLCAnLW9tYWUnLCAnPG91dGZpbGUubWFlPic=

>  <s_epik_input>  (1) 
W0NIM11DKD1bQ0hdMSlbQ0gyXVtDSDJdW0NIMl1OMUMoPU8pW0NIMl1bQ0BIXShbT0hdKUMoW09IXSkoW0NIM10pW0NIM10=

>  <s_glide_docking_method>  (1) 
confgen

>  <s_i_glide_gridfile>  (1) 
gpcr_5ht2c_6bqh_protein_autoprepared_prepared

>  <s_lp_Force_Field>  (1) 
S-OPLS

>  <s_lp_Variant>  (1) 
DiffSBDD_4_num_sample_100-1

>  <s_m_source_file>  (1) 
generated__ligand_DiffSBDD_2026-05-06_prepared.sdf

>  <GenAI_Model>  (1) 
DiffSBDD

>  <Protein>  (1) 
GPCR_5HT2C

$$$$
DiffSBDD_95_num_sample_100
     RDKit          3D

  0  0  0  0  0  0  0  0  0  0999 V3000
M  V30 BEGIN CTAB
M  V30 COUNTS 51 50 0 0 1
M  V30 BEGIN ATOM
M  V30 1 C 38.537942 31.334484 54.099811 0
M  V30 2 C 39.457503 30.104771 53.927948 0
M  V30 3 C 40.678799 28.226818 58.138075 0
M  V30 4 O 37.504273 27.711246 53.653243 0 CHG=-1
M  V30 5 C 39.548170 28.025674 59.164587 0
M  V30 6 C 41.798469 27.196467 58.253541 0
M  V30 7 C 39.074600 29.232726 52.695935 0 CFG=1
M  V30 8 C 38.366136 31.309249 56.639562 0
M  V30 9 O 39.482741 26.898548 53.033844 0
M  V30 10 C 38.109603 32.139531 57.915379 0
M  V30 11 O 39.467393 30.581665 60.327365 0
M  V30 12 N 38.533270 29.049177 58.948507 0
M  V30 13 C 40.109714 29.272106 51.525419 0
M  V30 14 C 38.741271 32.129388 55.400916 0
M  V30 15 C 39.707310 28.403620 50.327715 0
M  V30 16 C 38.597748 30.264850 59.514854 0
M  V30 17 C 37.023021 32.165460 60.235590 0
M  V30 18 C 40.358915 30.712253 51.031218 0
M  V30 19 C 38.651394 27.823181 53.165766 0
M  V30 20 C 37.533870 31.284365 59.073129 0 CFG=1
M  V30 21 O 36.121244 31.443914 61.053501 0
M  V30 22 H 37.496487 31.012008 54.057789 0
M  V30 23 H 38.676746 32.009853 53.255439 0
M  V30 24 H 40.498537 30.422258 53.874263 0
M  V30 25 H 39.405091 29.504382 54.836537 0
M  V30 26 H 40.266075 28.187513 57.128668 0
M  V30 27 H 41.109312 29.221369 58.253562 0
M  V30 28 H 39.935065 28.051686 60.185289 0
M  V30 29 H 39.088372 27.046379 59.028532 0
M  V30 30 H 42.527322 27.313073 57.450909 0
M  V30 31 H 42.328823 27.302306 59.198319 0
M  V30 32 H 41.399721 26.184186 58.203904 0
M  V30 33 H 38.151822 29.621427 52.281030 0
M  V30 34 H 39.158935 30.584423 56.817093 0
M  V30 35 H 37.467378 30.732700 56.418156 0
M  V30 36 H 37.403326 32.933457 57.673235 0
M  V30 37 H 39.026433 32.642484 58.225914 0
M  V30 38 H 37.794145 28.851797 58.288997 0
M  V30 39 H 41.067487 28.882647 51.853500 0
M  V30 40 H 38.108821 33.017669 55.356829 0
M  V30 41 H 39.769621 32.480808 55.483624 0
M  V30 42 H 38.667309 28.541555 50.069424 0
M  V30 43 H 40.283553 28.678738 49.453496 0
M  V30 44 H 39.867018 27.341290 50.513186 0
M  V30 45 H 36.486536 33.030464 59.843304 0
M  V30 46 H 37.841906 32.554343 60.842348 0
M  V30 47 H 39.467387 31.142077 50.577409 0
M  V30 48 H 40.667385 31.375245 51.837373 0
M  V30 49 H 41.151286 30.741697 50.282620 0
M  V30 50 H 36.673923 30.742717 58.673745 0
M  V30 51 H 35.370790 31.220381 60.521632 0
M  V30 END ATOM
M  V30 BEGIN BOND
M  V30 1 1 2 1
M  V30 2 1 5 3
M  V30 3 1 6 3
M  V30 4 1 7 2
M  V30 5 1 10 8
M  V30 6 1 12 5
M  V30 7 1 13 7
M  V30 8 1 14 1
M  V30 9 1 14 8
M  V30 10 1 15 13
M  V30 11 2 16 11
M  V30 12 1 16 12
M  V30 13 1 18 13
M  V30 14 1 19 4
M  V30 15 1 19 7
M  V30 16 2 19 9
M  V30 17 1 20 10
M  V30 18 1 20 16
M  V30 19 1 20 17
M  V30 20 1 21 17
M  V30 21 1 22 1
M  V30 22 1 23 1
M  V30 23 1 24 2
M  V30 24 1 25 2
M  V30 25 1 26 3
M  V30 26 1 27 3
M  V30 27 1 28 5
M  V30 28 1 29 5
M  V30 29 1 30 6
M  V30 30 1 31 6
M  V30 31 1 32 6
M  V30 32 1 7 33 CFG=3
M  V30 33 1 34 8
M  V30 34 1 35 8
M  V30 35 1 36 10
M  V30 36 1 37 10
M  V30 37 1 38 12
M  V30 38 1 39 13
M  V30 39 1 40 14
M  V30 40 1 41 14
M  V30 41 1 42 15
M  V30 42 1 43 15
M  V30 43 1 44 15
M  V30 44 1 45 17
M  V30 45 1 46 17
M  V30 46 1 47 18
M  V30 47 1 48 18
M  V30 48 1 49 18
M  V30 49 1 20 50 CFG=3
M  V30 50 1 51 21
M  V30 END BOND
M  V30 END CTAB
M  END
>  <i_epik_Tot_Q>  (1) 
-1

>  <i_epik_Tot_abs_Q>  (1) 
1

>  <i_i_glide_confnum>  (1) 
407

>  <i_i_glide_lignum>  (1) 
266

>  <i_i_glide_posenum>  (1) 
185

>  <i_i_glide_rotatable_bonds>  (1) 
14

>  <i_lp_mmshare_version>  (1) 
72125

>  <i_m_source_file_index>  (1) 
96

>  <i_f3d_flags>  (1) 
0

>  <num_sample>  (1) 
100

>  <b_lp_Chiralities_Consistent>  (1) 
1

>  <r_epik_Charging_Adjusted_Penalty>  (1) 
0.001438735801478555

>  <r_epik_Ionization_Penalty>  (1) 
0.0014388430371294766

>  <r_epik_Ionization_Penalty_Charging>  (1) 
0.001438735801478555

>  <r_epik_Ionization_Penalty_Neutral>  (1) 
1.0723565092155607e-07

>  <r_epik_State_Penalty>  (1) 
-0

>  <r_glide_ring_energy>  (1) 
0

>  <r_i_docking_score>  (1) 
-4.9527597782076453

>  <r_i_glide_ecoul>  (1) 
-4.0710585811250128

>  <r_i_glide_eff_state_penalty>  (1) 
-0

>  <r_i_glide_einternal>  (1) 
10.732392213966076

>  <r_i_glide_emodel>  (1) 
-41.359564471110836

>  <r_i_glide_emodel_strain>  (1) 
1.6103597690429634

>  <r_i_glide_energy>  (1) 
-37.212151025334443

>  <r_i_glide_erotb>  (1) 
2.0366524636838417

>  <r_i_glide_esite>  (1) 
0

>  <r_i_glide_evdw>  (1) 
-33.141092444209427

>  <r_i_glide_gscore>  (1) 
-4.9527597782076453

>  <r_i_glide_gscore_strain>  (1) 
0

>  <r_i_glide_hbond>  (1) 
-0.30589243141613742

>  <r_i_glide_ligand_efficiency>  (1) 
-0.2358457037241736

>  <r_i_glide_ligand_efficiency_ln>  (1) 
-1.2245598471683719

>  <r_i_glide_ligand_efficiency_sa>  (1) 
-0.65068041390024145

>  <r_i_glide_lipo>  (1) 
-2.1053131228481279

>  <r_i_glide_metal>  (1) 
-0

>  <r_i_glide_rewards>  (1) 
-2.3104932782479981

>  <r_lp_Energy>  (1) 
10.841768999999999

>  <r_lp_tautomer_probability>  (1) 
1

>  <s_epik_cmdline>  (1) 
J2VwaWtfcHl0aG9uJywgJy1waHQnLCAnMS4wJywgJy1waCcsICc3LjQnLCAnLXRuJywgJzgnLCAnLW1hJywgJzUwMCcsICctaW1hZScsICc8aW5maWxlLm1hZT4nLCAnLW9tYWUnLCAnPG91dGZpbGUubWFlPic=

>  <s_epik_input>  (1) 
W09IXUMoPU8pW0NASF0oW0NIXShbQ0gzXSlbQ0gzXSlbQ0gyXVtDSDJdW0NIMl1bQ0gyXVtDSDJdW0NASF0oW0NIMl1bT0hdKUMoPU8pW05IXVtDSDJdW0NIMl1bQ0gzXQ==

>  <s_glide_docking_method>  (1) 
confgen

>  <s_i_glide_gridfile>  (1) 
gpcr_5ht2c_6bqh_protein_autoprepared_prepared

>  <s_lp_Force_Field>  (1) 
S-OPLS

>  <s_lp_Variant>  (1) 
DiffSBDD_95_num_sample_100-1

>  <s_m_source_file>  (1) 
generated__ligand_DiffSBDD_2026-05-06_prepared.sdf

>  <GenAI_Model>  (1) 
DiffSBDD

>  <Protein>  (1) 
GPCR_5HT2C

$$$$
DiffSBDD_46_num_sample_100
     RDKit          3D

  0  0  0  0  0  0  0  0  0  0999 V3000
M  V30 BEGIN CTAB
M  V30 COUNTS 67 70 0 0 1
M  V30 BEGIN ATOM
M  V30 1 N 39.105894 33.943716 61.403135 0 CHG=-1
M  V30 2 N 42.627507 29.609472 66.012890 0
M  V30 3 C 42.143397 34.616003 64.539672 0
M  V30 4 C 39.467407 30.021424 52.898045 0
M  V30 5 C 41.322644 32.182995 65.263277 0
M  V30 6 O 37.867396 33.901901 58.570307 0
M  V30 7 O 36.210344 31.621434 61.453481 0
M  V30 8 C 38.786082 30.097294 55.221659 0
M  V30 9 N 39.048280 29.583776 53.955256 0
M  V30 10 F 38.268596 27.890266 56.018109 0
M  V30 11 C 41.106442 33.685722 65.123792 0 CFG=2
M  V30 12 N 38.006865 31.653232 59.049120 0
M  V30 13 C 41.535254 31.723509 66.722719 0 CFG=2
M  V30 14 C 38.131265 29.737963 57.530917 0
M  V30 15 C 37.492278 32.114902 61.782010 0
M  V30 16 C 42.954682 30.419625 68.987555 0
M  V30 17 C 42.331020 25.607002 64.653503 0
M  V30 18 C 42.510498 28.272962 65.570631 0
M  V30 19 C 38.391926 29.219290 56.254902 0
M  V30 20 C 40.267437 33.286841 61.567450 0
M  V30 21 C 38.667397 31.932029 56.644559 0
M  V30 22 C 38.267407 31.117464 57.739068 0
M  V30 23 N 38.927762 31.435561 55.411153 0
M  V30 24 C 41.732573 29.756520 68.326965 0
M  V30 25 C 43.406297 26.421424 64.253432 0
M  V30 26 C 37.906142 33.299651 60.871986 0 CFG=2
M  V30 27 C 42.776628 32.368997 67.378685 0
M  V30 28 C 43.496362 27.748964 64.709784 0
M  V30 29 C 41.200362 33.311764 62.573898 0
M  V30 30 C 41.341780 26.118551 65.512414 0
M  V30 31 C 42.909764 31.948189 68.849777 0
M  V30 32 C 37.960345 32.968754 59.361251 0
M  V30 33 C 41.425219 27.446918 65.973507 0
M  V30 34 O 39.909825 30.302511 51.844069 0
M  V30 35 C 41.563878 30.175592 66.846089 0 CFG=2
M  V30 36 N 40.997394 34.187847 63.755185 0 CFG=2 CHG=1
M  V30 37 H 43.385633 30.195589 65.696999 0
M  V30 38 H 43.067404 34.214006 64.141191 0
M  V30 39 H 42.086368 35.689462 64.709373 0
M  V30 40 H 40.451616 31.673684 64.848085 0
M  V30 41 H 42.181129 31.881383 64.663552 0
M  V30 42 H 35.616209 32.356630 61.388841 0
M  V30 43 H 40.348713 34.127808 65.767095 0
M  V30 44 H 37.810605 30.989782 59.783908 0
M  V30 45 H 40.667401 32.063874 67.288540 0
M  V30 46 H 37.830303 29.086013 58.337586 0
M  V30 47 H 37.467396 32.433792 62.816567 0
M  V30 48 H 38.212805 31.296968 61.735609 0
M  V30 49 H 43.869273 30.038755 68.531351 0
M  V30 50 H 42.999638 30.142985 70.041151 0
M  V30 51 H 42.265475 24.588653 64.299959 0
M  V30 52 H 40.510517 32.599934 60.728123 0
M  V30 53 H 38.803995 32.991153 56.752207 0
M  V30 54 H 41.817294 28.674344 68.423090 0
M  V30 55 H 40.834106 30.021415 68.880658 0
M  V30 56 H 44.163694 26.027264 63.591839 0
M  V30 57 H 37.089084 34.018971 60.947355 0
M  V30 58 H 43.678950 32.091074 66.833232 0
M  V30 59 H 42.712773 33.456133 67.328704 0
M  V30 60 H 44.324783 28.368299 64.397576 0
M  V30 61 H 42.108481 32.727823 62.584583 0
M  V30 62 H 40.517086 25.492132 65.819402 0
M  V30 63 H 43.808754 32.388540 69.282567 0
M  V30 64 H 42.067315 32.342248 69.419842 0
M  V30 65 H 40.661113 27.823277 66.632864 0
M  V30 66 H 40.594262 29.841008 66.478083 0
M  V30 67 H 40.282674 34.894365 63.631042 0
M  V30 END ATOM
M  V30 BEGIN BOND
M  V30 1 2 9 4
M  V30 2 1 9 8
M  V30 3 1 11 3
M  V30 4 1 11 5
M  V30 5 1 13 5
M  V30 6 1 15 7
M  V30 7 1 18 2
M  V30 8 2 19 8
M  V30 9 1 19 10
M  V30 10 1 19 14
M  V30 11 1 20 1
M  V30 12 1 22 12
M  V30 13 2 22 14
M  V30 14 1 22 21
M  V30 15 1 23 8
M  V30 16 2 23 21
M  V30 17 1 24 16
M  V30 18 2 25 17
M  V30 19 1 26 1
M  V30 20 1 26 15
M  V30 21 1 27 13
M  V30 22 2 28 18
M  V30 23 1 28 25
M  V30 24 2 29 20
M  V30 25 1 30 17
M  V30 26 1 31 16
M  V30 27 1 31 27
M  V30 28 2 32 6
M  V30 29 1 32 12
M  V30 30 1 32 26
M  V30 31 1 33 18
M  V30 32 2 33 30
M  V30 33 2 34 4
M  V30 34 1 35 2
M  V30 35 1 35 13
M  V30 36 1 35 24
M  V30 37 1 36 3
M  V30 38 1 36 11
M  V30 39 1 36 29
M  V30 40 1 37 2
M  V30 41 1 38 3
M  V30 42 1 39 3
M  V30 43 1 40 5
M  V30 44 1 41 5
M  V30 45 1 42 7
M  V30 46 1 11 43 CFG=1
M  V30 47 1 44 12
M  V30 48 1 13 45 CFG=1
M  V30 49 1 46 14
M  V30 50 1 47 15
M  V30 51 1 48 15
M  V30 52 1 49 16
M  V30 53 1 50 16
M  V30 54 1 51 17
M  V30 55 1 52 20
M  V30 56 1 53 21
M  V30 57 1 54 24
M  V30 58 1 55 24
M  V30 59 1 56 25
M  V30 60 1 26 57 CFG=3
M  V30 61 1 58 27
M  V30 62 1 59 27
M  V30 63 1 60 28
M  V30 64 1 61 29
M  V30 65 1 62 30
M  V30 66 1 63 31
M  V30 67 1 64 31
M  V30 68 1 65 33
M  V30 69 1 35 66 CFG=3
M  V30 70 1 36 67 CFG=3
M  V30 END BOND
M  V30 END CTAB
M  END
>  <i_epik_Tot_Q>  (1) 
0

>  <i_epik_Tot_abs_Q>  (1) 
2

>  <i_i_glide_confnum>  (1) 
2220

>  <i_i_glide_lignum>  (1) 
125

>  <i_i_glide_posenum>  (1) 
387

>  <i_i_glide_rotatable_bonds>  (1) 
13

>  <i_lp_mmshare_version>  (1) 
72125

>  <i_m_source_file_index>  (1) 
47

>  <i_f3d_flags>  (1) 
0

>  <num_sample>  (1) 
100

>  <b_lp_Chiralities_Consistent>  (1) 
1

>  <r_epik_Charging_Adjusted_Penalty>  (1) 
0.33342598172051213

>  <r_epik_Ionization_Penalty>  (1) 
0.027696632267336825

>  <r_epik_Ionization_Penalty_Charging>  (1) 
0.022930597766060493

>  <r_epik_Ionization_Penalty_Neutral>  (1) 
0.0047660345012763301

>  <r_epik_State_Penalty>  (1) 
0.31049538395445164

>  <r_glide_ring_energy>  (1) 
0.011219957445994763

>  <r_i_docking_score>  (1) 
-4.9478953144040556

>  <r_i_glide_ecoul>  (1) 
-2.1150219718765295

>  <r_i_glide_eff_state_penalty>  (1) 
0.31049538395445164

>  <r_i_glide_einternal>  (1) 
11.412796307703484

>  <r_i_glide_emodel>  (1) 
-59.80720306406149

>  <r_i_glide_emodel_strain>  (1) 
0.16506423274530846

>  <r_i_glide_energy>  (1) 
-48.021879029646428

>  <r_i_glide_erotb>  (1) 
0.99979395072351473

>  <r_i_glide_esite>  (1) 
-0.082008166878494423

>  <r_i_glide_evdw>  (1) 
-45.906857057769898

>  <r_i_glide_gscore>  (1) 
-5.2583906983585074

>  <r_i_glide_gscore_strain>  (1) 
0

>  <r_i_glide_hbond>  (1) 
-0.32000000000000001

>  <r_i_glide_ligand_efficiency>  (1) 
-0.13744153651122376

>  <r_i_glide_ligand_efficiency_ln>  (1) 
-1.0794970809198141

>  <r_i_glide_ligand_efficiency_sa>  (1) 
-0.45382195453635554

>  <r_i_glide_lipo>  (1) 
-2.5455549218926583

>  <r_i_glide_metal>  (1) 
-0

>  <r_i_glide_rewards>  (1) 
-0.69802541164089404

>  <r_lp_Energy>  (1) 
58.099483999999997

>  <s_epik_Chemistry_Notes>  (1) 
This compound has an imine and may undergo hydrolysis.

>  <s_epik_cmdline>  (1) 
J2VwaWtfcHl0aG9uJywgJy1waHQnLCAnMS4wJywgJy1waCcsICc3LjQnLCAnLXRuJywgJzgnLCAnLW1hJywgJzUwMCcsICctaW1hZScsICc8aW5maWxlLm1hZT4nLCAnLW9tYWUnLCAnPG91dGZpbGUubWFlPic=

>  <s_epik_input>  (1) 
Tz1DPU5jMWMoRilbY0hdYyhbY0hdbjEpW05IXUMoPU8pW0NAQEhdKFtDSDJdW09IXSkvTj1bQ0hdL1tDSDJdTjJbQ0gyXVtDQEBIXTJbQ0gyXVtDQEBIXTNbQ0gyXVtDSDJdW0NIMl1bQ0gyXVtDQEBIXTNbTkhdYzRbY0hdW2NIXVtjSF1bY0hdW2NIXTQ=

>  <s_glide_docking_method>  (1) 
confgen

>  <s_i_glide_gridfile>  (1) 
gpcr_5ht2c_6bqh_protein_autoprepared_prepared

>  <s_lp_Force_Field>  (1) 
S-OPLS

>  <s_lp_Variant>  (1) 
DiffSBDD_46_num_sample_100-1

>  <s_m_source_file>  (1) 
generated__ligand_DiffSBDD_2026-05-06_prepared.sdf

>  <GenAI_Model>  (1) 
DiffSBDD

>  <Protein>  (1) 
GPCR_5HT2C

$$$$
DiffSBDD_60_num_sample_100
     RDKit          3D

  0  0  0  0  0  0  0  0  0  0999 V3000
M  V30 BEGIN CTAB
M  V30 COUNTS 74 76 0 0 1
M  V30 BEGIN ATOM
M  V30 1 C 41.922761 33.926621 64.353038 0
M  V30 2 C 39.446966 28.690756 50.759209 0
M  V30 3 C 39.885095 29.984153 51.085331 0
M  V30 4 C 38.480970 31.851380 59.776361 0
M  V30 5 N 40.834283 35.594193 63.708489 0
M  V30 6 C 42.029722 31.116061 63.289888 0
M  V30 7 C 36.988914 30.006858 55.131057 0
M  V30 8 C 37.653886 33.516286 58.047203 0
M  V30 9 C 38.469608 32.239961 58.284385 0 CFG=2
M  V30 10 C 39.763061 34.923217 61.549308 0
M  V30 11 C 38.318724 29.580156 55.770242 0 CFG=1
M  V30 12 O 39.133695 31.353873 62.653575 0
M  V30 13 C 37.736567 28.881752 58.156074 0 CFG=1
M  V30 14 C 36.335123 29.285051 58.657319 0
M  V30 15 C 39.488505 32.647492 60.635837 0 CFG=1
M  V30 16 N 38.850346 33.823086 61.234142 0
M  V30 17 C 39.531030 29.979370 54.912347 0
M  V30 18 C 40.617600 34.653327 62.741251 0
M  V30 19 C 41.430207 32.213339 62.388524 0 CFG=1
M  V30 20 C 40.123178 31.726750 61.713233 0 CFG=1
M  V30 21 O 40.310997 30.821752 50.099709 0
M  V30 22 C 39.889564 30.410613 52.428920 0
M  V30 23 C 41.312669 33.539261 63.110185 0
M  V30 24 C 39.372998 27.371167 59.115659 0
M  V30 25 C 40.458489 27.465752 58.033011 0
M  V30 26 C 39.013055 27.815687 51.770614 0
M  V30 27 C 38.444780 29.958038 57.274627 0 CFG=2
M  V30 28 O 37.867407 31.247782 57.467510 0
M  V30 29 N 41.626039 35.175652 64.705122 0
M  V30 30 C 36.969671 31.439974 54.628363 0
M  V30 31 C 39.467402 29.534130 53.448926 0
M  V30 32 C 39.026171 28.231482 53.114515 0
M  V30 33 O 38.568126 28.537692 59.261506 0
M  V30 34 H 42.569104 33.347045 64.994783 0
M  V30 35 H 39.441141 28.371665 49.731619 0
M  V30 36 H 37.475461 31.892144 60.196061 0
M  V30 37 H 38.762005 30.808724 59.829384 0
M  V30 38 H 43.040252 31.373918 63.607222 0
M  V30 39 H 42.091138 30.160268 62.770052 0
M  V30 40 H 41.426688 30.960208 64.185490 0
M  V30 41 H 36.182248 29.920096 55.848614 0
M  V30 42 H 36.737786 29.341142 54.306122 0
M  V30 43 H 37.984933 34.334545 58.681698 0
M  V30 44 H 36.599069 33.348738 58.265899 0
M  V30 45 H 37.730254 33.846130 57.010985 0
M  V30 46 H 39.467391 32.416924 57.903984 0
M  V30 47 H 40.391042 35.154129 60.687831 0
M  V30 48 H 39.172192 35.821035 61.735852 0
M  V30 49 H 38.320397 28.494826 55.738718 0
M  V30 50 H 39.466318 30.642183 63.181926 0
M  V30 51 H 37.566785 27.967663 57.587999 0
M  V30 52 H 35.854619 30.021441 58.021858 0
M  V30 53 H 36.373101 29.705188 59.661566 0
M  V30 54 H 35.654155 28.435095 58.653477 0
M  V30 55 H 40.267400 32.979049 59.958423 0
M  V30 56 H 38.437992 33.498629 62.105395 0
M  V30 57 H 39.681967 31.058152 54.965993 0
M  V30 58 H 40.429143 29.535999 55.340813 0
M  V30 59 H 42.140891 32.355004 61.572752 0
M  V30 60 H 40.403949 30.799549 61.211554 0
M  V30 61 H 40.233566 31.403312 52.679396 0
M  V30 62 H 38.740288 26.497508 58.951458 0
M  V30 63 H 39.868979 27.221650 60.073802 0
M  V30 64 H 41.097365 26.582826 58.059218 0
M  V30 65 H 41.097953 28.336243 58.182124 0
M  V30 66 H 40.031819 27.517545 57.032538 0
M  V30 67 H 38.676021 26.821794 51.516232 0
M  V30 68 H 39.503855 30.001345 57.527568 0
M  V30 69 H 40.453171 36.530922 63.699836 0
M  V30 70 H 35.968374 31.621457 54.253397 0
M  V30 71 H 37.687357 31.629041 53.839555 0
M  V30 72 H 37.157153 32.166944 55.411349 0
M  V30 73 H 38.706944 27.550038 53.886599 0
M  V30 74 H 40.627067 31.656757 50.413642 0
M  V30 END ATOM
M  V30 BEGIN BOND
M  V30 1 2 3 2
M  V30 2 1 9 4
M  V30 3 1 9 8
M  V30 4 1 11 7
M  V30 5 1 14 13
M  V30 6 1 15 4
M  V30 7 1 16 10
M  V30 8 1 16 15
M  V30 9 1 17 11
M  V30 10 1 18 5
M  V30 11 1 18 10
M  V30 12 1 19 6
M  V30 13 1 20 12
M  V30 14 1 20 15
M  V30 15 1 20 19
M  V30 16 1 21 3
M  V30 17 1 22 3
M  V30 18 1 23 1
M  V30 19 2 23 18
M  V30 20 1 23 19
M  V30 21 1 25 24
M  V30 22 1 26 2
M  V30 23 1 27 11
M  V30 24 1 27 13
M  V30 25 1 28 9
M  V30 26 1 28 27
M  V30 27 2 29 1
M  V30 28 1 29 5
M  V30 29 1 30 7
M  V30 30 1 31 17
M  V30 31 2 31 22
M  V30 32 2 32 26
M  V30 33 1 32 31
M  V30 34 1 33 13
M  V30 35 1 33 24
M  V30 36 1 34 1
M  V30 37 1 35 2
M  V30 38 1 36 4
M  V30 39 1 37 4
M  V30 40 1 38 6
M  V30 41 1 39 6
M  V30 42 1 40 6
M  V30 43 1 41 7
M  V30 44 1 42 7
M  V30 45 1 43 8
M  V30 46 1 44 8
M  V30 47 1 45 8
M  V30 48 1 9 46 CFG=3
M  V30 49 1 47 10
M  V30 50 1 48 10
M  V30 51 1 11 49 CFG=1
M  V30 52 1 50 12
M  V30 53 1 13 51 CFG=3
M  V30 54 1 52 14
M  V30 55 1 53 14
M  V30 56 1 54 14
M  V30 57 1 15 55 CFG=3
M  V30 58 1 56 16
M  V30 59 1 57 17
M  V30 60 1 58 17
M  V30 61 1 19 59 CFG=3
M  V30 62 1 20 60 CFG=3
M  V30 63 1 61 22
M  V30 64 1 62 24
M  V30 65 1 63 24
M  V30 66 1 64 25
M  V30 67 1 65 25
M  V30 68 1 66 25
M  V30 69 1 67 26
M  V30 70 1 27 68 CFG=1
M  V30 71 1 69 5
M  V30 72 1 70 30
M  V30 73 1 71 30
M  V30 74 1 72 30
M  V30 75 1 73 32
M  V30 76 1 74 21
M  V30 END BOND
M  V30 END CTAB
M  END
>  <i_epik_Tot_Q>  (1) 
0

>  <i_epik_Tot_abs_Q>  (1) 
0

>  <i_i_glide_confnum>  (1) 
3082

>  <i_i_glide_lignum>  (1) 
154

>  <i_i_glide_posenum>  (1) 
127

>  <i_i_glide_rotatable_bonds>  (1) 
13

>  <i_lp_mmshare_version>  (1) 
72125

>  <i_m_source_file_index>  (1) 
61

>  <i_f3d_flags>  (1) 
0

>  <num_sample>  (1) 
100

>  <b_lp_Chiralities_Consistent>  (1) 
1

>  <r_epik_Charging_Adjusted_Penalty>  (1) 
0.96999093632078437

>  <r_epik_Ionization_Penalty>  (1) 
0.47106789062039978

>  <r_epik_Ionization_Penalty_Charging>  (1) 
0

>  <r_epik_Ionization_Penalty_Neutral>  (1) 
0.47106789062039978

>  <r_epik_State_Penalty>  (1) 
0.96999093632078437

>  <r_glide_ring_energy>  (1) 
0

>  <r_i_docking_score>  (1) 
-4.9349287777853643

>  <r_i_glide_ecoul>  (1) 
-0.37153190681251602

>  <r_i_glide_eff_state_penalty>  (1) 
0.96999093632078437

>  <r_i_glide_einternal>  (1) 
24.755617993509865

>  <r_i_glide_emodel>  (1) 
-48.719746296062326

>  <r_i_glide_emodel_strain>  (1) 
3.6459090911690311

>  <r_i_glide_energy>  (1) 
-46.44220054309622

>  <r_i_glide_erotb>  (1) 
0.85721886193159891

>  <r_i_glide_esite>  (1) 
0

>  <r_i_glide_evdw>  (1) 
-46.070668636283706

>  <r_i_glide_gscore>  (1) 
-5.9049197141061489

>  <r_i_glide_gscore_strain>  (1) 
0

>  <r_i_glide_hbond>  (1) 
0

>  <r_i_glide_ligand_efficiency>  (1) 
-0.14954329629652618

>  <r_i_glide_ligand_efficiency_ln>  (1) 
-1.0975026084857509

>  <r_i_glide_ligand_efficiency_sa>  (1) 
-0.47966525669184551

>  <r_i_glide_lipo>  (1) 
-3.7661728981357787

>  <r_i_glide_metal>  (1) 
-0

>  <r_i_glide_rewards>  (1) 
-0.63670246006590536

>  <r_lp_Energy>  (1) 
22.684680999999998

>  <r_lp_tautomer_probability>  (1) 
0.49999999999868239

>  <s_epik_cmdline>  (1) 
J2VwaWtfcHl0aG9uJywgJy1waHQnLCAnMS4wJywgJy1waCcsICc3LjQnLCAnLXRuJywgJzgnLCAnLW1hJywgJzUwMCcsICctaW1hZScsICc8aW5maWxlLm1hZT4nLCAnLW9tYWUnLCAnPG91dGZpbGUubWFlPic=

>  <s_epik_input>  (1) 
bjFbbkhdW2NIXWMoYzEyKVtDQEBIXShbQ0gzXSlbQ0BASF0oW09IXSlbQ0BIXShbTkhdW0NIMl0yKVtDSDJdW0NASF0oW0NIM10pT1tDQEBIXShbQ0BIXShbQ0gzXSlPW0NIMl1bQ0gzXSlbQ0BASF0oW0NIMl1bQ0gzXSlbQ0gyXUMoPVtDSF0zKVtDSDJdW0NIXT1bQ0hdQzM9Tw==

>  <s_glide_docking_method>  (1) 
confgen

>  <s_i_glide_gridfile>  (1) 
gpcr_5ht2c_6bqh_protein_autoprepared_prepared

>  <s_lp_Force_Field>  (1) 
S-OPLS

>  <s_lp_Variant>  (1) 
DiffSBDD_60_num_sample_100-3

>  <s_m_source_file>  (1) 
generated__ligand_DiffSBDD_2026-05-06_prepared.sdf

>  <GenAI_Model>  (1) 
DiffSBDD

>  <Protein>  (1) 
GPCR_5HT2C

$$$$
DiffSBDD_1_num_sample_100
     RDKit          3D

  0  0  0  0  0  0  0  0  0  0999 V3000
M  V30 BEGIN CTAB
M  V30 COUNTS 63 66 0 0 1
M  V30 BEGIN ATOM
M  V30 1 C 38.795482 26.294684 57.167056 0
M  V30 2 C 39.854300 35.089446 61.334177 0
M  V30 3 O 37.467456 24.552252 57.628289 0
M  V30 4 C 38.019863 33.572581 60.404517 0 CFG=1
M  V30 5 C 39.199453 27.712509 57.195537 0
M  V30 6 C 38.648837 31.158648 60.289127 0
M  V30 7 C 36.633668 36.581363 62.935009 0
M  V30 8 C 41.358202 35.979413 62.854352 0
M  V30 9 N 39.983058 36.312336 63.304730 0 CHG=1
M  V30 10 C 38.243754 32.327633 56.778674 0
M  V30 11 C 38.314848 28.692841 57.977688 0
M  V30 12 C 37.833423 36.595418 61.972490 0 CFG=2
M  V30 13 C 38.990341 35.649244 62.421198 0 CFG=1
M  V30 14 C 38.072710 31.101393 58.862773 0 CFG=2
M  V30 15 C 38.347095 30.818643 56.491187 0
M  V30 16 C 37.708264 25.865083 57.722129 0
M  V30 17 N 37.975876 32.237709 61.041751 0
M  V30 18 C 39.434479 34.156950 60.449806 0
M  V30 19 O 40.211613 28.126934 56.629288 0
M  V30 20 C 38.275406 38.021429 61.626061 0
M  V30 21 C 38.652622 24.108211 56.863082 0
M  V30 22 C 37.488104 33.512406 58.944249 0
M  V30 23 C 41.251241 35.612212 61.366018 0
M  V30 24 N 38.224895 32.435267 58.250258 0 CFG=2 CHG=1
M  V30 25 O 36.667500 30.864553 58.939204 0
M  V30 26 C 39.642698 25.316476 56.496161 0
M  V30 27 C 38.725236 30.169812 57.839701 0 CFG=2
M  V30 28 O 37.052583 36.821433 64.253204 0
M  V30 29 H 37.343002 34.201975 60.971437 0
M  V30 30 H 39.725186 31.328057 60.258871 0
M  V30 31 H 38.501398 30.203180 60.793982 0
M  V30 32 H 36.121961 35.621372 62.898630 0
M  V30 33 H 35.890752 37.329616 62.656361 0
M  V30 34 H 41.702261 35.117031 63.426733 0
M  V30 35 H 42.046984 36.799922 63.053501 0
M  V30 36 H 39.856651 37.310191 63.223238 0
M  V30 37 H 39.127455 32.849279 56.410410 0
M  V30 38 H 37.382549 32.789421 56.304562 0
M  V30 39 H 38.362618 28.404442 59.028087 0
M  V30 40 H 37.276643 28.572464 57.667288 0
M  V30 41 H 37.421981 36.232693 61.032683 0
M  V30 42 H 38.667403 34.768151 62.952243 0
M  V30 43 H 39.069408 30.592880 55.705987 0
M  V30 44 H 37.375725 30.449547 56.157706 0
M  V30 45 H 36.960170 26.422007 58.253499 0
M  V30 46 H 36.996127 31.969584 61.102058 0
M  V30 47 H 40.125227 33.784022 59.716121 0
M  V30 48 H 39.067396 38.420852 62.253486 0
M  V30 49 H 38.667400 38.061738 60.631298 0
M  V30 50 H 37.434336 38.715906 61.629542 0
M  V30 51 H 39.185024 23.360186 57.453482 0
M  V30 52 H 38.285214 23.640825 55.948517 0
M  V30 53 H 36.410920 33.346744 58.913345 0
M  V30 54 H 37.659447 34.457603 58.431446 0
M  V30 55 H 41.979297 34.869505 61.053522 0
M  V30 56 H 41.333777 36.494941 60.733903 0
M  V30 57 H 36.225374 31.197208 58.148434 0
M  V30 58 H 39.733021 25.499383 55.424855 0
M  V30 59 H 40.617316 25.245925 56.974783 0
M  V30 60 H 39.805181 30.252653 57.963187 0
M  V30 61 H 36.311351 36.683253 64.827908 0
M  V30 62 H 39.836121 36.057004 64.271494 0
M  V30 63 H 39.186511 32.654115 58.456167 0
M  V30 END ATOM
M  V30 BEGIN BOND
M  V30 1 1 5 1
M  V30 2 1 9 8
M  V30 3 1 11 5
M  V30 4 1 12 7
M  V30 5 1 13 2
M  V30 6 1 13 9
M  V30 7 1 13 12
M  V30 8 1 14 6
M  V30 9 1 15 10
M  V30 10 2 16 1
M  V30 11 1 16 3
M  V30 12 1 17 4
M  V30 13 1 17 6
M  V30 14 2 18 2
M  V30 15 1 18 4
M  V30 16 2 19 5
M  V30 17 1 20 12
M  V30 18 1 21 3
M  V30 19 1 22 4
M  V30 20 1 23 2
M  V30 21 1 23 8
M  V30 22 1 24 10
M  V30 23 1 24 14
M  V30 24 1 24 22
M  V30 25 1 14 25 CFG=1
M  V30 26 1 26 1
M  V30 27 1 26 21
M  V30 28 1 27 11
M  V30 29 1 27 14
M  V30 30 1 27 15
M  V30 31 1 28 7
M  V30 32 1 4 29 CFG=1
M  V30 33 1 30 6
M  V30 34 1 31 6
M  V30 35 1 32 7
M  V30 36 1 33 7
M  V30 37 1 34 8
M  V30 38 1 35 8
M  V30 39 1 36 9
M  V30 40 1 37 10
M  V30 41 1 38 10
M  V30 42 1 39 11
M  V30 43 1 40 11
M  V30 44 1 12 41 CFG=3
M  V30 45 1 13 42 CFG=1
M  V30 46 1 43 15
M  V30 47 1 44 15
M  V30 48 1 45 16
M  V30 49 1 46 17
M  V30 50 1 47 18
M  V30 51 1 48 20
M  V30 52 1 49 20
M  V30 53 1 50 20
M  V30 54 1 51 21
M  V30 55 1 52 21
M  V30 56 1 53 22
M  V30 57 1 54 22
M  V30 58 1 55 23
M  V30 59 1 56 23
M  V30 60 1 57 25
M  V30 61 1 58 26
M  V30 62 1 59 26
M  V30 63 1 27 60 CFG=1
M  V30 64 1 61 28
M  V30 65 1 62 9
M  V30 66 1 24 63 CFG=1
M  V30 END BOND
M  V30 END CTAB
M  END
>  <i_epik_Tot_Q>  (1) 
2

>  <i_epik_Tot_abs_Q>  (1) 
2

>  <i_i_glide_confnum>  (1) 
144

>  <i_i_glide_lignum>  (1) 
13

>  <i_i_glide_posenum>  (1) 
158

>  <i_i_glide_rotatable_bonds>  (1) 
8

>  <i_lp_mmshare_version>  (1) 
72125

>  <i_m_source_file_index>  (1) 
2

>  <i_f3d_flags>  (1) 
0

>  <num_sample>  (1) 
100

>  <b_lp_Chiralities_Consistent>  (1) 
1

>  <r_epik_Charging_Adjusted_Penalty>  (1) 
2.3622130296898831

>  <r_epik_Ionization_Penalty>  (1) 
1.4312966064593899

>  <r_epik_Ionization_Penalty_Charging>  (1) 
1.1852885594971458

>  <r_epik_Ionization_Penalty_Neutral>  (1) 
0.24600804696224418

>  <r_epik_State_Penalty>  (1) 
1.176924470192737

>  <r_glide_ring_energy>  (1) 
0

>  <r_i_docking_score>  (1) 
-4.9243797684037993

>  <r_i_glide_ecoul>  (1) 
-7.4025523826083894

>  <r_i_glide_eff_state_penalty>  (1) 
1.176924470192737

>  <r_i_glide_einternal>  (1) 
1.2573269371070239

>  <r_i_glide_emodel>  (1) 
-47.014092843022482

>  <r_i_glide_emodel_strain>  (1) 
2.1675509971443034

>  <r_i_glide_energy>  (1) 
-30.969979837981818

>  <r_i_glide_erotb>  (1) 
0.75687532201182384

>  <r_i_glide_esite>  (1) 
-0.11911048661661293

>  <r_i_glide_evdw>  (1) 
-23.567427455373426

>  <r_i_glide_gscore>  (1) 
-6.1013042385965361

>  <r_i_glide_gscore_strain>  (1) 
0

>  <r_i_glide_hbond>  (1) 
-0.16

>  <r_i_glide_ligand_efficiency>  (1) 
-0.1758707060144214

>  <r_i_glide_ligand_efficiency_ln>  (1) 
-1.1366914366202545

>  <r_i_glide_ligand_efficiency_sa>  (1) 
-0.53404704635937883

>  <r_i_glide_lipo>  (1) 
-2.7446897777319559

>  <r_i_glide_metal>  (1) 
-0

>  <r_i_glide_rewards>  (1) 
-1.5456250660998612

>  <r_lp_Energy>  (1) 
26.616364999999998

>  <s_epik_cmdline>  (1) 
J2VwaWtfcHl0aG9uJywgJy1waHQnLCAnMS4wJywgJy1waCcsICc3LjQnLCAnLXRuJywgJzgnLCAnLW1hJywgJzUwMCcsICctaW1hZScsICc8aW5maWxlLm1hZT4nLCAnLW9tYWUnLCAnPG91dGZpbGUubWFlPic=

>  <s_epik_input>  (1) 
W0NIMl0xW0NIMl1PW0NIXT1DMUMoPU8pW0NIMl1bQ0BIXTJbQ0gyXVtDSDJdTihbQ0BAXTIzW09IXSlbQ0gyXVtDQEBIXShbTkhdW0NIMl0zKS9bQ0hdPUM0XFtDQEBIXShbTkhdW0NIMl1bQ0gyXTQpW0NASF0oW0NIM10pW0NIMl1bT0hd

>  <s_glide_docking_method>  (1) 
confgen

>  <s_i_glide_gridfile>  (1) 
gpcr_5ht2c_6bqh_protein_autoprepared_prepared

>  <s_lp_Force_Field>  (1) 
S-OPLS

>  <s_lp_Variant>  (1) 
DiffSBDD_1_num_sample_100-7

>  <s_m_source_file>  (1) 
generated__ligand_DiffSBDD_2026-05-06_prepared.sdf

>  <GenAI_Model>  (1) 
DiffSBDD

>  <Protein>  (1) 
GPCR_5HT2C

$$$$
DiffSBDD_28_num_sample_100
     RDKit          3D

  0  0  0  0  0  0  0  0  0  0999 V3000
M  V30 BEGIN CTAB
M  V30 COUNTS 37 38 0 0 1
M  V30 BEGIN ATOM
M  V30 1 C 39.323758 29.399905 53.944730 0
M  V30 2 C 39.110756 29.918398 59.281570 0
M  V30 3 C 40.267404 30.212190 50.572170 0
M  V30 4 O 40.267403 29.621430 49.493626 0
M  V30 5 S 40.157294 31.599758 61.963577 0
M  V30 6 O 41.946464 32.053159 63.886500 0
M  V30 7 C 41.389874 29.801271 63.550112 0
M  V30 8 C 40.022514 29.280206 60.311487 0
M  V30 9 C 37.467404 29.871105 57.369216 0
M  V30 10 C 37.742448 29.408329 55.930112 0
M  V30 11 C 41.307408 31.191624 63.287830 0
M  V30 12 C 40.604213 29.079933 62.774784 0
M  V30 13 C 38.375610 29.226459 58.396599 0
M  V30 14 C 39.735661 29.777180 61.738439 0 CFG=1
M  V30 15 C 38.917674 27.956300 53.402794 0
M  V30 16 C 39.348866 28.374408 51.942832 0
M  V30 17 C 39.806736 29.604136 51.827025 0
M  V30 18 C 39.159205 29.717061 55.419982 0
M  V30 19 C 39.796520 30.233897 53.029591 0
M  V30 20 H 39.067408 30.998131 59.278359 0
M  V30 21 H 40.615707 31.239974 50.663869 0
M  V30 22 H 42.039269 29.400908 64.314752 0
M  V30 23 H 39.912660 28.195553 60.268697 0
M  V30 24 H 41.055577 29.497287 60.038104 0
M  V30 25 H 37.546655 30.957540 57.430506 0
M  V30 26 H 36.437835 29.626376 57.633374 0
M  V30 27 H 37.013517 29.887353 55.274326 0
M  V30 28 H 37.560011 28.336240 55.860463 0
M  V30 29 H 40.554429 28.004252 62.857223 0
M  V30 30 H 38.415048 28.146833 58.395893 0
M  V30 31 H 38.688723 29.621432 62.000700 0
M  V30 32 H 37.850271 27.747449 53.480513 0
M  V30 33 H 39.525738 27.152057 53.817106 0
M  V30 34 H 39.263024 27.680222 51.118176 0
M  V30 35 H 39.894544 29.137429 55.978604 0
M  V30 36 H 39.394969 30.768950 55.588403 0
M  V30 37 H 40.123308 31.247106 53.211791 0
M  V30 END ATOM
M  V30 BEGIN BOND
M  V30 1 2 4 3
M  V30 2 1 8 2
M  V30 3 1 10 9
M  V30 4 1 11 5
M  V30 5 2 11 6
M  V30 6 1 11 7
M  V30 7 2 12 7
M  V30 8 2 13 2
M  V30 9 1 13 9
M  V30 10 1 14 5
M  V30 11 1 14 8
M  V30 12 1 14 12
M  V30 13 1 15 1
M  V30 14 1 16 15
M  V30 15 1 17 3
M  V30 16 2 17 16
M  V30 17 1 18 1
M  V30 18 1 18 10
M  V30 19 2 19 1
M  V30 20 1 19 17
M  V30 21 1 20 2
M  V30 22 1 21 3
M  V30 23 1 22 7
M  V30 24 1 23 8
M  V30 25 1 24 8
M  V30 26 1 25 9
M  V30 27 1 26 9
M  V30 28 1 27 10
M  V30 29 1 28 10
M  V30 30 1 29 12
M  V30 31 1 30 13
M  V30 32 1 14 31 CFG=1
M  V30 33 1 32 15
M  V30 34 1 33 15
M  V30 35 1 34 16
M  V30 36 1 35 18
M  V30 37 1 36 18
M  V30 38 1 37 19
M  V30 END BOND
M  V30 END CTAB
M  END
>  <i_epik_Tot_Q>  (1) 
0

>  <i_epik_Tot_abs_Q>  (1) 
0

>  <i_i_glide_confnum>  (1) 
70

>  <i_i_glide_lignum>  (1) 
70

>  <i_i_glide_posenum>  (1) 
44

>  <i_i_glide_rotatable_bonds>  (1) 
7

>  <i_lp_mmshare_version>  (1) 
72125

>  <i_m_source_file_index>  (1) 
29

>  <i_f3d_flags>  (1) 
0

>  <num_sample>  (1) 
100

>  <b_lp_Chiralities_Consistent>  (1) 
1

>  <r_epik_Charging_Adjusted_Penalty>  (1) 
0

>  <r_epik_Ionization_Penalty>  (1) 
0

>  <r_epik_Ionization_Penalty_Charging>  (1) 
0

>  <r_epik_Ionization_Penalty_Neutral>  (1) 
0

>  <r_epik_State_Penalty>  (1) 
-0

>  <r_glide_ring_energy>  (1) 
0

>  <r_i_docking_score>  (1) 
-4.9102045386396158

>  <r_i_glide_ecoul>  (1) 
-1.2460873775451866

>  <r_i_glide_eff_state_penalty>  (1) 
-0

>  <r_i_glide_einternal>  (1) 
1.827863330577514

>  <r_i_glide_emodel>  (1) 
-40.61404598988296

>  <r_i_glide_emodel_strain>  (1) 
0

>  <r_i_glide_energy>  (1) 
-31.748830648084862

>  <r_i_glide_erotb>  (1) 
1.1924995267514154

>  <r_i_glide_esite>  (1) 
0

>  <r_i_glide_evdw>  (1) 
-30.502743270539675

>  <r_i_glide_gscore>  (1) 
-4.9102045386396158

>  <r_i_glide_gscore_strain>  (1) 
0

>  <r_i_glide_hbond>  (1) 
0

>  <r_i_glide_ligand_efficiency>  (1) 
-0.25843181782313768

>  <r_i_glide_ligand_efficiency_ln>  (1) 
-1.2448423120687409

>  <r_i_glide_ligand_efficiency_sa>  (1) 
-0.68959988876146994

>  <r_i_glide_lipo>  (1) 
-2.0892580405812242

>  <r_i_glide_metal>  (1) 
-0

>  <r_i_glide_rewards>  (1) 
-2.3013957546510451

>  <r_lp_Energy>  (1) 
-7.384944

>  <r_lp_tautomer_probability>  (1) 
1

>  <s_epik_cmdline>  (1) 
J2VwaWtfcHl0aG9uJywgJy1waHQnLCAnMS4wJywgJy1waCcsICc3LjQnLCAnLXRuJywgJzgnLCAnLW1hJywgJzUwMCcsICctaW1hZScsICc8aW5maWxlLm1hZT4nLCAnLW9tYWUnLCAnPG91dGZpbGUubWFlPic=

>  <s_epik_input>  (1) 
Tz1bQ0hdQyg9W0NIXVtDSDJdMSlbQ0hdPUMxW0NIMl1bQ0gyXVtDSDJdXFtDSF09W0NIXVxbQ0gyXVtDQEhdKFNDMj1PKVtDSF09W0NIXTI=

>  <s_glide_docking_method>  (1) 
confgen

>  <s_i_glide_gridfile>  (1) 
gpcr_5ht2c_6bqh_protein_autoprepared_prepared

>  <s_lp_Force_Field>  (1) 
S-OPLS

>  <s_lp_Variant>  (1) 
DiffSBDD_28_num_sample_100-2

>  <s_m_source_file>  (1) 
generated__ligand_DiffSBDD_2026-05-06_prepared.sdf

>  <GenAI_Model>  (1) 
DiffSBDD

>  <Protein>  (1) 
GPCR_5HT2C

$$$$
DiffSBDD_52_num_sample_100
     RDKit          3D

  0  0  0  0  0  0  0  0  0  0999 V3000
M  V30 BEGIN CTAB
M  V30 COUNTS 25 25 0 0 1
M  V30 BEGIN ATOM
M  V30 1 C 38.838592 29.260724 55.041816 0 CFG=1
M  V30 2 O 37.673994 29.310824 57.122799 0
M  V30 3 C 38.644402 31.393758 56.618237 0 CFG=2
M  V30 4 S 38.867984 27.221430 53.174700 0
M  V30 5 C 38.908698 28.817646 52.367875 0 CFG=1
M  V30 6 S 39.356479 30.128549 53.516201 0
M  V30 7 O 37.867403 32.791253 54.737932 0
M  V30 8 C 37.976425 30.128349 56.006321 0 CFG=1
M  V30 9 O 37.867403 31.884359 57.698128 0
M  V30 10 C 38.898527 32.591846 55.682214 0
M  V30 11 N 39.867398 28.779887 51.286049 0
M  V30 12 C 38.109083 27.952064 54.646113 0
M  V30 13 H 39.763585 28.983444 55.549215 0
M  V30 14 H 37.318811 29.890086 57.785215 0
M  V30 15 H 39.600541 31.103267 57.053475 0
M  V30 16 H 37.913467 29.025268 51.973887 0
M  V30 17 H 37.025592 32.946638 55.169626 0
M  V30 18 H 37.034336 30.399359 55.527084 0
M  V30 19 H 36.960873 32.020873 57.400923 0
M  V30 20 H 39.820656 32.421304 55.130299 0
M  V30 21 H 39.055680 33.510352 56.248544 0
M  V30 22 H 39.574708 28.087810 50.611208 0
M  V30 23 H 39.867464 29.669798 50.807915 0
M  V30 24 H 38.108377 27.228300 55.461464 0
M  V30 25 H 37.067419 28.165803 54.404497 0
M  V30 END ATOM
M  V30 BEGIN BOND
M  V30 1 1 5 4
M  V30 2 1 6 1
M  V30 3 1 6 5
M  V30 4 1 8 1
M  V30 5 1 8 2
M  V30 6 1 8 3
M  V30 7 1 9 3
M  V30 8 1 10 3
M  V30 9 1 10 7
M  V30 10 1 11 5
M  V30 11 1 12 1
M  V30 12 1 12 4
M  V30 13 1 1 13 CFG=1
M  V30 14 1 14 2
M  V30 15 1 3 15 CFG=1
M  V30 16 1 5 16 CFG=3
M  V30 17 1 17 7
M  V30 18 1 8 18 CFG=3
M  V30 19 1 19 9
M  V30 20 1 20 10
M  V30 21 1 21 10
M  V30 22 1 22 11
M  V30 23 1 23 11
M  V30 24 1 24 12
M  V30 25 1 25 12
M  V30 END BOND
M  V30 END CTAB
M  END
>  <i_epik_Tot_Q>  (1) 
0

>  <i_epik_Tot_abs_Q>  (1) 
0

>  <i_i_glide_confnum>  (1) 
9

>  <i_i_glide_lignum>  (1) 
138

>  <i_i_glide_posenum>  (1) 
54

>  <i_i_glide_rotatable_bonds>  (1) 
6

>  <i_lp_mmshare_version>  (1) 
72125

>  <i_m_source_file_index>  (1) 
53

>  <i_f3d_flags>  (1) 
0

>  <num_sample>  (1) 
100

>  <b_lp_Chiralities_Consistent>  (1) 
1

>  <r_epik_Charging_Adjusted_Penalty>  (1) 
0.012458627256782779

>  <r_epik_Ionization_Penalty>  (1) 
0.012459545935989014

>  <r_epik_Ionization_Penalty_Charging>  (1) 
0

>  <r_epik_Ionization_Penalty_Neutral>  (1) 
0.012459545935989014

>  <r_epik_State_Penalty>  (1) 
0.012458627256782779

>  <r_glide_ring_energy>  (1) 
0

>  <r_i_docking_score>  (1) 
-4.9083659001636653

>  <r_i_glide_ecoul>  (1) 
-7.5672968461083023

>  <r_i_glide_eff_state_penalty>  (1) 
0.012458627256782779

>  <r_i_glide_einternal>  (1) 
7.490974656798933

>  <r_i_glide_emodel>  (1) 
-35.889072815326529

>  <r_i_glide_emodel_strain>  (1) 
0.21161612089180792

>  <r_i_glide_energy>  (1) 
-29.425811325026917

>  <r_i_glide_erotb>  (1) 
1.1173698675060917

>  <r_i_glide_esite>  (1) 
0

>  <r_i_glide_evdw>  (1) 
-21.858514478918615

>  <r_i_glide_gscore>  (1) 
-4.9208245274204483

>  <r_i_glide_gscore_strain>  (1) 
0

>  <r_i_glide_hbond>  (1) 
-0.30399999999999999

>  <r_i_glide_ligand_efficiency>  (1) 
-0.40903049168030542

>  <r_i_glide_ligand_efficiency_ln>  (1) 
-1.4084640977290623

>  <r_i_glide_ligand_efficiency_sa>  (1) 
-0.9364460589300756

>  <r_i_glide_lipo>  (1) 
-1.3574481887080874

>  <r_i_glide_metal>  (1) 
-0

>  <r_i_glide_rewards>  (1) 
-2.148725955356277

>  <r_lp_Energy>  (1) 
-4.7131299999999996

>  <s_epik_Chemistry_Notes>  (1) 
This compound contains an acetal/aminal-like group ( X-CH(R)-Y where X, Y are N, S, or O) that may be acid/base labile, releasing an aldehyde.

>  <s_epik_cmdline>  (1) 
J2VwaWtfcHl0aG9uJywgJy1waHQnLCAnMS4wJywgJy1waCcsICc3LjQnLCAnLXRuJywgJzgnLCAnLW1hJywgJzUwMCcsICctaW1hZScsICc8aW5maWxlLm1hZT4nLCAnLW9tYWUnLCAnPG91dGZpbGUubWFlPic=

>  <s_epik_input>  (1) 
W0NIMl0xU1tDQEhdKFtOSDJdKVNbQ0BIXTFbQ0BASF0oW09IXSlbQ0BIXShbT0hdKVtDSDJdW09IXQ==

>  <s_glide_docking_method>  (1) 
confgen

>  <s_i_glide_gridfile>  (1) 
gpcr_5ht2c_6bqh_protein_autoprepared_prepared

>  <s_lp_Force_Field>  (1) 
S-OPLS

>  <s_lp_Variant>  (1) 
DiffSBDD_52_num_sample_100-1

>  <s_m_source_file>  (1) 
generated__ligand_DiffSBDD_2026-05-06_prepared.sdf

>  <GenAI_Model>  (1) 
DiffSBDD

>  <Protein>  (1) 
GPCR_5HT2C

$$$$
DiffSBDD_93_num_sample_100
     RDKit          3D

  0  0  0  0  0  0  0  0  0  0999 V3000
M  V30 BEGIN CTAB
M  V30 COUNTS 74 77 0 0 1
M  V30 BEGIN ATOM
M  V30 1 C 38.906209 30.041493 58.611854 0
M  V30 2 S 41.072566 32.259026 65.124777 0
M  V30 3 C 38.127630 29.489508 56.257618 0 CFG=2
M  V30 4 O 40.634020 36.821676 62.879802 0
M  V30 5 C 43.324738 27.941495 67.183612 0
M  V30 6 C 40.000648 34.105308 62.256092 0 CFG=1
M  V30 7 C 41.085619 30.081824 67.655809 0
M  V30 8 C 40.441233 29.573552 65.335679 0
M  V30 9 C 37.929864 28.055522 56.766749 0
M  V30 10 N 39.769292 30.682530 63.324574 0
M  V30 11 C 43.864870 28.771521 68.344558 0
M  V30 12 C 38.363250 30.426442 57.427981 0
M  V30 13 C 39.118137 31.047755 59.687014 0
M  V30 14 C 39.903554 31.517137 62.129569 0 CFG=1
M  V30 15 C 39.143068 27.654034 57.588838 0
M  V30 16 Cl 41.067342 28.420625 59.225041 0
M  V30 17 O 42.085703 28.744638 69.986816 0
M  V30 18 C 39.335676 28.570303 58.815300 0 CFG=1
M  V30 19 C 38.859683 32.527990 59.406974 0
M  V30 20 C 41.860996 33.394626 63.940228 0
M  V30 21 C 39.095734 35.290409 61.878164 0
M  V30 22 C 39.569838 30.629399 60.910473 0
M  V30 23 C 42.233886 30.659068 68.460036 0
M  V30 24 C 40.881339 34.490844 63.476558 0 CFG=1
M  V30 25 C 40.871286 30.642937 64.286930 0 CFG=1
M  V30 26 C 42.953550 29.581700 69.245248 0 CFG=2
M  V30 27 C 41.594592 35.821669 63.179181 0
M  V30 28 C 39.927580 36.553422 61.682666 0
M  V30 29 C 42.271373 28.239018 66.374499 0
M  V30 30 S 42.309543 29.923126 63.453804 0
M  V30 31 N 41.394936 29.341497 66.430757 0
M  V30 32 C 36.999555 29.983381 55.341051 0
M  V30 33 C 39.142003 32.828484 62.424438 0
M  V30 34 H 39.038677 29.517141 55.658503 0
M  V30 35 H 43.885408 27.043432 66.970795 0
M  V30 36 H 40.702541 33.958186 61.437222 0
M  V30 37 H 40.431347 30.915801 67.406749 0
M  V30 38 H 40.457969 29.442020 68.275482 0
M  V30 39 H 40.267743 28.623410 64.829397 0
M  V30 40 H 39.473036 29.848857 65.758136 0
M  V30 41 H 37.067026 27.992129 57.425118 0
M  V30 42 H 37.779094 27.360282 55.940439 0
M  V30 43 H 39.519512 29.733200 63.081936 0
M  V30 44 H 44.627688 29.428939 67.925313 0
M  V30 45 H 44.419817 28.079307 68.978817 0
M  V30 46 H 38.066245 31.449066 57.273651 0
M  V30 47 H 40.954845 31.748210 61.982967 0
M  V30 48 H 39.064689 26.614767 57.908394 0
M  V30 49 H 40.020040 27.701020 56.940670 0
M  V30 50 H 41.560951 28.241042 69.379801 0
M  V30 51 H 38.760843 28.159937 59.646685 0
M  V30 52 H 39.036492 32.809225 58.371386 0
M  V30 53 H 37.843377 32.819402 59.673346 0
M  V30 54 H 39.577377 33.153315 59.908696 0
M  V30 55 H 42.666948 33.862689 64.503370 0
M  V30 56 H 42.349679 32.879130 63.115467 0
M  V30 57 H 38.353407 35.472514 62.653678 0
M  V30 58 H 38.541156 35.076521 60.964209 0
M  V30 59 H 39.733380 29.578330 61.068408 0
M  V30 60 H 41.824467 31.380896 69.167864 0
M  V30 61 H 42.918773 31.216346 67.818214 0
M  V30 62 H 40.267354 34.721914 64.338101 0
M  V30 63 H 43.588714 30.080236 69.978885 0
M  V30 64 H 42.190028 36.140443 64.035095 0
M  V30 65 H 42.266646 35.735221 62.334359 0
M  V30 66 H 39.282079 37.400965 61.453021 0
M  V30 67 H 40.623511 36.421462 60.853139 0
M  V30 68 H 42.038090 27.577412 65.552560 0
M  V30 69 H 42.944304 29.596929 64.585947 0
M  V30 70 H 37.204034 30.991380 54.976654 0
M  V30 71 H 36.892206 29.338686 54.468948 0
M  V30 72 H 36.040078 30.021509 55.853345 0
M  V30 73 H 38.805441 32.832534 63.453369 0
M  V30 74 H 38.210888 32.871739 61.866186 0
M  V30 END ATOM
M  V30 BEGIN BOND
M  V30 1 1 9 3
M  V30 2 1 11 5
M  V30 3 2 12 1
M  V30 4 1 12 3
M  V30 5 1 13 1
M  V30 6 1 14 10
M  V30 7 1 15 9
M  V30 8 1 18 1
M  V30 9 1 18 15
M  V30 10 1 18 16
M  V30 11 1 19 13
M  V30 12 1 20 2
M  V30 13 1 21 6
M  V30 14 2 22 13
M  V30 15 1 22 14
M  V30 16 1 23 7
M  V30 17 1 24 6
M  V30 18 1 24 20
M  V30 19 1 25 2
M  V30 20 1 25 8
M  V30 21 1 25 10
M  V30 22 1 26 11
M  V30 23 1 26 17
M  V30 24 1 26 23
M  V30 25 1 27 4
M  V30 26 1 27 24
M  V30 27 1 28 4
M  V30 28 1 28 21
M  V30 29 2 29 5
M  V30 30 1 25 30 CFG=3
M  V30 31 1 31 7
M  V30 32 1 31 8
M  V30 33 1 31 29
M  V30 34 1 32 3
M  V30 35 1 33 6
M  V30 36 1 33 14
M  V30 37 1 3 34 CFG=3
M  V30 38 1 35 5
M  V30 39 1 6 36 CFG=3
M  V30 40 1 37 7
M  V30 41 1 38 7
M  V30 42 1 39 8
M  V30 43 1 40 8
M  V30 44 1 41 9
M  V30 45 1 42 9
M  V30 46 1 43 10
M  V30 47 1 44 11
M  V30 48 1 45 11
M  V30 49 1 46 12
M  V30 50 1 14 47 CFG=3
M  V30 51 1 48 15
M  V30 52 1 49 15
M  V30 53 1 50 17
M  V30 54 1 18 51 CFG=1
M  V30 55 1 52 19
M  V30 56 1 53 19
M  V30 57 1 54 19
M  V30 58 1 55 20
M  V30 59 1 56 20
M  V30 60 1 57 21
M  V30 61 1 58 21
M  V30 62 1 59 22
M  V30 63 1 60 23
M  V30 64 1 61 23
M  V30 65 1 24 62 CFG=1
M  V30 66 1 26 63 CFG=1
M  V30 67 1 64 27
M  V30 68 1 65 27
M  V30 69 1 66 28
M  V30 70 1 67 28
M  V30 71 1 68 29
M  V30 72 1 69 30
M  V30 73 1 70 32
M  V30 74 1 71 32
M  V30 75 1 72 32
M  V30 76 1 73 33
M  V30 77 1 74 33
M  V30 END BOND
M  V30 END CTAB
M  END
>  <i_epik_Tot_Q>  (1) 
0

>  <i_epik_Tot_abs_Q>  (1) 
0

>  <i_i_glide_confnum>  (1) 
56

>  <i_i_glide_lignum>  (1) 
253

>  <i_i_glide_posenum>  (1) 
330

>  <i_i_glide_rotatable_bonds>  (1) 
6

>  <i_lp_mmshare_version>  (1) 
72125

>  <i_m_source_file_index>  (1) 
94

>  <i_f3d_flags>  (1) 
0

>  <num_sample>  (1) 
100

>  <b_lp_Chiralities_Consistent>  (1) 
1

>  <r_epik_Charging_Adjusted_Penalty>  (1) 
0.20325292957253988

>  <r_epik_Ionization_Penalty>  (1) 
0.031936562948065232

>  <r_epik_Ionization_Penalty_Charging>  (1) 
3.6030848355623751e-07

>  <r_epik_Ionization_Penalty_Neutral>  (1) 
0.031936202639581676

>  <r_epik_State_Penalty>  (1) 
0.20325256926405633

>  <r_glide_ring_energy>  (1) 
0

>  <r_i_docking_score>  (1) 
-4.905694758669715

>  <r_i_glide_ecoul>  (1) 
-2.709449522389725

>  <r_i_glide_eff_state_penalty>  (1) 
0.20325256926405633

>  <r_i_glide_einternal>  (1) 
18.623068619447476

>  <r_i_glide_emodel>  (1) 
-32.128810011868708

>  <r_i_glide_emodel_strain>  (1) 
2.3944395463132082

>  <r_i_glide_energy>  (1) 
-35.783111597619012

>  <r_i_glide_erotb>  (1) 
0.31140238833871409

>  <r_i_glide_esite>  (1) 
0

>  <r_i_glide_evdw>  (1) 
-33.073662075229286

>  <r_i_glide_gscore>  (1) 
-5.1089473279337714

>  <r_i_glide_gscore_strain>  (1) 
0

>  <r_i_glide_hbond>  (1) 
-0.038782703705858373

>  <r_i_glide_ligand_efficiency>  (1) 
-0.14865741692938531

>  <r_i_glide_ligand_efficiency_ln>  (1) 
-1.0910011140000806

>  <r_i_glide_ligand_efficiency_sa>  (1) 
-0.47682376820950617

>  <r_i_glide_lipo>  (1) 
-2.7818692190801082

>  <r_i_glide_metal>  (1) 
-0

>  <r_i_glide_rewards>  (1) 
-0.5395972613665968

>  <r_lp_Energy>  (1) 
31.372437999999999

>  <s_epik_Chemistry_Notes>  (1) 
This compound has an imine and may undergo hydrolysis.

>  <s_epik_cmdline>  (1) 
J2VwaWtfcHl0aG9uJywgJy1waHQnLCAnMS4wJywgJy1waCcsICc3LjQnLCAnLXRuJywgJzgnLCAnLW1hJywgJzUwMCcsICctaW1hZScsICc8aW5maWxlLm1hZT4nLCAnLW9tYWUnLCAnPG91dGZpbGUubWFlPic=

>  <s_epik_input>  (1) 
Q2xbQ0BIXTFbQ0gyXVtDSDJdW0NAQEhdKFtDSDNdKVtDSF09QzEvQyhbQ0gzXSk9W0NIXS9bQ0BASF0oW0NIMl0yKVtOSF1bQ0BAXShbU0hdKShTW0NIMl1bQ0BIXShbQ0BASF0yMylbQ0gyXU9bQ0gyXVtDSDJdMylbQ0gyXU4oW0NIMl1bQ0gyXTQpW0NIXT1bQ0hdW0NIMl1bQ0BASF00W09IXQ==

>  <s_glide_docking_method>  (1) 
confgen

>  <s_i_glide_gridfile>  (1) 
gpcr_5ht2c_6bqh_protein_autoprepared_prepared

>  <s_lp_Force_Field>  (1) 
S-OPLS

>  <s_lp_Variant>  (1) 
DiffSBDD_93_num_sample_100-5

>  <s_m_source_file>  (1) 
generated__ligand_DiffSBDD_2026-05-06_prepared.sdf

>  <GenAI_Model>  (1) 
DiffSBDD

>  <Protein>  (1) 
GPCR_5HT2C

$$$$
DiffSBDD_23_num_sample_100
     RDKit          3D

  0  0  0  0  0  0  0  0  0  0999 V3000
M  V30 BEGIN CTAB
M  V30 COUNTS 83 87 0 0 1
M  V30 BEGIN ATOM
M  V30 1 C 37.671982 26.291843 53.772676 0
M  V30 2 C 37.660327 32.256718 59.052878 0
M  V30 3 C 37.718623 34.578820 60.884293 0
M  V30 4 O 41.467454 35.633337 62.428374 0
M  V30 5 N 39.543622 31.937604 63.053482 0
M  V30 6 C 37.838739 30.738278 57.037511 0
M  V30 7 C 39.483619 29.651666 53.765282 0
M  V30 8 N 38.533051 32.310771 60.249732 0
M  V30 9 C 40.046953 33.992136 61.370666 0
M  V30 10 C 37.931903 35.859834 61.426942 0
M  V30 11 C 40.795193 28.742800 61.650583 0
M  V30 12 C 40.476096 29.944273 62.533544 0
M  V30 13 C 39.262525 28.148658 53.993030 0 CFG=2
M  V30 14 C 40.839043 30.157599 63.736564 0
M  V30 15 N 37.851194 27.744890 53.697351 0 CFG=1 CHG=1
M  V30 16 C 38.521094 33.144801 56.825344 0
M  V30 17 C 41.867428 34.853675 63.543189 0
M  V30 18 C 40.246942 35.280073 61.920361 0
M  V30 19 C 38.457870 31.929145 57.752968 0 CFG=1
M  V30 20 C 37.424081 26.589423 57.503563 0
M  V30 21 C 39.682223 31.048649 62.124061 0
M  V30 22 C 39.296719 28.861508 56.515472 0
M  V30 23 C 36.825031 23.779079 56.259394 0
M  V30 24 O 39.496943 28.621851 57.702648 0
M  V30 25 C 38.131922 24.371276 56.811867 0
M  V30 26 C 38.768935 33.625634 60.863978 0
M  V30 27 C 39.044181 31.082093 60.698180 0
M  V30 28 C 37.368275 28.177354 52.361874 0
M  V30 29 C 40.327525 31.448915 64.308314 0
M  V30 30 C 39.553067 26.368791 55.972547 0
M  V30 31 C 37.175005 25.771226 55.103447 0 CFG=2
M  V30 32 C 39.190598 36.208027 61.945256 0
M  V30 33 C 38.515471 30.370705 54.684846 0
M  V30 34 C 38.114711 25.839345 56.331520 0 CFG=2
M  V30 35 C 36.827842 24.298084 54.870517 0
M  V30 36 O 38.955423 30.052053 60.036704 0
M  V30 37 N 38.627956 29.968895 56.098707 0
M  V30 38 C 39.747105 27.842668 55.450711 0 CFG=1
M  V30 39 H 36.921383 25.972599 53.053496 0
M  V30 40 H 38.594116 25.812142 53.480990 0
M  V30 41 H 37.090401 33.162092 58.867283 0
M  V30 42 H 36.880436 31.518515 59.244154 0
M  V30 43 H 36.745371 34.326158 60.495823 0
M  V30 44 H 37.067406 31.115989 56.400218 0
M  V30 45 H 37.349384 30.058452 57.737360 0
M  V30 46 H 40.489521 29.984130 54.030875 0
M  V30 47 H 39.371620 29.960368 52.728508 0
M  V30 48 H 40.868081 33.293621 61.334833 0
M  V30 49 H 37.124480 36.576729 61.446148 0
M  V30 50 H 41.150955 29.030471 60.661178 0
M  V30 51 H 39.918022 28.102811 61.544585 0
M  V30 52 H 41.580550 28.141005 62.108632 0
M  V30 53 H 39.867412 27.599574 53.275886 0
M  V30 54 H 41.450743 29.485111 64.319562 0
M  V30 55 H 37.590385 33.300340 56.277724 0
M  V30 56 H 39.340851 33.073536 56.110621 0
M  V30 57 H 38.667501 34.021448 57.435185 0
M  V30 58 H 42.651977 35.381115 64.087538 0
M  V30 59 H 42.268634 33.891562 63.224876 0
M  V30 60 H 41.039650 34.676773 64.233650 0
M  V30 61 H 39.467385 31.656551 58.001263 0
M  V30 62 H 37.103031 27.595577 57.250668 0
M  V30 63 H 38.077817 26.652432 58.373307 0
M  V30 64 H 36.522656 26.080413 57.845732 0
M  V30 65 H 35.955032 24.282926 56.653497 0
M  V30 66 H 36.667409 22.704532 56.346430 0
M  V30 67 H 38.990569 23.857288 56.390084 0
M  V30 68 H 38.208133 24.263852 57.894224 0
M  V30 69 H 37.862205 27.623853 51.560975 0
M  V30 70 H 37.502416 29.221368 52.155408 0
M  V30 71 H 36.293730 28.021457 52.288420 0
M  V30 72 H 41.132827 32.127839 64.586576 0
M  V30 73 H 39.678314 31.257931 65.162872 0
M  V30 74 H 40.169036 26.248814 56.865394 0
M  V30 75 H 40.016376 25.688913 55.256643 0
M  V30 76 H 36.267459 26.286127 55.406080 0
M  V30 77 H 39.347883 37.190828 62.363894 0
M  V30 78 H 38.705360 31.440656 54.601667 0
M  V30 79 H 37.483295 30.239451 54.357884 0
M  V30 80 H 37.600808 23.785600 54.300050 0
M  V30 81 H 35.872747 24.160940 54.366753 0
M  V30 82 H 40.824610 27.981257 55.453575 0
M  V30 83 H 37.250887 28.174049 54.387794 0
M  V30 END ATOM
M  V30 BEGIN BOND
M  V30 1 1 8 2
M  V30 2 1 10 3
M  V30 3 1 12 11
M  V30 4 1 13 7
M  V30 5 2 14 12
M  V30 6 1 15 1
M  V30 7 1 15 13
M  V30 8 1 17 4
M  V30 9 1 18 4
M  V30 10 2 18 9
M  V30 11 1 19 2
M  V30 12 1 19 6
M  V30 13 1 19 16
M  V30 14 2 21 5
M  V30 15 1 21 12
M  V30 16 2 24 22
M  V30 17 1 25 23
M  V30 18 2 26 3
M  V30 19 1 26 8
M  V30 20 1 26 9
M  V30 21 1 27 8
M  V30 22 1 27 21
M  V30 23 1 28 15
M  V30 24 1 29 5
M  V30 25 1 29 14
M  V30 26 1 31 1
M  V30 27 2 32 10
M  V30 28 1 32 18
M  V30 29 1 33 7
M  V30 30 1 34 20 CFG=1
M  V30 31 1 34 25
M  V30 32 1 34 30
M  V30 33 1 34 31
M  V30 34 1 35 23
M  V30 35 1 35 31
M  V30 36 2 36 27
M  V30 37 1 37 6
M  V30 38 1 37 22
M  V30 39 1 37 33
M  V30 40 1 38 13
M  V30 41 1 38 22
M  V30 42 1 38 30
M  V30 43 1 39 1
M  V30 44 1 40 1
M  V30 45 1 41 2
M  V30 46 1 42 2
M  V30 47 1 43 3
M  V30 48 1 44 6
M  V30 49 1 45 6
M  V30 50 1 46 7
M  V30 51 1 47 7
M  V30 52 1 48 9
M  V30 53 1 49 10
M  V30 54 1 50 11
M  V30 55 1 51 11
M  V30 56 1 52 11
M  V30 57 1 13 53 CFG=3
M  V30 58 1 54 14
M  V30 59 1 55 16
M  V30 60 1 56 16
M  V30 61 1 57 16
M  V30 62 1 58 17
M  V30 63 1 59 17
M  V30 64 1 60 17
M  V30 65 1 19 61 CFG=1
M  V30 66 1 62 20
M  V30 67 1 63 20
M  V30 68 1 64 20
M  V30 69 1 65 23
M  V30 70 1 66 23
M  V30 71 1 67 25
M  V30 72 1 68 25
M  V30 73 1 69 28
M  V30 74 1 70 28
M  V30 75 1 71 28
M  V30 76 1 72 29
M  V30 77 1 73 29
M  V30 78 1 74 30
M  V30 79 1 75 30
M  V30 80 1 31 76 CFG=1
M  V30 81 1 77 32
M  V30 82 1 78 33
M  V30 83 1 79 33
M  V30 84 1 80 35
M  V30 85 1 81 35
M  V30 86 1 38 82 CFG=3
M  V30 87 1 15 83 CFG=1
M  V30 END BOND
M  V30 END CTAB
M  END
>  <i_epik_Tot_Q>  (1) 
1

>  <i_epik_Tot_abs_Q>  (1) 
1

>  <i_i_glide_confnum>  (1) 
432

>  <i_i_glide_lignum>  (1) 
60

>  <i_i_glide_posenum>  (1) 
271

>  <i_i_glide_rotatable_bonds>  (1) 
8

>  <i_lp_mmshare_version>  (1) 
72125

>  <i_m_source_file_index>  (1) 
24

>  <i_f3d_flags>  (1) 
0

>  <num_sample>  (1) 
100

>  <b_lp_Chiralities_Consistent>  (1) 
1

>  <r_epik_Charging_Adjusted_Penalty>  (1) 
0.0029773975431382485

>  <r_epik_Ionization_Penalty>  (1) 
0.013183626931022738

>  <r_epik_Ionization_Penalty_Charging>  (1) 
0.0029773975431382485

>  <r_epik_Ionization_Penalty_Neutral>  (1) 
0.010206229387884489

>  <r_epik_State_Penalty>  (1) 
-0

>  <r_glide_ring_energy>  (1) 
0

>  <r_i_docking_score>  (1) 
-4.9004696507499439

>  <r_i_glide_ecoul>  (1) 
-0.66897748126640488

>  <r_i_glide_eff_state_penalty>  (1) 
-0

>  <r_i_glide_einternal>  (1) 
34.634551744730182

>  <r_i_glide_emodel>  (1) 
-25.904045357294592

>  <r_i_glide_emodel_strain>  (1) 
7.8846829223128623

>  <r_i_glide_energy>  (1) 
-42.502322943172089

>  <r_i_glide_erotb>  (1) 
0.5287100460970352

>  <r_i_glide_esite>  (1) 
-0.0055410749369192436

>  <r_i_glide_evdw>  (1) 
-41.833345461905687

>  <r_i_glide_gscore>  (1) 
-4.9004696507499439

>  <r_i_glide_gscore_strain>  (1) 
0.97117073057821557

>  <r_i_glide_hbond>  (1) 
0

>  <r_i_glide_ligand_efficiency>  (1) 
-0.1289597276513143

>  <r_i_glide_ligand_efficiency_ln>  (1) 
-1.0566854139134891

>  <r_i_glide_ligand_efficiency_sa>  (1) 
-0.43355943283121107

>  <r_i_glide_lipo>  (1) 
-4.4894521518990294

>  <r_i_glide_metal>  (1) 
-0

>  <r_i_glide_rewards>  (1) 
0.28665669469599853

>  <r_lp_Energy>  (1) 
93.987067999999994

>  <r_lp_tautomer_probability>  (1) 
1

>  <s_epik_Chemistry_Notes>  (1) 
This compound has an imine and may undergo hydrolysis.

>  <s_epik_cmdline>  (1) 
J2VwaWtfcHl0aG9uJywgJy1waHQnLCAnMS4wJywgJy1waCcsICc3LjQnLCAnLXRuJywgJzgnLCAnLW1hJywgJzUwMCcsICctaW1hZScsICc8aW5maWxlLm1hZT4nLCAnLW9tYWUnLCAnPG91dGZpbGUubWFlPic=

>  <s_epik_input>  (1) 
W0NIMl0xW0NIMl1bQ0gyXVtDQEBIXShbQ0BAXTEyW0NIM10pW0NIMl1OKFtDSDNdKVtDQEhdM1tDQEhdKFtDSDJdMilDKD1PKU4oW0NIMl1bQ0gyXTMpW0NIMl1bQ0BASF0oW0NIM10pW0NIMl1OKGMoW2NIXVtjSF1bY0hdNClbY0hdYzRPW0NIM10pQyg9TylDNT1OW0NIMl1bQ0hdPUM1W0NIM10=

>  <s_glide_docking_method>  (1) 
confgen

>  <s_i_glide_gridfile>  (1) 
gpcr_5ht2c_6bqh_protein_autoprepared_prepared

>  <s_lp_Force_Field>  (1) 
S-OPLS

>  <s_lp_Variant>  (1) 
DiffSBDD_23_num_sample_100-3

>  <s_m_source_file>  (1) 
generated__ligand_DiffSBDD_2026-05-06_prepared.sdf

>  <GenAI_Model>  (1) 
DiffSBDD

>  <Protein>  (1) 
GPCR_5HT2C

$$$$
DiffSBDD_81_num_sample_100
     RDKit          3D

  0  0  0  0  0  0  0  0  0  0999 V3000
M  V30 BEGIN CTAB
M  V30 COUNTS 56 57 0 0 1
M  V30 BEGIN ATOM
M  V30 1 N 39.199875 28.568214 58.213168 0 CHG=1
M  V30 2 C 38.283756 26.574876 55.712301 0
M  V30 3 C 37.580166 30.473538 58.025098 0
M  V30 4 C 38.062634 32.895741 57.229350 0
M  V30 5 S 36.276498 34.021371 59.062014 0
M  V30 6 C 38.810113 33.600292 59.535359 0
M  V30 7 C 39.055929 30.895190 55.906799 0
M  V30 8 C 37.862034 33.481018 58.621856 0
M  V30 9 C 38.843156 28.272080 54.090787 0 CFG=2
M  V30 10 O 39.069098 30.020879 59.902865 0
M  V30 11 O 36.267618 34.821230 61.646212 0
M  V30 12 C 38.754750 27.238763 52.937381 0
M  V30 13 C 38.556180 31.428196 57.271538 0 CFG=2
M  V30 14 C 38.488775 34.180188 60.879493 0
M  V30 15 C 39.050929 27.721257 51.511319 0
M  V30 16 O 37.996428 27.856189 55.164820 0
M  V30 17 O 40.221510 28.518960 51.452470 0
M  V30 18 C 38.235276 29.418826 58.934586 0 CFG=2
M  V30 19 C 36.960902 34.412130 60.720643 0
M  V30 20 C 37.987895 30.622850 54.826298 0
M  V30 21 C 38.478879 29.720719 53.662740 0 CFG=1
M  V30 22 C 39.652836 30.410324 52.919619 0
M  V30 23 C 39.587852 27.324079 58.909462 0
M  V30 24 C 39.945964 29.910418 51.495055 0
M  V30 25 H 38.784968 28.321831 57.323690 0
M  V30 26 H 37.682966 26.425537 56.608899 0
M  V30 27 H 38.033523 25.768081 55.023383 0
M  V30 28 H 39.335090 26.482644 55.987083 0
M  V30 29 H 36.901555 29.977507 57.335578 0
M  V30 30 H 36.907768 31.053799 58.655614 0
M  V30 31 H 38.786080 33.518762 56.703700 0
M  V30 32 H 37.131259 32.983954 56.668819 0
M  V30 33 H 39.824128 33.285705 59.341731 0
M  V30 34 H 39.786340 31.599166 55.505384 0
M  V30 35 H 39.625110 29.985346 56.077702 0
M  V30 36 H 39.858221 28.278478 54.486737 0
M  V30 37 H 38.631952 30.791415 60.237227 0
M  V30 38 H 37.752053 26.811368 52.918012 0
M  V30 39 H 39.436009 26.420994 53.166275 0
M  V30 40 H 39.467110 31.475656 57.854848 0
M  V30 41 H 38.703213 33.474567 61.682298 0
M  V30 42 H 39.021003 35.116179 61.050571 0
M  V30 43 H 38.184050 28.227036 51.083589 0
M  V30 44 H 39.211850 26.847457 50.878834 0
M  V30 45 H 37.467824 28.821884 59.424044 0
M  V30 46 H 37.093389 30.172522 55.249816 0
M  V30 47 H 37.643819 31.579701 54.430431 0
M  V30 48 H 37.628864 29.621457 52.993398 0
M  V30 49 H 39.461268 31.481701 52.848441 0
M  V30 50 H 40.559116 30.324806 53.518557 0
M  V30 51 H 40.323962 26.780445 58.316793 0
M  V30 52 H 40.032586 27.537794 59.882231 0
M  V30 53 H 38.721995 26.676856 59.052425 0
M  V30 54 H 39.146458 30.171451 50.799954 0
M  V30 55 H 40.831058 30.428585 51.124301 0
M  V30 56 H 40.024502 29.122937 58.040655 0
M  V30 END ATOM
M  V30 BEGIN BOND
M  V30 1 1 8 4
M  V30 2 1 8 5
M  V30 3 2 8 6
M  V30 4 1 12 9
M  V30 5 1 13 3
M  V30 6 1 13 4
M  V30 7 1 13 7
M  V30 8 1 14 6
M  V30 9 1 15 12
M  V30 10 1 16 2
M  V30 11 1 16 9
M  V30 12 1 17 15
M  V30 13 1 18 1
M  V30 14 1 18 3
M  V30 15 1 18 10
M  V30 16 1 19 5
M  V30 17 2 19 11
M  V30 18 1 19 14
M  V30 19 1 20 7
M  V30 20 1 21 9
M  V30 21 1 21 20
M  V30 22 1 22 21
M  V30 23 1 23 1
M  V30 24 1 24 17
M  V30 25 1 24 22
M  V30 26 1 25 1
M  V30 27 1 26 2
M  V30 28 1 27 2
M  V30 29 1 28 2
M  V30 30 1 29 3
M  V30 31 1 30 3
M  V30 32 1 31 4
M  V30 33 1 32 4
M  V30 34 1 33 6
M  V30 35 1 34 7
M  V30 36 1 35 7
M  V30 37 1 9 36 CFG=1
M  V30 38 1 37 10
M  V30 39 1 38 12
M  V30 40 1 39 12
M  V30 41 1 13 40 CFG=1
M  V30 42 1 41 14
M  V30 43 1 42 14
M  V30 44 1 43 15
M  V30 45 1 44 15
M  V30 46 1 18 45 CFG=1
M  V30 47 1 46 20
M  V30 48 1 47 20
M  V30 49 1 21 48 CFG=3
M  V30 50 1 49 22
M  V30 51 1 50 22
M  V30 52 1 51 23
M  V30 53 1 52 23
M  V30 54 1 53 23
M  V30 55 1 54 24
M  V30 56 1 55 24
M  V30 57 1 56 1
M  V30 END BOND
M  V30 END CTAB
M  END
>  <i_epik_Tot_Q>  (1) 
1

>  <i_epik_Tot_abs_Q>  (1) 
1

>  <i_i_glide_confnum>  (1) 
969

>  <i_i_glide_lignum>  (1) 
213

>  <i_i_glide_posenum>  (1) 
4

>  <i_i_glide_rotatable_bonds>  (1) 
10

>  <i_lp_mmshare_version>  (1) 
72125

>  <i_m_source_file_index>  (1) 
82

>  <i_f3d_flags>  (1) 
0

>  <num_sample>  (1) 
100

>  <b_lp_Chiralities_Consistent>  (1) 
1

>  <r_epik_Charging_Adjusted_Penalty>  (1) 
0.12825581378160511

>  <r_epik_Ionization_Penalty>  (1) 
0.099187303221023815

>  <r_epik_Ionization_Penalty_Charging>  (1) 
0.032441492902706343

>  <r_epik_Ionization_Penalty_Neutral>  (1) 
0.066745810318317472

>  <r_epik_State_Penalty>  (1) 
0.095814320878898754

>  <r_glide_ring_energy>  (1) 
0.093239952567165579

>  <r_i_docking_score>  (1) 
-4.8980843357169457

>  <r_i_glide_ecoul>  (1) 
-0.86991515095545102

>  <r_i_glide_eff_state_penalty>  (1) 
0.095814320878898754

>  <r_i_glide_einternal>  (1) 
6.6589508640313362

>  <r_i_glide_emodel>  (1) 
-44.208380927860503

>  <r_i_glide_emodel_strain>  (1) 
0.29695305682126616

>  <r_i_glide_energy>  (1) 
-34.690507687293739

>  <r_i_glide_erotb>  (1) 
0.89420468902182859

>  <r_i_glide_esite>  (1) 
0

>  <r_i_glide_evdw>  (1) 
-33.820592536338289

>  <r_i_glide_gscore>  (1) 
-4.9938986565958441

>  <r_i_glide_gscore_strain>  (1) 
0

>  <r_i_glide_hbond>  (1) 
0

>  <r_i_glide_ligand_efficiency>  (1) 
-0.20408684732153939

>  <r_i_glide_ligand_efficiency_ln>  (1) 
-1.172336339981775

>  <r_i_glide_ligand_efficiency_sa>  (1) 
-0.58868833570976775

>  <r_i_glide_lipo>  (1) 
-2.4724889699709722

>  <r_i_glide_metal>  (1) 
-0

>  <r_i_glide_rewards>  (1) 
-1.5940974761864668

>  <r_lp_Energy>  (1) 
15.540376999999999

>  <s_epik_Chemistry_Notes>  (1) 
This compound contains an acetal/aminal-like group ( X-CH(R)-Y where X, Y are N, S, or O) that may be acid/base labile, releasing an aldehyde.

>  <s_epik_cmdline>  (1) 
J2VwaWtfcHl0aG9uJywgJy1waHQnLCAnMS4wJywgJy1waCcsICc3LjQnLCAnLXRuJywgJzgnLCAnLW1hJywgJzUwMCcsICctaW1hZScsICc8aW5maWxlLm1hZT4nLCAnLW9tYWUnLCAnPG91dGZpbGUubWFlPic=

>  <s_epik_input>  (1) 
UzFDKD1PKVtDSDJdW0NIXT1DMVtDSDJdW0NAQEhdKFtDSDJdW0NASF0oW09IXSlbTkhdW0NIM10pW0NIMl1bQ0gyXVtDQEhdMltDSDJdW0NIMl1PW0NIMl1bQ0gyXVtDQEBIXTJPW0NIM10=

>  <s_glide_docking_method>  (1) 
confgen

>  <s_i_glide_gridfile>  (1) 
gpcr_5ht2c_6bqh_protein_autoprepared_prepared

>  <s_lp_Force_Field>  (1) 
S-OPLS

>  <s_lp_Variant>  (1) 
DiffSBDD_81_num_sample_100-1

>  <s_m_source_file>  (1) 
generated__ligand_DiffSBDD_2026-05-06_prepared.sdf

>  <GenAI_Model>  (1) 
DiffSBDD

>  <Protein>  (1) 
GPCR_5HT2C

$$$$
DiffSBDD_1_num_sample_100
     RDKit          3D

  0  0  0  0  0  0  0  0  0  0999 V3000
M  V30 BEGIN CTAB
M  V30 COUNTS 63 66 0 0 1
M  V30 BEGIN ATOM
M  V30 1 C 38.752765 27.158872 56.211052 0
M  V30 2 C 40.009339 34.992195 61.648329 0
M  V30 3 O 37.830596 25.197604 56.784481 0
M  V30 4 C 38.169393 33.355002 61.012881 0 CFG=1
M  V30 5 C 38.929437 28.625665 56.263884 0
M  V30 6 C 38.782169 31.099027 60.148300 0
M  V30 7 C 37.200474 37.036454 63.569055 0
M  V30 8 C 41.590182 36.009461 62.937398 0
M  V30 9 N 40.262656 36.429068 63.438207 0 CHG=1
M  V30 10 C 37.830447 33.208681 57.219978 0
M  V30 11 C 38.047440 29.419837 57.238063 0
M  V30 12 C 37.952369 36.426233 62.368376 0 CFG=2
M  V30 13 C 39.224188 35.611864 62.773242 0 CFG=1
M  V30 14 C 38.015398 31.427343 58.849215 0 CFG=2
M  V30 15 C 38.178583 31.908627 56.461320 0
M  V30 16 C 37.867713 26.531276 56.920981 0
M  V30 17 N 38.237006 31.899386 61.261616 0
M  V30 18 C 39.554253 33.981729 60.886100 0
M  V30 19 O 39.752317 29.221445 55.568021 0
M  V30 20 C 38.267345 37.454089 61.270934 0
M  V30 21 C 38.958203 24.981635 55.844091 0
M  V30 22 C 37.387695 33.665703 59.710875 0
M  V30 23 C 41.367551 35.576857 61.485463 0
M  V30 24 N 38.044838 32.886429 58.638891 0 CFG=2 CHG=1
M  V30 25 O 36.643954 31.119370 59.053495 0
M  V30 26 C 39.607743 26.357667 55.335064 0
M  V30 27 C 38.540232 30.849894 57.529836 0 CFG=2
M  V30 28 O 36.073886 37.779480 63.142946 0
M  V30 29 H 37.635042 33.782231 61.854030 0
M  V30 30 H 39.847267 31.294526 60.039678 0
M  V30 31 H 38.693740 30.035421 60.375653 0
M  V30 32 H 37.876742 37.621561 64.180395 0
M  V30 33 H 36.808376 36.283375 64.243778 0
M  V30 34 H 41.950639 35.169542 63.533810 0
M  V30 35 H 42.290160 36.821459 63.053488 0
M  V30 36 H 40.131709 37.396211 63.178981 0
M  V30 37 H 38.489774 34.021222 56.921583 0
M  V30 38 H 36.816141 33.564527 57.053708 0
M  V30 39 H 38.023384 28.877706 58.181915 0
M  V30 40 H 37.024347 29.442403 56.863444 0
M  V30 41 H 37.228101 35.760617 61.908651 0
M  V30 42 H 39.067410 34.791034 63.453463 0
M  V30 43 H 39.013037 32.067759 55.777981 0
M  V30 44 H 37.341929 31.584366 55.844711 0
M  V30 45 H 37.150662 26.934844 57.620725 0
M  V30 46 H 37.282679 31.576031 61.390638 0
M  V30 47 H 40.191632 33.582496 60.115157 0
M  V30 48 H 38.993829 38.200089 61.591261 0
M  V30 49 H 38.666010 36.929697 60.404415 0
M  V30 50 H 37.375640 37.978581 60.928159 0
M  V30 51 H 39.723686 24.419087 56.376904 0
M  V30 52 H 38.628564 24.372209 55.003855 0
M  V30 53 H 36.323878 33.441429 59.802866 0
M  V30 54 H 37.449443 34.729079 59.473796 0
M  V30 55 H 42.087456 34.882363 61.054689 0
M  V30 56 H 41.302577 36.448041 60.835447 0
M  V30 57 H 36.170770 31.267661 58.224654 0
M  V30 58 H 39.414265 26.555455 54.279730 0
M  V30 59 H 40.668014 26.448323 55.573285 0
M  V30 60 H 39.624609 30.820793 57.594720 0
M  V30 61 H 36.354558 38.508705 62.610948 0
M  V30 62 H 40.220148 36.356858 64.445781 0
M  V30 63 H 39.021644 33.101276 58.756913 0
M  V30 END ATOM
M  V30 BEGIN BOND
M  V30 1 1 5 1
M  V30 2 1 9 8
M  V30 3 1 11 5
M  V30 4 1 12 7
M  V30 5 1 13 2
M  V30 6 1 13 9
M  V30 7 1 13 12
M  V30 8 1 14 6
M  V30 9 1 15 10
M  V30 10 2 16 1
M  V30 11 1 16 3
M  V30 12 1 17 4
M  V30 13 1 17 6
M  V30 14 2 18 2
M  V30 15 1 18 4
M  V30 16 2 19 5
M  V30 17 1 20 12
M  V30 18 1 21 3
M  V30 19 1 22 4
M  V30 20 1 23 2
M  V30 21 1 23 8
M  V30 22 1 24 10
M  V30 23 1 24 14
M  V30 24 1 24 22
M  V30 25 1 14 25 CFG=1
M  V30 26 1 26 1
M  V30 27 1 26 21
M  V30 28 1 27 11
M  V30 29 1 27 14
M  V30 30 1 27 15
M  V30 31 1 28 7
M  V30 32 1 4 29 CFG=1
M  V30 33 1 30 6
M  V30 34 1 31 6
M  V30 35 1 32 7
M  V30 36 1 33 7
M  V30 37 1 34 8
M  V30 38 1 35 8
M  V30 39 1 36 9
M  V30 40 1 37 10
M  V30 41 1 38 10
M  V30 42 1 39 11
M  V30 43 1 40 11
M  V30 44 1 12 41 CFG=3
M  V30 45 1 13 42 CFG=1
M  V30 46 1 43 15
M  V30 47 1 44 15
M  V30 48 1 45 16
M  V30 49 1 46 17
M  V30 50 1 47 18
M  V30 51 1 48 20
M  V30 52 1 49 20
M  V30 53 1 50 20
M  V30 54 1 51 21
M  V30 55 1 52 21
M  V30 56 1 53 22
M  V30 57 1 54 22
M  V30 58 1 55 23
M  V30 59 1 56 23
M  V30 60 1 57 25
M  V30 61 1 58 26
M  V30 62 1 59 26
M  V30 63 1 27 60 CFG=1
M  V30 64 1 61 28
M  V30 65 1 62 9
M  V30 66 1 24 63 CFG=1
M  V30 END BOND
M  V30 END CTAB
M  END
>  <i_epik_Tot_Q>  (1) 
2

>  <i_epik_Tot_abs_Q>  (1) 
2

>  <i_i_glide_confnum>  (1) 
28

>  <i_i_glide_lignum>  (1) 
13

>  <i_i_glide_posenum>  (1) 
265

>  <i_i_glide_rotatable_bonds>  (1) 
8

>  <i_lp_mmshare_version>  (1) 
72125

>  <i_m_source_file_index>  (1) 
2

>  <i_f3d_flags>  (1) 
0

>  <num_sample>  (1) 
100

>  <b_lp_Chiralities_Consistent>  (1) 
1

>  <r_epik_Charging_Adjusted_Penalty>  (1) 
2.3622130296898831

>  <r_epik_Ionization_Penalty>  (1) 
1.4312966064593899

>  <r_epik_Ionization_Penalty_Charging>  (1) 
1.1852885594971458

>  <r_epik_Ionization_Penalty_Neutral>  (1) 
0.24600804696224418

>  <r_epik_State_Penalty>  (1) 
1.176924470192737

>  <r_glide_ring_energy>  (1) 
0

>  <r_i_docking_score>  (1) 
-4.8950476875913882

>  <r_i_glide_ecoul>  (1) 
-6.4451875956162379

>  <r_i_glide_eff_state_penalty>  (1) 
1.176924470192737

>  <r_i_glide_einternal>  (1) 
5.4582003235600585

>  <r_i_glide_emodel>  (1) 
-47.845501816943859

>  <r_i_glide_emodel_strain>  (1) 
1.7075776096098707

>  <r_i_glide_energy>  (1) 
-33.532427179302275

>  <r_i_glide_erotb>  (1) 
0.75687532201182384

>  <r_i_glide_esite>  (1) 
-0.10578342780227984

>  <r_i_glide_evdw>  (1) 
-27.087239583686038

>  <r_i_glide_gscore>  (1) 
-6.071972157784125

>  <r_i_glide_gscore_strain>  (1) 
0

>  <r_i_glide_hbond>  (1) 
-0.16

>  <r_i_glide_ligand_efficiency>  (1) 
-0.17482313169969244

>  <r_i_glide_ligand_efficiency_ln>  (1) 
-1.1299207311414348

>  <r_i_glide_ligand_efficiency_sa>  (1) 
-0.53086599374805266

>  <r_i_glide_lipo>  (1) 
-2.8159219983513659

>  <r_i_glide_metal>  (1) 
-0

>  <r_i_glide_rewards>  (1) 
-1.4260019351155653

>  <r_lp_Energy>  (1) 
26.616364999999998

>  <s_epik_cmdline>  (1) 
J2VwaWtfcHl0aG9uJywgJy1waHQnLCAnMS4wJywgJy1waCcsICc3LjQnLCAnLXRuJywgJzgnLCAnLW1hJywgJzUwMCcsICctaW1hZScsICc8aW5maWxlLm1hZT4nLCAnLW9tYWUnLCAnPG91dGZpbGUubWFlPic=

>  <s_epik_input>  (1) 
W0NIMl0xW0NIMl1PW0NIXT1DMUMoPU8pW0NIMl1bQ0BIXTJbQ0gyXVtDSDJdTihbQ0BAXTIzW09IXSlbQ0gyXVtDQEBIXShbTkhdW0NIMl0zKS9bQ0hdPUM0XFtDQEBIXShbTkhdW0NIMl1bQ0gyXTQpW0NASF0oW0NIM10pW0NIMl1bT0hd

>  <s_glide_docking_method>  (1) 
confgen

>  <s_i_glide_gridfile>  (1) 
gpcr_5ht2c_6bqh_protein_autoprepared_prepared

>  <s_lp_Force_Field>  (1) 
S-OPLS

>  <s_lp_Variant>  (1) 
DiffSBDD_1_num_sample_100-7

>  <s_m_source_file>  (1) 
generated__ligand_DiffSBDD_2026-05-06_prepared.sdf

>  <GenAI_Model>  (1) 
DiffSBDD

>  <Protein>  (1) 
GPCR_5HT2C

$$$$
DiffSBDD_82_num_sample_100
     RDKit          3D

  0  0  0  0  0  0  0  0  0  0999 V3000
M  V30 BEGIN CTAB
M  V30 COUNTS 57 59 0 0 1
M  V30 BEGIN ATOM
M  V30 1 C 38.458683 29.695370 58.151086 0 CFG=1
M  V30 2 N 39.140981 27.497292 54.962692 0
M  V30 3 F 38.141050 28.686183 58.957851 0
M  V30 4 C 37.238434 31.046641 59.975609 0
M  V30 5 N 37.966226 29.397482 56.825196 0
M  V30 6 C 37.483382 26.958227 53.194607 0
M  V30 7 C 35.575504 32.290159 61.408825 0
M  V30 8 C 38.580352 34.356130 60.653492 0
M  V30 9 N 38.417521 31.462326 55.613520 0
M  V30 10 O 40.213579 32.603886 62.153786 0
M  V30 11 C 38.802658 25.095008 55.792978 0 CFG=2
M  V30 12 C 38.853703 24.444368 57.165603 0
M  V30 13 C 40.198852 29.637884 51.094703 0
M  V30 14 S 37.867083 35.910905 61.053509 0 CHG=-1
M  V30 15 C 36.871381 32.428858 60.591285 0 CFG=1
M  V30 16 C 38.267403 33.820610 56.211956 0
M  V30 17 C 38.007511 30.105026 55.725181 0
M  V30 18 C 38.412088 26.561997 55.811511 0 CFG=1
M  V30 19 C 39.164027 25.915241 56.962015 0 CFG=2
M  V30 20 C 37.957457 31.012090 58.641507 0
M  V30 21 O 39.477216 34.131063 59.853499 0
M  V30 22 C 38.459332 27.970857 53.771192 0 CFG=2
M  V30 23 C 38.130150 32.058539 57.902017 0
M  V30 24 O 38.569562 31.193594 62.653495 0 CHG=-1
M  V30 25 O 39.467406 28.218688 52.835806 0
M  V30 26 C 39.122994 28.649149 51.550707 0 CFG=2
M  V30 27 S 37.508124 29.498148 54.107757 0
M  V30 28 C 37.990072 33.161071 61.412147 0 CFG=1
M  V30 29 O 39.067395 27.571152 50.653485 0
M  V30 30 C 39.015999 32.237531 62.132591 0
M  V30 31 C 38.328455 32.388253 56.660565 0
M  V30 32 H 39.548370 29.720920 58.146524 0
M  V30 33 H 39.421267 28.286584 55.530499 0
M  V30 34 H 37.736054 30.371812 60.661564 0
M  V30 35 H 36.306335 30.524115 59.756225 0
M  V30 36 H 38.002802 26.021430 53.053493 0
M  V30 37 H 37.067423 27.324956 52.265109 0
M  V30 38 H 36.667404 26.806056 53.889339 0
M  V30 39 H 35.718964 31.621435 62.249617 0
M  V30 40 H 34.766901 31.894958 60.794268 0
M  V30 41 H 35.238229 33.255333 61.790715 0
M  V30 42 H 38.485719 31.880344 54.699059 0
M  V30 43 H 39.601102 24.822490 55.106450 0
M  V30 44 H 37.904152 24.195617 57.635458 0
M  V30 45 H 39.681514 23.782816 57.407127 0
M  V30 46 H 41.178730 29.162822 51.093872 0
M  V30 47 H 40.227724 30.491603 51.774177 0
M  V30 48 H 39.971100 29.997599 50.090672 0
M  V30 49 H 36.574579 33.089669 59.775809 0
M  V30 50 H 38.091562 34.487865 57.052892 0
M  V30 51 H 37.467590 33.962307 55.490598 0
M  V30 52 H 39.195776 34.062300 55.704662 0
M  V30 53 H 37.372671 26.778257 56.049876 0
M  V30 54 H 40.209745 26.197418 57.074772 0
M  V30 55 H 38.154349 29.142580 51.513722 0
M  V30 56 H 37.456460 33.572833 62.253497 0
M  V30 57 H 39.905500 27.137352 50.665406 0
M  V30 END ATOM
M  V30 BEGIN BOND
M  V30 1 1 3 1
M  V30 2 1 5 1
M  V30 3 1 12 11
M  V30 4 1 14 8
M  V30 5 1 15 4
M  V30 6 1 15 7
M  V30 7 2 17 5
M  V30 8 1 17 9
M  V30 9 1 18 2
M  V30 10 1 18 11
M  V30 11 1 19 11
M  V30 12 1 19 12
M  V30 13 1 19 18
M  V30 14 1 20 1
M  V30 15 1 20 4
M  V30 16 2 21 8
M  V30 17 1 22 2
M  V30 18 1 22 6
M  V30 19 2 23 20
M  V30 20 1 22 25 CFG=3
M  V30 21 1 26 13
M  V30 22 1 26 25
M  V30 23 1 27 17
M  V30 24 1 27 22
M  V30 25 1 28 8
M  V30 26 1 28 15
M  V30 27 1 29 26
M  V30 28 2 30 10
M  V30 29 1 30 24
M  V30 30 1 30 28
M  V30 31 1 31 9
M  V30 32 1 31 16
M  V30 33 2 31 23
M  V30 34 1 1 32 CFG=3
M  V30 35 1 33 2
M  V30 36 1 34 4
M  V30 37 1 35 4
M  V30 38 1 36 6
M  V30 39 1 37 6
M  V30 40 1 38 6
M  V30 41 1 39 7
M  V30 42 1 40 7
M  V30 43 1 41 7
M  V30 44 1 42 9
M  V30 45 1 11 43 CFG=3
M  V30 46 1 44 12
M  V30 47 1 45 12
M  V30 48 1 46 13
M  V30 49 1 47 13
M  V30 50 1 48 13
M  V30 51 1 15 49 CFG=3
M  V30 52 1 50 16
M  V30 53 1 51 16
M  V30 54 1 52 16
M  V30 55 1 18 53 CFG=1
M  V30 56 1 19 54 CFG=3
M  V30 57 1 26 55 CFG=1
M  V30 58 1 28 56 CFG=1
M  V30 59 1 57 29
M  V30 END BOND
M  V30 END CTAB
M  END
>  <i_epik_Tot_Q>  (1) 
-2

>  <i_epik_Tot_abs_Q>  (1) 
2

>  <i_i_glide_confnum>  (1) 
340

>  <i_i_glide_lignum>  (1) 
215

>  <i_i_glide_posenum>  (1) 
16

>  <i_i_glide_rotatable_bonds>  (1) 
12

>  <i_lp_mmshare_version>  (1) 
72125

>  <i_m_source_file_index>  (1) 
83

>  <i_f3d_flags>  (1) 
0

>  <num_sample>  (1) 
100

>  <b_lp_Chiralities_Consistent>  (1) 
1

>  <r_epik_Charging_Adjusted_Penalty>  (1) 
0.00013622687110547772

>  <r_epik_Ionization_Penalty>  (1) 
0.0015792256383976989

>  <r_epik_Ionization_Penalty_Charging>  (1) 
0.00013622687110547772

>  <r_epik_Ionization_Penalty_Neutral>  (1) 
0.0014429987672922213

>  <r_epik_State_Penalty>  (1) 
-0

>  <r_glide_ring_energy>  (1) 
0

>  <r_i_docking_score>  (1) 
-4.894217666107755

>  <r_i_glide_ecoul>  (1) 
0.038651192379501431

>  <r_i_glide_eff_state_penalty>  (1) 
-0

>  <r_i_glide_einternal>  (1) 
16.716215389884137

>  <r_i_glide_emodel>  (1) 
-40.530321304727337

>  <r_i_glide_emodel_strain>  (1) 
4.5836968407723475

>  <r_i_glide_energy>  (1) 
-39.947782846220086

>  <r_i_glide_erotb>  (1) 
0.72716710484865599

>  <r_i_glide_esite>  (1) 
-0.093195424227176499

>  <r_i_glide_evdw>  (1) 
-39.98643403859959

>  <r_i_glide_gscore>  (1) 
-4.894217666107755

>  <r_i_glide_gscore_strain>  (1) 
0.14592421019308688

>  <r_i_glide_hbond>  (1) 
0

>  <r_i_glide_ligand_efficiency>  (1) 
-0.15787798922928242

>  <r_i_glide_ligand_efficiency_ln>  (1) 
-1.1037960734656762

>  <r_i_glide_ligand_efficiency_sa>  (1) 
-0.49595486080332463

>  <r_i_glide_lipo>  (1) 
-1.8412796582941862

>  <r_i_glide_metal>  (1) 
-0

>  <r_i_glide_rewards>  (1) 
-1.839309875555081

>  <r_lp_Energy>  (1) 
24.444061999999999

>  <r_lp_tautomer_probability>  (1) 
1

>  <s_epik_Chemistry_Notes>  (1) 
This compound has an imine and may undergo hydrolysis. This compound contains an acetal/aminal-like group ( X-CH(R)-Y where X, Y are N, S, or O) that may be acid/base labile, releasing an aldehyde.

>  <s_epik_cmdline>  (1) 
J2VwaWtfcHl0aG9uJywgJy1waHQnLCAnMS4wJywgJy1waCcsICc3LjQnLCAnLXRuJywgJzgnLCAnLW1hJywgJzUwMCcsICctaW1hZScsICc8aW5maWxlLm1hZT4nLCAnLW9tYWUnLCAnPG91dGZpbGUubWFlPic=

>  <s_epik_input>  (1) 
W0NASF0xMltDQEhdKFtDSDJdMSlbQ0BIXTJbTkhdW0NAXShbQ0gzXSkoT1tDQEBIXShbQ0gzXSlbT0hdKVNDKD1OW0NAQEhdM0YpW05IXUMoW0NIM10pPUM9QzNbQ0gyXVtDQEBIXShbQ0gzXSlbQ0BIXShDKD1PKVtTSF0pQyg9TylbT0hd

>  <s_glide_docking_method>  (1) 
confgen

>  <s_i_glide_gridfile>  (1) 
gpcr_5ht2c_6bqh_protein_autoprepared_prepared

>  <s_lp_Force_Field>  (1) 
S-OPLS

>  <s_lp_Variant>  (1) 
DiffSBDD_82_num_sample_100-1

>  <s_m_source_file>  (1) 
generated__ligand_DiffSBDD_2026-05-06_prepared.sdf

>  <GenAI_Model>  (1) 
DiffSBDD

>  <Protein>  (1) 
GPCR_5HT2C

$$$$
DiffSBDD_44_num_sample_100
     RDKit          3D

  0  0  0  0  0  0  0  0  0  0999 V3000
M  V30 BEGIN CTAB
M  V30 COUNTS 58 59 0 0 1
M  V30 BEGIN ATOM
M  V30 1 C 39.961066 25.621436 54.706504 0
M  V30 2 O 39.867400 27.007368 58.611895 0 CHG=-1
M  V30 3 C 36.695224 32.344247 61.056883 0
M  V30 4 C 38.030927 26.756625 55.616894 0 CFG=1
M  V30 5 N 39.216067 27.069407 56.450056 0 CFG=2 CHG=1
M  V30 6 C 38.472343 33.197009 59.584194 0
M  V30 7 N 39.352898 30.327436 60.023121 0
M  V30 8 C 37.931201 32.245872 60.651024 0
M  V30 9 O 39.922001 31.679219 61.881157 0
M  V30 10 C 38.632427 26.272101 54.296576 0 CFG=1
M  V30 11 C 38.817079 27.398483 53.266103 0
M  V30 12 C 39.199960 29.109490 57.895091 0 CFG=1
M  V30 13 C 38.609970 29.764592 59.141756 0
M  V30 14 C 40.223153 26.026914 56.162215 0
M  V30 15 C 40.591686 30.739389 62.709325 0
M  V30 16 C 35.015189 33.614271 59.800884 0
M  V30 17 C 38.968115 27.564681 57.840506 0 CFG=2
M  V30 18 C 38.845259 31.121906 61.140272 0 CFG=2
M  V30 19 F 36.543014 35.434100 59.879485 0
M  V30 20 C 36.146935 34.422760 59.105507 0 CFG=1
M  V30 21 C 35.448307 32.678943 60.907657 0
M  V30 22 C 38.700990 29.892123 56.655893 0
M  V30 23 C 37.078260 29.725631 59.230352 0
M  V30 24 C 37.110320 25.666710 56.224406 0
M  V30 25 C 37.391804 33.664308 58.559793 0
M  V30 26 H 40.779576 25.922532 54.051362 0
M  V30 27 H 39.867404 24.538361 54.653485 0
M  V30 28 H 37.467405 27.670109 55.451663 0
M  V30 29 H 38.912067 34.057878 60.088213 0
M  V30 30 H 39.285854 32.732010 59.031132 0
M  V30 31 H 37.969206 25.531733 53.853466 0
M  V30 32 H 39.455690 28.196813 53.644407 0
M  V30 33 H 39.269021 27.017451 52.349238 0
M  V30 34 H 37.857661 27.839005 52.992383 0
M  V30 35 H 40.278195 29.285713 57.918570 0
M  V30 36 H 41.227596 26.421436 56.310802 0
M  V30 37 H 40.090283 25.166050 56.820281 0
M  V30 38 H 41.410755 31.234110 63.231229 0
M  V30 39 H 39.917201 30.324645 63.459946 0
M  V30 40 H 41.013299 29.917495 62.128826 0
M  V30 41 H 34.508280 33.002566 59.053501 0
M  V30 42 H 34.267396 34.291214 60.186647 0
M  V30 43 H 37.921691 27.385173 58.045133 0
M  V30 44 H 38.274327 30.476920 61.814227 0
M  V30 45 H 35.659899 34.888504 58.253505 0
M  V30 46 H 34.667420 32.218805 61.493005 0
M  V30 47 H 38.870210 30.963465 56.778634 0
M  V30 48 H 39.227097 29.605375 55.745979 0
M  V30 49 H 37.631711 29.758052 56.486997 0
M  V30 50 H 36.634162 28.920004 58.653528 0
M  V30 51 H 36.731106 29.621430 60.253501 0
M  V30 52 H 36.661248 30.639676 58.810069 0
M  V30 53 H 36.343337 25.364161 55.512146 0
M  V30 54 H 37.667842 24.769813 56.495666 0
M  V30 55 H 36.578504 26.003558 57.112179 0
M  V30 56 H 37.867407 34.321496 57.834161 0
M  V30 57 H 37.067403 32.808651 57.971620 0
M  V30 58 H 39.617800 27.882444 56.010144 0
M  V30 END ATOM
M  V30 BEGIN BOND
M  V30 1 1 5 4
M  V30 2 2 8 3
M  V30 3 1 8 6
M  V30 4 1 10 1
M  V30 5 1 10 4
M  V30 6 1 11 10
M  V30 7 2 13 7
M  V30 8 1 13 12
M  V30 9 1 14 1
M  V30 10 1 14 5
M  V30 11 1 15 9
M  V30 12 1 17 2
M  V30 13 1 17 5
M  V30 14 1 17 12
M  V30 15 1 18 7
M  V30 16 1 18 8
M  V30 17 1 18 9
M  V30 18 1 20 16
M  V30 19 1 20 19
M  V30 20 2 21 3
M  V30 21 1 21 16
M  V30 22 1 22 12
M  V30 23 1 23 13
M  V30 24 1 24 4
M  V30 25 1 25 6
M  V30 26 1 25 20
M  V30 27 1 26 1
M  V30 28 1 27 1
M  V30 29 1 4 28 CFG=3
M  V30 30 1 29 6
M  V30 31 1 30 6
M  V30 32 1 10 31 CFG=3
M  V30 33 1 32 11
M  V30 34 1 33 11
M  V30 35 1 34 11
M  V30 36 1 12 35 CFG=1
M  V30 37 1 36 14
M  V30 38 1 37 14
M  V30 39 1 38 15
M  V30 40 1 39 15
M  V30 41 1 40 15
M  V30 42 1 41 16
M  V30 43 1 42 16
M  V30 44 1 17 43 CFG=1
M  V30 45 1 18 44 CFG=1
M  V30 46 1 20 45 CFG=3
M  V30 47 1 46 21
M  V30 48 1 47 22
M  V30 49 1 48 22
M  V30 50 1 49 22
M  V30 51 1 50 23
M  V30 52 1 51 23
M  V30 53 1 52 23
M  V30 54 1 53 24
M  V30 55 1 54 24
M  V30 56 1 55 24
M  V30 57 1 56 25
M  V30 58 1 57 25
M  V30 59 1 5 58 CFG=3
M  V30 END BOND
M  V30 END CTAB
M  END
>  <i_epik_Tot_Q>  (1) 
0

>  <i_epik_Tot_abs_Q>  (1) 
2

>  <i_i_glide_confnum>  (1) 
7

>  <i_i_glide_lignum>  (1) 
109

>  <i_i_glide_posenum>  (1) 
271

>  <i_i_glide_rotatable_bonds>  (1) 
6

>  <i_lp_mmshare_version>  (1) 
72125

>  <i_m_source_file_index>  (1) 
45

>  <i_f3d_flags>  (1) 
0

>  <num_sample>  (1) 
100

>  <b_lp_Chiralities_Consistent>  (1) 
1

>  <r_epik_Charging_Adjusted_Penalty>  (1) 
0.41733257654759531

>  <r_epik_Ionization_Penalty>  (1) 
0.0069177268181324029

>  <r_epik_Ionization_Penalty_Charging>  (1) 
0.0066527375949913311

>  <r_epik_Ionization_Penalty_Neutral>  (1) 
0.00026498922314107146

>  <r_epik_State_Penalty>  (1) 
0.41067983895260396

>  <r_glide_ring_energy>  (1) 
0

>  <r_i_docking_score>  (1) 
-4.8899543615281935

>  <r_i_glide_ecoul>  (1) 
-1.9686614512849467

>  <r_i_glide_eff_state_penalty>  (1) 
0.41067983895260396

>  <r_i_glide_einternal>  (1) 
54.948052294155573

>  <r_i_glide_emodel>  (1) 
-15.10990482211313

>  <r_i_glide_emodel_strain>  (1) 
2.9092749588869253

>  <r_i_glide_energy>  (1) 
-33.695838118158555

>  <r_i_glide_erotb>  (1) 
0.61440649929112812

>  <r_i_glide_esite>  (1) 
0

>  <r_i_glide_evdw>  (1) 
-31.727176666873611

>  <r_i_glide_gscore>  (1) 
-5.3006342004807978

>  <r_i_glide_gscore_strain>  (1) 
0

>  <r_i_glide_hbond>  (1) 
0

>  <r_i_glide_ligand_efficiency>  (1) 
-0.19559817446112773

>  <r_i_glide_ligand_efficiency_ln>  (1) 
-1.159065723789336

>  <r_i_glide_ligand_efficiency_sa>  (1) 
-0.57193253168639235

>  <r_i_glide_lipo>  (1) 
-1.7799270849952675

>  <r_i_glide_metal>  (1) 
-0

>  <r_i_glide_rewards>  (1) 
-2.2534555637402347

>  <r_lp_Energy>  (1) 
10.776309999999999

>  <r_lp_tautomer_probability>  (1) 
0.49999399997599986

>  <s_epik_Chemistry_Notes>  (1) 
This compound has an imine and may undergo hydrolysis. This compound contains an acetal/aminal-like group ( X-CH(R)-Y where X, Y are N, S, or O) that may be acid/base labile, releasing an aldehyde.

>  <s_epik_cmdline>  (1) 
J2VwaWtfcHl0aG9uJywgJy1waHQnLCAnMS4wJywgJy1waCcsICc3LjQnLCAnLXRuJywgJzgnLCAnLW1hJywgJzUwMCcsICctaW1hZScsICc8aW5maWxlLm1hZT4nLCAnLW9tYWUnLCAnPG91dGZpbGUubWFlPic=

>  <s_epik_input>  (1) 
W0NIM11bQ0BIXTFbQ0gyXVtDSDJdTihbQ0BASF0xW0NIM10pW0NAQEhdKFtPSF0pW0NAQEhdKFtDSDNdKVxDKFtDSDNdKT1OXFtDQEBIXShPW0NIM10pQzI9Qz1bQ0hdW0NIMl1bQ0BASF0oRilbQ0gyXVtDSDJdMg==

>  <s_glide_docking_method>  (1) 
confgen

>  <s_i_glide_gridfile>  (1) 
gpcr_5ht2c_6bqh_protein_autoprepared_prepared

>  <s_lp_Force_Field>  (1) 
S-OPLS

>  <s_lp_Variant>  (1) 
DiffSBDD_44_num_sample_100-2

>  <s_m_source_file>  (1) 
generated__ligand_DiffSBDD_2026-05-06_prepared.sdf

>  <GenAI_Model>  (1) 
DiffSBDD

>  <Protein>  (1) 
GPCR_5HT2C

$$$$
DiffSBDD_1_num_sample_100
     RDKit          3D

  0  0  0  0  0  0  0  0  0  0999 V3000
M  V30 BEGIN CTAB
M  V30 COUNTS 63 66 0 0 1
M  V30 BEGIN ATOM
M  V30 1 C 41.113442 33.871744 62.888584 0
M  V30 2 C 38.271313 28.483629 55.691169 0
M  V30 3 O 42.395598 34.464342 64.629802 0
M  V30 4 C 37.859000 30.460884 57.220773 0 CFG=1
M  V30 5 C 40.491691 32.909036 61.952062 0
M  V30 6 C 38.601320 32.696776 57.729377 0
M  V30 7 C 38.514638 24.587072 55.996766 0
M  V30 8 C 38.476258 28.380016 53.386514 0
M  V30 9 N 38.725858 27.026557 53.947811 0 CHG=1
M  V30 10 C 36.200007 31.654554 60.457701 0
M  V30 11 C 39.517619 33.455833 60.889356 0
M  V30 12 C 37.834420 25.964618 56.040296 0 CFG=2
M  V30 13 C 38.745452 27.077118 55.435166 0 CFG=2
M  V30 14 C 37.791620 32.702616 59.046986 0 CFG=2
M  V30 15 C 37.432762 31.965148 61.331982 0
M  V30 16 C 41.902149 33.494886 63.844186 0
M  V30 17 N 39.006727 31.347708 57.341599 0
M  V30 18 C 38.346380 29.065923 56.902019 0
M  V30 19 O 40.726020 31.699502 61.991855 0
M  V30 20 C 37.303071 26.212726 57.468611 0
M  V30 21 C 41.756557 35.664690 64.034906 0
M  V30 22 C 37.079907 30.398193 58.553611 0
M  V30 23 C 37.740855 29.172983 54.470143 0
M  V30 24 N 36.668865 31.735066 59.053572 0 CFG=1 CHG=1
M  V30 25 O 37.102603 33.938914 59.148093 0
M  V30 26 C 40.845991 35.306922 62.758268 0
M  V30 27 C 38.549365 32.379128 60.347690 0 CFG=2
M  V30 28 O 39.447670 24.447004 57.053293 0
M  V30 29 H 37.196125 30.820877 56.434052 0
M  V30 30 H 39.479397 33.331274 57.831342 0
M  V30 31 H 38.001135 33.131542 56.927206 0
M  V30 32 H 39.012881 24.421435 55.042381 0
M  V30 33 H 37.760871 23.805854 56.098213 0
M  V30 34 H 37.922986 28.332042 52.446952 0
M  V30 35 H 39.440013 28.848578 53.179888 0
M  V30 36 H 39.583733 26.639254 53.580654 0
M  V30 37 H 35.747245 30.691645 60.694973 0
M  V30 38 H 35.431515 32.413958 60.614517 0
M  V30 39 H 40.108608 33.869056 60.074474 0
M  V30 40 H 38.936148 34.281415 61.297383 0
M  V30 41 H 36.947121 25.902641 55.410012 0
M  V30 42 H 39.771649 26.990805 55.794406 0
M  V30 43 H 37.742667 31.100606 61.920022 0
M  V30 44 H 37.198619 32.767304 62.033049 0
M  V30 45 H 42.218557 32.493359 64.103395 0
M  V30 46 H 39.488821 31.400209 56.448560 0
M  V30 47 H 38.762092 28.508040 57.729136 0
M  V30 48 H 38.110452 26.350377 58.188183 0
M  V30 49 H 36.667505 27.089908 57.526094 0
M  V30 50 H 36.704196 25.369966 57.815735 0
M  V30 51 H 41.136237 36.125897 64.803301 0
M  V30 52 H 42.522975 36.396139 63.772465 0
M  V30 53 H 36.183603 29.789964 58.423525 0
M  V30 54 H 37.683336 29.890976 59.309346 0
M  V30 55 H 36.668051 29.026315 54.404088 0
M  V30 56 H 37.960828 30.240678 54.425955 0
M  V30 57 H 37.129280 34.378967 58.309581 0
M  V30 58 H 41.237776 35.718789 61.826467 0
M  V30 59 H 39.797629 35.567975 62.906036 0
M  V30 60 H 39.131869 31.483603 60.126069 0
M  V30 61 H 40.222683 24.954973 56.862916 0
M  V30 62 H 37.954285 26.437297 53.666573 0
M  V30 63 H 35.938583 32.023507 58.398693 0
M  V30 END ATOM
M  V30 BEGIN BOND
M  V30 1 1 5 1
M  V30 2 1 9 8
M  V30 3 1 11 5
M  V30 4 1 12 7
M  V30 5 1 13 2
M  V30 6 1 13 9
M  V30 7 1 13 12
M  V30 8 1 14 6
M  V30 9 1 15 10
M  V30 10 2 16 1
M  V30 11 1 16 3
M  V30 12 1 17 4
M  V30 13 1 17 6
M  V30 14 2 18 2
M  V30 15 1 18 4
M  V30 16 2 19 5
M  V30 17 1 20 12
M  V30 18 1 21 3
M  V30 19 1 22 4
M  V30 20 1 23 2
M  V30 21 1 23 8
M  V30 22 1 24 10
M  V30 23 1 24 14
M  V30 24 1 24 22
M  V30 25 1 14 25 CFG=1
M  V30 26 1 26 1
M  V30 27 1 26 21
M  V30 28 1 27 11
M  V30 29 1 27 14
M  V30 30 1 27 15
M  V30 31 1 28 7
M  V30 32 1 4 29 CFG=3
M  V30 33 1 30 6
M  V30 34 1 31 6
M  V30 35 1 32 7
M  V30 36 1 33 7
M  V30 37 1 34 8
M  V30 38 1 35 8
M  V30 39 1 36 9
M  V30 40 1 37 10
M  V30 41 1 38 10
M  V30 42 1 39 11
M  V30 43 1 40 11
M  V30 44 1 12 41 CFG=3
M  V30 45 1 13 42 CFG=1
M  V30 46 1 43 15
M  V30 47 1 44 15
M  V30 48 1 45 16
M  V30 49 1 46 17
M  V30 50 1 47 18
M  V30 51 1 48 20
M  V30 52 1 49 20
M  V30 53 1 50 20
M  V30 54 1 51 21
M  V30 55 1 52 21
M  V30 56 1 53 22
M  V30 57 1 54 22
M  V30 58 1 55 23
M  V30 59 1 56 23
M  V30 60 1 57 25
M  V30 61 1 58 26
M  V30 62 1 59 26
M  V30 63 1 27 60 CFG=3
M  V30 64 1 61 28
M  V30 65 1 62 9
M  V30 66 1 24 63 CFG=3
M  V30 END BOND
M  V30 END CTAB
M  END
>  <i_epik_Tot_Q>  (1) 
2

>  <i_epik_Tot_abs_Q>  (1) 
2

>  <i_i_glide_confnum>  (1) 
222

>  <i_i_glide_lignum>  (1) 
16

>  <i_i_glide_posenum>  (1) 
335

>  <i_i_glide_rotatable_bonds>  (1) 
8

>  <i_lp_mmshare_version>  (1) 
72125

>  <i_m_source_file_index>  (1) 
2

>  <i_f3d_flags>  (1) 
0

>  <num_sample>  (1) 
100

>  <b_lp_Chiralities_Consistent>  (1) 
1

>  <r_epik_Charging_Adjusted_Penalty>  (1) 
2.3622130296898831

>  <r_epik_Ionization_Penalty>  (1) 
1.4312966064593899

>  <r_epik_Ionization_Penalty_Charging>  (1) 
1.1852885594971458

>  <r_epik_Ionization_Penalty_Neutral>  (1) 
0.24600804696224418

>  <r_epik_State_Penalty>  (1) 
1.176924470192737

>  <r_glide_ring_energy>  (1) 
0

>  <r_i_docking_score>  (1) 
-4.8882584534928988

>  <r_i_glide_ecoul>  (1) 
-7.1598218606442288

>  <r_i_glide_eff_state_penalty>  (1) 
1.176924470192737

>  <r_i_glide_einternal>  (1) 
7.9465263014485021

>  <r_i_glide_emodel>  (1) 
-56.050906725908845

>  <r_i_glide_emodel_strain>  (1) 
1.1075534730397578

>  <r_i_glide_energy>  (1) 
-40.663397992860631

>  <r_i_glide_erotb>  (1) 
0.75687532201182384

>  <r_i_glide_esite>  (1) 
-0.15378222416518461

>  <r_i_glide_evdw>  (1) 
-33.503576132216402

>  <r_i_glide_gscore>  (1) 
-6.0651829236856356

>  <r_i_glide_gscore_strain>  (1) 
0

>  <r_i_glide_hbond>  (1) 
-0.18790575289734762

>  <r_i_glide_ligand_efficiency>  (1) 
-0.17458065905331782

>  <r_i_glide_ligand_efficiency_ln>  (1) 
-1.1283535765709285

>  <r_i_glide_ligand_efficiency_sa>  (1) 
-0.53012970398408998

>  <r_i_glide_lipo>  (1) 
-2.4478740760004696

>  <r_i_glide_metal>  (1) 
-0

>  <r_i_glide_rewards>  (1) 
-1.283344106927004

>  <r_lp_Energy>  (1) 
23.737466999999999

>  <s_epik_cmdline>  (1) 
J2VwaWtfcHl0aG9uJywgJy1waHQnLCAnMS4wJywgJy1waCcsICc3LjQnLCAnLXRuJywgJzgnLCAnLW1hJywgJzUwMCcsICctaW1hZScsICc8aW5maWxlLm1hZT4nLCAnLW9tYWUnLCAnPG91dGZpbGUubWFlPic=

>  <s_epik_input>  (1) 
W0NIMl0xW0NIMl1PW0NIXT1DMUMoPU8pW0NIMl1bQ0BIXTJbQ0gyXVtDSDJdTihbQ0BAXTIzW09IXSlbQ0gyXVtDQEBIXShbTkhdW0NIMl0zKVxbQ0hdPUM0XFtDQEBIXShbTkhdW0NIMl1bQ0gyXTQpW0NASF0oW0NIM10pW0NIMl1bT0hd

>  <s_glide_docking_method>  (1) 
confgen

>  <s_i_glide_gridfile>  (1) 
gpcr_5ht2c_6bqh_protein_autoprepared_prepared

>  <s_lp_Force_Field>  (1) 
S-OPLS

>  <s_lp_Variant>  (1) 
DiffSBDD_1_num_sample_100-10

>  <s_m_source_file>  (1) 
generated__ligand_DiffSBDD_2026-05-06_prepared.sdf

>  <GenAI_Model>  (1) 
DiffSBDD

>  <Protein>  (1) 
GPCR_5HT2C

$$$$
DiffSBDD_44_num_sample_100
     RDKit          3D

  0  0  0  0  0  0  0  0  0  0999 V3000
M  V30 BEGIN CTAB
M  V30 COUNTS 58 59 0 0 1
M  V30 BEGIN ATOM
M  V30 1 C 39.317906 27.718236 52.629188 0
M  V30 2 O 39.067432 30.591250 56.213685 0 CHG=-1
M  V30 3 C 37.012861 31.846981 60.889305 0
M  V30 4 C 39.602998 29.955462 53.544889 0 CFG=1
M  V30 5 N 38.951704 29.120080 54.600502 0 CFG=1 CHG=1
M  V30 6 C 38.667438 32.573461 59.221310 0
M  V30 7 N 39.126497 29.551865 59.171846 0
M  V30 8 C 38.115096 31.578889 60.237344 0
M  V30 9 O 40.090312 30.492203 61.115625 0
M  V30 10 C 39.369482 29.188212 52.228460 0 CFG=1
M  V30 11 C 40.394303 29.484418 51.121174 0
M  V30 12 C 38.505410 28.469216 57.035267 0 CFG=1
M  V30 13 C 38.198213 29.139165 58.390139 0
M  V30 14 C 39.038028 27.713519 54.133372 0
M  V30 15 C 40.641061 29.326998 61.717372 0
M  V30 16 C 35.727901 33.923924 60.526611 0
M  V30 17 C 39.364444 29.334937 56.026042 0 CFG=2
M  V30 18 C 38.868098 30.254676 60.425499 0 CFG=2
M  V30 19 F 37.837551 35.021249 60.539048 0
M  V30 20 C 36.921518 34.512882 59.712563 0 CFG=1
M  V30 21 C 35.957010 32.563714 61.163725 0
M  V30 22 C 39.109092 27.076035 57.330830 0
M  V30 23 C 36.711690 29.272174 58.712510 0
M  V30 24 C 39.067300 31.395206 53.453345 0
M  V30 25 C 37.603586 33.574967 58.678869 0
M  V30 26 H 40.267402 27.221430 52.429401 0
M  V30 27 H 38.549983 27.179920 52.070808 0
M  V30 28 H 40.667325 30.021424 53.757073 0
M  V30 29 H 39.504551 33.106911 59.669927 0
M  V30 30 H 39.067341 32.037462 58.364540 0
M  V30 31 H 38.377997 29.432295 51.850723 0
M  V30 32 H 41.403617 29.221166 51.437570 0
M  V30 33 H 40.170288 28.910353 50.221230 0
M  V30 34 H 40.395494 30.539933 50.846069 0
M  V30 35 H 37.541848 28.303062 56.555768 0
M  V30 36 H 39.873051 27.207293 54.616976 0
M  V30 37 H 38.123624 27.170541 54.372933 0
M  V30 38 H 41.550739 29.588489 62.255979 0
M  V30 39 H 39.949364 28.885198 62.435672 0
M  V30 40 H 40.897674 28.571395 60.973406 0
M  V30 41 H 34.852403 33.842656 59.881497 0
M  V30 42 H 35.467464 34.615316 61.325047 0
M  V30 43 H 40.398585 28.995750 56.108691 0
M  V30 44 H 38.267414 29.621430 61.075842 0
M  V30 45 H 36.537817 35.376793 59.168343 0
M  V30 46 H 35.202665 32.214142 61.853353 0
M  V30 47 H 38.534530 26.554283 58.097141 0
M  V30 48 H 39.112926 26.414907 56.469130 0
M  V30 49 H 40.134311 27.158208 57.693083 0
M  V30 50 H 36.142131 28.467359 58.253507 0
M  V30 51 H 36.507212 29.221488 59.778897 0
M  V30 52 H 36.331439 30.217642 58.325509 0
M  V30 53 H 39.359110 31.861670 52.513913 0
M  V30 54 H 37.983105 31.430108 53.539513 0
M  V30 55 H 39.467399 32.024917 54.244580 0
M  V30 56 H 38.071415 34.175911 57.903012 0
M  V30 57 H 36.827949 33.019531 58.156529 0
M  V30 58 H 37.980546 29.391462 54.582555 0
M  V30 END ATOM
M  V30 BEGIN BOND
M  V30 1 1 5 4
M  V30 2 2 8 3
M  V30 3 1 8 6
M  V30 4 1 10 1
M  V30 5 1 10 4
M  V30 6 1 11 10
M  V30 7 2 13 7
M  V30 8 1 13 12
M  V30 9 1 14 1
M  V30 10 1 14 5
M  V30 11 1 15 9
M  V30 12 1 17 2
M  V30 13 1 17 5
M  V30 14 1 17 12
M  V30 15 1 18 7
M  V30 16 1 18 8
M  V30 17 1 18 9
M  V30 18 1 20 16
M  V30 19 1 20 19
M  V30 20 2 21 3
M  V30 21 1 21 16
M  V30 22 1 22 12
M  V30 23 1 23 13
M  V30 24 1 24 4
M  V30 25 1 25 6
M  V30 26 1 25 20
M  V30 27 1 26 1
M  V30 28 1 27 1
M  V30 29 1 4 28 CFG=1
M  V30 30 1 29 6
M  V30 31 1 30 6
M  V30 32 1 10 31 CFG=3
M  V30 33 1 32 11
M  V30 34 1 33 11
M  V30 35 1 34 11
M  V30 36 1 12 35 CFG=3
M  V30 37 1 36 14
M  V30 38 1 37 14
M  V30 39 1 38 15
M  V30 40 1 39 15
M  V30 41 1 40 15
M  V30 42 1 41 16
M  V30 43 1 42 16
M  V30 44 1 17 43 CFG=3
M  V30 45 1 18 44 CFG=1
M  V30 46 1 20 45 CFG=3
M  V30 47 1 46 21
M  V30 48 1 47 22
M  V30 49 1 48 22
M  V30 50 1 49 22
M  V30 51 1 50 23
M  V30 52 1 51 23
M  V30 53 1 52 23
M  V30 54 1 53 24
M  V30 55 1 54 24
M  V30 56 1 55 24
M  V30 57 1 56 25
M  V30 58 1 57 25
M  V30 59 1 5 58 CFG=1
M  V30 END BOND
M  V30 END CTAB
M  END
>  <i_epik_Tot_Q>  (1) 
0

>  <i_epik_Tot_abs_Q>  (1) 
2

>  <i_i_glide_confnum>  (1) 
8

>  <i_i_glide_lignum>  (1) 
108

>  <i_i_glide_posenum>  (1) 
179

>  <i_i_glide_rotatable_bonds>  (1) 
6

>  <i_lp_mmshare_version>  (1) 
72125

>  <i_m_source_file_index>  (1) 
45

>  <i_f3d_flags>  (1) 
0

>  <num_sample>  (1) 
100

>  <b_lp_Chiralities_Consistent>  (1) 
1

>  <r_epik_Charging_Adjusted_Penalty>  (1) 
0.41733257654759531

>  <r_epik_Ionization_Penalty>  (1) 
0.0069177268181324029

>  <r_epik_Ionization_Penalty_Charging>  (1) 
0.0066527375949913311

>  <r_epik_Ionization_Penalty_Neutral>  (1) 
0.00026498922314107146

>  <r_epik_State_Penalty>  (1) 
0.41067983895260396

>  <r_glide_ring_energy>  (1) 
0

>  <r_i_docking_score>  (1) 
-4.8773493371070566

>  <r_i_glide_ecoul>  (1) 
-0.53407030758035301

>  <r_i_glide_eff_state_penalty>  (1) 
0.41067983895260396

>  <r_i_glide_einternal>  (1) 
5.0097911092535519

>  <r_i_glide_emodel>  (1) 
-40.235441595745911

>  <r_i_glide_emodel_strain>  (1) 
0.57221207419793529

>  <r_i_glide_energy>  (1) 
-32.00441512746692

>  <r_i_glide_erotb>  (1) 
0.61440649929112812

>  <r_i_glide_esite>  (1) 
0

>  <r_i_glide_evdw>  (1) 
-31.47034481988657

>  <r_i_glide_gscore>  (1) 
-5.2880291760596609

>  <r_i_glide_gscore_strain>  (1) 
0

>  <r_i_glide_hbond>  (1) 
0

>  <r_i_glide_ligand_efficiency>  (1) 
-0.19509397348428226

>  <r_i_glide_ligand_efficiency_ln>  (1) 
-1.1560779552594267

>  <r_i_glide_ligand_efficiency_sa>  (1) 
-0.57045823908647197

>  <r_i_glide_lipo>  (1) 
-1.9462269578126312

>  <r_i_glide_metal>  (1) 
-0

>  <r_i_glide_rewards>  (1) 
-2.3025809304067755

>  <r_lp_Energy>  (1) 
13.770411999999999

>  <r_lp_tautomer_probability>  (1) 
0.49999399997599986

>  <s_epik_Chemistry_Notes>  (1) 
This compound has an imine and may undergo hydrolysis. This compound contains an acetal/aminal-like group ( X-CH(R)-Y where X, Y are N, S, or O) that may be acid/base labile, releasing an aldehyde.

>  <s_epik_cmdline>  (1) 
J2VwaWtfcHl0aG9uJywgJy1waHQnLCAnMS4wJywgJy1waCcsICc3LjQnLCAnLXRuJywgJzgnLCAnLW1hJywgJzUwMCcsICctaW1hZScsICc8aW5maWxlLm1hZT4nLCAnLW9tYWUnLCAnPG91dGZpbGUubWFlPic=

>  <s_epik_input>  (1) 
W0NIM11bQ0BIXTFbQ0gyXVtDSDJdTihbQ0BASF0xW0NIM10pW0NAQEhdKFtPSF0pW0NAQEhdKFtDSDNdKVxDKFtDSDNdKT1OXFtDQEBIXShPW0NIM10pQzI9Qz1bQ0hdW0NIMl1bQ0BASF0oRilbQ0gyXVtDSDJdMg==

>  <s_glide_docking_method>  (1) 
confgen

>  <s_i_glide_gridfile>  (1) 
gpcr_5ht2c_6bqh_protein_autoprepared_prepared

>  <s_lp_Force_Field>  (1) 
S-OPLS

>  <s_lp_Variant>  (1) 
DiffSBDD_44_num_sample_100-1

>  <s_m_source_file>  (1) 
generated__ligand_DiffSBDD_2026-05-06_prepared.sdf

>  <GenAI_Model>  (1) 
DiffSBDD

>  <Protein>  (1) 
GPCR_5HT2C

$$$$
DiffSBDD_90_num_sample_100
     RDKit          3D

  0  0  0  0  0  0  0  0  0  0999 V3000
M  V30 BEGIN CTAB
M  V30 COUNTS 85 88 0 0 1
M  V30 BEGIN ATOM
M  V30 1 C 39.562701 29.589961 61.580977 0
M  V30 2 O 37.067396 29.046285 53.532684 0
M  V30 3 F 42.667008 34.594261 66.704067 0
M  V30 4 C 38.924641 35.279753 60.778960 0 CFG=1
M  V30 5 C 38.664894 26.906924 54.502819 0 CFG=2
M  V30 6 C 38.796893 28.812849 56.075935 0 CFG=1
M  V30 7 C 36.347758 34.264920 59.340187 0
M  V30 8 C 37.807404 30.485842 57.698941 0
M  V30 9 C 37.556479 36.060739 60.524788 0
M  V30 10 N 38.162641 28.662707 52.749589 0
M  V30 11 C 41.595523 32.891565 65.558063 0
M  V30 12 C 37.185986 36.980874 61.714170 0
M  V30 13 C 38.117930 27.453848 55.819557 0
M  V30 14 C 39.522841 29.213263 54.786644 0
M  V30 15 O 39.867402 25.292498 55.763414 0
M  V30 16 N 39.530980 30.975125 61.071870 0 CFG=2 CHG=1
M  V30 17 C 37.807825 29.884134 56.501600 0
M  V30 18 F 40.561112 34.852871 66.324370 0
M  V30 19 C 40.966036 34.917921 63.432946 0 CFG=2
M  V30 20 N 39.225336 31.849615 62.170401 0
M  V30 21 C 40.577220 32.594845 64.456953 0
M  V30 22 C 38.617973 31.221626 59.925509 0
M  V30 23 O 36.458355 35.139094 60.464258 0
M  V30 24 C 37.467444 36.931476 59.249876 0
M  V30 25 C 39.673920 28.586135 60.451002 0
M  V30 26 C 42.041289 35.146760 64.520783 0
M  V30 27 C 38.785808 30.189010 58.805821 0 CFG=1
M  V30 28 C 39.109438 28.167097 53.715430 0 CFG=1
M  V30 29 C 40.123627 36.172852 61.244831 0
M  V30 30 O 40.757588 26.021394 53.856049 0 CHG=-1
M  V30 31 C 39.844774 33.140572 61.978227 0 CFG=1
M  V30 32 C 38.574368 28.809250 59.412587 0
M  V30 33 O 37.663777 26.144888 53.853511 0
M  V30 34 C 38.683800 34.133672 61.760940 0
M  V30 35 C 40.824336 33.408858 63.156539 0 CFG=1
M  V30 36 C 41.282672 35.631078 62.103884 0
M  V30 37 C 41.703979 34.394813 65.813878 0
M  V30 38 C 39.867451 26.000388 54.730529 0
M  V30 39 H 38.667402 29.388566 62.164395 0
M  V30 40 H 40.401220 29.475826 62.271518 0
M  V30 41 H 36.451807 28.353594 53.338581 0
M  V30 42 H 39.223771 34.799058 59.853528 0
M  V30 43 H 39.565472 28.660532 56.830281 0
M  V30 44 H 35.716651 33.417366 59.604803 0
M  V30 45 H 35.871941 34.759021 58.498962 0
M  V30 46 H 37.304505 33.867337 59.008253 0
M  V30 47 H 37.067418 31.237792 57.907250 0
M  V30 48 H 38.423534 29.525910 52.294926 0
M  V30 49 H 42.569866 32.494995 65.268711 0
M  V30 50 H 41.308235 32.372715 66.475198 0
M  V30 51 H 37.866273 37.824086 61.828738 0
M  V30 52 H 36.210732 37.436345 61.561147 0
M  V30 53 H 37.147513 36.444466 62.660303 0
M  V30 54 H 38.185466 26.782904 56.675779 0
M  V30 55 H 37.067541 27.552916 55.620457 0
M  V30 56 H 40.582110 29.184608 55.053243 0
M  V30 57 H 39.318830 30.240620 54.474885 0
M  V30 58 H 37.061861 30.167318 55.773841 0
M  V30 59 H 40.044281 35.326466 63.843678 0
M  V30 60 H 39.705827 31.356062 62.909454 0
M  V30 61 H 40.608716 31.519789 64.271013 0
M  V30 62 H 39.592132 32.821415 64.837735 0
M  V30 63 H 38.810006 32.216276 59.522483 0
M  V30 64 H 37.584812 31.219547 60.281252 0
M  V30 65 H 38.264097 37.670686 59.200203 0
M  V30 66 H 37.467421 36.364091 58.322892 0
M  V30 67 H 36.523290 37.474185 59.234398 0
M  V30 68 H 39.580095 27.621471 60.905005 0
M  V30 69 H 40.659190 28.628435 59.985685 0
M  V30 70 H 43.014184 34.806642 64.173708 0
M  V30 71 H 42.143846 36.205473 64.738476 0
M  V30 72 H 39.786448 30.243693 58.385579 0
M  V30 73 H 39.868481 27.947927 52.993358 0
M  V30 74 H 40.667233 36.421425 60.344196 0
M  V30 75 H 39.805760 37.110378 61.691650 0
M  V30 76 H 40.434327 33.138937 61.059607 0
M  V30 77 H 37.580847 28.815009 59.853827 0
M  V30 78 H 38.591185 28.004887 58.680460 0
M  V30 79 H 38.046775 25.823845 53.051610 0
M  V30 80 H 37.799057 33.569812 61.467352 0
M  V30 81 H 38.411126 34.637339 62.653498 0
M  V30 82 H 41.797302 33.062402 62.803676 0
M  V30 83 H 41.867522 34.978103 61.463579 0
M  V30 84 H 41.909090 36.489123 62.330212 0
M  V30 85 H 40.461355 31.219689 60.772018 0
M  V30 END ATOM
M  V30 BEGIN BOND
M  V30 1 1 9 4
M  V30 2 1 10 2
M  V30 3 1 12 9
M  V30 4 1 13 5
M  V30 5 1 13 6
M  V30 6 1 14 6
M  V30 7 1 16 1
M  V30 8 1 17 6
M  V30 9 2 17 8
M  V30 10 1 20 16
M  V30 11 1 21 11
M  V30 12 1 22 16
M  V30 13 1 23 7
M  V30 14 1 23 9
M  V30 15 1 24 9
M  V30 16 1 25 1
M  V30 17 1 26 19
M  V30 18 1 27 8
M  V30 19 1 27 22
M  V30 20 1 28 5
M  V30 21 1 28 10
M  V30 22 1 28 14
M  V30 23 1 29 4
M  V30 24 1 31 20
M  V30 25 1 32 25
M  V30 26 1 32 27
M  V30 27 1 5 33 CFG=3
M  V30 28 1 34 4
M  V30 29 1 34 31
M  V30 30 1 35 19
M  V30 31 1 35 21
M  V30 32 1 35 31
M  V30 33 1 36 19
M  V30 34 1 36 29
M  V30 35 1 37 3
M  V30 36 1 37 11
M  V30 37 1 37 18
M  V30 38 1 37 26
M  V30 39 1 38 5
M  V30 40 2 38 15
M  V30 41 1 38 30
M  V30 42 1 39 1
M  V30 43 1 40 1
M  V30 44 1 41 2
M  V30 45 1 4 42 CFG=3
M  V30 46 1 6 43 CFG=1
M  V30 47 1 44 7
M  V30 48 1 45 7
M  V30 49 1 46 7
M  V30 50 1 47 8
M  V30 51 1 48 10
M  V30 52 1 49 11
M  V30 53 1 50 11
M  V30 54 1 51 12
M  V30 55 1 52 12
M  V30 56 1 53 12
M  V30 57 1 54 13
M  V30 58 1 55 13
M  V30 59 1 56 14
M  V30 60 1 57 14
M  V30 61 1 58 17
M  V30 62 1 19 59 CFG=1
M  V30 63 1 60 20
M  V30 64 1 61 21
M  V30 65 1 62 21
M  V30 66 1 63 22
M  V30 67 1 64 22
M  V30 68 1 65 24
M  V30 69 1 66 24
M  V30 70 1 67 24
M  V30 71 1 68 25
M  V30 72 1 69 25
M  V30 73 1 70 26
M  V30 74 1 71 26
M  V30 75 1 27 72 CFG=3
M  V30 76 1 28 73 CFG=3
M  V30 77 1 74 29
M  V30 78 1 75 29
M  V30 79 1 31 76 CFG=3
M  V30 80 1 77 32
M  V30 81 1 78 32
M  V30 82 1 79 33
M  V30 83 1 80 34
M  V30 84 1 81 34
M  V30 85 1 35 82 CFG=3
M  V30 86 1 83 36
M  V30 87 1 84 36
M  V30 88 1 16 85 CFG=3
M  V30 END BOND
M  V30 END CTAB
M  END
>  <i_epik_Tot_Q>  (1) 
0

>  <i_epik_Tot_abs_Q>  (1) 
2

>  <i_i_glide_confnum>  (1) 
387

>  <i_i_glide_lignum>  (1) 
238

>  <i_i_glide_posenum>  (1) 
269

>  <i_i_glide_rotatable_bonds>  (1) 
10

>  <i_lp_mmshare_version>  (1) 
72125

>  <i_m_source_file_index>  (1) 
91

>  <i_f3d_flags>  (1) 
0

>  <num_sample>  (1) 
100

>  <b_lp_Chiralities_Consistent>  (1) 
1

>  <r_epik_Charging_Adjusted_Penalty>  (1) 
1.5083745474312953

>  <r_epik_Ionization_Penalty>  (1) 
0.65750586125956467

>  <r_epik_Ionization_Penalty_Charging>  (1) 
0.6544614066189578

>  <r_epik_Ionization_Penalty_Neutral>  (1) 
0.0030444546406068235

>  <r_epik_State_Penalty>  (1) 
0.8539131408123376

>  <r_glide_ring_energy>  (1) 
1.5457856915782662

>  <r_i_docking_score>  (1) 
-4.8696521396266723

>  <r_i_glide_ecoul>  (1) 
-0.68510682713290505

>  <r_i_glide_eff_state_penalty>  (1) 
0.8539131408123376

>  <r_i_glide_einternal>  (1) 
24.50341903241414

>  <r_i_glide_emodel>  (1) 
-17.109859402994637

>  <r_i_glide_emodel_strain>  (1) 
4.9337241271985732

>  <r_i_glide_energy>  (1) 
-22.996557829053366

>  <r_i_glide_erotb>  (1) 
0.42002339013477186

>  <r_i_glide_esite>  (1) 
0

>  <r_i_glide_evdw>  (1) 
-22.31145100192046

>  <r_i_glide_gscore>  (1) 
-5.7235652804390096

>  <r_i_glide_gscore_strain>  (1) 
0.23343103179964331

>  <r_i_glide_hbond>  (1) 
0

>  <r_i_glide_ligand_efficiency>  (1) 
-0.12814874051649139

>  <r_i_glide_ligand_efficiency_ln>  (1) 
-1.0500402519559828

>  <r_i_glide_ligand_efficiency_sa>  (1) 
-0.43083291402870599

>  <r_i_glide_lipo>  (1) 
-3.8929575501769138

>  <r_i_glide_metal>  (1) 
-0

>  <r_i_glide_rewards>  (1) 
-1.2657235780305534

>  <r_lp_Energy>  (1) 
51.758362999999996

>  <s_epik_Chemistry_Notes>  (1) 
This compound has a N-S or N-O group and may undergo hydrolysis at high or low pH.

>  <s_epik_cmdline>  (1) 
J2VwaWtfcHl0aG9uJywgJy1waHQnLCAnMS4wJywgJy1waCcsICc3LjQnLCAnLXRuJywgJzgnLCAnLW1hJywgJzUwMCcsICctaW1hZScsICc8aW5maWxlLm1hZT4nLCAnLW9tYWUnLCAnPG91dGZpbGUubWFlPic=

>  <s_epik_input>  (1) 
RkMoRikoW0NIMl0xKVtDSDJdW0NIMl1bQ0BIXShbQ0BASF0xMilbQ0BIXShbQ0gyXVtDQEhdKFtDSDJdW0NIMl0yKUMoW0NIM10pKFtDSDNdKU9bQ0gzXSlbTkhdTjNbQ0gyXVtDSDJdW0NIMl1bQ0BIXShbQ0gyXTMpL1tDSF09W0NIXVxbQ0BASF0oW0NIMl1bQ0BdNChbT0hdKUMoPU8pW09IXSlbQ0gyXVtDQEBIXTRbTkhdW09IXQ==

>  <s_glide_docking_method>  (1) 
confgen

>  <s_i_glide_gridfile>  (1) 
gpcr_5ht2c_6bqh_protein_autoprepared_prepared

>  <s_lp_Force_Field>  (1) 
S-OPLS

>  <s_lp_Variant>  (1) 
DiffSBDD_90_num_sample_100-10

>  <s_m_source_file>  (1) 
generated__ligand_DiffSBDD_2026-05-06_prepared.sdf

>  <GenAI_Model>  (1) 
DiffSBDD

>  <Protein>  (1) 
GPCR_5HT2C

$$$$
DiffSBDD_52_num_sample_100
     RDKit          3D

  0  0  0  0  0  0  0  0  0  0999 V3000
M  V30 BEGIN CTAB
M  V30 COUNTS 25 25 0 0 1
M  V30 BEGIN ATOM
M  V30 1 C 38.525770 29.111068 54.282293 0 CFG=1
M  V30 2 O 37.867404 27.013723 53.375073 0
M  V30 3 C 38.833477 28.408861 51.752572 0 CFG=2
M  V30 4 S 38.267403 29.912343 56.922246 0
M  V30 5 C 38.958471 31.158009 55.820047 0 CFG=1
M  V30 6 S 39.779414 30.421430 54.404038 0
M  V30 7 O 39.867403 29.502751 49.853501 0
M  V30 8 C 38.867002 28.007110 53.252178 0 CFG=1
M  V30 9 O 39.067404 27.221430 51.025495 0
M  V30 10 C 39.913418 29.395605 51.265395 0
M  V30 11 N 37.867404 31.948326 55.303617 0
M  V30 12 C 38.352168 28.556943 55.713081 0
M  V30 13 H 37.587998 29.582086 53.983397 0
M  V30 14 H 37.890289 26.516232 52.565376 0
M  V30 15 H 37.848746 28.792771 51.487200 0
M  V30 16 H 39.639852 31.804694 56.373380 0
M  V30 17 H 39.000835 29.789894 49.581778 0
M  V30 18 H 39.821553 27.541129 53.497064 0
M  V30 19 H 39.342938 27.478204 50.155201 0
M  V30 20 H 40.910755 29.069308 51.562118 0
M  V30 21 H 39.755492 30.392665 51.672531 0
M  V30 22 H 37.113749 32.021430 55.986511 0
M  V30 23 H 38.160298 32.890915 55.098465 0
M  V30 24 H 37.467408 27.927755 55.800557 0
M  V30 25 H 39.210335 27.936194 55.972211 0
M  V30 END ATOM
M  V30 BEGIN BOND
M  V30 1 1 5 4
M  V30 2 1 6 1
M  V30 3 1 6 5
M  V30 4 1 8 1
M  V30 5 1 8 2
M  V30 6 1 8 3
M  V30 7 1 9 3
M  V30 8 1 10 3
M  V30 9 1 10 7
M  V30 10 1 11 5
M  V30 11 1 12 1
M  V30 12 1 12 4
M  V30 13 1 1 13 CFG=3
M  V30 14 1 14 2
M  V30 15 1 3 15 CFG=3
M  V30 16 1 5 16 CFG=1
M  V30 17 1 17 7
M  V30 18 1 8 18 CFG=1
M  V30 19 1 19 9
M  V30 20 1 20 10
M  V30 21 1 21 10
M  V30 22 1 22 11
M  V30 23 1 23 11
M  V30 24 1 24 12
M  V30 25 1 25 12
M  V30 END BOND
M  V30 END CTAB
M  END
>  <i_epik_Tot_Q>  (1) 
0

>  <i_epik_Tot_abs_Q>  (1) 
0

>  <i_i_glide_confnum>  (1) 
51

>  <i_i_glide_lignum>  (1) 
138

>  <i_i_glide_posenum>  (1) 
63

>  <i_i_glide_rotatable_bonds>  (1) 
6

>  <i_lp_mmshare_version>  (1) 
72125

>  <i_m_source_file_index>  (1) 
53

>  <i_f3d_flags>  (1) 
0

>  <num_sample>  (1) 
100

>  <b_lp_Chiralities_Consistent>  (1) 
1

>  <r_epik_Charging_Adjusted_Penalty>  (1) 
0.012458627256782779

>  <r_epik_Ionization_Penalty>  (1) 
0.012459545935989014

>  <r_epik_Ionization_Penalty_Charging>  (1) 
0

>  <r_epik_Ionization_Penalty_Neutral>  (1) 
0.012459545935989014

>  <r_epik_State_Penalty>  (1) 
0.012458627256782779

>  <r_glide_ring_energy>  (1) 
0.7540267518618381

>  <r_i_docking_score>  (1) 
-4.8637001915252371

>  <r_i_glide_ecoul>  (1) 
-3.9820782018712828

>  <r_i_glide_eff_state_penalty>  (1) 
0.012458627256782779

>  <r_i_glide_einternal>  (1) 
5.0676696348005077

>  <r_i_glide_emodel>  (1) 
-34.682908665920287

>  <r_i_glide_emodel_strain>  (1) 
1.4431878001380269

>  <r_i_glide_energy>  (1) 
-28.334150692832846

>  <r_i_glide_erotb>  (1) 
1.1173698675060917

>  <r_i_glide_esite>  (1) 
0

>  <r_i_glide_evdw>  (1) 
-24.352072490961564

>  <r_i_glide_gscore>  (1) 
-4.8761588187820202

>  <r_i_glide_gscore_strain>  (1) 
0

>  <r_i_glide_hbond>  (1) 
-0.46143346779918354

>  <r_i_glide_ligand_efficiency>  (1) 
-0.40530834929376974

>  <r_i_glide_ligand_efficiency_ln>  (1) 
-1.3956471952616332

>  <r_i_glide_ligand_efficiency_sa>  (1) 
-0.92792448012471795

>  <r_i_glide_lipo>  (1) 
-1.5377161137134987

>  <r_i_glide_metal>  (1) 
-0

>  <r_i_glide_rewards>  (1) 
-2.1794637499466587

>  <r_lp_Energy>  (1) 
-4.7131299999999996

>  <s_epik_Chemistry_Notes>  (1) 
This compound contains an acetal/aminal-like group ( X-CH(R)-Y where X, Y are N, S, or O) that may be acid/base labile, releasing an aldehyde.

>  <s_epik_cmdline>  (1) 
J2VwaWtfcHl0aG9uJywgJy1waHQnLCAnMS4wJywgJy1waCcsICc3LjQnLCAnLXRuJywgJzgnLCAnLW1hJywgJzUwMCcsICctaW1hZScsICc8aW5maWxlLm1hZT4nLCAnLW9tYWUnLCAnPG91dGZpbGUubWFlPic=

>  <s_epik_input>  (1) 
W0NIMl0xU1tDQEhdKFtOSDJdKVNbQ0BIXTFbQ0BASF0oW09IXSlbQ0BIXShbT0hdKVtDSDJdW09IXQ==

>  <s_glide_docking_method>  (1) 
confgen

>  <s_i_glide_gridfile>  (1) 
gpcr_5ht2c_6bqh_protein_autoprepared_prepared

>  <s_lp_Force_Field>  (1) 
S-OPLS

>  <s_lp_Variant>  (1) 
DiffSBDD_52_num_sample_100-1

>  <s_m_source_file>  (1) 
generated__ligand_DiffSBDD_2026-05-06_prepared.sdf

>  <GenAI_Model>  (1) 
DiffSBDD

>  <Protein>  (1) 
GPCR_5HT2C

$$$$
DiffSBDD_90_num_sample_100
     RDKit          3D

  0  0  0  0  0  0  0  0  0  0999 V3000
M  V30 BEGIN CTAB
M  V30 COUNTS 85 88 0 0 1
M  V30 BEGIN ATOM
M  V30 1 C 40.475530 28.217860 59.517691 0
M  V30 2 O 40.440477 36.299928 62.820516 0
M  V30 3 F 37.937622 23.621481 55.945586 0
M  V30 4 C 38.476022 29.389789 54.763389 0 CFG=1
M  V30 5 C 37.374067 35.692558 60.700367 0 CFG=2
M  V30 6 C 38.720087 33.879308 59.732885 0 CFG=1
M  V30 7 C 37.266183 32.046239 54.422113 0
M  V30 8 C 38.735127 31.379900 59.945206 0
M  V30 9 C 39.210230 30.746781 54.556764 0
M  V30 10 N 39.023321 36.097729 62.591389 0
M  V30 11 C 37.732578 24.826144 57.811554 0
M  V30 12 C 40.420234 30.869245 55.430147 0
M  V30 13 C 37.429850 34.686637 59.529898 0
M  V30 14 C 39.675895 34.769047 60.537164 0
M  V30 15 O 36.345045 37.221423 59.175849 0
M  V30 16 N 39.285174 28.680343 58.766597 0 CFG=1 CHG=1
M  V30 17 C 38.483705 32.581898 60.469663 0
M  V30 18 F 39.483032 23.413886 57.453574 0
M  V30 19 C 38.427729 26.046064 55.166167 0 CFG=1
M  V30 20 N 39.026256 27.740701 57.661465 0
M  V30 21 C 36.715427 25.659796 57.061230 0
M  V30 22 C 38.153545 28.960619 59.694485 0
M  V30 23 O 38.480213 31.844258 55.068490 0
M  V30 24 C 39.626381 30.995745 53.081652 0
M  V30 25 C 40.894522 29.222021 60.598599 0
M  V30 26 C 39.485257 25.260206 55.937215 0
M  V30 27 C 38.515040 30.076436 60.677646 0 CFG=1
M  V30 28 C 38.841561 35.898721 61.152566 0 CFG=1
M  V30 29 C 39.452274 28.260105 54.413989 0
M  V30 30 O 36.686872 37.909887 61.264966 0 CHG=-1
M  V30 31 C 37.799372 27.955936 56.903943 0 CFG=1
M  V30 32 C 39.730458 29.638900 61.506309 0
M  V30 33 O 36.625876 35.052895 61.717220 0
M  V30 34 C 37.798215 29.300857 56.153297 0
M  V30 35 C 37.408289 26.671094 56.114321 0 CFG=1
M  V30 36 C 38.874234 26.926840 54.014059 0
M  V30 37 C 38.706900 24.264318 56.806676 0
M  V30 38 C 36.745652 37.058696 60.349209 0
M  V30 39 H 41.306956 28.053308 58.828762 0
M  V30 40 H 40.255279 27.252808 59.975943 0
M  V30 41 H 40.454551 37.118840 63.298510 0
M  V30 42 H 37.667787 29.336536 54.033948 0
M  V30 43 H 39.156240 33.635268 58.762543 0
M  V30 44 H 37.067785 33.110617 54.298437 0
M  V30 45 H 37.357079 31.621356 53.453662 0
M  V30 46 H 36.443081 31.521794 54.894873 0
M  V30 47 H 39.118225 31.311490 58.939487 0
M  V30 48 H 38.812262 35.276802 63.137957 0
M  V30 49 H 37.212740 24.001579 58.283045 0
M  V30 50 H 38.238437 25.385121 58.593732 0
M  V30 51 H 41.253707 30.279342 55.053270 0
M  V30 52 H 40.736724 31.909745 55.453127 0
M  V30 53 H 40.227645 30.549623 56.451394 0
M  V30 54 H 37.467419 35.186882 58.562695 0
M  V30 55 H 36.545345 34.049624 59.471478 0
M  V30 56 H 40.412262 35.217869 59.874421 0
M  V30 57 H 40.234674 34.197169 61.279211 0
M  V30 58 H 38.095566 32.656336 61.475900 0
M  V30 59 H 37.866834 25.315649 54.581866 0
M  V30 60 H 38.958515 26.877999 58.181144 0
M  V30 61 H 36.071181 25.007216 56.465415 0
M  V30 62 H 36.061094 26.108407 57.803679 0
M  V30 63 H 37.934449 28.047751 60.246920 0
M  V30 64 H 37.245086 29.275577 59.183962 0
M  V30 65 H 40.667484 30.768044 52.901210 0
M  V30 66 H 39.067422 30.374800 52.390196 0
M  V30 67 H 39.460994 32.021189 52.777492 0
M  V30 68 H 41.308827 30.103117 60.110767 0
M  V30 69 H 41.682112 28.778557 61.207761 0
M  V30 70 H 40.103569 24.747965 55.212209 0
M  V30 71 H 40.167709 25.872805 56.517103 0
M  V30 72 H 37.688833 30.254943 61.362047 0
M  V30 73 H 39.179309 36.820953 60.700862 0
M  V30 74 H 39.867392 28.573705 53.469784 0
M  V30 75 H 40.253202 28.154402 55.144885 0
M  V30 76 H 36.996459 28.045245 57.628132 0
M  V30 77 H 40.044403 30.433394 62.182596 0
M  V30 78 H 39.454235 28.795139 62.142683 0
M  V30 79 H 37.005535 34.202025 61.857325 0
M  V30 80 H 36.762879 29.621450 56.026898 0
M  V30 81 H 38.169318 30.070286 56.824989 0
M  V30 82 H 36.667497 26.835549 55.354716 0
M  V30 83 H 38.036943 27.096365 53.333476 0
M  V30 84 H 39.615532 26.384716 53.424346 0
M  V30 85 H 39.522617 29.549214 58.307483 0
M  V30 END ATOM
M  V30 BEGIN BOND
M  V30 1 1 9 4
M  V30 2 1 10 2
M  V30 3 1 12 9
M  V30 4 1 13 5
M  V30 5 1 13 6
M  V30 6 1 14 6
M  V30 7 1 16 1
M  V30 8 1 17 6
M  V30 9 2 17 8
M  V30 10 1 20 16
M  V30 11 1 21 11
M  V30 12 1 22 16
M  V30 13 1 23 7
M  V30 14 1 23 9
M  V30 15 1 24 9
M  V30 16 1 25 1
M  V30 17 1 26 19
M  V30 18 1 27 8
M  V30 19 1 27 22
M  V30 20 1 28 5
M  V30 21 1 28 10
M  V30 22 1 28 14
M  V30 23 1 29 4
M  V30 24 1 31 20
M  V30 25 1 32 25
M  V30 26 1 32 27
M  V30 27 1 5 33 CFG=1
M  V30 28 1 34 4
M  V30 29 1 34 31
M  V30 30 1 35 19
M  V30 31 1 35 21
M  V30 32 1 35 31
M  V30 33 1 36 19
M  V30 34 1 36 29
M  V30 35 1 37 3
M  V30 36 1 37 11
M  V30 37 1 37 18
M  V30 38 1 37 26
M  V30 39 1 38 5
M  V30 40 2 38 15
M  V30 41 1 38 30
M  V30 42 1 39 1
M  V30 43 1 40 1
M  V30 44 1 41 2
M  V30 45 1 4 42 CFG=3
M  V30 46 1 6 43 CFG=3
M  V30 47 1 44 7
M  V30 48 1 45 7
M  V30 49 1 46 7
M  V30 50 1 47 8
M  V30 51 1 48 10
M  V30 52 1 49 11
M  V30 53 1 50 11
M  V30 54 1 51 12
M  V30 55 1 52 12
M  V30 56 1 53 12
M  V30 57 1 54 13
M  V30 58 1 55 13
M  V30 59 1 56 14
M  V30 60 1 57 14
M  V30 61 1 58 17
M  V30 62 1 19 59 CFG=3
M  V30 63 1 60 20
M  V30 64 1 61 21
M  V30 65 1 62 21
M  V30 66 1 63 22
M  V30 67 1 64 22
M  V30 68 1 65 24
M  V30 69 1 66 24
M  V30 70 1 67 24
M  V30 71 1 68 25
M  V30 72 1 69 25
M  V30 73 1 70 26
M  V30 74 1 71 26
M  V30 75 1 27 72 CFG=1
M  V30 76 1 28 73 CFG=3
M  V30 77 1 74 29
M  V30 78 1 75 29
M  V30 79 1 31 76 CFG=1
M  V30 80 1 77 32
M  V30 81 1 78 32
M  V30 82 1 79 33
M  V30 83 1 80 34
M  V30 84 1 81 34
M  V30 85 1 35 82 CFG=3
M  V30 86 1 83 36
M  V30 87 1 84 36
M  V30 88 1 16 85 CFG=3
M  V30 END BOND
M  V30 END CTAB
M  END
>  <i_epik_Tot_Q>  (1) 
0

>  <i_epik_Tot_abs_Q>  (1) 
2

>  <i_i_glide_confnum>  (1) 
807

>  <i_i_glide_lignum>  (1) 
243

>  <i_i_glide_posenum>  (1) 
189

>  <i_i_glide_rotatable_bonds>  (1) 
10

>  <i_lp_mmshare_version>  (1) 
72125

>  <i_m_source_file_index>  (1) 
91

>  <i_f3d_flags>  (1) 
0

>  <num_sample>  (1) 
100

>  <b_lp_Chiralities_Consistent>  (1) 
1

>  <r_epik_Charging_Adjusted_Penalty>  (1) 
1.5083745474312953

>  <r_epik_Ionization_Penalty>  (1) 
0.65750586125956467

>  <r_epik_Ionization_Penalty_Charging>  (1) 
0.6544614066189578

>  <r_epik_Ionization_Penalty_Neutral>  (1) 
0.0030444546406068235

>  <r_epik_State_Penalty>  (1) 
0.8539131408123376

>  <r_glide_ring_energy>  (1) 
0.48000684916914799

>  <r_i_docking_score>  (1) 
-4.859130132529625

>  <r_i_glide_ecoul>  (1) 
-0.80979069432864303

>  <r_i_glide_eff_state_penalty>  (1) 
0.8539131408123376

>  <r_i_glide_einternal>  (1) 
17.653655161457522

>  <r_i_glide_emodel>  (1) 
-5.7592942535062477

>  <r_i_glide_emodel_strain>  (1) 
4.3301188588514066

>  <r_i_glide_energy>  (1) 
-11.574495165144793

>  <r_i_glide_erotb>  (1) 
0.42002339013477186

>  <r_i_glide_esite>  (1) 
0

>  <r_i_glide_evdw>  (1) 
-10.764704470816149

>  <r_i_glide_gscore>  (1) 
-5.7130432733419623

>  <r_i_glide_gscore_strain>  (1) 
0.082529714712851643

>  <r_i_glide_hbond>  (1) 
-0.039454223264693881

>  <r_i_glide_ligand_efficiency>  (1) 
-0.12787184559288486

>  <r_i_glide_ligand_efficiency_ln>  (1) 
-1.0477713976997702

>  <r_i_glide_ligand_efficiency_sa>  (1) 
-0.42990200010527341

>  <r_i_glide_lipo>  (1) 
-4.3266223023236785

>  <r_i_glide_metal>  (1) 
-0

>  <r_i_glide_rewards>  (1) 
-1.1898160249111103

>  <r_lp_Energy>  (1) 
44.827317999999998

>  <s_epik_Chemistry_Notes>  (1) 
This compound has a N-S or N-O group and may undergo hydrolysis at high or low pH.

>  <s_epik_cmdline>  (1) 
J2VwaWtfcHl0aG9uJywgJy1waHQnLCAnMS4wJywgJy1waCcsICc3LjQnLCAnLXRuJywgJzgnLCAnLW1hJywgJzUwMCcsICctaW1hZScsICc8aW5maWxlLm1hZT4nLCAnLW9tYWUnLCAnPG91dGZpbGUubWFlPic=

>  <s_epik_input>  (1) 
RkMoRikoW0NIMl0xKVtDSDJdW0NIMl1bQ0BIXShbQ0BASF0xMilbQ0BIXShbQ0gyXVtDQEhdKFtDSDJdW0NIMl0yKUMoW0NIM10pKFtDSDNdKU9bQ0gzXSlbTkhdTjNbQ0gyXVtDSDJdW0NIMl1bQ0BIXShbQ0gyXTMpL1tDSF09W0NIXS9bQ0BASF0oW0NIMl1bQ0BdNChbT0hdKUMoPU8pW09IXSlbQ0gyXVtDQEBIXTRbTkhdW09IXQ==

>  <s_glide_docking_method>  (1) 
confgen

>  <s_i_glide_gridfile>  (1) 
gpcr_5ht2c_6bqh_protein_autoprepared_prepared

>  <s_lp_Force_Field>  (1) 
S-OPLS

>  <s_lp_Variant>  (1) 
DiffSBDD_90_num_sample_100-15

>  <s_m_source_file>  (1) 
generated__ligand_DiffSBDD_2026-05-06_prepared.sdf

>  <GenAI_Model>  (1) 
DiffSBDD

>  <Protein>  (1) 
GPCR_5HT2C

$$$$
DiffSBDD_93_num_sample_100
     RDKit          3D

  0  0  0  0  0  0  0  0  0  0999 V3000
M  V30 BEGIN CTAB
M  V30 COUNTS 74 77 0 0 1
M  V30 BEGIN ATOM
M  V30 1 C 41.913131 31.762828 64.012644 0
M  V30 2 S 36.958282 34.033023 59.449520 0
M  V30 3 C 43.669224 30.506236 65.362062 0 CFG=2
M  V30 4 O 37.516152 37.621414 63.251395 0
M  V30 5 C 37.315051 28.103858 57.853498 0
M  V30 6 C 38.787036 35.388682 62.041326 0 CFG=1
M  V30 7 C 39.445499 29.748087 59.350803 0
M  V30 8 C 37.944677 31.637945 58.818997 0
M  V30 9 C 42.617755 30.399249 66.473135 0
M  V30 10 N 38.173782 32.465136 61.235425 0
M  V30 11 C 38.605632 27.582211 57.227750 0
M  V30 12 C 43.044763 31.017987 64.073945 0
M  V30 13 C 41.392776 32.190325 62.690668 0
M  V30 14 C 39.507973 33.052094 61.236795 0 CFG=2
M  V30 15 C 41.897290 31.736262 66.608657 0
M  V30 16 Cl 41.067391 33.950901 65.403714 0
M  V30 17 O 39.867423 26.876782 59.053399 0
M  V30 18 C 41.191988 32.171205 65.306760 0 CFG=1
M  V30 19 C 42.267354 32.160808 61.466673 0
M  V30 20 C 36.435321 34.812909 60.984512 0
M  V30 21 C 39.572940 36.557204 62.641586 0
M  V30 22 C 40.127534 32.623478 62.566449 0
M  V30 23 C 40.334728 29.149379 58.277092 0
M  V30 24 C 37.404513 35.892182 61.521119 0 CFG=1
M  V30 25 C 37.330015 32.370647 60.044898 0 CFG=1
M  V30 26 C 39.938468 27.713396 57.936719 0 CFG=2
M  V30 27 C 36.689028 36.659613 62.651109 0
M  V30 28 C 38.747297 37.152466 63.781825 0
M  V30 29 C 37.160237 29.281204 58.501910 0
M  V30 30 S 35.867460 31.499914 60.640906 0
M  V30 31 N 38.163594 30.186969 58.835428 0
M  V30 32 C 44.392395 29.168954 65.133331 0
M  V30 33 C 39.620861 34.582470 61.038649 0
M  V30 34 H 44.422778 31.238539 65.652943 0
M  V30 35 H 36.450617 27.491317 57.694280 0
M  V30 36 H 38.667385 34.737302 62.892212 0
M  V30 37 H 39.944370 30.570784 59.853619 0
M  V30 38 H 39.260116 29.030420 60.150518 0
M  V30 39 H 38.880608 32.125587 58.544748 0
M  V30 40 H 37.300184 31.823268 57.959186 0
M  V30 41 H 41.898531 29.609862 66.249023 0
M  V30 42 H 43.092895 30.134950 67.417851 0
M  V30 43 H 37.633643 32.910416 61.959245 0
M  V30 44 H 38.682103 28.068935 56.255038 0
M  V30 45 H 38.437494 26.529439 57.001417 0
M  V30 46 H 43.540759 30.727167 63.169744 0
M  V30 47 H 40.044887 32.597651 60.411603 0
M  V30 48 H 41.182587 31.709409 67.431810 0
M  V30 49 H 42.643648 32.483885 66.884945 0
M  V30 50 H 40.699911 26.896585 59.499707 0
M  V30 51 H 40.183275 31.757766 65.300499 0
M  V30 52 H 43.323975 32.021754 61.643726 0
M  V30 53 H 41.867304 31.480897 60.719522 0
M  V30 54 H 42.242178 33.163504 61.053496 0
M  V30 55 H 35.489936 35.221405 60.653400 0
M  V30 56 H 36.182029 34.096159 61.763634 0
M  V30 57 H 39.790622 37.314861 61.888187 0
M  V30 58 H 40.530829 36.217148 63.038141 0
M  V30 59 H 39.484840 32.671260 63.431851 0
M  V30 60 H 41.370592 29.170755 58.617844 0
M  V30 61 H 40.267587 29.765413 57.379575 0
M  V30 62 H 37.594085 36.597491 60.710557 0
M  V30 63 H 40.707130 27.300349 57.282538 0
M  V30 64 H 35.867380 37.236897 62.246077 0
M  V30 65 H 36.271786 36.017290 63.423642 0
M  V30 66 H 39.295449 37.975107 64.242244 0
M  V30 67 H 38.562808 36.421761 64.568714 0
M  V30 68 H 36.180837 29.601072 58.818493 0
M  V30 69 H 35.273115 32.566026 61.180246 0
M  V30 70 H 45.161439 29.259235 64.365214 0
M  V30 71 H 44.887375 28.828670 66.043519 0
M  V30 72 H 43.699664 28.387743 64.818790 0
M  V30 73 H 39.415840 34.880080 60.013646 0
M  V30 74 H 40.671969 34.844902 61.161895 0
M  V30 END ATOM
M  V30 BEGIN BOND
M  V30 1 1 9 3
M  V30 2 1 11 5
M  V30 3 2 12 1
M  V30 4 1 12 3
M  V30 5 1 13 1
M  V30 6 1 14 10
M  V30 7 1 15 9
M  V30 8 1 18 1
M  V30 9 1 18 15
M  V30 10 1 18 16
M  V30 11 1 19 13
M  V30 12 1 20 2
M  V30 13 1 21 6
M  V30 14 2 22 13
M  V30 15 1 22 14
M  V30 16 1 23 7
M  V30 17 1 24 6
M  V30 18 1 24 20
M  V30 19 1 25 2
M  V30 20 1 25 8
M  V30 21 1 25 10
M  V30 22 1 26 11
M  V30 23 1 26 17
M  V30 24 1 26 23
M  V30 25 1 27 4
M  V30 26 1 27 24
M  V30 27 1 28 4
M  V30 28 1 28 21
M  V30 29 2 29 5
M  V30 30 1 25 30 CFG=1
M  V30 31 1 31 7
M  V30 32 1 31 8
M  V30 33 1 31 29
M  V30 34 1 32 3
M  V30 35 1 33 6
M  V30 36 1 33 14
M  V30 37 1 3 34 CFG=1
M  V30 38 1 35 5
M  V30 39 1 6 36 CFG=1
M  V30 40 1 37 7
M  V30 41 1 38 7
M  V30 42 1 39 8
M  V30 43 1 40 8
M  V30 44 1 41 9
M  V30 45 1 42 9
M  V30 46 1 43 10
M  V30 47 1 44 11
M  V30 48 1 45 11
M  V30 49 1 46 12
M  V30 50 1 14 47 CFG=3
M  V30 51 1 48 15
M  V30 52 1 49 15
M  V30 53 1 50 17
M  V30 54 1 18 51 CFG=3
M  V30 55 1 52 19
M  V30 56 1 53 19
M  V30 57 1 54 19
M  V30 58 1 55 20
M  V30 59 1 56 20
M  V30 60 1 57 21
M  V30 61 1 58 21
M  V30 62 1 59 22
M  V30 63 1 60 23
M  V30 64 1 61 23
M  V30 65 1 24 62 CFG=3
M  V30 66 1 26 63 CFG=3
M  V30 67 1 64 27
M  V30 68 1 65 27
M  V30 69 1 66 28
M  V30 70 1 67 28
M  V30 71 1 68 29
M  V30 72 1 69 30
M  V30 73 1 70 32
M  V30 74 1 71 32
M  V30 75 1 72 32
M  V30 76 1 73 33
M  V30 77 1 74 33
M  V30 END BOND
M  V30 END CTAB
M  END
>  <i_epik_Tot_Q>  (1) 
0

>  <i_epik_Tot_abs_Q>  (1) 
0

>  <i_i_glide_confnum>  (1) 
42

>  <i_i_glide_lignum>  (1) 
255

>  <i_i_glide_posenum>  (1) 
397

>  <i_i_glide_rotatable_bonds>  (1) 
6

>  <i_lp_mmshare_version>  (1) 
72125

>  <i_m_source_file_index>  (1) 
94

>  <i_f3d_flags>  (1) 
0

>  <num_sample>  (1) 
100

>  <b_lp_Chiralities_Consistent>  (1) 
1

>  <r_epik_Charging_Adjusted_Penalty>  (1) 
0.20325292957253988

>  <r_epik_Ionization_Penalty>  (1) 
0.031936562948065232

>  <r_epik_Ionization_Penalty_Charging>  (1) 
3.6030848355623751e-07

>  <r_epik_Ionization_Penalty_Neutral>  (1) 
0.031936202639581676

>  <r_epik_State_Penalty>  (1) 
0.20325256926405633

>  <r_glide_ring_energy>  (1) 
0

>  <r_i_docking_score>  (1) 
-4.8465404697233421

>  <r_i_glide_ecoul>  (1) 
-1.1584052447731989

>  <r_i_glide_eff_state_penalty>  (1) 
0.20325256926405633

>  <r_i_glide_einternal>  (1) 
13.270135068754636

>  <r_i_glide_emodel>  (1) 
-25.273958090482477

>  <r_i_glide_emodel_strain>  (1) 
4.5466880590214487

>  <r_i_glide_energy>  (1) 
-25.384353180953113

>  <r_i_glide_erotb>  (1) 
0.31140238833871409

>  <r_i_glide_esite>  (1) 
-0.094691331589958072

>  <r_i_glide_evdw>  (1) 
-24.225947936179914

>  <r_i_glide_gscore>  (1) 
-5.0497930389873984

>  <r_i_glide_gscore_strain>  (1) 
0.13667201475536217

>  <r_i_glide_hbond>  (1) 
0

>  <r_i_glide_ligand_efficiency>  (1) 
-0.14686486271888916

>  <r_i_glide_ligand_efficiency_ln>  (1) 
-1.0778455064229233

>  <r_i_glide_ligand_efficiency_sa>  (1) 
-0.47107408904096121

>  <r_i_glide_lipo>  (1) 
-3.6931179269665408

>  <r_i_glide_metal>  (1) 
-0

>  <r_i_glide_rewards>  (1) 
-0.32500000000000007

>  <r_lp_Energy>  (1) 
30.005939999999999

>  <s_epik_Chemistry_Notes>  (1) 
This compound has an imine and may undergo hydrolysis.

>  <s_epik_cmdline>  (1) 
J2VwaWtfcHl0aG9uJywgJy1waHQnLCAnMS4wJywgJy1waCcsICc3LjQnLCAnLXRuJywgJzgnLCAnLW1hJywgJzUwMCcsICctaW1hZScsICc8aW5maWxlLm1hZT4nLCAnLW9tYWUnLCAnPG91dGZpbGUubWFlPic=

>  <s_epik_input>  (1) 
Q2xbQ0BIXTFbQ0gyXVtDSDJdW0NAQEhdKFtDSDNdKVtDSF09QzEvQyhbQ0gzXSk9W0NIXS9bQ0BASF0oW0NIMl0yKVtOSF1bQ0BAXShbU0hdKShTW0NIMl1bQ0BIXShbQ0BASF0yMylbQ0gyXU9bQ0gyXVtDSDJdMylbQ0gyXU4oW0NIMl1bQ0gyXTQpW0NIXT1bQ0hdW0NIMl1bQ0BASF00W09IXQ==

>  <s_glide_docking_method>  (1) 
confgen

>  <s_i_glide_gridfile>  (1) 
gpcr_5ht2c_6bqh_protein_autoprepared_prepared

>  <s_lp_Force_Field>  (1) 
S-OPLS

>  <s_lp_Variant>  (1) 
DiffSBDD_93_num_sample_100-7

>  <s_m_source_file>  (1) 
generated__ligand_DiffSBDD_2026-05-06_prepared.sdf

>  <GenAI_Model>  (1) 
DiffSBDD

>  <Protein>  (1) 
GPCR_5HT2C

$$$$
DiffSBDD_93_num_sample_100
     RDKit          3D

  0  0  0  0  0  0  0  0  0  0999 V3000
M  V30 BEGIN CTAB
M  V30 COUNTS 74 77 0 0 1
M  V30 BEGIN ATOM
M  V30 1 C 39.182264 28.001014 56.608516 0
M  V30 2 S 40.469251 31.781998 61.053603 0
M  V30 3 C 39.309791 29.633981 54.638728 0 CFG=2
M  V30 4 O 42.678475 29.156360 65.113744 0
M  V30 5 C 35.630081 34.007635 60.723922 0
M  V30 6 C 40.997245 28.890806 62.722018 0 CFG=1
M  V30 7 C 38.385787 34.011674 59.330328 0
M  V30 8 C 38.093308 31.570545 59.530362 0
M  V30 9 C 38.974541 28.473061 53.683859 0
M  V30 10 N 38.681990 29.659096 61.061796 0 CHG=1
M  V30 11 C 36.448860 34.999092 61.549739 0
M  V30 12 C 39.438983 29.245260 56.108255 0
M  V30 13 C 39.311293 27.734485 58.083591 0
M  V30 14 C 39.577589 28.630761 60.486695 0 CFG=1
M  V30 15 C 38.090301 27.438170 54.354793 0
M  V30 16 Cl 37.466767 25.751003 56.254164 0
M  V30 17 O 37.043727 36.595320 59.811621 0
M  V30 18 C 38.716712 26.879188 55.644285 0 CFG=2
M  V30 19 C 39.204721 26.312869 58.611901 0
M  V30 20 C 40.923974 31.522601 62.799900 0
M  V30 21 C 41.676592 27.719988 63.482600 0
M  V30 22 C 39.516467 28.763866 58.957815 0
M  V30 23 C 38.725831 34.938536 60.494420 0
M  V30 24 C 41.693153 30.226723 63.134449 0 CFG=1
M  V30 25 C 38.779551 31.120691 60.870238 0 CFG=1
M  V30 26 C 37.545782 35.821767 60.885869 0 CFG=2
M  V30 27 C 41.969540 30.291361 64.657337 0
M  V30 28 C 41.896520 27.987660 64.973900 0
M  V30 29 C 36.155860 33.066924 59.917150 0
M  V30 30 S 37.784108 31.621421 62.253441 0 CHG=-1
M  V30 31 N 37.506732 32.896391 59.643454 0
M  V30 32 C 38.304539 30.790061 54.502738 0
M  V30 33 C 40.960004 28.648387 61.158671 0
M  V30 34 H 40.280501 30.032210 54.346035 0
M  V30 35 H 34.563291 34.021476 60.874885 0
M  V30 36 H 39.982276 28.933041 63.110049 0
M  V30 37 H 39.312892 33.641710 58.889881 0
M  V30 38 H 37.867362 34.553080 58.535659 0
M  V30 39 H 37.300625 30.871401 59.260512 0
M  V30 40 H 38.785579 31.575539 58.691011 0
M  V30 41 H 38.486852 28.857929 52.787309 0
M  V30 42 H 39.866485 27.964186 53.325360 0
M  V30 43 H 38.715919 29.545661 62.066607 0
M  V30 44 H 36.933371 34.335564 62.252906 0
M  V30 45 H 35.867397 35.621585 62.219855 0
M  V30 46 H 39.755934 30.038664 56.752813 0
M  V30 47 H 39.103976 27.700624 60.791340 0
M  V30 48 H 37.125860 27.892478 54.586153 0
M  V30 49 H 37.886531 26.628466 53.653238 0
M  V30 50 H 36.642328 36.006201 59.188335 0
M  V30 51 H 39.590695 26.276190 55.394157 0
M  V30 52 H 38.194577 26.070819 58.924865 0
M  V30 53 H 39.548220 25.584134 57.878962 0
M  V30 54 H 39.867462 26.169410 59.453489 0
M  V30 55 H 41.571733 32.361932 63.051751 0
M  V30 56 H 40.074407 31.638347 63.465674 0
M  V30 57 H 42.648760 27.498290 63.040821 0
M  V30 58 H 41.067358 26.821398 63.451852 0
M  V30 59 H 39.625021 29.754438 58.594239 0
M  V30 60 H 39.569179 35.576754 60.236420 0
M  V30 61 H 39.063951 34.350585 61.347502 0
M  V30 62 H 42.666792 30.264439 62.653995 0
M  V30 63 H 37.917179 36.529128 61.628218 0
M  V30 64 H 42.576082 31.167545 64.888596 0
M  V30 65 H 41.042159 30.391917 65.226361 0
M  V30 66 H 42.430046 27.151634 65.427403 0
M  V30 67 H 40.948564 28.083395 65.506958 0
M  V30 68 H 35.527147 32.329328 59.437125 0
M  V30 69 H 38.530857 31.605432 55.192243 0
M  V30 70 H 38.321406 31.208465 53.497733 0
M  V30 71 H 37.285110 30.461174 54.707248 0
M  V30 72 H 41.467397 29.428381 60.624476 0
M  V30 73 H 41.492026 27.735911 60.896686 0
M  V30 74 H 37.742215 29.430031 60.776452 0
M  V30 END ATOM
M  V30 BEGIN BOND
M  V30 1 1 9 3
M  V30 2 1 11 5
M  V30 3 2 12 1
M  V30 4 1 12 3
M  V30 5 1 13 1
M  V30 6 1 14 10
M  V30 7 1 15 9
M  V30 8 1 18 1
M  V30 9 1 18 15
M  V30 10 1 18 16
M  V30 11 1 19 13
M  V30 12 1 20 2
M  V30 13 1 21 6
M  V30 14 2 22 13
M  V30 15 1 22 14
M  V30 16 1 23 7
M  V30 17 1 24 6
M  V30 18 1 24 20
M  V30 19 1 25 2
M  V30 20 1 25 8
M  V30 21 1 25 10
M  V30 22 1 26 11
M  V30 23 1 26 17
M  V30 24 1 26 23
M  V30 25 1 27 4
M  V30 26 1 27 24
M  V30 27 1 28 4
M  V30 28 1 28 21
M  V30 29 2 29 5
M  V30 30 1 25 30 CFG=1
M  V30 31 1 31 7
M  V30 32 1 31 8
M  V30 33 1 31 29
M  V30 34 1 32 3
M  V30 35 1 33 6
M  V30 36 1 33 14
M  V30 37 1 3 34 CFG=3
M  V30 38 1 35 5
M  V30 39 1 6 36 CFG=1
M  V30 40 1 37 7
M  V30 41 1 38 7
M  V30 42 1 39 8
M  V30 43 1 40 8
M  V30 44 1 41 9
M  V30 45 1 42 9
M  V30 46 1 43 10
M  V30 47 1 44 11
M  V30 48 1 45 11
M  V30 49 1 46 12
M  V30 50 1 14 47 CFG=3
M  V30 51 1 48 15
M  V30 52 1 49 15
M  V30 53 1 50 17
M  V30 54 1 18 51 CFG=3
M  V30 55 1 52 19
M  V30 56 1 53 19
M  V30 57 1 54 19
M  V30 58 1 55 20
M  V30 59 1 56 20
M  V30 60 1 57 21
M  V30 61 1 58 21
M  V30 62 1 59 22
M  V30 63 1 60 23
M  V30 64 1 61 23
M  V30 65 1 24 62 CFG=3
M  V30 66 1 26 63 CFG=1
M  V30 67 1 64 27
M  V30 68 1 65 27
M  V30 69 1 66 28
M  V30 70 1 67 28
M  V30 71 1 68 29
M  V30 72 1 69 32
M  V30 73 1 70 32
M  V30 74 1 71 32
M  V30 75 1 72 33
M  V30 76 1 73 33
M  V30 77 1 74 10
M  V30 END BOND
M  V30 END CTAB
M  END
>  <i_epik_Tot_Q>  (1) 
0

>  <i_epik_Tot_abs_Q>  (1) 
2

>  <i_i_glide_confnum>  (1) 
19

>  <i_i_glide_lignum>  (1) 
257

>  <i_i_glide_posenum>  (1) 
298

>  <i_i_glide_rotatable_bonds>  (1) 
5

>  <i_lp_mmshare_version>  (1) 
72125

>  <i_m_source_file_index>  (1) 
94

>  <i_f3d_flags>  (1) 
0

>  <num_sample>  (1) 
100

>  <b_lp_Chiralities_Consistent>  (1) 
1

>  <r_epik_Charging_Adjusted_Penalty>  (1) 
0.80501984278308969

>  <r_epik_Ionization_Penalty>  (1) 
0.072421558423421364

>  <r_epik_Ionization_Penalty_Charging>  (1) 
0.072408791886815996

>  <r_epik_Ionization_Penalty_Neutral>  (1) 
1.2766536605372598e-05

>  <r_epik_State_Penalty>  (1) 
0.73261105089627365

>  <r_glide_ring_energy>  (1) 
1.2305908303779995

>  <r_i_docking_score>  (1) 
-4.8439378331724612

>  <r_i_glide_ecoul>  (1) 
-3.2622621196462442

>  <r_i_glide_eff_state_penalty>  (1) 
0.73261105089627365

>  <r_i_glide_einternal>  (1) 
28.13975340580836

>  <r_i_glide_emodel>  (1) 
-18.365731732431712

>  <r_i_glide_emodel_strain>  (1) 
4.8040594968318402

>  <r_i_glide_energy>  (1) 
-30.141164403295818

>  <r_i_glide_erotb>  (1) 
0.31140238833871409

>  <r_i_glide_esite>  (1) 
-0.038686660524476682

>  <r_i_glide_evdw>  (1) 
-26.878902283649573

>  <r_i_glide_gscore>  (1) 
-5.5765488840687345

>  <r_i_glide_gscore_strain>  (1) 
0.20101487420796005

>  <r_i_glide_hbond>  (1) 
-0.11727128389635072

>  <r_i_glide_ligand_efficiency>  (1) 
-0.14678599494462002

>  <r_i_glide_ligand_efficiency_ln>  (1) 
-1.0772666935297384

>  <r_i_glide_ligand_efficiency_sa>  (1) 
-0.47082111794746262

>  <r_i_glide_lipo>  (1) 
-3.5537399777878145

>  <r_i_glide_metal>  (1) 
-0

>  <r_i_glide_rewards>  (1) 
-0.54598379227735083

>  <r_lp_Energy>  (1) 
37.065154999999997

>  <s_epik_Chemistry_Notes>  (1) 
This compound has an imine and may undergo hydrolysis.

>  <s_epik_cmdline>  (1) 
J2VwaWtfcHl0aG9uJywgJy1waHQnLCAnMS4wJywgJy1waCcsICc3LjQnLCAnLXRuJywgJzgnLCAnLW1hJywgJzUwMCcsICctaW1hZScsICc8aW5maWxlLm1hZT4nLCAnLW9tYWUnLCAnPG91dGZpbGUubWFlPic=

>  <s_epik_input>  (1) 
Q2xbQ0BIXTFbQ0gyXVtDSDJdW0NAQEhdKFtDSDNdKVtDSF09QzEvQyhbQ0gzXSk9W0NIXS9bQ0BASF0oW0NIMl0yKVtOSF1bQ0BAXShbU0hdKShTW0NIMl1bQ0BIXShbQ0BASF0yMylbQ0gyXU9bQ0gyXVtDSDJdMylbQ0gyXU4oW0NIMl1bQ0gyXTQpW0NIXT1bQ0hdW0NIMl1bQ0BASF00W09IXQ==

>  <s_glide_docking_method>  (1) 
confgen

>  <s_i_glide_gridfile>  (1) 
gpcr_5ht2c_6bqh_protein_autoprepared_prepared

>  <s_lp_Force_Field>  (1) 
S-OPLS

>  <s_lp_Variant>  (1) 
DiffSBDD_93_num_sample_100-9

>  <s_m_source_file>  (1) 
generated__ligand_DiffSBDD_2026-05-06_prepared.sdf

>  <GenAI_Model>  (1) 
DiffSBDD

>  <Protein>  (1) 
GPCR_5HT2C

$$$$
DiffSBDD_44_num_sample_100
     RDKit          3D

  0  0  0  0  0  0  0  0  0  0999 V3000
M  V30 BEGIN CTAB
M  V30 COUNTS 58 59 0 0 1
M  V30 BEGIN ATOM
M  V30 1 C 39.292409 30.520872 53.970222 0
M  V30 2 O 40.671650 28.820962 57.493418 0 CHG=-1
M  V30 3 C 40.747604 32.347454 61.448715 0
M  V30 4 C 38.146808 28.668287 54.972516 0 CFG=1
M  V30 5 N 39.068786 29.213338 55.991747 0 CFG=2 CHG=1
M  V30 6 C 39.066519 31.316260 62.890279 0
M  V30 7 N 38.928660 30.225563 59.849221 0
M  V30 8 C 39.588723 31.754359 61.544977 0
M  V30 9 O 37.305180 31.701856 60.755621 0
M  V30 10 C 37.900680 29.885764 54.081162 0 CFG=1
M  V30 11 C 36.903285 30.843427 54.753108 0
M  V30 12 C 38.593237 28.314527 58.329436 0 CFG=1
M  V30 13 C 38.256101 29.702350 58.899800 0
M  V30 14 C 40.002697 30.125872 55.274206 0
M  V30 15 C 36.861806 33.048038 60.824517 0
M  V30 16 C 42.181422 32.758176 63.411268 0
M  V30 17 C 39.545593 28.310903 57.086725 0 CFG=2
M  V30 18 C 38.667575 31.556211 60.349642 0 CFG=2
M  V30 19 F 41.365692 32.501272 65.577412 0
M  V30 20 C 40.933974 32.544522 64.317880 0 CFG=2
M  V30 21 C 41.873517 32.802292 61.926212 0
M  V30 22 C 39.143183 27.411060 59.451988 0
M  V30 23 C 37.069707 30.387371 58.258406 0
M  V30 24 C 38.695604 27.470214 54.166680 0
M  V30 25 C 40.116564 31.252297 64.043977 0
M  V30 26 H 39.255182 31.602342 53.828646 0
M  V30 27 H 39.827710 30.099431 53.118010 0
M  V30 28 H 37.229706 28.351646 55.443303 0
M  V30 29 H 38.284042 32.051471 63.053479 0
M  V30 30 H 38.580520 30.343999 62.810811 0
M  V30 31 H 37.521086 29.580344 53.107617 0
M  V30 32 H 37.312619 31.231037 55.679790 0
M  V30 33 H 36.696993 31.742264 54.189560 0
M  V30 34 H 35.953323 30.358136 54.982885 0
M  V30 35 H 37.647676 27.869338 58.012695 0
M  V30 36 H 40.212595 31.001014 55.889520 0
M  V30 37 H 40.955188 29.646975 55.057436 0
M  V30 38 H 35.836802 33.074159 61.196383 0
M  V30 39 H 37.481949 33.651010 61.488950 0
M  V30 40 H 36.871456 33.501010 59.833177 0
M  V30 41 H 42.902871 31.957814 63.579039 0
M  V30 42 H 42.666128 33.697016 63.681959 0
M  V30 43 H 39.526522 27.289420 56.712410 0
M  V30 44 H 38.912086 32.282882 59.570442 0
M  V30 45 H 40.280403 33.415067 64.267200 0
M  V30 46 H 42.628383 33.225565 61.282270 0
M  V30 47 H 38.652611 27.621469 60.400963 0
M  V30 48 H 39.012659 26.358733 59.210827 0
M  V30 49 H 40.204366 27.581562 59.638142 0
M  V30 50 H 36.703945 29.831844 57.397543 0
M  V30 51 H 36.237930 30.439347 58.959678 0
M  V30 52 H 37.329169 31.397350 57.937206 0
M  V30 53 H 38.038740 27.243198 53.325352 0
M  V30 54 H 39.685345 27.658787 53.758395 0
M  V30 55 H 38.751917 26.563725 54.766618 0
M  V30 56 H 39.581294 30.975035 64.953190 0
M  V30 57 H 40.807022 30.427436 63.863560 0
M  V30 58 H 38.500635 29.871012 56.503217 0
M  V30 END ATOM
M  V30 BEGIN BOND
M  V30 1 1 5 4
M  V30 2 2 8 3
M  V30 3 1 8 6
M  V30 4 1 10 1
M  V30 5 1 10 4
M  V30 6 1 11 10
M  V30 7 2 13 7
M  V30 8 1 13 12
M  V30 9 1 14 1
M  V30 10 1 14 5
M  V30 11 1 15 9
M  V30 12 1 17 2
M  V30 13 1 17 5
M  V30 14 1 17 12
M  V30 15 1 18 7
M  V30 16 1 18 8
M  V30 17 1 18 9
M  V30 18 1 20 16
M  V30 19 1 20 19
M  V30 20 2 21 3
M  V30 21 1 21 16
M  V30 22 1 22 12
M  V30 23 1 23 13
M  V30 24 1 24 4
M  V30 25 1 25 6
M  V30 26 1 25 20
M  V30 27 1 26 1
M  V30 28 1 27 1
M  V30 29 1 4 28 CFG=1
M  V30 30 1 29 6
M  V30 31 1 30 6
M  V30 32 1 10 31 CFG=3
M  V30 33 1 32 11
M  V30 34 1 33 11
M  V30 35 1 34 11
M  V30 36 1 12 35 CFG=3
M  V30 37 1 36 14
M  V30 38 1 37 14
M  V30 39 1 38 15
M  V30 40 1 39 15
M  V30 41 1 40 15
M  V30 42 1 41 16
M  V30 43 1 42 16
M  V30 44 1 17 43 CFG=3
M  V30 45 1 18 44 CFG=3
M  V30 46 1 20 45 CFG=1
M  V30 47 1 46 21
M  V30 48 1 47 22
M  V30 49 1 48 22
M  V30 50 1 49 22
M  V30 51 1 50 23
M  V30 52 1 51 23
M  V30 53 1 52 23
M  V30 54 1 53 24
M  V30 55 1 54 24
M  V30 56 1 55 24
M  V30 57 1 56 25
M  V30 58 1 57 25
M  V30 59 1 5 58 CFG=1
M  V30 END BOND
M  V30 END CTAB
M  END
>  <i_epik_Tot_Q>  (1) 
0

>  <i_epik_Tot_abs_Q>  (1) 
2

>  <i_i_glide_confnum>  (1) 
8

>  <i_i_glide_lignum>  (1) 
117

>  <i_i_glide_posenum>  (1) 
304

>  <i_i_glide_rotatable_bonds>  (1) 
6

>  <i_lp_mmshare_version>  (1) 
72125

>  <i_m_source_file_index>  (1) 
45

>  <i_f3d_flags>  (1) 
0

>  <num_sample>  (1) 
100

>  <b_lp_Chiralities_Consistent>  (1) 
1

>  <r_epik_Charging_Adjusted_Penalty>  (1) 
0.41733257654759531

>  <r_epik_Ionization_Penalty>  (1) 
0.0069177268181324029

>  <r_epik_Ionization_Penalty_Charging>  (1) 
0.0066527375949913311

>  <r_epik_Ionization_Penalty_Neutral>  (1) 
0.00026498922314107146

>  <r_epik_State_Penalty>  (1) 
0.41067983895260396

>  <r_glide_ring_energy>  (1) 
0

>  <r_i_docking_score>  (1) 
-4.8335024942533451

>  <r_i_glide_ecoul>  (1) 
-1.6014214706762724

>  <r_i_glide_eff_state_penalty>  (1) 
0.41067983895260396

>  <r_i_glide_einternal>  (1) 
53.188292023214011

>  <r_i_glide_emodel>  (1) 
-10.167548756938618

>  <r_i_glide_emodel_strain>  (1) 
2.0407148223528964

>  <r_i_glide_energy>  (1) 
-25.513915999361725

>  <r_i_glide_erotb>  (1) 
0.61440649929112812

>  <r_i_glide_esite>  (1) 
0

>  <r_i_glide_evdw>  (1) 
-23.912494528685453

>  <r_i_glide_gscore>  (1) 
-5.2441823332059494

>  <r_i_glide_gscore_strain>  (1) 
0

>  <r_i_glide_hbond>  (1) 
0

>  <r_i_glide_ligand_efficiency>  (1) 
-0.19334009977013381

>  <r_i_glide_ligand_efficiency_ln>  (1) 
-1.1456849395192485

>  <r_i_glide_ligand_efficiency_sa>  (1) 
-0.56532988123571659

>  <r_i_glide_lipo>  (1) 
-2.515443920696006

>  <r_i_glide_metal>  (1) 
-0

>  <r_i_glide_rewards>  (1) 
-1.9073069647653582

>  <r_lp_Energy>  (1) 
9.8008069999999989

>  <r_lp_tautomer_probability>  (1) 
0.49999399997599986

>  <s_epik_Chemistry_Notes>  (1) 
This compound has an imine and may undergo hydrolysis. This compound contains an acetal/aminal-like group ( X-CH(R)-Y where X, Y are N, S, or O) that may be acid/base labile, releasing an aldehyde.

>  <s_epik_cmdline>  (1) 
J2VwaWtfcHl0aG9uJywgJy1waHQnLCAnMS4wJywgJy1waCcsICc3LjQnLCAnLXRuJywgJzgnLCAnLW1hJywgJzUwMCcsICctaW1hZScsICc8aW5maWxlLm1hZT4nLCAnLW9tYWUnLCAnPG91dGZpbGUubWFlPic=

>  <s_epik_input>  (1) 
W0NIM11bQ0BIXTFbQ0gyXVtDSDJdTihbQ0BASF0xW0NIM10pW0NAQEhdKFtPSF0pW0NAQEhdKFtDSDNdKVxDKFtDSDNdKT1OXFtDQEBIXShPW0NIM10pQzI9Qz1bQ0hdW0NIMl1bQ0BASF0oRilbQ0gyXVtDSDJdMg==

>  <s_glide_docking_method>  (1) 
confgen

>  <s_i_glide_gridfile>  (1) 
gpcr_5ht2c_6bqh_protein_autoprepared_prepared

>  <s_lp_Force_Field>  (1) 
S-OPLS

>  <s_lp_Variant>  (1) 
DiffSBDD_44_num_sample_100-10

>  <s_m_source_file>  (1) 
generated__ligand_DiffSBDD_2026-05-06_prepared.sdf

>  <GenAI_Model>  (1) 
DiffSBDD

>  <Protein>  (1) 
GPCR_5HT2C

$$$$
DiffSBDD_77_num_sample_100
     RDKit          3D

  0  0  0  0  0  0  0  0  0  0999 V3000
M  V30 BEGIN CTAB
M  V30 COUNTS 77 79 0 0 1
M  V30 BEGIN ATOM
M  V30 1 C 40.906169 29.401103 64.943007 0
M  V30 2 F 44.321885 29.854127 63.681123 0
M  V30 3 C 40.760308 27.463634 56.560018 0
M  V30 4 C 40.268512 30.521296 64.376631 0
M  V30 5 C 39.788005 30.770431 53.011166 0
M  V30 6 C 38.757840 31.005488 61.549532 0
M  V30 7 C 37.494712 29.435388 57.672414 0
M  V30 8 C 38.256779 31.367289 59.063964 0 CFG=2
M  V30 9 O 39.174320 30.946764 55.595334 0
M  V30 10 C 40.233383 31.099750 51.566065 0
M  V30 11 N 38.855048 36.085975 61.290932 0
M  V30 12 C 40.316855 32.630673 62.937213 0
M  V30 13 C 43.004614 30.068803 63.906725 0
M  V30 14 O 39.724478 27.745540 59.661807 0
M  V30 15 C 39.159732 27.120091 58.532336 0
M  V30 16 C 40.997683 31.417332 63.565735 0
M  V30 17 F 42.877908 28.086646 65.244447 0
M  V30 18 C 39.380843 33.470819 59.957414 0
M  V30 19 O 37.181673 37.371373 62.116586 0
M  V30 20 O 36.534143 31.680039 60.787895 0
M  V30 21 C 42.271180 29.171642 64.705124 0
M  V30 22 C 39.378569 28.860694 50.857940 0
M  V30 23 N 39.125033 28.899419 54.582358 0
M  V30 24 C 38.343682 34.837934 61.846406 0
M  V30 25 C 42.366615 31.192483 63.339928 0
M  V30 26 C 39.494369 27.924716 57.285503 0
M  V30 27 C 38.232895 37.256924 61.489670 0
M  V30 28 C 39.169209 28.430408 52.226335 0
M  V30 29 C 38.463944 32.883846 58.880492 0
M  V30 30 F 39.068186 28.022348 49.867361 0
M  V30 31 C 38.731362 27.006370 52.519182 0
M  V30 32 C 38.960594 32.405301 62.199615 0 CFG=1
M  V30 33 C 39.050713 29.726843 55.658447 0
M  V30 34 N 37.473568 30.852066 57.957299 0
M  V30 35 C 38.718687 28.983403 56.886905 0
M  V30 36 C 39.350112 29.311101 53.232795 0
M  V30 37 C 39.854204 30.067652 50.544655 0
M  V30 38 C 37.683962 30.928922 60.437406 0 CFG=2
M  V30 39 N 38.645368 33.511124 61.243758 0 CFG=2 CHG=1
M  V30 40 H 40.343170 28.712650 65.555892 0
M  V30 41 H 41.607091 27.694108 57.207884 0
M  V30 42 H 40.744584 26.380640 56.444534 0
M  V30 43 H 41.016169 27.902469 55.605887 0
M  V30 44 H 39.219155 30.684916 64.562088 0
M  V30 45 H 38.943487 31.421523 53.240214 0
M  V30 46 H 40.613354 31.030763 53.672562 0
M  V30 47 H 39.705531 30.653164 61.141028 0
M  V30 48 H 38.502204 30.285685 62.328910 0
M  V30 49 H 36.663669 29.228568 57.008690 0
M  V30 50 H 37.286435 28.864016 58.567877 0
M  V30 51 H 39.247439 30.922952 58.980171 0
M  V30 52 H 41.310419 31.222485 51.494201 0
M  V30 53 H 39.765530 32.021859 51.249564 0
M  V30 54 H 39.718473 36.063162 60.763643 0
M  V30 55 H 41.026958 33.085146 62.246169 0
M  V30 56 H 40.192007 33.369408 63.728001 0
M  V30 57 H 39.465428 28.653841 59.654820 0
M  V30 58 H 39.555313 26.108797 58.427487 0
M  V30 59 H 38.086490 26.988305 58.662053 0
M  V30 60 H 40.268417 32.845017 60.050503 0
M  V30 61 H 39.736537 34.447628 59.641414 0
M  V30 62 H 35.904498 31.592900 60.080949 0
M  V30 63 H 38.929694 27.920667 54.724556 0
M  V30 64 H 37.252567 34.880556 61.850610 0
M  V30 65 H 38.675378 34.847724 62.882066 0
M  V30 66 H 42.932452 31.878172 62.728956 0
M  V30 67 H 38.781114 38.087733 61.026960 0
M  V30 68 H 38.925184 33.058316 57.906273 0
M  V30 69 H 37.513074 33.423361 58.844648 0
M  V30 70 H 38.731929 26.426273 51.599801 0
M  V30 71 H 39.412476 26.514460 53.217452 0
M  V30 72 H 37.724167 26.994621 52.937969 0
M  V30 73 H 38.183568 32.459933 62.958511 0
M  V30 74 H 36.520673 31.230496 57.853356 0
M  V30 75 H 39.988171 30.339122 49.507379 0
M  V30 76 H 37.360073 29.895236 60.369454 0
M  V30 77 H 37.720589 33.215320 60.943033 0
M  V30 END ATOM
M  V30 BEGIN BOND
M  V30 1 2 4 1
M  V30 2 1 10 5
M  V30 3 1 13 2
M  V30 4 1 15 14
M  V30 5 1 16 4
M  V30 6 1 16 12
M  V30 7 1 21 1
M  V30 8 2 21 13
M  V30 9 1 21 17
M  V30 10 1 24 11
M  V30 11 1 25 13
M  V30 12 2 25 16
M  V30 13 1 26 3
M  V30 14 1 26 15
M  V30 15 1 27 11
M  V30 16 2 27 19
M  V30 17 1 28 22
M  V30 18 1 29 8
M  V30 19 1 29 18
M  V30 20 1 30 22
M  V30 21 1 31 28
M  V30 22 1 32 6
M  V30 23 1 32 12
M  V30 24 2 33 9
M  V30 25 1 33 23
M  V30 26 1 34 7
M  V30 27 1 34 8
M  V30 28 1 35 7
M  V30 29 2 35 26
M  V30 30 1 35 33
M  V30 31 1 36 5
M  V30 32 1 36 23
M  V30 33 2 36 28
M  V30 34 1 37 10
M  V30 35 2 37 22
M  V30 36 1 38 6
M  V30 37 1 38 8
M  V30 38 1 38 20
M  V30 39 1 39 18
M  V30 40 1 39 24
M  V30 41 1 39 32
M  V30 42 1 40 1
M  V30 43 1 41 3
M  V30 44 1 42 3
M  V30 45 1 43 3
M  V30 46 1 44 4
M  V30 47 1 45 5
M  V30 48 1 46 5
M  V30 49 1 47 6
M  V30 50 1 48 6
M  V30 51 1 49 7
M  V30 52 1 50 7
M  V30 53 1 8 51 CFG=3
M  V30 54 1 52 10
M  V30 55 1 53 10
M  V30 56 1 54 11
M  V30 57 1 55 12
M  V30 58 1 56 12
M  V30 59 1 57 14
M  V30 60 1 58 15
M  V30 61 1 59 15
M  V30 62 1 60 18
M  V30 63 1 61 18
M  V30 64 1 62 20
M  V30 65 1 63 23
M  V30 66 1 64 24
M  V30 67 1 65 24
M  V30 68 1 66 25
M  V30 69 1 67 27
M  V30 70 1 68 29
M  V30 71 1 69 29
M  V30 72 1 70 31
M  V30 73 1 71 31
M  V30 74 1 72 31
M  V30 75 1 32 73 CFG=1
M  V30 76 1 74 34
M  V30 77 1 75 37
M  V30 78 1 38 76 CFG=3
M  V30 79 1 39 77 CFG=3
M  V30 END BOND
M  V30 END CTAB
M  END
>  <i_epik_Tot_Q>  (1) 
1

>  <i_epik_Tot_abs_Q>  (1) 
1

>  <i_i_glide_confnum>  (1) 
9666

>  <i_i_glide_lignum>  (1) 
197

>  <i_i_glide_posenum>  (1) 
18

>  <i_i_glide_rotatable_bonds>  (1) 
14

>  <i_lp_mmshare_version>  (1) 
72125

>  <i_m_source_file_index>  (1) 
78

>  <i_f3d_flags>  (1) 
0

>  <num_sample>  (1) 
100

>  <b_lp_Chiralities_Consistent>  (1) 
1

>  <r_epik_Charging_Adjusted_Penalty>  (1) 
1.2599673287133732

>  <r_epik_Ionization_Penalty>  (1) 
0.56885031527891383

>  <r_epik_Ionization_Penalty_Charging>  (1) 
0.52000942162343

>  <r_epik_Ionization_Penalty_Neutral>  (1) 
0.048840893655483872

>  <r_epik_State_Penalty>  (1) 
0.73995790708994325

>  <r_glide_ring_energy>  (1) 
0

>  <r_i_docking_score>  (1) 
-4.8331682789457684

>  <r_i_glide_ecoul>  (1) 
-4.1586251704110584

>  <r_i_glide_eff_state_penalty>  (1) 
0.73995790708994325

>  <r_i_glide_einternal>  (1) 
31.568460933510597

>  <r_i_glide_emodel>  (1) 
-32.907837281032478

>  <r_i_glide_emodel_strain>  (1) 
10.174411509493467

>  <r_i_glide_energy>  (1) 
-39.472041680544265

>  <r_i_glide_erotb>  (1) 
0.67934156738045093

>  <r_i_glide_esite>  (1) 
0

>  <r_i_glide_evdw>  (1) 
-35.313416510133209

>  <r_i_glide_gscore>  (1) 
-5.5731261860357115

>  <r_i_glide_gscore_strain>  (1) 
1.5436028773733668

>  <r_i_glide_hbond>  (1) 
-0.16211074821068855

>  <r_i_glide_ligand_efficiency>  (1) 
-0.12392739176784022

>  <r_i_glide_ligand_efficiency_ln>  (1) 
-1.036368476646359

>  <r_i_glide_ligand_efficiency_sa>  (1) 
-0.42026398906599943

>  <r_i_glide_lipo>  (1) 
-3.733524894911699

>  <r_i_glide_metal>  (1) 
-0

>  <r_i_glide_rewards>  (1) 
-1.5109703865988231

>  <r_lp_Energy>  (1) 
45.825868999999997

>  <s_epik_Chemistry_Notes>  (1) 
This compound contains an acetal/aminal-like group ( X-CH(R)-Y where X, Y are N, S, or O) that may be acid/base labile, releasing an aldehyde.

>  <s_epik_cmdline>  (1) 
J2VwaWtfcHl0aG9uJywgJy1waHQnLCAnMS4wJywgJy1waCcsICc3LjQnLCAnLXRuJywgJzgnLCAnLW1hJywgJzUwMCcsICctaW1hZScsICc8aW5maWxlLm1hZT4nLCAnLW9tYWUnLCAnPG91dGZpbGUubWFlPic=

>  <s_epik_input>  (1) 
RmMxYyhGKVtjSF1bY0hdYyhbY0hdMSlbQ0gyXVtDQEhdKFtDSDJdW0NASF0yW09IXSlOKFtDSDJdW05IXVtDSF09TylbQ0gyXVtDSDJdW0NAQEhdMltOSF1bQ0gyXVxDKD1DKFxbQ0gzXSlbQ0gyXVtPSF0pQyg9TylbTkhdQyg9QzNbQ0gzXSlbQ0gyXVtDSDJdW0NIXT1DM0Y=

>  <s_glide_docking_method>  (1) 
confgen

>  <s_i_glide_gridfile>  (1) 
gpcr_5ht2c_6bqh_protein_autoprepared_prepared

>  <s_lp_Force_Field>  (1) 
S-OPLS

>  <s_lp_Variant>  (1) 
DiffSBDD_77_num_sample_100-8

>  <s_m_source_file>  (1) 
generated__ligand_DiffSBDD_2026-05-06_prepared.sdf

>  <GenAI_Model>  (1) 
DiffSBDD

>  <Protein>  (1) 
GPCR_5HT2C

$$$$
DiffSBDD_6_num_sample_100
     RDKit          3D

  0  0  0  0  0  0  0  0  0  0999 V3000
M  V30 BEGIN CTAB
M  V30 COUNTS 67 70 0 0 1
M  V30 BEGIN ATOM
M  V30 1 C 38.132906 33.591352 59.047286 0 CFG=1
M  V30 2 C 40.709080 30.435625 50.532881 0
M  V30 3 O 40.271919 29.025631 57.979882 0
M  V30 4 C 37.986549 26.641641 56.681965 0 CFG=2
M  V30 5 N 38.668065 32.248196 59.258041 0
M  V30 6 N 38.354870 29.018089 54.630705 0
M  V30 7 O 38.634032 24.337768 57.181250 0
M  V30 8 C 37.744102 28.071921 57.279914 0 CFG=1
M  V30 9 O 36.843116 26.021417 56.095383 0
M  V30 10 O 38.884963 31.204307 54.271267 0
M  V30 11 S 40.593383 34.026608 62.002949 0
M  V30 12 S 38.996300 28.463054 58.608589 0
M  V30 13 O 40.214375 27.362096 55.913398 0
M  V30 14 C 38.242230 25.555462 57.765965 0
M  V30 15 C 36.684529 33.694407 58.545721 0
M  V30 16 C 40.267197 29.318354 49.815472 0
M  V30 17 C 37.788689 33.446298 61.511799 0
M  V30 18 S 39.067249 32.752593 62.537787 0
M  V30 19 C 41.067367 26.480254 56.577826 0
M  V30 20 O 40.836372 34.971163 63.102183 0
M  V30 21 C 38.249768 31.135145 58.455575 0
M  V30 22 C 40.267613 30.644784 51.847488 0
M  V30 23 C 35.587743 33.057756 59.431236 0
M  V30 24 S 37.469817 29.418804 56.058780 0
M  V30 25 C 39.684413 34.903284 60.652957 0
M  V30 26 C 39.383850 29.732199 52.459537 0
M  V30 27 C 38.258901 34.361067 60.386229 0 CFG=1
M  V30 28 C 35.513014 33.650130 60.851849 0
M  V30 29 O 41.679813 33.205468 61.453535 0
M  V30 30 C 38.546581 27.580833 54.344569 0
M  V30 31 C 38.864847 30.039689 53.868228 0
M  V30 32 C 39.388049 28.406369 50.407121 0
M  V30 33 C 38.925824 28.614967 51.709272 0
M  V30 34 C 39.003809 26.746032 55.534610 0 CFG=2
M  V30 35 N 36.567525 33.152375 61.707388 0
M  V30 36 C 38.135382 29.909333 59.385150 0
M  V30 37 H 38.752087 34.021325 58.265048 0
M  V30 38 H 41.389289 31.138520 50.074535 0
M  V30 39 H 39.669897 32.255444 59.377938 0
M  V30 40 H 37.989374 24.152895 56.512652 0
M  V30 41 H 36.816397 28.017133 57.852045 0
M  V30 42 H 36.471141 26.609701 55.455713 0
M  V30 43 H 37.317246 25.357667 58.299829 0
M  V30 44 H 38.968381 25.816598 58.529261 0
M  V30 45 H 36.442012 34.752191 58.453576 0
M  V30 46 H 36.667471 33.336749 57.520964 0
M  V30 47 H 40.611902 29.159483 48.804230 0
M  V30 48 H 40.769779 26.246881 57.591667 0
M  V30 49 H 42.060342 26.913359 56.654460 0
M  V30 50 H 41.067307 25.568631 55.991053 0
M  V30 51 H 38.990496 31.012631 57.667434 0
M  V30 52 H 37.291336 31.304944 57.976134 0
M  V30 53 H 40.599453 31.515602 52.388496 0
M  V30 54 H 34.627004 33.244298 58.949820 0
M  V30 55 H 35.685280 31.972483 59.461673 0
M  V30 56 H 39.639982 35.952544 60.944176 0
M  V30 57 H 40.267706 34.836143 59.745407 0
M  V30 58 H 35.501767 34.739966 60.815040 0
M  V30 59 H 34.563857 33.354302 61.298576 0
M  V30 60 H 37.638156 27.153955 53.913618 0
M  V30 61 H 39.391702 27.386805 53.685138 0
M  V30 62 H 39.048468 27.550431 49.854035 0
M  V30 63 H 38.207984 27.932491 52.106793 0
M  V30 64 H 39.180592 25.750011 55.125361 0
M  V30 65 H 37.621587 35.247093 60.344144 0
M  V30 66 H 37.092680 29.671756 59.600991 0
M  V30 67 H 38.619133 30.085070 60.347526 0
M  V30 END ATOM
M  V30 BEGIN BOND
M  V30 1 1 5 1
M  V30 2 1 8 4
M  V30 3 1 4 9 CFG=3
M  V30 4 2 12 3
M  V30 5 1 12 8
M  V30 6 1 14 4
M  V30 7 1 14 7
M  V30 8 1 15 1
M  V30 9 2 16 2
M  V30 10 1 18 11
M  V30 11 1 18 17
M  V30 12 1 19 13
M  V30 13 2 20 11
M  V30 14 1 21 5
M  V30 15 1 22 2
M  V30 16 1 23 15
M  V30 17 1 24 6
M  V30 18 1 24 8
M  V30 19 1 25 11
M  V30 20 2 26 22
M  V30 21 1 27 1
M  V30 22 1 27 17
M  V30 23 1 27 25
M  V30 24 1 28 23
M  V30 25 2 29 11
M  V30 26 1 30 6
M  V30 27 1 31 6
M  V30 28 2 31 10
M  V30 29 1 31 26
M  V30 30 1 32 16
M  V30 31 1 33 26
M  V30 32 2 33 32
M  V30 33 1 34 4
M  V30 34 1 34 13
M  V30 35 1 34 30
M  V30 36 2 35 17
M  V30 37 1 35 28
M  V30 38 1 12 36 CFG=1
M  V30 39 1 36 21
M  V30 40 1 1 37 CFG=3
M  V30 41 1 38 2
M  V30 42 1 39 5
M  V30 43 1 40 7
M  V30 44 1 8 41 CFG=1
M  V30 45 1 42 9
M  V30 46 1 43 14
M  V30 47 1 44 14
M  V30 48 1 45 15
M  V30 49 1 46 15
M  V30 50 1 47 16
M  V30 51 1 48 19
M  V30 52 1 49 19
M  V30 53 1 50 19
M  V30 54 1 51 21
M  V30 55 1 52 21
M  V30 56 1 53 22
M  V30 57 1 54 23
M  V30 58 1 55 23
M  V30 59 1 56 25
M  V30 60 1 57 25
M  V30 61 1 58 28
M  V30 62 1 59 28
M  V30 63 1 60 30
M  V30 64 1 61 30
M  V30 65 1 62 32
M  V30 66 1 63 33
M  V30 67 1 34 64 CFG=3
M  V30 68 1 27 65 CFG=3
M  V30 69 1 66 36
M  V30 70 1 67 36
M  V30 END BOND
M  V30 END CTAB
M  END
>  <i_epik_Tot_Q>  (1) 
0

>  <i_epik_Tot_abs_Q>  (1) 
0

>  <i_i_glide_confnum>  (1) 
983

>  <i_i_glide_lignum>  (1) 
25

>  <i_i_glide_posenum>  (1) 
34

>  <i_i_glide_rotatable_bonds>  (1) 
11

>  <i_lp_mmshare_version>  (1) 
72125

>  <i_m_source_file_index>  (1) 
7

>  <i_f3d_flags>  (1) 
0

>  <num_sample>  (1) 
100

>  <b_lp_Chiralities_Consistent>  (1) 
1

>  <r_epik_Charging_Adjusted_Penalty>  (1) 
0.04024977574551479

>  <r_epik_Ionization_Penalty>  (1) 
0.04050266925573108

>  <r_epik_Ionization_Penalty_Charging>  (1) 
0

>  <r_epik_Ionization_Penalty_Neutral>  (1) 
0.04050266925573108

>  <r_epik_State_Penalty>  (1) 
0.04024977574551479

>  <r_glide_ring_energy>  (1) 
1.134744657807722

>  <r_i_docking_score>  (1) 
-4.8294830596601965

>  <r_i_glide_ecoul>  (1) 
-2.0478424370331409

>  <r_i_glide_eff_state_penalty>  (1) 
0.04024977574551479

>  <r_i_glide_einternal>  (1) 
7.1636334463088431

>  <r_i_glide_emodel>  (1) 
-32.880773847739206

>  <r_i_glide_emodel_strain>  (1) 
13.408639069026222

>  <r_i_glide_energy>  (1) 
-35.953066628884237

>  <r_i_glide_erotb>  (1) 
0.34065271397431773

>  <r_i_glide_esite>  (1) 
0

>  <r_i_glide_evdw>  (1) 
-33.905224191851097

>  <r_i_glide_gscore>  (1) 
-4.8697328354057117

>  <r_i_glide_gscore_strain>  (1) 
2.3521597672565555

>  <r_i_glide_hbond>  (1) 
0

>  <r_i_glide_ligand_efficiency>  (1) 
-0.13415230721278323

>  <r_i_glide_ligand_efficiency_ln>  (1) 
-1.0536627260641223

>  <r_i_glide_ligand_efficiency_sa>  (1) 
-0.4429611586879722

>  <r_i_glide_lipo>  (1) 
-3.5531457225685497

>  <r_i_glide_metal>  (1) 
-0

>  <r_i_glide_rewards>  (1) 
-2.0069620189205075

>  <r_lp_Energy>  (1) 
38.802732999999996

>  <r_lp_tautomer_probability>  (1) 
0.99960115913750414

>  <s_epik_Chemistry_Notes>  (1) 
This compound has an imine and may undergo hydrolysis. This compound contains an acetal/aminal-like group ( X-CH(R)-Y where X, Y are N, S, or O) that may be acid/base labile, releasing an aldehyde. This compound has a N-S or N-O group and may undergo hydrolysis at high or low pH.

>  <s_epik_cmdline>  (1) 
J2VwaWtfcHl0aG9uJywgJy1waHQnLCAnMS4wJywgJy1waCcsICc3LjQnLCAnLXRuJywgJzgnLCAnLW1hJywgJzUwMCcsICctaW1hZScsICc8aW5maWxlLm1hZT4nLCAnLW9tYWUnLCAnPG91dGZpbGUubWFlPic=

>  <s_epik_input>  (1) 
UzFTKD1PKSg9TylbQ0gyXUMoPUMxMilbQ0BIXShbQ0gyXVtDSDJdW0NIMl1bTkhdMilbTkhdW0NIMl1bQ0gyXVtTQF0oPU8pW0NASF0oW0NAXTMoW09IXSlbQ0gyXVtPSF0pU04oW0NIMl1bQ0BIXTNPW0NIM10pQyg9TyljNFtjSF1bY0hdW2NIXVtjSF1bY0hdNA==

>  <s_glide_docking_method>  (1) 
confgen

>  <s_i_glide_gridfile>  (1) 
gpcr_5ht2c_6bqh_protein_autoprepared_prepared

>  <s_lp_Force_Field>  (1) 
S-OPLS

>  <s_lp_Variant>  (1) 
DiffSBDD_6_num_sample_100-1

>  <s_m_source_file>  (1) 
generated__ligand_DiffSBDD_2026-05-06_prepared.sdf

>  <GenAI_Model>  (1) 
DiffSBDD

>  <Protein>  (1) 
GPCR_5HT2C

$$$$
DiffSBDD_95_num_sample_100
     RDKit          3D

  0  0  0  0  0  0  0  0  0  0999 V3000
M  V30 BEGIN CTAB
M  V30 COUNTS 51 50 0 0 1
M  V30 BEGIN ATOM
M  V30 1 C 38.506199 31.334828 53.950500 0
M  V30 2 C 39.443627 30.117085 53.801625 0
M  V30 3 C 39.573880 27.448572 57.299060 0
M  V30 4 O 39.550868 26.911083 52.764703 0 CHG=-1
M  V30 5 C 38.535128 27.524328 58.428385 0
M  V30 6 C 40.235890 26.072290 57.200995 0
M  V30 7 C 39.150807 29.262781 52.534814 0 CFG=1
M  V30 8 C 38.267923 31.267214 56.483486 0
M  V30 9 O 37.587652 27.706430 53.451143 0
M  V30 10 C 38.137185 32.038358 57.813586 0
M  V30 11 O 39.303533 29.824616 59.866790 0
M  V30 12 N 37.866987 28.821032 58.430156 0
M  V30 13 C 40.255540 29.388591 51.439076 0
M  V30 14 C 38.658179 32.115062 55.270390 0
M  V30 15 C 40.010917 28.526576 50.195813 0
M  V30 16 C 38.314784 29.875408 59.133411 0
M  V30 17 C 37.414414 32.010256 60.270332 0
M  V30 18 C 40.408258 30.849338 50.961154 0
M  V30 19 C 38.727113 27.833579 52.949361 0
M  V30 20 C 37.531580 31.191436 58.964122 0 CFG=1
M  V30 21 O 36.395569 31.491118 61.104826 0
M  V30 22 H 37.471844 31.002648 53.855837 0
M  V30 23 H 38.672890 32.021383 53.121195 0
M  V30 24 H 40.481298 30.450767 53.813600 0
M  V30 25 H 39.350734 29.491360 54.688190 0
M  V30 26 H 39.093892 27.676399 56.345848 0
M  V30 27 H 40.343998 28.206724 57.447213 0
M  V30 28 H 38.989143 27.305202 59.396953 0
M  V30 29 H 37.776304 26.761230 58.253641 0
M  V30 30 H 40.929881 26.045216 56.360455 0
M  V30 31 H 40.788533 25.838526 58.111019 0
M  V30 32 H 39.498014 25.285385 57.041098 0
M  V30 33 H 38.244741 29.620692 52.067398 0
M  V30 34 H 39.016052 30.484936 56.597852 0
M  V30 35 H 37.323003 30.767237 56.269109 0
M  V30 36 H 37.492718 32.902843 57.647243 0
M  V30 37 H 39.106709 32.437437 58.107284 0
M  V30 38 H 37.051753 28.933166 57.844029 0
M  V30 39 H 41.205666 29.067197 51.850879 0
M  V30 40 H 38.014865 32.995743 55.229038 0
M  V30 41 H 39.678380 32.477832 55.389394 0
M  V30 42 H 38.991729 28.633699 49.850182 0
M  V30 43 H 40.653924 28.836036 49.370648 0
M  V30 44 H 40.203543 27.469631 50.376185 0
M  V30 45 H 37.155575 33.045610 60.045008 0
M  V30 46 H 38.358171 32.040387 60.816564 0
M  V30 47 H 39.513039 31.179187 50.432982 0
M  V30 48 H 40.586493 31.566113 51.766132 0
M  V30 49 H 41.245078 30.949096 50.268679 0
M  V30 50 H 36.516575 30.927254 58.666029 0
M  V30 51 H 35.571962 31.592205 60.648348 0
M  V30 END ATOM
M  V30 BEGIN BOND
M  V30 1 1 2 1
M  V30 2 1 5 3
M  V30 3 1 6 3
M  V30 4 1 7 2
M  V30 5 1 10 8
M  V30 6 1 12 5
M  V30 7 1 13 7
M  V30 8 1 14 1
M  V30 9 1 14 8
M  V30 10 1 15 13
M  V30 11 2 16 11
M  V30 12 1 16 12
M  V30 13 1 18 13
M  V30 14 1 19 4
M  V30 15 1 19 7
M  V30 16 2 19 9
M  V30 17 1 20 10
M  V30 18 1 20 16
M  V30 19 1 20 17
M  V30 20 1 21 17
M  V30 21 1 22 1
M  V30 22 1 23 1
M  V30 23 1 24 2
M  V30 24 1 25 2
M  V30 25 1 26 3
M  V30 26 1 27 3
M  V30 27 1 28 5
M  V30 28 1 29 5
M  V30 29 1 30 6
M  V30 30 1 31 6
M  V30 31 1 32 6
M  V30 32 1 7 33 CFG=3
M  V30 33 1 34 8
M  V30 34 1 35 8
M  V30 35 1 36 10
M  V30 36 1 37 10
M  V30 37 1 38 12
M  V30 38 1 39 13
M  V30 39 1 40 14
M  V30 40 1 41 14
M  V30 41 1 42 15
M  V30 42 1 43 15
M  V30 43 1 44 15
M  V30 44 1 45 17
M  V30 45 1 46 17
M  V30 46 1 47 18
M  V30 47 1 48 18
M  V30 48 1 49 18
M  V30 49 1 20 50 CFG=3
M  V30 50 1 51 21
M  V30 END BOND
M  V30 END CTAB
M  END
>  <i_epik_Tot_Q>  (1) 
-1

>  <i_epik_Tot_abs_Q>  (1) 
1

>  <i_i_glide_confnum>  (1) 
407

>  <i_i_glide_lignum>  (1) 
266

>  <i_i_glide_posenum>  (1) 
88

>  <i_i_glide_rotatable_bonds>  (1) 
14

>  <i_lp_mmshare_version>  (1) 
72125

>  <i_m_source_file_index>  (1) 
96

>  <i_f3d_flags>  (1) 
0

>  <num_sample>  (1) 
100

>  <b_lp_Chiralities_Consistent>  (1) 
1

>  <r_epik_Charging_Adjusted_Penalty>  (1) 
0.001438735801478555

>  <r_epik_Ionization_Penalty>  (1) 
0.0014388430371294766

>  <r_epik_Ionization_Penalty_Charging>  (1) 
0.001438735801478555

>  <r_epik_Ionization_Penalty_Neutral>  (1) 
1.0723565092155607e-07

>  <r_epik_State_Penalty>  (1) 
-0

>  <r_glide_ring_energy>  (1) 
0

>  <r_i_docking_score>  (1) 
-4.8269604586105057

>  <r_i_glide_ecoul>  (1) 
-3.9895637079238879

>  <r_i_glide_eff_state_penalty>  (1) 
-0

>  <r_i_glide_einternal>  (1) 
10.278042373165105

>  <r_i_glide_emodel>  (1) 
-38.830701565653044

>  <r_i_glide_emodel_strain>  (1) 
0.87111067306758727

>  <r_i_glide_energy>  (1) 
-33.9994111751475

>  <r_i_glide_erotb>  (1) 
2.0366524636838417

>  <r_i_glide_esite>  (1) 
0

>  <r_i_glide_evdw>  (1) 
-30.009847467223615

>  <r_i_glide_gscore>  (1) 
-4.8269604586105057

>  <r_i_glide_gscore_strain>  (1) 
0

>  <r_i_glide_hbond>  (1) 
-0.31033600137855943

>  <r_i_glide_ligand_efficiency>  (1) 
-0.2298552599338336

>  <r_i_glide_ligand_efficiency_ln>  (1) 
-1.1934562195994396

>  <r_i_glide_ligand_efficiency_sa>  (1) 
-0.63415323369982035

>  <r_i_glide_lipo>  (1) 
-2.125197694452559

>  <r_i_glide_metal>  (1) 
-0

>  <r_i_glide_rewards>  (1) 
-2.3291522969134646

>  <r_lp_Energy>  (1) 
10.841768999999999

>  <r_lp_tautomer_probability>  (1) 
1

>  <s_epik_cmdline>  (1) 
J2VwaWtfcHl0aG9uJywgJy1waHQnLCAnMS4wJywgJy1waCcsICc3LjQnLCAnLXRuJywgJzgnLCAnLW1hJywgJzUwMCcsICctaW1hZScsICc8aW5maWxlLm1hZT4nLCAnLW9tYWUnLCAnPG91dGZpbGUubWFlPic=

>  <s_epik_input>  (1) 
W09IXUMoPU8pW0NASF0oW0NIXShbQ0gzXSlbQ0gzXSlbQ0gyXVtDSDJdW0NIMl1bQ0gyXVtDSDJdW0NASF0oW0NIMl1bT0hdKUMoPU8pW05IXVtDSDJdW0NIMl1bQ0gzXQ==

>  <s_glide_docking_method>  (1) 
confgen

>  <s_i_glide_gridfile>  (1) 
gpcr_5ht2c_6bqh_protein_autoprepared_prepared

>  <s_lp_Force_Field>  (1) 
S-OPLS

>  <s_lp_Variant>  (1) 
DiffSBDD_95_num_sample_100-1

>  <s_m_source_file>  (1) 
generated__ligand_DiffSBDD_2026-05-06_prepared.sdf

>  <GenAI_Model>  (1) 
DiffSBDD

>  <Protein>  (1) 
GPCR_5HT2C

$$$$
DiffSBDD_47_num_sample_100
     RDKit          3D

  0  0  0  0  0  0  0  0  0  0999 V3000
M  V30 BEGIN CTAB
M  V30 COUNTS 32 32 0 0 1
M  V30 BEGIN ATOM
M  V30 1 S 36.701445 32.753894 59.453501 0
M  V30 2 C 39.990831 32.789970 62.730397 0
M  V30 3 N 38.267393 30.765904 58.498664 0
M  V30 4 C 38.253046 29.318085 56.540123 0
M  V30 5 C 38.980072 31.785133 60.584005 0
M  V30 6 O 42.403325 32.820905 61.453599 0 CHG=-1
M  V30 7 C 38.355608 32.038315 59.199511 0 CFG=2
M  V30 8 C 37.937895 29.645310 55.058437 0 CFG=2
M  V30 9 C 39.382605 33.064947 61.343974 0
M  V30 10 C 38.245006 28.489437 54.090993 0
M  V30 11 O 38.754460 27.434334 54.473465 0
M  V30 12 O 41.467403 30.547881 62.253503 0
M  V30 13 S 41.674057 32.036122 62.545173 0
M  V30 14 C 38.370516 30.645898 57.231761 0
M  V30 15 C 38.654334 30.967622 54.676417 0
M  V30 16 O 37.896837 28.763240 52.819605 0
M  V30 17 O 38.267404 27.717050 51.869469 0
M  V30 18 S 38.667402 32.032321 56.143603 0
M  V30 19 H 36.182344 32.363604 58.274584 0
M  V30 20 H 40.088052 33.714115 63.299622 0
M  V30 21 H 39.365672 32.110936 63.306279 0
M  V30 22 H 37.467408 28.716779 56.997439 0
M  V30 23 H 39.198309 28.785418 56.652702 0
M  V30 24 H 38.302854 31.186819 61.194850 0
M  V30 25 H 39.868417 31.170757 60.444953 0
M  V30 26 H 38.979163 32.763034 58.675195 0
M  V30 27 H 36.865264 29.835883 54.997167 0
M  V30 28 H 40.076994 33.653716 60.744024 0
M  V30 29 H 38.502946 33.692633 61.483570 0
M  V30 30 H 39.687202 30.781827 54.377798 0
M  V30 31 H 38.154527 31.478443 53.853500 0
M  V30 32 H 37.493347 27.168642 51.879709 0
M  V30 END ATOM
M  V30 BEGIN BOND
M  V30 1 1 7 1
M  V30 2 1 7 3
M  V30 3 1 7 5
M  V30 4 1 8 4
M  V30 5 1 9 2
M  V30 6 1 9 5
M  V30 7 1 10 8
M  V30 8 2 11 10
M  V30 9 1 13 2
M  V30 10 1 13 6
M  V30 11 2 13 12
M  V30 12 2 14 3
M  V30 13 1 14 4
M  V30 14 1 15 8
M  V30 15 1 16 10
M  V30 16 1 17 16
M  V30 17 1 18 14
M  V30 18 1 18 15
M  V30 19 1 19 1
M  V30 20 1 20 2
M  V30 21 1 21 2
M  V30 22 1 22 4
M  V30 23 1 23 4
M  V30 24 1 24 5
M  V30 25 1 25 5
M  V30 26 1 7 26 CFG=3
M  V30 27 1 8 27 CFG=1
M  V30 28 1 28 9
M  V30 29 1 29 9
M  V30 30 1 30 15
M  V30 31 1 31 15
M  V30 32 1 32 17
M  V30 END BOND
M  V30 END CTAB
M  END
>  <i_epik_Tot_Q>  (1) 
-1

>  <i_epik_Tot_abs_Q>  (1) 
1

>  <i_i_glide_confnum>  (1) 
81

>  <i_i_glide_lignum>  (1) 
129

>  <i_i_glide_posenum>  (1) 
213

>  <i_i_glide_rotatable_bonds>  (1) 
9

>  <i_lp_mmshare_version>  (1) 
72125

>  <i_m_source_file_index>  (1) 
48

>  <i_f3d_flags>  (1) 
0

>  <num_sample>  (1) 
100

>  <b_lp_Chiralities_Consistent>  (1) 
1

>  <r_epik_Charging_Adjusted_Penalty>  (1) 
0.41068401557064588

>  <r_epik_Ionization_Penalty>  (1) 
0.088233061061265911

>  <r_epik_Ionization_Penalty_Charging>  (1) 
4.1766180419441644e-06

>  <r_epik_Ionization_Penalty_Neutral>  (1) 
0.088228884443223965

>  <r_epik_State_Penalty>  (1) 
0.41067983895260396

>  <r_glide_ring_energy>  (1) 
0

>  <r_i_docking_score>  (1) 
-4.8169087943934175

>  <r_i_glide_ecoul>  (1) 
-7.5027980202115696

>  <r_i_glide_eff_state_penalty>  (1) 
0.41067983895260396

>  <r_i_glide_einternal>  (1) 
2.8605742801998213

>  <r_i_glide_emodel>  (1) 
-49.964921090426145

>  <r_i_glide_emodel_strain>  (1) 
0.12913520165342618

>  <r_i_glide_energy>  (1) 
-38.650352955277597

>  <r_i_glide_erotb>  (1) 
1.1409563005043168

>  <r_i_glide_esite>  (1) 
-0.14715730670221325

>  <r_i_glide_evdw>  (1) 
-31.147554935066026

>  <r_i_glide_gscore>  (1) 
-5.2275886333460218

>  <r_i_glide_gscore_strain>  (1) 
0

>  <r_i_glide_hbond>  (1) 
-0.6851201474803934

>  <r_i_glide_ligand_efficiency>  (1) 
-0.26760604413296762

>  <r_i_glide_ligand_efficiency_ln>  (1) 
-1.2381615676231172

>  <r_i_glide_ligand_efficiency_sa>  (1) 
-0.70132623719976117

>  <r_i_glide_lipo>  (1) 
-0.67903654852515505

>  <r_i_glide_metal>  (1) 
-0

>  <r_i_glide_rewards>  (1) 
-2.1744334813575388

>  <r_lp_Energy>  (1) 
-2.9983

>  <r_lp_tautomer_probability>  (1) 
0.49990026989615577

>  <s_epik_Chemistry_Notes>  (1) 
This compound has an imine and may undergo hydrolysis. This compound contains an acetal/aminal-like group ( X-CH(R)-Y where X, Y are N, S, or O) that may be acid/base labile, releasing an aldehyde.

>  <s_epik_cmdline>  (1) 
J2VwaWtfcHl0aG9uJywgJy1waHQnLCAnMS4wJywgJy1waCcsICc3LjQnLCAnLXRuJywgJzgnLCAnLW1hJywgJzUwMCcsICctaW1hZScsICc8aW5maWxlLm1hZT4nLCAnLW9tYWUnLCAnPG91dGZpbGUubWFlPic=

>  <s_epik_input>  (1) 
W09IXVtTQEBdKD1PKVtDSDJdW0NIMl1bQ0gyXVtDQEhdKFtTSF0pL049QyhTW0NIMl0xKS9bQ0gyXVtDQEBIXTFDKD1PKU9bT0hd

>  <s_glide_docking_method>  (1) 
confgen

>  <s_i_glide_gridfile>  (1) 
gpcr_5ht2c_6bqh_protein_autoprepared_prepared

>  <s_lp_Force_Field>  (1) 
S-OPLS

>  <s_lp_Variant>  (1) 
DiffSBDD_47_num_sample_100-1

>  <s_m_source_file>  (1) 
generated__ligand_DiffSBDD_2026-05-06_prepared.sdf

>  <GenAI_Model>  (1) 
DiffSBDD

>  <Protein>  (1) 
GPCR_5HT2C

$$$$
DiffSBDD_90_num_sample_100
     RDKit          3D

  0  0  0  0  0  0  0  0  0  0999 V3000
M  V30 BEGIN CTAB
M  V30 COUNTS 84 87 0 0 1
M  V30 BEGIN ATOM
M  V30 1 C 37.568967 32.098484 58.632353 0
M  V30 2 O 45.467377 29.896512 64.938296 0
M  V30 3 F 38.918951 23.621268 57.459578 0
M  V30 4 C 38.390884 29.657530 54.615086 0 CFG=1
M  V30 5 C 41.905188 28.802881 64.645521 0 CFG=2
M  V30 6 C 41.342647 31.160769 64.267548 0 CFG=1
M  V30 7 C 40.113626 30.823832 51.479270 0
M  V30 8 C 39.707318 31.275462 62.319962 0
M  V30 9 C 39.286991 30.673953 53.845253 0
M  V30 10 N 44.396846 29.053103 64.446950 0
M  V30 11 C 38.973698 25.732170 58.475167 0
M  V30 12 C 38.540655 32.020503 53.826876 0
M  V30 13 C 40.790578 29.837765 64.839849 0
M  V30 14 C 42.874208 31.041802 64.411328 0
M  V30 15 O 41.069556 26.600826 65.040704 0
M  V30 16 N 38.085578 30.730831 58.845266 0
M  V30 17 C 40.948891 31.431529 62.815745 0
M  V30 18 F 40.267557 25.051040 56.640870 0
M  V30 19 C 38.176507 26.783164 55.916099 0 CFG=2
M  V30 20 N 37.187889 29.765583 58.289615 0
M  V30 21 C 38.808432 27.236781 58.269229 0
M  V30 22 C 38.405043 30.477854 60.267859 0
M  V30 23 O 39.467826 30.115612 52.528530 0
M  V30 24 C 40.670891 30.826405 54.512174 0
M  V30 25 C 38.454598 33.202774 59.223501 0
M  V30 26 C 38.025492 25.284849 56.154908 0
M  V30 27 C 39.340833 31.546107 60.871950 0 CFG=1
M  V30 28 C 43.164593 29.637750 64.961608 0 CFG=1
M  V30 29 C 38.438783 28.263835 53.944099 0
M  V30 30 O 42.260886 27.563119 66.660624 0 CHG=-1
M  V30 31 C 37.561803 29.087366 57.024339 0 CFG=1
M  V30 32 C 38.726520 32.942372 60.708138 0
M  V30 33 O 41.860540 28.393199 63.291636 0
M  V30 34 C 38.645678 29.740857 56.153423 0
M  V30 35 C 37.760669 27.560015 57.194137 0 CFG=1
M  V30 36 C 37.571898 27.201258 54.584218 0
M  V30 37 C 39.071798 24.901435 57.186613 0
M  V30 38 C 41.729931 27.547914 65.528111 0
M  V30 39 H 37.467425 32.274703 57.561151 0
M  V30 40 H 36.568159 32.165684 59.060569 0
M  V30 41 H 45.619112 29.571682 65.815917 0
M  V30 42 H 37.348687 29.941029 54.472311 0
M  V30 43 H 40.979091 31.999407 64.861503 0
M  V30 44 H 40.289158 30.134287 50.653936 0
M  V30 45 H 39.498497 31.628121 51.082148 0
M  V30 46 H 41.076958 31.221958 51.765813 0
M  V30 47 H 38.909753 30.940967 62.965916 0
M  V30 48 H 44.576170 28.159580 64.887100 0
M  V30 49 H 38.145289 25.345495 59.053490 0
M  V30 50 H 39.867077 25.620859 59.073238 0
M  V30 51 H 38.867669 32.699743 54.615313 0
M  V30 52 H 38.666635 32.482501 52.863426 0
M  V30 53 H 37.463995 31.930441 53.942254 0
M  V30 54 H 40.581121 29.959316 65.904204 0
M  V30 55 H 39.867588 29.534613 64.370545 0
M  V30 56 H 43.273976 31.803979 65.079207 0
M  V30 57 H 43.374963 31.165847 63.452961 0
M  V30 58 H 41.737604 31.771103 62.160059 0
M  V30 59 H 39.245699 26.954237 55.795053 0
M  V30 60 H 36.293462 30.236965 58.145712 0
M  V30 61 H 38.528161 27.674298 59.224685 0
M  V30 62 H 39.772353 27.668354 57.999709 0
M  V30 63 H 38.874562 29.499244 60.362041 0
M  V30 64 H 37.474226 30.441034 60.835052 0
M  V30 65 H 40.632817 31.492686 55.372487 0
M  V30 66 H 41.057840 29.882601 54.876211 0
M  V30 67 H 41.428809 31.221659 53.853607 0
M  V30 68 H 39.395670 33.246594 58.674072 0
M  V30 69 H 37.968433 34.170216 59.094899 0
M  V30 70 H 37.018665 25.045926 56.498435 0
M  V30 71 H 38.193884 24.707678 55.243879 0
M  V30 72 H 40.267489 31.520197 60.304199 0
M  V30 73 H 43.254114 29.724026 66.046803 0
M  V30 74 H 38.059650 28.338989 52.923168 0
M  V30 75 H 39.467455 27.915624 53.853588 0
M  V30 76 H 36.667482 29.223068 56.437054 0
M  V30 77 H 37.799208 33.011032 61.278133 0
M  V30 78 H 39.397276 33.707198 61.102896 0
M  V30 79 H 41.297497 27.627677 63.302350 0
M  V30 80 H 38.684740 30.801721 56.389124 0
M  V30 81 H 39.617110 29.338587 56.432507 0
M  V30 82 H 36.808274 27.158330 57.543107 0
M  V30 83 H 36.549073 27.533512 54.653478 0
M  V30 84 H 37.551969 26.353644 53.898411 0
M  V30 END ATOM
M  V30 BEGIN BOND
M  V30 1 1 9 4
M  V30 2 1 10 2
M  V30 3 1 12 9
M  V30 4 1 13 5
M  V30 5 1 13 6
M  V30 6 1 14 6
M  V30 7 1 16 1
M  V30 8 1 17 6
M  V30 9 2 17 8
M  V30 10 1 20 16
M  V30 11 1 21 11
M  V30 12 1 22 16
M  V30 13 1 23 7
M  V30 14 1 23 9
M  V30 15 1 24 9
M  V30 16 1 25 1
M  V30 17 1 26 19
M  V30 18 1 27 8
M  V30 19 1 27 22
M  V30 20 1 28 5
M  V30 21 1 28 10
M  V30 22 1 28 14
M  V30 23 1 29 4
M  V30 24 1 31 20
M  V30 25 1 32 25
M  V30 26 1 32 27
M  V30 27 1 5 33 CFG=3
M  V30 28 1 34 4
M  V30 29 1 34 31
M  V30 30 1 35 19
M  V30 31 1 35 21
M  V30 32 1 35 31
M  V30 33 1 36 19
M  V30 34 1 36 29
M  V30 35 1 37 3
M  V30 36 1 37 11
M  V30 37 1 37 18
M  V30 38 1 37 26
M  V30 39 1 38 5
M  V30 40 2 38 15
M  V30 41 1 38 30
M  V30 42 1 39 1
M  V30 43 1 40 1
M  V30 44 1 41 2
M  V30 45 1 4 42 CFG=1
M  V30 46 1 6 43 CFG=1
M  V30 47 1 44 7
M  V30 48 1 45 7
M  V30 49 1 46 7
M  V30 50 1 47 8
M  V30 51 1 48 10
M  V30 52 1 49 11
M  V30 53 1 50 11
M  V30 54 1 51 12
M  V30 55 1 52 12
M  V30 56 1 53 12
M  V30 57 1 54 13
M  V30 58 1 55 13
M  V30 59 1 56 14
M  V30 60 1 57 14
M  V30 61 1 58 17
M  V30 62 1 19 59 CFG=3
M  V30 63 1 60 20
M  V30 64 1 61 21
M  V30 65 1 62 21
M  V30 66 1 63 22
M  V30 67 1 64 22
M  V30 68 1 65 24
M  V30 69 1 66 24
M  V30 70 1 67 24
M  V30 71 1 68 25
M  V30 72 1 69 25
M  V30 73 1 70 26
M  V30 74 1 71 26
M  V30 75 1 27 72 CFG=3
M  V30 76 1 28 73 CFG=1
M  V30 77 1 74 29
M  V30 78 1 75 29
M  V30 79 1 31 76 CFG=3
M  V30 80 1 77 32
M  V30 81 1 78 32
M  V30 82 1 79 33
M  V30 83 1 80 34
M  V30 84 1 81 34
M  V30 85 1 35 82 CFG=1
M  V30 86 1 83 36
M  V30 87 1 84 36
M  V30 END BOND
M  V30 END CTAB
M  END
>  <i_epik_Tot_Q>  (1) 
-1

>  <i_epik_Tot_abs_Q>  (1) 
1

>  <i_i_glide_confnum>  (1) 
960

>  <i_i_glide_lignum>  (1) 
230

>  <i_i_glide_posenum>  (1) 
19

>  <i_i_glide_rotatable_bonds>  (1) 
10

>  <i_lp_mmshare_version>  (1) 
72125

>  <i_m_source_file_index>  (1) 
91

>  <i_f3d_flags>  (1) 
0

>  <num_sample>  (1) 
100

>  <b_lp_Chiralities_Consistent>  (1) 
1

>  <r_epik_Charging_Adjusted_Penalty>  (1) 
0.43821527866000726

>  <r_epik_Ionization_Penalty>  (1) 
0.52002734918543769

>  <r_epik_Ionization_Penalty_Charging>  (1) 
0.00012691742049533285

>  <r_epik_Ionization_Penalty_Neutral>  (1) 
0.51990043176494238

>  <r_epik_State_Penalty>  (1) 
0.43808836123951195

>  <r_glide_ring_energy>  (1) 
0.16952212376527084

>  <r_i_docking_score>  (1) 
-4.8166794750796225

>  <r_i_glide_ecoul>  (1) 
-1.9187622706140248

>  <r_i_glide_eff_state_penalty>  (1) 
0.43808836123951195

>  <r_i_glide_einternal>  (1) 
14.78829066973438

>  <r_i_glide_emodel>  (1) 
-21.619026218196673

>  <r_i_glide_emodel_strain>  (1) 
9.9649170254096049

>  <r_i_glide_energy>  (1) 
-37.406979938967595

>  <r_i_glide_erotb>  (1) 
0.42146348941000378

>  <r_i_glide_esite>  (1) 
-0.11584260090834769

>  <r_i_glide_evdw>  (1) 
-35.48821766835357

>  <r_i_glide_gscore>  (1) 
-5.2547678363191341

>  <r_i_glide_gscore_strain>  (1) 
1.4912292563524012

>  <r_i_glide_hbond>  (1) 
-0.071822459852541307

>  <r_i_glide_ligand_efficiency>  (1) 
-0.12675472302841112

>  <r_i_glide_ligand_efficiency_ln>  (1) 
-1.038617787181727

>  <r_i_glide_ligand_efficiency_sa>  (1) 
-0.42614626151713247

>  <r_i_glide_lipo>  (1) 
-3.8496327400524106

>  <r_i_glide_metal>  (1) 
-0

>  <r_i_glide_rewards>  (1) 
-1.0679375572584577

>  <r_lp_Energy>  (1) 
50.567886999999999

>  <s_epik_Chemistry_Notes>  (1) 
This compound has a N-S or N-O group and may undergo hydrolysis at high or low pH.

>  <s_epik_cmdline>  (1) 
J2VwaWtfcHl0aG9uJywgJy1waHQnLCAnMS4wJywgJy1waCcsICc3LjQnLCAnLXRuJywgJzgnLCAnLW1hJywgJzUwMCcsICctaW1hZScsICc8aW5maWxlLm1hZT4nLCAnLW9tYWUnLCAnPG91dGZpbGUubWFlPic=

>  <s_epik_input>  (1) 
RkMoRikoW0NIMl0xKVtDSDJdW0NIMl1bQ0BIXShbQ0BASF0xMilbQ0BIXShbQ0gyXVtDQEhdKFtDSDJdW0NIMl0yKUMoW0NIM10pKFtDSDNdKU9bQ0gzXSlbTkhdTjNbQ0gyXVtDSDJdW0NIMl1bQ0BIXShbQ0gyXTMpL1tDSF09W0NIXS9bQ0BASF0oW0NIMl1bQ0BdNChbT0hdKUMoPU8pW09IXSlbQ0gyXVtDQEBIXTRbTkhdW09IXQ==

>  <s_glide_docking_method>  (1) 
confgen

>  <s_i_glide_gridfile>  (1) 
gpcr_5ht2c_6bqh_protein_autoprepared_prepared

>  <s_lp_Force_Field>  (1) 
S-OPLS

>  <s_lp_Variant>  (1) 
DiffSBDD_90_num_sample_100-2

>  <s_m_source_file>  (1) 
generated__ligand_DiffSBDD_2026-05-06_prepared.sdf

>  <GenAI_Model>  (1) 
DiffSBDD

>  <Protein>  (1) 
GPCR_5HT2C

$$$$
DiffSBDD_90_num_sample_100
     RDKit          3D

  0  0  0  0  0  0  0  0  0  0999 V3000
M  V30 BEGIN CTAB
M  V30 COUNTS 85 88 0 0 1
M  V30 BEGIN ATOM
M  V30 1 C 36.709366 30.223024 59.117233 0
M  V30 2 O 41.111299 28.440780 64.869916 0
M  V30 3 F 36.925065 22.935788 55.548211 0
M  V30 4 C 38.589366 29.474708 54.616641 0 CFG=1
M  V30 5 C 41.592554 32.018021 65.757485 0 CFG=2
M  V30 6 C 41.677812 32.299016 63.324375 0 CFG=1
M  V30 7 C 40.284495 30.103494 51.814334 0
M  V30 8 C 39.748543 31.518477 61.880782 0
M  V30 9 C 39.338496 30.742272 54.072574 0
M  V30 10 N 40.714659 29.794027 65.191218 0
M  V30 11 C 37.854690 24.408064 57.195348 0
M  V30 12 C 38.410215 31.916915 54.461445 0
M  V30 13 C 40.904604 32.745108 64.583355 0
M  V30 14 C 42.287200 30.921370 63.672074 0
M  V30 15 O 42.667381 34.011587 66.526080 0
M  V30 16 N 38.124103 29.888653 58.805947 0 CFG=2 CHG=1
M  V30 17 C 40.842041 32.282392 62.051259 0
M  V30 18 F 38.753576 24.021430 55.083389 0
M  V30 19 C 37.625416 26.457468 55.091527 0 CFG=2
M  V30 20 N 38.297771 28.511203 58.295756 0
M  V30 21 C 38.492153 25.805080 57.357583 0
M  V30 22 C 39.011232 30.081249 59.981795 0
M  V30 23 O 39.467403 30.901239 52.653526 0
M  V30 24 C 40.735437 30.954626 54.653554 0
M  V30 25 C 36.585396 31.660465 59.649082 0
M  V30 26 C 36.835706 25.147773 54.995147 0
M  V30 27 C 38.916419 31.487431 60.609061 0 CFG=1
M  V30 28 C 41.915917 30.630277 65.141227 0 CFG=1
M  V30 29 C 38.312296 28.392101 53.573917 0
M  V30 30 O 43.930678 32.199076 66.253545 0 CHG=-1
M  V30 31 C 38.003848 28.360514 56.873324 0 CFG=1
M  V30 32 C 37.451777 31.856179 60.901472 0
M  V30 33 O 40.756406 31.886184 66.893038 0
M  V30 34 C 39.116020 28.947191 55.985035 0
M  V30 35 C 37.659973 26.874155 56.593046 0 CFG=1
M  V30 36 C 37.185056 27.445271 54.000476 0
M  V30 37 C 37.595916 24.074739 55.715294 0
M  V30 38 C 42.841408 32.812141 66.215020 0
M  V30 39 H 36.322648 29.521564 59.853686 0
M  V30 40 H 36.082021 30.096442 58.238736 0
M  V30 41 H 40.436764 28.188663 64.253537 0
M  V30 42 H 37.574775 29.798075 54.839666 0
M  V30 43 H 42.499281 33.000244 63.164965 0
M  V30 44 H 39.706432 29.819118 50.935400 0
M  V30 45 H 41.116914 30.703268 51.453124 0
M  V30 46 H 40.667373 29.192953 52.253502 0
M  V30 47 H 39.422320 30.873396 62.685103 0
M  V30 48 H 40.377688 29.711781 66.142612 0
M  V30 49 H 36.912864 24.380745 57.743544 0
M  V30 50 H 38.493233 23.648004 57.647302 0
M  V30 51 H 38.405290 32.110496 55.534856 0
M  V30 52 H 38.667605 32.821425 53.952105 0
M  V30 53 H 37.375503 31.750422 54.162031 0
M  V30 54 H 40.885127 33.830429 64.687054 0
M  V30 55 H 39.867406 32.421304 64.528039 0
M  V30 56 H 43.372940 30.968332 63.581945 0
M  V30 57 H 41.962938 30.128961 62.997161 0
M  V30 58 H 41.170636 32.929317 61.252091 0
M  V30 59 H 38.658027 26.248309 54.815341 0
M  V30 60 H 37.584952 28.043037 58.836673 0
M  V30 61 H 38.548674 26.012004 58.425686 0
M  V30 62 H 39.520927 25.797715 56.992831 0
M  V30 63 H 40.042039 29.882085 59.684841 0
M  V30 64 H 38.758475 29.330977 60.733351 0
M  V30 65 H 40.667400 31.593156 55.529332 0
M  V30 66 H 41.205770 30.021434 54.946219 0
M  V30 67 H 41.412749 31.437044 53.961642 0
M  V30 68 H 35.541968 31.878485 59.879387 0
M  V30 69 H 36.878852 32.370937 58.873876 0
M  V30 70 H 35.867412 25.221463 55.475840 0
M  V30 71 H 36.673390 24.841932 53.959519 0
M  V30 72 H 39.321008 32.216631 59.904522 0
M  V30 73 H 42.722155 30.122145 65.673519 0
M  V30 74 H 37.988888 28.863603 52.645202 0
M  V30 75 H 39.218672 27.837564 53.332685 0
M  V30 76 H 37.099172 28.938890 56.694941 0
M  V30 77 H 37.067182 31.233674 61.709443 0
M  V30 78 H 37.383737 32.889659 61.245842 0
M  V30 79 H 41.318471 31.649833 67.615441 0
M  V30 80 H 39.542492 29.780751 56.539736 0
M  V30 81 H 39.931824 28.235054 55.849392 0
M  V30 82 H 36.667406 26.756899 57.020645 0
M  V30 83 H 36.274276 27.976459 54.253470 0
M  V30 84 H 36.934296 26.880853 53.102114 0
M  V30 85 H 38.427161 30.500456 58.060100 0
M  V30 END ATOM
M  V30 BEGIN BOND
M  V30 1 1 9 4
M  V30 2 1 10 2
M  V30 3 1 12 9
M  V30 4 1 13 5
M  V30 5 1 13 6
M  V30 6 1 14 6
M  V30 7 1 16 1
M  V30 8 1 17 6
M  V30 9 2 17 8
M  V30 10 1 20 16
M  V30 11 1 21 11
M  V30 12 1 22 16
M  V30 13 1 23 7
M  V30 14 1 23 9
M  V30 15 1 24 9
M  V30 16 1 25 1
M  V30 17 1 26 19
M  V30 18 1 27 8
M  V30 19 1 27 22
M  V30 20 1 28 5
M  V30 21 1 28 10
M  V30 22 1 28 14
M  V30 23 1 29 4
M  V30 24 1 31 20
M  V30 25 1 32 25
M  V30 26 1 32 27
M  V30 27 1 5 33 CFG=1
M  V30 28 1 34 4
M  V30 29 1 34 31
M  V30 30 1 35 19
M  V30 31 1 35 21
M  V30 32 1 35 31
M  V30 33 1 36 19
M  V30 34 1 36 29
M  V30 35 1 37 3
M  V30 36 1 37 11
M  V30 37 1 37 18
M  V30 38 1 37 26
M  V30 39 1 38 5
M  V30 40 2 38 15
M  V30 41 1 38 30
M  V30 42 1 39 1
M  V30 43 1 40 1
M  V30 44 1 41 2
M  V30 45 1 4 42 CFG=1
M  V30 46 1 6 43 CFG=3
M  V30 47 1 44 7
M  V30 48 1 45 7
M  V30 49 1 46 7
M  V30 50 1 47 8
M  V30 51 1 48 10
M  V30 52 1 49 11
M  V30 53 1 50 11
M  V30 54 1 51 12
M  V30 55 1 52 12
M  V30 56 1 53 12
M  V30 57 1 54 13
M  V30 58 1 55 13
M  V30 59 1 56 14
M  V30 60 1 57 14
M  V30 61 1 58 17
M  V30 62 1 19 59 CFG=3
M  V30 63 1 60 20
M  V30 64 1 61 21
M  V30 65 1 62 21
M  V30 66 1 63 22
M  V30 67 1 64 22
M  V30 68 1 65 24
M  V30 69 1 66 24
M  V30 70 1 67 24
M  V30 71 1 68 25
M  V30 72 1 69 25
M  V30 73 1 70 26
M  V30 74 1 71 26
M  V30 75 1 27 72 CFG=3
M  V30 76 1 28 73 CFG=1
M  V30 77 1 74 29
M  V30 78 1 75 29
M  V30 79 1 31 76 CFG=1
M  V30 80 1 77 32
M  V30 81 1 78 32
M  V30 82 1 79 33
M  V30 83 1 80 34
M  V30 84 1 81 34
M  V30 85 1 35 82 CFG=1
M  V30 86 1 83 36
M  V30 87 1 84 36
M  V30 88 1 16 85 CFG=3
M  V30 END BOND
M  V30 END CTAB
M  END
>  <i_epik_Tot_Q>  (1) 
0

>  <i_epik_Tot_abs_Q>  (1) 
2

>  <i_i_glide_confnum>  (1) 
743

>  <i_i_glide_lignum>  (1) 
240

>  <i_i_glide_posenum>  (1) 
245

>  <i_i_glide_rotatable_bonds>  (1) 
10

>  <i_lp_mmshare_version>  (1) 
72125

>  <i_m_source_file_index>  (1) 
91

>  <i_f3d_flags>  (1) 
0

>  <num_sample>  (1) 
100

>  <b_lp_Chiralities_Consistent>  (1) 
1

>  <r_epik_Charging_Adjusted_Penalty>  (1) 
1.5083745474312953

>  <r_epik_Ionization_Penalty>  (1) 
0.65750586125956467

>  <r_epik_Ionization_Penalty_Charging>  (1) 
0.6544614066189578

>  <r_epik_Ionization_Penalty_Neutral>  (1) 
0.0030444546406068235

>  <r_epik_State_Penalty>  (1) 
0.8539131408123376

>  <r_glide_ring_energy>  (1) 
0.69230642483631666

>  <r_i_docking_score>  (1) 
-4.7973504216024665

>  <r_i_glide_ecoul>  (1) 
-1.4436297051523619

>  <r_i_glide_eff_state_penalty>  (1) 
0.8539131408123376

>  <r_i_glide_einternal>  (1) 
23.675960683352177

>  <r_i_glide_emodel>  (1) 
-48.442126002852262

>  <r_i_glide_emodel_strain>  (1) 
8.2429112188866611

>  <r_i_glide_energy>  (1) 
-31.688295044268052

>  <r_i_glide_erotb>  (1) 
0.42002339013477186

>  <r_i_glide_esite>  (1) 
-0.047295324117368247

>  <r_i_glide_evdw>  (1) 
-30.244665339115691

>  <r_i_glide_gscore>  (1) 
-5.6512635624148038

>  <r_i_glide_gscore_strain>  (1) 
1.0607278047216653

>  <r_i_glide_hbond>  (1) 
-0.089742419265402357

>  <r_i_glide_ligand_efficiency>  (1) 
-0.1262460637263807

>  <r_i_glide_ligand_efficiency_ln>  (1) 
-1.0344498746489073

>  <r_i_glide_ligand_efficiency_sa>  (1) 
-0.42443616145326668

>  <r_i_glide_lipo>  (1) 
-4.4270588113067513

>  <r_i_glide_metal>  (1) 
-0

>  <r_i_glide_rewards>  (1) 
-0.83914047985308005

>  <r_lp_Energy>  (1) 
52.906404999999999

>  <s_epik_Chemistry_Notes>  (1) 
This compound has a N-S or N-O group and may undergo hydrolysis at high or low pH.

>  <s_epik_cmdline>  (1) 
J2VwaWtfcHl0aG9uJywgJy1waHQnLCAnMS4wJywgJy1waCcsICc3LjQnLCAnLXRuJywgJzgnLCAnLW1hJywgJzUwMCcsICctaW1hZScsICc8aW5maWxlLm1hZT4nLCAnLW9tYWUnLCAnPG91dGZpbGUubWFlPic=

>  <s_epik_input>  (1) 
RkMoRikoW0NIMl0xKVtDSDJdW0NIMl1bQ0BIXShbQ0BASF0xMilbQ0BIXShbQ0gyXVtDQEhdKFtDSDJdW0NIMl0yKUMoW0NIM10pKFtDSDNdKU9bQ0gzXSlbTkhdTjNbQ0gyXVtDSDJdW0NIMl1bQ0BIXShbQ0gyXTMpL1tDSF09W0NIXS9bQ0BASF0oW0NIMl1bQ0BdNChbT0hdKUMoPU8pW09IXSlbQ0gyXVtDQEBIXTRbTkhdW09IXQ==

>  <s_glide_docking_method>  (1) 
confgen

>  <s_i_glide_gridfile>  (1) 
gpcr_5ht2c_6bqh_protein_autoprepared_prepared

>  <s_lp_Force_Field>  (1) 
S-OPLS

>  <s_lp_Variant>  (1) 
DiffSBDD_90_num_sample_100-12

>  <s_m_source_file>  (1) 
generated__ligand_DiffSBDD_2026-05-06_prepared.sdf

>  <GenAI_Model>  (1) 
DiffSBDD

>  <Protein>  (1) 
GPCR_5HT2C

$$$$
DiffSBDD_30_num_sample_100
     RDKit          3D

  0  0  0  0  0  0  0  0  0  0999 V3000
M  V30 BEGIN CTAB
M  V30 COUNTS 70 73 0 0 1
M  V30 BEGIN ATOM
M  V30 1 C 40.250747 36.448626 67.754276 0
M  V30 2 C 41.875345 32.180121 67.327291 0 CFG=1
M  V30 3 O 40.195085 34.347226 68.827058 0
M  V30 4 C 38.941306 30.874467 55.639238 0
M  V30 5 C 38.948544 29.535634 56.068040 0
M  V30 6 N 41.886112 35.247922 65.610271 0
M  V30 7 C 38.412415 30.256427 58.333595 0
M  V30 8 C 41.575769 34.449353 66.801928 0 CFG=1
M  V30 9 O 39.467426 29.621022 66.653369 0
M  V30 10 O 44.040451 32.399038 66.253532 0
M  V30 11 C 36.070070 32.749955 60.417326 0
M  V30 12 C 43.276746 31.686990 66.903247 0
M  V30 13 C 43.685153 30.280766 67.333904 0
M  V30 14 C 34.601283 33.052677 60.409200 0
M  V30 15 C 37.462930 34.055783 58.732854 0 CFG=2
M  V30 16 C 41.063624 35.111639 62.058513 0
M  V30 17 N 41.467394 35.765534 63.324415 0 CHG=1
M  V30 18 C 35.094196 31.621419 60.475959 0
M  V30 19 C 39.166685 34.571509 60.420227 0 CFG=1
M  V30 20 C 38.683929 29.227028 57.413081 0
M  V30 21 C 37.811421 35.034968 59.853352 0
M  V30 22 N 36.678077 32.879305 59.074383 0 CFG=1 CHG=1
M  V30 23 C 38.670709 31.910206 56.555879 0
M  V30 24 C 40.897240 35.162402 64.539664 0
M  V30 25 C 38.404108 31.607939 57.916157 0
M  V30 26 C 39.549567 35.204261 61.771727 0
M  V30 27 C 40.499001 30.527522 66.359609 0
M  V30 28 C 40.290000 34.922685 67.544079 0 CFG=2
M  V30 29 C 38.112599 32.700758 58.908909 0 CFG=1
M  V30 30 O 38.667379 33.205459 56.127775 0
M  V30 31 S 39.130500 32.753668 60.425502 0
M  V30 32 O 41.394947 33.123247 66.412397 0
M  V30 33 O 40.970951 31.132407 67.527096 0
M  V30 34 H 40.281106 37.002883 66.817065 0
M  V30 35 H 39.323961 36.735423 68.253396 0
M  V30 36 H 41.067384 36.799296 68.382568 0
M  V30 37 H 41.981026 32.631941 68.313814 0
M  V30 38 H 40.019033 33.422794 68.724783 0
M  V30 39 H 39.144892 31.108352 54.604613 0
M  V30 40 H 39.157275 28.743959 55.363555 0
M  V30 41 H 42.010355 36.220626 65.885087 0
M  V30 42 H 38.209844 30.010797 59.365630 0
M  V30 43 H 42.446968 34.502074 67.453476 0
M  V30 44 H 39.176162 29.220444 65.842363 0
M  V30 45 H 36.646305 32.993095 61.305676 0
M  V30 46 H 43.099073 29.948812 68.190931 0
M  V30 47 H 43.537558 29.575320 66.516559 0
M  V30 48 H 44.738878 30.264609 67.612804 0
M  V30 49 H 34.204367 33.492183 61.319879 0
M  V30 50 H 34.133509 33.384088 59.482824 0
M  V30 51 H 37.130124 34.421441 57.769495 0
M  V30 52 H 41.384475 34.068888 62.079114 0
M  V30 53 H 41.617910 35.591424 61.250516 0
M  V30 54 H 42.470703 35.679719 63.403727 0
M  V30 55 H 35.067413 31.000708 59.581662 0
M  V30 56 H 34.997384 31.093829 61.422522 0
M  V30 57 H 39.942550 34.821421 59.699738 0
M  V30 58 H 38.689043 28.197760 57.741519 0
M  V30 59 H 37.036338 35.078392 60.616770 0
M  V30 60 H 37.867407 36.047467 59.453480 0
M  V30 61 H 39.972629 35.676497 64.802149 0
M  V30 62 H 40.656124 34.117973 64.337608 0
M  V30 63 H 39.264439 36.257116 61.759762 0
M  V30 64 H 38.971067 34.738904 62.569322 0
M  V30 65 H 40.078656 31.262163 65.670899 0
M  V30 66 H 41.287005 29.970826 65.852403 0
M  V30 67 H 39.417250 34.618137 66.975768 0
M  V30 68 H 38.611244 33.277782 55.186456 0
M  V30 69 H 41.245801 36.752453 63.308596 0
M  V30 70 H 36.154187 32.489932 58.287281 0
M  V30 END ATOM
M  V30 BEGIN BOND
M  V30 1 1 5 4
M  V30 2 1 8 6
M  V30 3 1 12 2
M  V30 4 2 12 10
M  V30 5 1 13 12
M  V30 6 1 14 11
M  V30 7 1 17 16
M  V30 8 1 18 11
M  V30 9 1 18 14
M  V30 10 2 20 5
M  V30 11 1 20 7
M  V30 12 1 21 15
M  V30 13 1 21 19
M  V30 14 1 22 11
M  V30 15 1 22 15
M  V30 16 2 23 4
M  V30 17 1 24 6
M  V30 18 1 24 17
M  V30 19 2 25 7
M  V30 20 1 25 23
M  V30 21 1 26 16
M  V30 22 1 26 19
M  V30 23 1 27 9
M  V30 24 1 28 1
M  V30 25 1 28 3
M  V30 26 1 28 8
M  V30 27 1 29 15
M  V30 28 1 29 22
M  V30 29 1 29 25 CFG=3
M  V30 30 1 30 23
M  V30 31 1 31 19
M  V30 32 1 31 29
M  V30 33 1 32 2
M  V30 34 1 32 8
M  V30 35 1 33 2
M  V30 36 1 33 27
M  V30 37 1 34 1
M  V30 38 1 35 1
M  V30 39 1 36 1
M  V30 40 1 2 37 CFG=1
M  V30 41 1 38 3
M  V30 42 1 39 4
M  V30 43 1 40 5
M  V30 44 1 41 6
M  V30 45 1 42 7
M  V30 46 1 8 43 CFG=1
M  V30 47 1 44 9
M  V30 48 1 45 11
M  V30 49 1 46 13
M  V30 50 1 47 13
M  V30 51 1 48 13
M  V30 52 1 49 14
M  V30 53 1 50 14
M  V30 54 1 15 51 CFG=3
M  V30 55 1 52 16
M  V30 56 1 53 16
M  V30 57 1 54 17
M  V30 58 1 55 18
M  V30 59 1 56 18
M  V30 60 1 19 57 CFG=3
M  V30 61 1 58 20
M  V30 62 1 59 21
M  V30 63 1 60 21
M  V30 64 1 61 24
M  V30 65 1 62 24
M  V30 66 1 63 26
M  V30 67 1 64 26
M  V30 68 1 65 27
M  V30 69 1 66 27
M  V30 70 1 28 67 CFG=3
M  V30 71 1 68 30
M  V30 72 1 69 17
M  V30 73 1 22 70 CFG=3
M  V30 END BOND
M  V30 END CTAB
M  END
>  <i_epik_Tot_Q>  (1) 
2

>  <i_epik_Tot_abs_Q>  (1) 
2

>  <i_i_glide_confnum>  (1) 
747

>  <i_i_glide_lignum>  (1) 
81

>  <i_i_glide_posenum>  (1) 
131

>  <i_i_glide_rotatable_bonds>  (1) 
17

>  <i_lp_mmshare_version>  (1) 
72125

>  <i_m_source_file_index>  (1) 
31

>  <i_f3d_flags>  (1) 
0

>  <num_sample>  (1) 
100

>  <b_lp_Chiralities_Consistent>  (1) 
1

>  <r_epik_Charging_Adjusted_Penalty>  (1) 
1.979093595035226

>  <r_epik_Ionization_Penalty>  (1) 
0.79989620662071081

>  <r_epik_Ionization_Penalty_Charging>  (1) 
0.66086891892205935

>  <r_epik_Ionization_Penalty_Neutral>  (1) 
0.13902728769865147

>  <r_epik_State_Penalty>  (1) 
1.3182246761131666

>  <r_glide_ring_energy>  (1) 
0

>  <r_i_docking_score>  (1) 
-4.7870016014424479

>  <r_i_glide_ecoul>  (1) 
-9.2237147373238049

>  <r_i_glide_eff_state_penalty>  (1) 
1.3182246761131666

>  <r_i_glide_einternal>  (1) 
14.253353119768713

>  <r_i_glide_emodel>  (1) 
-67.052055396110148

>  <r_i_glide_emodel_strain>  (1) 
1.1449785187507473

>  <r_i_glide_energy>  (1) 
-51.553893696963456

>  <r_i_glide_erotb>  (1) 
1.1283805066766976

>  <r_i_glide_esite>  (1) 
-0.10000000000000001

>  <r_i_glide_evdw>  (1) 
-42.330178959639653

>  <r_i_glide_gscore>  (1) 
-6.105226277555615

>  <r_i_glide_gscore_strain>  (1) 
0

>  <r_i_glide_hbond>  (1) 
-0.52863386660367329

>  <r_i_glide_ligand_efficiency>  (1) 
-0.14506065458916509

>  <r_i_glide_ligand_efficiency_ln>  (1) 
-1.0646043703930139

>  <r_i_glide_ligand_efficiency_sa>  (1) 
-0.46528702952641371

>  <r_i_glide_lipo>  (1) 
-1.4446793475687048

>  <r_i_glide_metal>  (1) 
-0

>  <r_i_glide_rewards>  (1) 
-1.6602274114793814

>  <r_lp_Energy>  (1) 
32.029553999999997

>  <r_lp_tautomer_probability>  (1) 
0.99999996999736518

>  <s_epik_Chemistry_Notes>  (1) 
This compound contains an acetal/aminal-like group ( X-CH(R)-Y where X, Y are N, S, or O) that may be acid/base labile, releasing an aldehyde.

>  <s_epik_cmdline>  (1) 
J2VwaWtfcHl0aG9uJywgJy1waHQnLCAnMS4wJywgJy1waCcsICc3LjQnLCAnLXRuJywgJzgnLCAnLW1hJywgJzUwMCcsICctaW1hZScsICc8aW5maWxlLm1hZT4nLCAnLW9tYWUnLCAnPG91dGZpbGUubWFlPic=

>  <s_epik_input>  (1) 
W09IXVtDSDJdT1tDQEBIXShDKD1PKVtDSDNdKU9bQ0BIXShbQ0BIXShbQ0gzXSlbT0hdKVtOSF1bQ0gyXVtOSF1bQ0gyXVtDSDJdW0NAQEhdKFMxKVtDSDJdW0NASF0oTjJbQ0hdM1tDSDJdW0NIMl0zKVtDQEBdMTJjNFtjSF1bY0hdW2NIXVtjSF1jNFtPSF0=

>  <s_glide_docking_method>  (1) 
confgen

>  <s_i_glide_gridfile>  (1) 
gpcr_5ht2c_6bqh_protein_autoprepared_prepared

>  <s_lp_Force_Field>  (1) 
S-OPLS

>  <s_lp_Variant>  (1) 
DiffSBDD_30_num_sample_100-3

>  <s_m_source_file>  (1) 
generated__ligand_DiffSBDD_2026-05-06_prepared.sdf

>  <GenAI_Model>  (1) 
DiffSBDD

>  <Protein>  (1) 
GPCR_5HT2C

$$$$
DiffSBDD_44_num_sample_100
     RDKit          3D

  0  0  0  0  0  0  0  0  0  0999 V3000
M  V30 BEGIN CTAB
M  V30 COUNTS 58 59 0 0 1
M  V30 BEGIN ATOM
M  V30 1 C 38.443082 26.987847 56.167143 0
M  V30 2 O 39.512081 30.021426 59.476692 0 CHG=-1
M  V30 3 C 38.833552 33.790688 61.599206 0
M  V30 4 C 39.856065 28.775182 57.032730 0 CFG=1
M  V30 5 N 38.863666 28.413883 58.082664 0 CFG=2 CHG=1
M  V30 6 C 37.244238 35.666449 61.760239 0
M  V30 7 N 36.822304 31.998514 60.470290 0
M  V30 8 C 37.605472 34.221972 61.440274 0
M  V30 9 O 35.619352 34.043447 60.055498 0
M  V30 10 C 39.864935 27.547866 56.106989 0 CFG=1
M  V30 11 C 40.863966 26.493242 56.570229 0
M  V30 12 C 37.262247 30.363738 58.677694 0 CFG=1
M  V30 13 C 37.270366 31.775092 59.292011 0
M  V30 14 C 37.820067 27.617639 57.411286 0
M  V30 15 C 34.353172 33.445599 59.824195 0
M  V30 16 C 40.632202 35.264684 62.426902 0
M  V30 17 C 38.419360 29.397424 59.127644 0 CFG=2
M  V30 18 C 36.468957 33.327422 60.951485 0 CFG=1
M  V30 19 F 40.267403 37.565557 62.653522 0
M  V30 20 C 39.711443 36.485260 62.122477 0 CFG=2
M  V30 21 C 40.087781 33.932075 61.935230 0
M  V30 22 C 35.878021 29.754012 59.007754 0
M  V30 23 C 37.815710 32.879108 58.380993 0
M  V30 24 C 39.520432 30.050050 56.234988 0
M  V30 25 C 38.260546 36.427263 62.653928 0
M  V30 26 H 38.426690 25.898135 56.216492 0
M  V30 27 H 37.877404 27.274362 55.278784 0
M  V30 28 H 40.834848 28.902414 57.496807 0
M  V30 29 H 37.102668 36.196824 60.817979 0
M  V30 30 H 36.275826 35.667319 62.261894 0
M  V30 31 H 40.121611 27.826536 55.084984 0
M  V30 32 H 40.602671 26.080658 57.545415 0
M  V30 33 H 40.894812 25.671245 55.853505 0
M  V30 34 H 41.867321 26.910636 56.653517 0
M  V30 35 H 37.289510 30.486926 57.599131 0
M  V30 36 H 37.368821 26.881807 58.074412 0
M  V30 37 H 37.067414 28.303507 57.053507 0
M  V30 38 H 33.716835 34.125127 59.258560 0
M  V30 39 H 34.435268 32.524220 59.250567 0
M  V30 40 H 33.867313 33.221433 60.769670 0
M  V30 41 H 40.810406 35.186603 63.499970 0
M  V30 42 H 41.603167 35.429702 61.959962 0
M  V30 43 H 37.958605 28.748912 59.870059 0
M  V30 44 H 35.874769 33.177545 61.853466 0
M  V30 45 H 39.689147 36.666694 61.053499 0
M  V30 46 H 40.779876 33.103852 61.889564 0
M  V30 47 H 35.067403 30.388171 58.653490 0
M  V30 48 H 35.706145 28.763749 58.607117 0
M  V30 49 H 35.771412 29.666099 60.081582 0
M  V30 50 H 38.109418 32.491193 57.409028 0
M  V30 51 H 37.063411 33.639980 58.180729 0
M  V30 52 H 38.692127 33.350816 58.821822 0
M  V30 53 H 40.249812 30.210869 55.440841 0
M  V30 54 H 38.537296 30.001115 55.766845 0
M  V30 55 H 39.561367 30.928707 56.873682 0
M  V30 56 H 37.886790 37.446614 62.756344 0
M  V30 57 H 38.267402 36.021448 63.664152 0
M  V30 58 H 39.383612 27.750751 58.636141 0
M  V30 END ATOM
M  V30 BEGIN BOND
M  V30 1 1 5 4
M  V30 2 2 8 3
M  V30 3 1 8 6
M  V30 4 1 10 1
M  V30 5 1 10 4
M  V30 6 1 11 10
M  V30 7 2 13 7
M  V30 8 1 13 12
M  V30 9 1 14 1
M  V30 10 1 14 5
M  V30 11 1 15 9
M  V30 12 1 17 2
M  V30 13 1 17 5
M  V30 14 1 17 12
M  V30 15 1 18 7
M  V30 16 1 18 8
M  V30 17 1 18 9
M  V30 18 1 20 16
M  V30 19 1 20 19
M  V30 20 2 21 3
M  V30 21 1 21 16
M  V30 22 1 22 12
M  V30 23 1 23 13
M  V30 24 1 24 4
M  V30 25 1 25 6
M  V30 26 1 25 20
M  V30 27 1 26 1
M  V30 28 1 27 1
M  V30 29 1 4 28 CFG=1
M  V30 30 1 29 6
M  V30 31 1 30 6
M  V30 32 1 10 31 CFG=3
M  V30 33 1 32 11
M  V30 34 1 33 11
M  V30 35 1 34 11
M  V30 36 1 12 35 CFG=3
M  V30 37 1 36 14
M  V30 38 1 37 14
M  V30 39 1 38 15
M  V30 40 1 39 15
M  V30 41 1 40 15
M  V30 42 1 41 16
M  V30 43 1 42 16
M  V30 44 1 17 43 CFG=1
M  V30 45 1 18 44 CFG=1
M  V30 46 1 20 45 CFG=3
M  V30 47 1 46 21
M  V30 48 1 47 22
M  V30 49 1 48 22
M  V30 50 1 49 22
M  V30 51 1 50 23
M  V30 52 1 51 23
M  V30 53 1 52 23
M  V30 54 1 53 24
M  V30 55 1 54 24
M  V30 56 1 55 24
M  V30 57 1 56 25
M  V30 58 1 57 25
M  V30 59 1 5 58 CFG=1
M  V30 END BOND
M  V30 END CTAB
M  END
>  <i_epik_Tot_Q>  (1) 
0

>  <i_epik_Tot_abs_Q>  (1) 
2

>  <i_i_glide_confnum>  (1) 
27

>  <i_i_glide_lignum>  (1) 
121

>  <i_i_glide_posenum>  (1) 
273

>  <i_i_glide_rotatable_bonds>  (1) 
6

>  <i_lp_mmshare_version>  (1) 
72125

>  <i_m_source_file_index>  (1) 
45

>  <i_f3d_flags>  (1) 
0

>  <num_sample>  (1) 
100

>  <b_lp_Chiralities_Consistent>  (1) 
1

>  <r_epik_Charging_Adjusted_Penalty>  (1) 
0.41733257654759531

>  <r_epik_Ionization_Penalty>  (1) 
0.0069177268181324029

>  <r_epik_Ionization_Penalty_Charging>  (1) 
0.0066527375949913311

>  <r_epik_Ionization_Penalty_Neutral>  (1) 
0.00026498922314107146

>  <r_epik_State_Penalty>  (1) 
0.41067983895260396

>  <r_glide_ring_energy>  (1) 
0

>  <r_i_docking_score>  (1) 
-4.7807659101423292

>  <r_i_glide_ecoul>  (1) 
-1.269520116400437

>  <r_i_glide_eff_state_penalty>  (1) 
0.41067983895260396

>  <r_i_glide_einternal>  (1) 
7.1210226638116545

>  <r_i_glide_emodel>  (1) 
-36.148389436653311

>  <r_i_glide_emodel_strain>  (1) 
1.8510951622977103

>  <r_i_glide_energy>  (1) 
-27.261018055529899

>  <r_i_glide_erotb>  (1) 
0.61440649929112812

>  <r_i_glide_esite>  (1) 
-0.085385082953246205

>  <r_i_glide_evdw>  (1) 
-25.991497939129463

>  <r_i_glide_gscore>  (1) 
-5.1914457490949335

>  <r_i_glide_gscore_strain>  (1) 
0

>  <r_i_glide_hbond>  (1) 
0

>  <r_i_glide_ligand_efficiency>  (1) 
-0.19123063640569316

>  <r_i_glide_ligand_efficiency_ln>  (1) 
-1.1331847886970416

>  <r_i_glide_ligand_efficiency_sa>  (1) 
-0.55916177293998193

>  <r_i_glide_lipo>  (1) 
-2.2501174783775917

>  <r_i_glide_metal>  (1) 
-0

>  <r_i_glide_rewards>  (1) 
-1.9803467726386845

>  <r_lp_Energy>  (1) 
12.967366999999999

>  <r_lp_tautomer_probability>  (1) 
0.49999399997599986

>  <s_epik_Chemistry_Notes>  (1) 
This compound has an imine and may undergo hydrolysis. This compound contains an acetal/aminal-like group ( X-CH(R)-Y where X, Y are N, S, or O) that may be acid/base labile, releasing an aldehyde.

>  <s_epik_cmdline>  (1) 
J2VwaWtfcHl0aG9uJywgJy1waHQnLCAnMS4wJywgJy1waCcsICc3LjQnLCAnLXRuJywgJzgnLCAnLW1hJywgJzUwMCcsICctaW1hZScsICc8aW5maWxlLm1hZT4nLCAnLW9tYWUnLCAnPG91dGZpbGUubWFlPic=

>  <s_epik_input>  (1) 
W0NIM11bQ0BIXTFbQ0gyXVtDSDJdTihbQ0BASF0xW0NIM10pW0NAQEhdKFtPSF0pW0NAQEhdKFtDSDNdKVxDKFtDSDNdKT1OXFtDQEBIXShPW0NIM10pQzI9Qz1bQ0hdW0NIMl1bQ0BASF0oRilbQ0gyXVtDSDJdMg==

>  <s_glide_docking_method>  (1) 
confgen

>  <s_i_glide_gridfile>  (1) 
gpcr_5ht2c_6bqh_protein_autoprepared_prepared

>  <s_lp_Force_Field>  (1) 
S-OPLS

>  <s_lp_Variant>  (1) 
DiffSBDD_44_num_sample_100-14

>  <s_m_source_file>  (1) 
generated__ligand_DiffSBDD_2026-05-06_prepared.sdf

>  <GenAI_Model>  (1) 
DiffSBDD

>  <Protein>  (1) 
GPCR_5HT2C

$$$$
DiffSBDD_29_num_sample_100
     RDKit          3D

  0  0  0  0  0  0  0  0  0  0999 V3000
M  V30 BEGIN CTAB
M  V30 COUNTS 85 89 0 0 1
M  V30 BEGIN ATOM
M  V30 1 F 35.513080 37.407406 63.059600 0
M  V30 2 C 36.232169 32.027286 59.219652 0
M  V30 3 C 37.334227 35.444044 61.831150 0
M  V30 4 C 39.802891 28.687640 56.712977 0 CFG=2
M  V30 5 C 39.779669 29.275872 52.618828 0
M  V30 6 C 40.504736 29.606011 55.713779 0
M  V30 7 C 36.595604 38.982355 61.786719 0
M  V30 8 N 37.618846 32.200801 59.650480 0
M  V30 9 C 39.242798 26.044360 56.774684 0 CFG=1
M  V30 10 C 38.662461 26.926303 51.166756 0
M  V30 11 C 38.107788 33.257644 57.317826 0
M  V30 12 C 38.206928 27.326595 52.533240 0 CFG=1
M  V30 13 C 36.442447 37.750486 62.150482 0
M  V30 14 C 38.819356 31.935929 57.324029 0 CFG=2
M  V30 15 C 35.442662 32.485242 61.503192 0
M  V30 16 C 37.863703 24.716527 58.463705 0
M  V30 17 C 39.581885 27.336074 55.934643 0 CFG=1
M  V30 18 C 38.077805 30.732264 56.746297 0 CFG=1
M  V30 19 C 38.266766 37.455923 60.649659 0
M  V30 20 N 36.859277 32.478175 61.854262 0
M  V30 21 N 37.284004 36.873065 61.569432 0
M  V30 22 F 35.867863 40.000450 62.261246 0
M  V30 23 S 38.030378 26.158830 53.854466 0
M  V30 24 C 37.683088 33.075634 60.820190 0 CFG=2
M  V30 25 C 35.293172 31.601376 60.313391 0
M  V30 26 C 36.710984 25.673508 56.606415 0
M  V30 27 O 37.895467 30.865510 55.350129 0
M  V30 28 C 38.710084 27.613269 54.672882 0 CFG=2
M  V30 29 C 38.495120 29.328672 57.251857 0
M  V30 30 C 38.998200 28.255515 50.501235 0
M  V30 31 C 40.119920 29.056168 51.149617 0
M  V30 32 C 37.317290 34.565953 60.556399 0
M  V30 33 O 40.265821 25.851738 57.729594 0
M  V30 34 C 39.374048 27.927248 53.278724 0 CFG=2
M  V30 35 C 38.576667 32.663666 58.637869 0 CFG=2
M  V30 36 C 37.893242 25.908005 57.523884 0
M  V30 37 O 40.702733 28.532084 57.799891 0
M  V30 38 S 37.869388 39.319118 60.653868 0
M  V30 39 H 35.836967 32.903788 58.704799 0
M  V30 40 H 36.149972 31.131203 58.652825 0
M  V30 41 H 36.463204 35.207361 62.442661 0
M  V30 42 H 38.237552 35.241385 62.409615 0
M  V30 43 H 40.657503 29.767604 53.027888 0
M  V30 44 H 38.963733 29.993782 52.706705 0
M  V30 45 H 39.884872 29.690329 54.874030 0
M  V30 46 H 40.615170 30.661178 55.854188 0
M  V30 47 H 41.467438 29.211571 55.453505 0
M  V30 48 H 39.327141 25.181102 56.114815 0
M  V30 49 H 39.532218 26.271747 51.182189 0
M  V30 50 H 37.867605 26.422846 50.648583 0
M  V30 51 H 38.664624 34.062242 56.858325 0
M  V30 52 H 37.067398 33.236851 57.024659 0
M  V30 53 H 37.327544 27.977051 52.530446 0
M  V30 54 H 39.845407 32.028217 57.005835 0
M  V30 55 H 35.039026 33.485705 61.349052 0
M  V30 56 H 34.834849 32.002688 62.252897 0
M  V30 57 H 38.328956 23.821945 58.051908 0
M  V30 58 H 38.266881 25.020292 59.420575 0
M  V30 59 H 36.838996 24.422103 58.648540 0
M  V30 60 H 40.567110 27.072624 55.547790 0
M  V30 61 H 37.066528 30.795033 57.051818 0
M  V30 62 H 39.257644 37.269617 61.058519 0
M  V30 63 H 38.179162 37.055816 59.633700 0
M  V30 64 H 37.020958 32.962357 62.723608 0
M  V30 65 H 38.709048 33.036985 61.187865 0
M  V30 66 H 34.272158 31.626602 59.937983 0
M  V30 67 H 35.518995 30.572566 60.599828 0
M  V30 68 H 36.832274 24.761308 56.019283 0
M  V30 69 H 35.765465 25.619501 57.141399 0
M  V30 70 H 36.667742 26.510673 55.941958 0
M  V30 71 H 38.723780 31.110833 54.975909 0
M  V30 72 H 37.868267 28.276324 54.871000 0
M  V30 73 H 37.658836 28.676269 57.014169 0
M  V30 74 H 38.507511 29.345257 58.342997 0
M  V30 75 H 39.140994 28.156200 49.453751 0
M  V30 76 H 38.114578 28.853385 50.646975 0
M  V30 77 H 41.070353 28.535369 51.049617 0
M  V30 78 H 40.235693 30.015651 50.645269 0
M  V30 79 H 38.042866 34.946692 59.842785 0
M  V30 80 H 36.353627 34.667785 60.059081 0
M  V30 81 H 40.400898 26.679783 58.178910 0
M  V30 82 H 40.206645 27.219705 53.169469 0
M  V30 83 H 39.490351 33.110026 59.031529 0
M  V30 84 H 37.731135 26.805498 58.117477 0
M  V30 85 H 41.546912 28.275551 57.458879 0
M  V30 END ATOM
M  V30 BEGIN BOND
M  V30 1 1 6 4
M  V30 2 1 8 2
M  V30 3 1 12 10
M  V30 4 1 13 1
M  V30 5 2 13 7
M  V30 6 1 14 11
M  V30 7 1 17 4
M  V30 8 1 17 9
M  V30 9 1 18 14
M  V30 10 1 20 15
M  V30 11 1 21 3
M  V30 12 1 21 13
M  V30 13 1 21 19
M  V30 14 1 22 7
M  V30 15 1 23 12
M  V30 16 1 24 8
M  V30 17 1 24 20
M  V30 18 1 25 2
M  V30 19 1 25 15
M  V30 20 1 27 18
M  V30 21 1 28 17
M  V30 22 1 28 23
M  V30 23 1 29 4
M  V30 24 1 29 18
M  V30 25 1 30 10
M  V30 26 1 31 5
M  V30 27 1 31 30
M  V30 28 1 32 3
M  V30 29 1 32 24
M  V30 30 1 33 9
M  V30 31 1 34 5
M  V30 32 1 34 12
M  V30 33 1 34 28
M  V30 34 1 35 8
M  V30 35 1 35 11
M  V30 36 1 35 14
M  V30 37 1 36 9
M  V30 38 1 36 16
M  V30 39 1 36 26
M  V30 40 1 4 37 CFG=1
M  V30 41 1 38 7
M  V30 42 1 38 19
M  V30 43 1 39 2
M  V30 44 1 40 2
M  V30 45 1 41 3
M  V30 46 1 42 3
M  V30 47 1 43 5
M  V30 48 1 44 5
M  V30 49 1 45 6
M  V30 50 1 46 6
M  V30 51 1 47 6
M  V30 52 1 9 48 CFG=3
M  V30 53 1 49 10
M  V30 54 1 50 10
M  V30 55 1 51 11
M  V30 56 1 52 11
M  V30 57 1 12 53 CFG=3
M  V30 58 1 14 54 CFG=3
M  V30 59 1 55 15
M  V30 60 1 56 15
M  V30 61 1 57 16
M  V30 62 1 58 16
M  V30 63 1 59 16
M  V30 64 1 17 60 CFG=3
M  V30 65 1 18 61 CFG=1
M  V30 66 1 62 19
M  V30 67 1 63 19
M  V30 68 1 64 20
M  V30 69 1 24 65 CFG=1
M  V30 70 1 66 25
M  V30 71 1 67 25
M  V30 72 1 68 26
M  V30 73 1 69 26
M  V30 74 1 70 26
M  V30 75 1 71 27
M  V30 76 1 28 72 CFG=1
M  V30 77 1 73 29
M  V30 78 1 74 29
M  V30 79 1 75 30
M  V30 80 1 76 30
M  V30 81 1 77 31
M  V30 82 1 78 31
M  V30 83 1 79 32
M  V30 84 1 80 32
M  V30 85 1 81 33
M  V30 86 1 34 82 CFG=1
M  V30 87 1 35 83 CFG=1
M  V30 88 1 84 36
M  V30 89 1 85 37
M  V30 END BOND
M  V30 END CTAB
M  END
>  <i_epik_Tot_Q>  (1) 
0

>  <i_epik_Tot_abs_Q>  (1) 
0

>  <i_i_glide_confnum>  (1) 
753

>  <i_i_glide_lignum>  (1) 
74

>  <i_i_glide_posenum>  (1) 
64

>  <i_i_glide_rotatable_bonds>  (1) 
14

>  <i_lp_mmshare_version>  (1) 
72125

>  <i_m_source_file_index>  (1) 
30

>  <i_f3d_flags>  (1) 
0

>  <num_sample>  (1) 
100

>  <b_lp_Chiralities_Consistent>  (1) 
1

>  <r_epik_Charging_Adjusted_Penalty>  (1) 
0.89739717629826321

>  <r_epik_Ionization_Penalty>  (1) 
1.0966562263345743

>  <r_epik_Ionization_Penalty_Charging>  (1) 
8.0809776118824917e-09

>  <r_epik_Ionization_Penalty_Neutral>  (1) 
1.0966562182535966

>  <r_epik_State_Penalty>  (1) 
0.89739716821728555

>  <r_glide_ring_energy>  (1) 
1.6720993256358943

>  <r_i_docking_score>  (1) 
-4.7800256517515693

>  <r_i_glide_ecoul>  (1) 
-1.8084577034335254

>  <r_i_glide_eff_state_penalty>  (1) 
0.89739716821728555

>  <r_i_glide_einternal>  (1) 
92.451458860272979

>  <r_i_glide_emodel>  (1) 
39.360603126375899

>  <r_i_glide_emodel_strain>  (1) 
6.8331034905000365

>  <r_i_glide_energy>  (1) 
-4.7939481427503967

>  <r_i_glide_erotb>  (1) 
0.47112220270256994

>  <r_i_glide_esite>  (1) 
-0.034579570695062463

>  <r_i_glide_evdw>  (1) 
-2.9854904393168713

>  <r_i_glide_gscore>  (1) 
-5.6774228199688546

>  <r_i_glide_gscore_strain>  (1) 
0.70827587262500913

>  <r_i_glide_hbond>  (1) 
-0.10970033525126555

>  <r_i_glide_ligand_efficiency>  (1) 
-0.12579014873030445

>  <r_i_glide_ligand_efficiency_ln>  (1) 
-1.0307141446259593

>  <r_i_glide_ligand_efficiency_sa>  (1) 
-0.42290338644886749

>  <r_i_glide_lipo>  (1) 
-4.4564153602643701

>  <r_i_glide_metal>  (1) 
-0

>  <r_i_glide_rewards>  (1) 
-1.8355824516048629

>  <r_lp_Energy>  (1) 
34.086382999999998

>  <s_epik_Chemistry_Notes>  (1) 
This compound has an imine and may undergo hydrolysis. This compound contains an acetal/aminal-like group ( X-CH(R)-Y where X, Y are N, S, or O) that may be acid/base labile, releasing an aldehyde.

>  <s_epik_cmdline>  (1) 
J2VwaWtfcHl0aG9uJywgJy1waHQnLCAnMS4wJywgJy1waCcsICc3LjQnLCAnLXRuJywgJzgnLCAnLW1hJywgJzUwMCcsICctaW1hZScsICc8aW5maWxlLm1hZT4nLCAnLW9tYWUnLCAnPG91dGZpbGUubWFlPic=

>  <s_epik_input>  (1) 
RkMxPUMoRilOKFtDSDJdUzEpW0NIMl1bQ0gyXVtDQEhdMltOSF1bQ0gyXVtDSDJdW0NIMl1OMltDQEBIXTNbQ0gyXVtDQEBIXTNbQ0BASF0oW09IXSlbQ0gyXVtDQEBdKFtDSDNdKShbT0hdKVtDQEBIXShbQ0BASF0oW09IXSlbQ0hdKFtDSDNdKVtDSDNdKVtDQEhdKFM0KVtDQEBIXShbQ0BASF00NSlbQ0gyXVtDSDJdW0NIMl1bQ0gyXTU=

>  <s_glide_docking_method>  (1) 
confgen

>  <s_i_glide_gridfile>  (1) 
gpcr_5ht2c_6bqh_protein_autoprepared_prepared

>  <s_lp_Force_Field>  (1) 
S-OPLS

>  <s_lp_Variant>  (1) 
DiffSBDD_29_num_sample_100-4

>  <s_m_source_file>  (1) 
generated__ligand_DiffSBDD_2026-05-06_prepared.sdf

>  <GenAI_Model>  (1) 
DiffSBDD

>  <Protein>  (1) 
GPCR_5HT2C

$$$$
DiffSBDD_52_num_sample_100
     RDKit          3D

  0  0  0  0  0  0  0  0  0  0999 V3000
M  V30 BEGIN CTAB
M  V30 COUNTS 25 25 0 0 1
M  V30 BEGIN ATOM
M  V30 1 C 38.739143 29.628751 54.023213 0 CFG=1
M  V30 2 O 36.667094 30.021427 55.137044 0
M  V30 3 C 38.314248 31.566963 55.842040 0 CFG=2
M  V30 4 S 39.067426 27.605242 52.154265 0
M  V30 5 C 40.122819 29.006541 51.771614 0 CFG=2
M  V30 6 S 39.867241 30.422547 52.846745 0
M  V30 7 O 37.467407 30.421045 57.854183 0
M  V30 8 C 37.801415 30.686804 54.666577 0 CFG=1
M  V30 9 O 39.467404 32.269308 55.453505 0
M  V30 10 C 38.626874 30.866815 57.183115 0
M  V30 11 N 39.867409 29.425384 50.414492 0
M  V30 12 C 37.965912 28.530462 53.246431 0
M  V30 13 H 39.339013 29.139862 54.791031 0
M  V30 14 H 36.150310 30.633141 55.658293 0
M  V30 15 H 37.559514 32.332411 56.034231 0
M  V30 16 H 41.158493 28.683733 51.852369 0
M  V30 17 H 36.745471 31.014701 57.650030 0
M  V30 18 H 37.466511 31.360213 53.878231 0
M  V30 19 H 39.650561 32.926885 56.106627 0
M  V30 20 H 39.082308 31.585950 57.860935 0
M  V30 21 H 39.330619 30.043890 57.055673 0
M  V30 22 H 40.530826 30.136122 50.141259 0
M  V30 23 H 39.974541 28.647925 49.780450 0
M  V30 24 H 37.460746 27.836217 53.919280 0
M  V30 25 H 37.199194 28.970255 52.613319 0
M  V30 END ATOM
M  V30 BEGIN BOND
M  V30 1 1 5 4
M  V30 2 1 6 1
M  V30 3 1 6 5
M  V30 4 1 8 1
M  V30 5 1 8 2
M  V30 6 1 8 3
M  V30 7 1 9 3
M  V30 8 1 10 3
M  V30 9 1 10 7
M  V30 10 1 11 5
M  V30 11 1 12 1
M  V30 12 1 12 4
M  V30 13 1 1 13 CFG=1
M  V30 14 1 14 2
M  V30 15 1 3 15 CFG=1
M  V30 16 1 5 16 CFG=3
M  V30 17 1 17 7
M  V30 18 1 8 18 CFG=3
M  V30 19 1 19 9
M  V30 20 1 20 10
M  V30 21 1 21 10
M  V30 22 1 22 11
M  V30 23 1 23 11
M  V30 24 1 24 12
M  V30 25 1 25 12
M  V30 END BOND
M  V30 END CTAB
M  END
>  <i_epik_Tot_Q>  (1) 
0

>  <i_epik_Tot_abs_Q>  (1) 
0

>  <i_i_glide_confnum>  (1) 
33

>  <i_i_glide_lignum>  (1) 
139

>  <i_i_glide_posenum>  (1) 
55

>  <i_i_glide_rotatable_bonds>  (1) 
6

>  <i_lp_mmshare_version>  (1) 
72125

>  <i_m_source_file_index>  (1) 
53

>  <i_f3d_flags>  (1) 
0

>  <num_sample>  (1) 
100

>  <b_lp_Chiralities_Consistent>  (1) 
1

>  <r_epik_Charging_Adjusted_Penalty>  (1) 
0.012458627256782779

>  <r_epik_Ionization_Penalty>  (1) 
0.012459545935989014

>  <r_epik_Ionization_Penalty_Charging>  (1) 
0

>  <r_epik_Ionization_Penalty_Neutral>  (1) 
0.012459545935989014

>  <r_epik_State_Penalty>  (1) 
0.012458627256782779

>  <r_glide_ring_energy>  (1) 
1.2668700789393423

>  <r_i_docking_score>  (1) 
-4.7776962686812032

>  <r_i_glide_ecoul>  (1) 
-5.9436171430627338

>  <r_i_glide_eff_state_penalty>  (1) 
0.012458627256782779

>  <r_i_glide_einternal>  (1) 
4.9817115016813744

>  <r_i_glide_emodel>  (1) 
-34.624451978843709

>  <r_i_glide_emodel_strain>  (1) 
1.2214596277672349

>  <r_i_glide_energy>  (1) 
-27.432509242697485

>  <r_i_glide_erotb>  (1) 
1.1173698675060917

>  <r_i_glide_esite>  (1) 
0

>  <r_i_glide_evdw>  (1) 
-21.48889209963475

>  <r_i_glide_gscore>  (1) 
-4.7901548959379863

>  <r_i_glide_gscore_strain>  (1) 
0

>  <r_i_glide_hbond>  (1) 
-0.30399999999999999

>  <r_i_glide_ligand_efficiency>  (1) 
-0.39814135572343362

>  <r_i_glide_ligand_efficiency_ln>  (1) 
-1.3709682206184342

>  <r_i_glide_ligand_efficiency_sa>  (1) 
-0.91151616089221399

>  <r_i_glide_lipo>  (1) 
-1.5485725952050298

>  <r_i_glide_metal>  (1) 
-0

>  <r_i_glide_rewards>  (1) 
-2.0889649917979005

>  <r_lp_Energy>  (1) 
-2.6088819999999999

>  <s_epik_Chemistry_Notes>  (1) 
This compound contains an acetal/aminal-like group ( X-CH(R)-Y where X, Y are N, S, or O) that may be acid/base labile, releasing an aldehyde.

>  <s_epik_cmdline>  (1) 
J2VwaWtfcHl0aG9uJywgJy1waHQnLCAnMS4wJywgJy1waCcsICc3LjQnLCAnLXRuJywgJzgnLCAnLW1hJywgJzUwMCcsICctaW1hZScsICc8aW5maWxlLm1hZT4nLCAnLW9tYWUnLCAnPG91dGZpbGUubWFlPic=

>  <s_epik_input>  (1) 
W0NIMl0xU1tDQEhdKFtOSDJdKVNbQ0BIXTFbQ0BASF0oW09IXSlbQ0BIXShbT0hdKVtDSDJdW09IXQ==

>  <s_glide_docking_method>  (1) 
confgen

>  <s_i_glide_gridfile>  (1) 
gpcr_5ht2c_6bqh_protein_autoprepared_prepared

>  <s_lp_Force_Field>  (1) 
S-OPLS

>  <s_lp_Variant>  (1) 
DiffSBDD_52_num_sample_100-2

>  <s_m_source_file>  (1) 
generated__ligand_DiffSBDD_2026-05-06_prepared.sdf

>  <GenAI_Model>  (1) 
DiffSBDD

>  <Protein>  (1) 
GPCR_5HT2C

$$$$
DiffSBDD_44_num_sample_100
     RDKit          3D

  0  0  0  0  0  0  0  0  0  0999 V3000
M  V30 BEGIN CTAB
M  V30 COUNTS 58 59 0 0 1
M  V30 BEGIN ATOM
M  V30 1 C 36.106051 34.289922 61.163911 0
M  V30 2 O 37.160528 30.421451 60.617169 0 CHG=-1
M  V30 3 C 39.737593 27.440976 56.256906 0
M  V30 4 C 37.256269 32.986920 59.410237 0 CFG=1
M  V30 5 N 37.694374 32.563851 60.774937 0 CFG=1 CHG=1
M  V30 6 C 38.807137 26.275933 58.197811 0
M  V30 7 N 39.972124 28.478841 59.694354 0
M  V30 8 C 39.427803 27.483920 57.523054 0
M  V30 9 O 38.240532 29.342902 58.330868 0
M  V30 10 C 36.311263 34.197904 59.652472 0 CFG=1
M  V30 11 C 34.980739 34.065095 58.911973 0
M  V30 12 C 39.516469 30.813024 60.478270 0 CFG=1
M  V30 13 C 39.940881 29.327930 60.655440 0
M  V30 14 C 36.600740 32.960096 61.661765 0
M  V30 15 C 37.782872 29.911263 57.116156 0
M  V30 16 C 38.976855 25.611917 54.799016 0
M  V30 17 C 38.126014 31.164728 61.078210 0 CFG=2
M  V30 18 C 39.535329 28.766070 58.332500 0 CFG=1
M  V30 19 F 37.534547 23.992402 55.558339 0
M  V30 20 C 38.478483 24.799145 56.037377 0 CFG=2
M  V30 21 C 39.601431 26.966031 55.053196 0
M  V30 22 C 40.596568 31.761894 61.053515 0
M  V30 23 C 40.334549 28.935152 62.067461 0
M  V30 24 C 38.419785 33.384700 58.486626 0
M  V30 25 C 37.833220 25.522293 57.252531 0
M  V30 26 H 35.067703 34.421433 61.462654 0
M  V30 27 H 36.695070 35.105160 61.585434 0
M  V30 28 H 36.684946 32.190154 58.932952 0
M  V30 29 H 39.602817 25.621364 58.552988 0
M  V30 30 H 38.267359 26.605082 59.081096 0
M  V30 31 H 36.783788 35.126340 59.324825 0
M  V30 32 H 34.517429 33.088428 59.060727 0
M  V30 33 H 34.267419 34.821422 59.219324 0
M  V30 34 H 35.145050 34.212552 57.853517 0
M  V30 35 H 39.467398 31.025159 59.424120 0
M  V30 36 H 35.776931 32.244684 61.628127 0
M  V30 37 H 36.996923 32.974425 62.653501 0
M  V30 38 H 36.851503 30.421429 57.331672 0
M  V30 39 H 38.487455 30.637540 56.711606 0
M  V30 40 H 37.563302 29.160492 56.358748 0
M  V30 41 H 38.137684 25.784433 54.123826 0
M  V30 42 H 39.710782 25.021111 54.253781 0
M  V30 43 H 38.309787 31.164732 62.154028 0
M  V30 44 H 40.245077 29.449242 57.860461 0
M  V30 45 H 39.279946 24.157472 56.401884 0
M  V30 46 H 39.867369 27.549025 54.186246 0
M  V30 47 H 41.582032 31.541413 60.653517 0
M  V30 48 H 40.389337 32.801376 60.801666 0
M  V30 49 H 40.665586 31.699515 62.139666 0
M  V30 50 H 41.405701 29.068887 62.213530 0
M  V30 51 H 39.803265 29.522724 62.814506 0
M  V30 52 H 40.097963 27.887032 62.245405 0
M  V30 53 H 38.045824 33.926742 57.616859 0
M  V30 54 H 39.137125 34.021411 59.003312 0
M  V30 55 H 38.952862 32.527435 58.087475 0
M  V30 56 H 37.315866 24.773990 57.854333 0
M  V30 57 H 37.056768 26.205219 56.904098 0
M  V30 58 H 38.471358 33.159043 61.013267 0
M  V30 END ATOM
M  V30 BEGIN BOND
M  V30 1 1 5 4
M  V30 2 2 8 3
M  V30 3 1 8 6
M  V30 4 1 10 1
M  V30 5 1 10 4
M  V30 6 1 11 10
M  V30 7 2 13 7
M  V30 8 1 13 12
M  V30 9 1 14 1
M  V30 10 1 14 5
M  V30 11 1 15 9
M  V30 12 1 17 2
M  V30 13 1 17 5
M  V30 14 1 17 12
M  V30 15 1 18 7
M  V30 16 1 18 8
M  V30 17 1 18 9
M  V30 18 1 20 16
M  V30 19 1 20 19
M  V30 20 2 21 3
M  V30 21 1 21 16
M  V30 22 1 22 12
M  V30 23 1 23 13
M  V30 24 1 24 4
M  V30 25 1 25 6
M  V30 26 1 25 20
M  V30 27 1 26 1
M  V30 28 1 27 1
M  V30 29 1 4 28 CFG=3
M  V30 30 1 29 6
M  V30 31 1 30 6
M  V30 32 1 10 31 CFG=3
M  V30 33 1 32 11
M  V30 34 1 33 11
M  V30 35 1 34 11
M  V30 36 1 12 35 CFG=3
M  V30 37 1 36 14
M  V30 38 1 37 14
M  V30 39 1 38 15
M  V30 40 1 39 15
M  V30 41 1 40 15
M  V30 42 1 41 16
M  V30 43 1 42 16
M  V30 44 1 17 43 CFG=1
M  V30 45 1 18 44 CFG=3
M  V30 46 1 20 45 CFG=1
M  V30 47 1 46 21
M  V30 48 1 47 22
M  V30 49 1 48 22
M  V30 50 1 49 22
M  V30 51 1 50 23
M  V30 52 1 51 23
M  V30 53 1 52 23
M  V30 54 1 53 24
M  V30 55 1 54 24
M  V30 56 1 55 24
M  V30 57 1 56 25
M  V30 58 1 57 25
M  V30 59 1 5 58 CFG=1
M  V30 END BOND
M  V30 END CTAB
M  END
>  <i_epik_Tot_Q>  (1) 
0

>  <i_epik_Tot_abs_Q>  (1) 
2

>  <i_i_glide_confnum>  (1) 
37

>  <i_i_glide_lignum>  (1) 
122

>  <i_i_glide_posenum>  (1) 
324

>  <i_i_glide_rotatable_bonds>  (1) 
6

>  <i_lp_mmshare_version>  (1) 
72125

>  <i_m_source_file_index>  (1) 
45

>  <i_f3d_flags>  (1) 
0

>  <num_sample>  (1) 
100

>  <b_lp_Chiralities_Consistent>  (1) 
1

>  <r_epik_Charging_Adjusted_Penalty>  (1) 
0.41733257654759531

>  <r_epik_Ionization_Penalty>  (1) 
0.0069177268181324029

>  <r_epik_Ionization_Penalty_Charging>  (1) 
0.0066527375949913311

>  <r_epik_Ionization_Penalty_Neutral>  (1) 
0.00026498922314107146

>  <r_epik_State_Penalty>  (1) 
0.41067983895260396

>  <r_glide_ring_energy>  (1) 
0

>  <r_i_docking_score>  (1) 
-4.7748560611109818

>  <r_i_glide_ecoul>  (1) 
-0.48260927807893905

>  <r_i_glide_eff_state_penalty>  (1) 
0.41067983895260396

>  <r_i_glide_einternal>  (1) 
4.0594444400158842

>  <r_i_glide_emodel>  (1) 
-34.540774788018325

>  <r_i_glide_emodel_strain>  (1) 
6.4057970677919229

>  <r_i_glide_energy>  (1) 
-29.622175252772479

>  <r_i_glide_erotb>  (1) 
0.61440649929112812

>  <r_i_glide_esite>  (1) 
0

>  <r_i_glide_evdw>  (1) 
-29.139565974693539

>  <r_i_glide_gscore>  (1) 
-5.1855359000635861

>  <r_i_glide_gscore_strain>  (1) 
0.60144926694798073

>  <r_i_glide_hbond>  (1) 
0

>  <r_i_glide_ligand_efficiency>  (1) 
-0.19099424244443927

>  <r_i_glide_ligand_efficiency_ln>  (1) 
-1.1317839773727281

>  <r_i_glide_ligand_efficiency_sa>  (1) 
-0.5584705528040691

>  <r_i_glide_lipo>  (1) 
-2.3250794489326765

>  <r_i_glide_metal>  (1) 
-0

>  <r_i_glide_rewards>  (1) 
-2.5469425269235009

>  <r_lp_Energy>  (1) 
11.862836999999999

>  <r_lp_tautomer_probability>  (1) 
0.49999399997599986

>  <s_epik_Chemistry_Notes>  (1) 
This compound has an imine and may undergo hydrolysis. This compound contains an acetal/aminal-like group ( X-CH(R)-Y where X, Y are N, S, or O) that may be acid/base labile, releasing an aldehyde.

>  <s_epik_cmdline>  (1) 
J2VwaWtfcHl0aG9uJywgJy1waHQnLCAnMS4wJywgJy1waCcsICc3LjQnLCAnLXRuJywgJzgnLCAnLW1hJywgJzUwMCcsICctaW1hZScsICc8aW5maWxlLm1hZT4nLCAnLW9tYWUnLCAnPG91dGZpbGUubWFlPic=

>  <s_epik_input>  (1) 
W0NIM11bQ0BIXTFbQ0gyXVtDSDJdTihbQ0BASF0xW0NIM10pW0NAQEhdKFtPSF0pW0NAQEhdKFtDSDNdKS9DKFtDSDNdKT1OXFtDQEBIXShPW0NIM10pQzI9Qz1bQ0hdW0NIMl1bQ0BASF0oRilbQ0gyXVtDSDJdMg==

>  <s_glide_docking_method>  (1) 
confgen

>  <s_i_glide_gridfile>  (1) 
gpcr_5ht2c_6bqh_protein_autoprepared_prepared

>  <s_lp_Force_Field>  (1) 
S-OPLS

>  <s_lp_Variant>  (1) 
DiffSBDD_44_num_sample_100-15

>  <s_m_source_file>  (1) 
generated__ligand_DiffSBDD_2026-05-06_prepared.sdf

>  <GenAI_Model>  (1) 
DiffSBDD

>  <Protein>  (1) 
GPCR_5HT2C

$$$$
DiffSBDD_47_num_sample_100
     RDKit          3D

  0  0  0  0  0  0  0  0  0  0999 V3000
M  V30 BEGIN CTAB
M  V30 COUNTS 32 32 0 0 1
M  V30 BEGIN ATOM
M  V30 1 S 38.203877 28.259262 52.770201 0
M  V30 2 C 38.143762 25.358846 55.210500 0
M  V30 3 N 38.620083 29.964709 54.740090 0
M  V30 4 C 37.670107 30.068933 57.009264 0
M  V30 5 C 39.340647 27.654822 55.230119 0
M  V30 6 O 38.911420 24.021497 57.453502 0 CHG=-1
M  V30 7 C 38.274262 28.563284 54.562178 0 CFG=2
M  V30 8 C 37.980136 31.054308 58.164083 0 CFG=2
M  V30 9 C 39.387170 26.166496 54.819309 0
M  V30 10 C 36.982430 30.928945 59.322610 0
M  V30 11 O 36.260256 29.941837 59.453513 0
M  V30 12 O 36.622637 25.223296 57.452297 0
M  V30 13 S 38.097205 25.252344 57.058260 0
M  V30 14 C 38.370200 30.635094 55.795888 0
M  V30 15 C 38.113253 32.488164 57.586519 0
M  V30 16 O 36.996586 31.988098 60.148332 0
M  V30 17 O 35.988715 31.907574 61.199671 0
M  V30 18 S 38.834972 32.342076 55.932940 0
M  V30 19 H 37.803081 26.986323 52.846876 0
M  V30 20 H 37.223598 25.807467 54.837629 0
M  V30 21 H 38.207395 24.348515 54.805710 0
M  V30 22 H 38.005933 29.071871 57.276562 0
M  V30 23 H 36.603026 30.020200 56.799250 0
M  V30 24 H 40.310238 28.096029 55.053501 0
M  V30 25 H 39.252592 27.699173 56.310641 0
M  V30 26 H 37.283427 28.338354 54.956207 0
M  V30 27 H 38.955639 30.780661 58.562760 0
M  V30 28 H 39.567718 26.066350 53.751303 0
M  V30 29 H 40.254805 25.703579 55.290096 0
M  V30 30 H 37.144649 32.980899 57.495889 0
M  V30 31 H 38.742144 33.118526 58.214770 0
M  V30 32 H 35.228379 32.236412 60.741421 0
M  V30 END ATOM
M  V30 BEGIN BOND
M  V30 1 1 7 1
M  V30 2 1 7 3
M  V30 3 1 7 5
M  V30 4 1 8 4
M  V30 5 1 9 2
M  V30 6 1 9 5
M  V30 7 1 10 8
M  V30 8 2 11 10
M  V30 9 1 13 2
M  V30 10 1 13 6
M  V30 11 2 13 12
M  V30 12 2 14 3
M  V30 13 1 14 4
M  V30 14 1 15 8
M  V30 15 1 16 10
M  V30 16 1 17 16
M  V30 17 1 18 14
M  V30 18 1 18 15
M  V30 19 1 19 1
M  V30 20 1 20 2
M  V30 21 1 21 2
M  V30 22 1 22 4
M  V30 23 1 23 4
M  V30 24 1 24 5
M  V30 25 1 25 5
M  V30 26 1 7 26 CFG=1
M  V30 27 1 8 27 CFG=1
M  V30 28 1 28 9
M  V30 29 1 29 9
M  V30 30 1 30 15
M  V30 31 1 31 15
M  V30 32 1 32 17
M  V30 END BOND
M  V30 END CTAB
M  END
>  <i_epik_Tot_Q>  (1) 
-1

>  <i_epik_Tot_abs_Q>  (1) 
1

>  <i_i_glide_confnum>  (1) 
15

>  <i_i_glide_lignum>  (1) 
130

>  <i_i_glide_posenum>  (1) 
323

>  <i_i_glide_rotatable_bonds>  (1) 
9

>  <i_lp_mmshare_version>  (1) 
72125

>  <i_m_source_file_index>  (1) 
48

>  <i_f3d_flags>  (1) 
0

>  <num_sample>  (1) 
100

>  <b_lp_Chiralities_Consistent>  (1) 
1

>  <r_epik_Charging_Adjusted_Penalty>  (1) 
0.41068401557064588

>  <r_epik_Ionization_Penalty>  (1) 
0.088233061061265911

>  <r_epik_Ionization_Penalty_Charging>  (1) 
4.1766180419441644e-06

>  <r_epik_Ionization_Penalty_Neutral>  (1) 
0.088228884443223965

>  <r_epik_State_Penalty>  (1) 
0.41067983895260396

>  <r_glide_ring_energy>  (1) 
0

>  <r_i_docking_score>  (1) 
-4.7529514229318455

>  <r_i_glide_ecoul>  (1) 
-4.4856110705909273

>  <r_i_glide_eff_state_penalty>  (1) 
0.41067983895260396

>  <r_i_glide_einternal>  (1) 
3.6077908667667722

>  <r_i_glide_emodel>  (1) 
-52.11755232320148

>  <r_i_glide_emodel_strain>  (1) 
1.112744835807538

>  <r_i_glide_energy>  (1) 
-41.277182606548742

>  <r_i_glide_erotb>  (1) 
1.1409563005043168

>  <r_i_glide_esite>  (1) 
-0.24002205235742657

>  <r_i_glide_evdw>  (1) 
-36.791571535957814

>  <r_i_glide_gscore>  (1) 
-5.1636312618844498

>  <r_i_glide_gscore_strain>  (1) 
0

>  <r_i_glide_hbond>  (1) 
0

>  <r_i_glide_ligand_efficiency>  (1) 
-0.26405285682954699

>  <r_i_glide_ligand_efficiency_ln>  (1) 
-1.2217216550796026

>  <r_i_glide_ligand_efficiency_sa>  (1) 
-0.69201425215230916

>  <r_i_glide_lipo>  (1) 
-1.0592047352831742

>  <r_i_glide_metal>  (1) 
-0

>  <r_i_glide_rewards>  (1) 
-2.492940537361636

>  <r_lp_Energy>  (1) 
-2.1524229999999998

>  <r_lp_tautomer_probability>  (1) 
0.49990026989615577

>  <s_epik_Chemistry_Notes>  (1) 
This compound has an imine and may undergo hydrolysis. This compound contains an acetal/aminal-like group ( X-CH(R)-Y where X, Y are N, S, or O) that may be acid/base labile, releasing an aldehyde.

>  <s_epik_cmdline>  (1) 
J2VwaWtfcHl0aG9uJywgJy1waHQnLCAnMS4wJywgJy1waCcsICc3LjQnLCAnLXRuJywgJzgnLCAnLW1hJywgJzUwMCcsICctaW1hZScsICc8aW5maWxlLm1hZT4nLCAnLW9tYWUnLCAnPG91dGZpbGUubWFlPic=

>  <s_epik_input>  (1) 
W09IXVtTQEBdKD1PKVtDSDJdW0NIMl1bQ0gyXVtDQEhdKFtTSF0pL049QyhTW0NIMl0xKVxbQ0gyXVtDQEBIXTFDKD1PKU9bT0hd

>  <s_glide_docking_method>  (1) 
confgen

>  <s_i_glide_gridfile>  (1) 
gpcr_5ht2c_6bqh_protein_autoprepared_prepared

>  <s_lp_Force_Field>  (1) 
S-OPLS

>  <s_lp_Variant>  (1) 
DiffSBDD_47_num_sample_100-2

>  <s_m_source_file>  (1) 
generated__ligand_DiffSBDD_2026-05-06_prepared.sdf

>  <GenAI_Model>  (1) 
DiffSBDD

>  <Protein>  (1) 
GPCR_5HT2C

$$$$
DiffSBDD_20_num_sample_100
     RDKit          3D

  0  0  0  0  0  0  0  0  0  0999 V3000
M  V30 BEGIN CTAB
M  V30 COUNTS 55 55 0 0 1
M  V30 BEGIN ATOM
M  V30 1 C 38.153626 26.264361 56.269946 0 CFG=1
M  V30 2 C 39.192832 27.329940 54.133082 0 CFG=1
M  V30 3 C 39.018970 28.735127 58.538407 0
M  V30 4 C 38.937358 24.146782 57.454003 0
M  V30 5 N 39.343454 28.293362 53.044900 0
M  V30 6 C 39.812917 30.336073 51.800314 0
M  V30 7 O 40.313543 32.626305 63.453345 0
M  V30 8 C 38.815186 32.654644 61.606465 0
M  V30 9 C 38.660061 30.493695 60.204439 0
M  V30 10 C 37.158113 29.955155 54.554473 0
M  V30 11 N 38.636110 29.981104 58.841082 0
M  V30 12 O 39.403518 27.915446 59.372953 0
M  V30 13 C 37.033538 26.322433 57.315297 0
M  V30 14 C 38.624559 24.802678 56.111535 0
M  V30 15 C 39.231321 29.570838 52.979848 0
M  V30 16 C 40.205755 32.433851 62.223296 0
M  V30 17 O 38.689271 31.755449 56.109642 0
M  V30 18 N 38.941229 28.481158 57.225240 0
M  V30 19 C 40.125459 27.476864 55.359059 0
M  V30 20 S 37.547769 26.821336 54.653022 0
M  V30 21 C 39.432889 31.062969 55.123130 0
M  V30 22 O 41.128429 32.080312 61.453544 0 CHG=-1
M  V30 23 C 39.342164 27.198687 56.636787 0 CFG=2
M  V30 24 C 38.516084 30.457083 54.037047 0 CFG=2
M  V30 25 C 38.632695 32.030925 60.205819 0
M  V30 26 H 39.533303 26.398404 53.680007 0
M  V30 27 H 39.481955 23.221395 57.366039 0
M  V30 28 H 39.533882 24.820430 58.072513 0
M  V30 29 H 38.024208 23.902339 57.998390 0
M  V30 30 H 39.871529 31.407441 51.992543 0
M  V30 31 H 38.650615 33.730389 61.545273 0
M  V30 32 H 38.060236 32.259858 62.287380 0
M  V30 33 H 37.799383 30.103857 60.746458 0
M  V30 34 H 39.550497 30.128221 60.718507 0
M  V30 35 H 36.667723 29.321071 53.820989 0
M  V30 36 H 37.246693 29.407330 55.487122 0
M  V30 37 H 36.485245 30.789318 54.757871 0
M  V30 38 H 38.333624 30.604664 58.102716 0
M  V30 39 H 37.404130 26.025399 58.288791 0
M  V30 40 H 36.667225 27.332021 57.453531 0
M  V30 41 H 36.203958 25.664440 57.056303 0
M  V30 42 H 37.859726 24.213947 55.603506 0
M  V30 43 H 39.508479 24.754752 55.476546 0
M  V30 44 H 37.989705 32.245913 55.698053 0
M  V30 45 H 38.609267 29.203771 56.603209 0
M  V30 46 H 40.901799 26.716014 55.277933 0
M  V30 47 H 40.667735 28.410194 55.453429 0
M  V30 48 H 40.140727 31.752090 54.667088 0
M  V30 49 H 40.032724 30.328831 55.641691 0
M  V30 50 H 40.035642 26.714200 57.322150 0
M  V30 51 H 38.215171 31.332679 53.460015 0
M  V30 52 H 39.389657 32.425636 59.527753 0
M  V30 53 H 37.678977 32.364274 59.794771 0
M  V30 54 H 40.817393 29.976384 51.574557 0
M  V30 55 H 39.207397 30.168997 50.909020 0
M  V30 END ATOM
M  V30 BEGIN BOND
M  V30 1 1 5 2
M  V30 2 1 11 3
M  V30 3 1 11 9
M  V30 4 2 12 3
M  V30 5 1 1 13 CFG=1
M  V30 6 1 14 1
M  V30 7 1 14 4
M  V30 8 2 15 5
M  V30 9 1 15 6
M  V30 10 2 16 7
M  V30 11 1 16 8
M  V30 12 1 18 3
M  V30 13 1 19 2
M  V30 14 1 20 1
M  V30 15 1 20 2
M  V30 16 1 21 17
M  V30 17 1 22 16
M  V30 18 1 23 1
M  V30 19 1 23 18
M  V30 20 1 23 19
M  V30 21 1 24 10
M  V30 22 1 24 15
M  V30 23 1 24 21
M  V30 24 1 25 8
M  V30 25 1 25 9
M  V30 26 1 2 26 CFG=3
M  V30 27 1 27 4
M  V30 28 1 28 4
M  V30 29 1 29 4
M  V30 30 1 30 6
M  V30 31 1 31 8
M  V30 32 1 32 8
M  V30 33 1 33 9
M  V30 34 1 34 9
M  V30 35 1 35 10
M  V30 36 1 36 10
M  V30 37 1 37 10
M  V30 38 1 38 11
M  V30 39 1 39 13
M  V30 40 1 40 13
M  V30 41 1 41 13
M  V30 42 1 42 14
M  V30 43 1 43 14
M  V30 44 1 44 17
M  V30 45 1 45 18
M  V30 46 1 46 19
M  V30 47 1 47 19
M  V30 48 1 48 21
M  V30 49 1 49 21
M  V30 50 1 23 50 CFG=1
M  V30 51 1 24 51 CFG=3
M  V30 52 1 52 25
M  V30 53 1 53 25
M  V30 54 1 54 6
M  V30 55 1 55 6
M  V30 END BOND
M  V30 END CTAB
M  END
>  <i_epik_Tot_Q>  (1) 
-1

>  <i_epik_Tot_abs_Q>  (1) 
1

>  <i_i_glide_confnum>  (1) 
48

>  <i_i_glide_lignum>  (1) 
54

>  <i_i_glide_posenum>  (1) 
96

>  <i_i_glide_rotatable_bonds>  (1) 
12

>  <i_lp_mmshare_version>  (1) 
72125

>  <i_m_source_file_index>  (1) 
21

>  <i_f3d_flags>  (1) 
0

>  <num_sample>  (1) 
100

>  <b_lp_Chiralities_Consistent>  (1) 
1

>  <r_epik_Charging_Adjusted_Penalty>  (1) 
0.43743025276339675

>  <r_epik_Ionization_Penalty>  (1) 
0.026773266926762091

>  <r_epik_Ionization_Penalty_Charging>  (1) 
0.0015534882308521432

>  <r_epik_Ionization_Penalty_Neutral>  (1) 
0.025219778695909949

>  <r_epik_State_Penalty>  (1) 
0.43587676453254459

>  <r_glide_ring_energy>  (1) 
0

>  <r_i_docking_score>  (1) 
-4.7482777155927609

>  <r_i_glide_ecoul>  (1) 
-1.9181953080716452

>  <r_i_glide_eff_state_penalty>  (1) 
0.43587676453254459

>  <r_i_glide_einternal>  (1) 
2.6116085841467225

>  <r_i_glide_emodel>  (1) 
-43.314244004490156

>  <r_i_glide_emodel_strain>  (1) 
0.6243463251795518

>  <r_i_glide_energy>  (1) 
-33.01084479435908

>  <r_i_glide_erotb>  (1) 
1.2527341714622291

>  <r_i_glide_esite>  (1) 
0

>  <r_i_glide_evdw>  (1) 
-31.092649486287435

>  <r_i_glide_gscore>  (1) 
-5.1841544801253052

>  <r_i_glide_gscore_strain>  (1) 
0

>  <r_i_glide_hbond>  (1) 
0

>  <r_i_glide_ligand_efficiency>  (1) 
-0.18993110862371043

>  <r_i_glide_ligand_efficiency_ln>  (1) 
-1.1254841129961672

>  <r_i_glide_ligand_efficiency_sa>  (1) 
-0.55536193065416406

>  <r_i_glide_lipo>  (1) 
-2.5973133678038836

>  <r_i_glide_metal>  (1) 
-0

>  <r_i_glide_rewards>  (1) 
-1.9972135132585329

>  <r_lp_Energy>  (1) 
20.662696

>  <r_lp_tautomer_probability>  (1) 
0.49999399997599986

>  <s_epik_Chemistry_Notes>  (1) 
This compound has an imine and may undergo hydrolysis. This compound contains an acetal/aminal-like group ( X-CH(R)-Y where X, Y are N, S, or O) that may be acid/base labile, releasing an aldehyde.

>  <s_epik_cmdline>  (1) 
J2VwaWtfcHl0aG9uJywgJy1waHQnLCAnMS4wJywgJy1waCcsICc3LjQnLCAnLXRuJywgJzgnLCAnLW1hJywgJzUwMCcsICctaW1hZScsICc8aW5maWxlLm1hZT4nLCAnLW9tYWUnLCAnPG91dGZpbGUubWFlPic=

>  <s_epik_input>  (1) 
W09IXVtDSDJdW0NAQEhdKFtDSDNdKUMoPVtDSDJdKVtOSF1bQ0BASF0oU1tDQEBdMShbQ0gzXSlbQ0gyXVtDSDNdKVtDSDJdW0NASF0xW05IXUMoPU8pW05IXVtDSDJdW0NIMl1bQ0gyXUMoPU8pW09IXQ==

>  <s_glide_docking_method>  (1) 
confgen

>  <s_i_glide_gridfile>  (1) 
gpcr_5ht2c_6bqh_protein_autoprepared_prepared

>  <s_lp_Force_Field>  (1) 
S-OPLS

>  <s_lp_Variant>  (1) 
DiffSBDD_20_num_sample_100-2

>  <s_m_source_file>  (1) 
generated__ligand_DiffSBDD_2026-05-06_prepared.sdf

>  <GenAI_Model>  (1) 
DiffSBDD

>  <Protein>  (1) 
GPCR_5HT2C

$$$$
DiffSBDD_95_num_sample_100
     RDKit          3D

  0  0  0  0  0  0  0  0  0  0999 V3000
M  V30 BEGIN CTAB
M  V30 COUNTS 51 50 0 0 1
M  V30 BEGIN ATOM
M  V30 1 C 39.319028 29.141023 59.239894 0
M  V30 2 C 38.042710 30.010592 59.310183 0
M  V30 3 C 38.885654 28.256924 51.436124 0
M  V30 4 O 37.867397 31.221436 62.209674 0 CHG=-1
M  V30 5 C 38.856680 28.822669 52.865152 0
M  V30 6 C 39.633910 29.191577 50.476982 0
M  V30 7 C 38.255230 31.443983 59.860782 0 CFG=1
M  V30 8 C 38.577095 27.625814 57.299881 0
M  V30 9 O 39.959766 31.568705 61.526338 0
M  V30 10 C 38.453948 26.183753 56.766634 0
M  V30 11 O 39.775591 26.421431 54.009114 0
M  V30 12 N 38.139863 27.975272 53.811609 0
M  V30 13 C 37.037020 32.386292 59.610111 0
M  V30 14 C 39.076423 27.701890 58.750085 0
M  V30 15 C 35.678365 31.870889 60.125488 0
M  V30 16 C 38.664615 26.850301 54.324562 0
M  V30 17 C 37.542803 24.661556 54.896585 0
M  V30 18 C 37.285688 33.832605 60.077597 0
M  V30 19 C 38.734009 31.409247 61.327209 0
M  V30 20 C 37.808484 26.103915 55.360231 0 CFG=1
M  V30 21 O 36.667403 23.990965 55.778965 0
M  V30 22 H 39.776824 29.082483 60.227723 0
M  V30 23 H 40.056241 29.621465 58.596249 0
M  V30 24 H 37.618797 30.098896 58.310153 0
M  V30 25 H 37.291476 29.492896 59.904273 0
M  V30 26 H 39.365221 27.277337 51.424885 0
M  V30 27 H 37.867403 28.102521 51.079565 0
M  V30 28 H 38.357088 29.788831 52.871437 0
M  V30 29 H 39.867399 29.018583 53.221024 0
M  V30 30 H 39.601002 28.821426 49.453582 0
M  V30 31 H 39.193893 30.188680 50.472291 0
M  V30 32 H 40.681413 29.291381 50.762255 0
M  V30 33 H 39.067408 31.879600 59.282513 0
M  V30 34 H 39.255187 28.201067 56.668749 0
M  V30 35 H 37.603445 28.110079 57.227543 0
M  V30 36 H 37.851757 25.610202 57.472324 0
M  V30 37 H 39.435750 25.707248 56.755168 0
M  V30 38 H 37.224221 28.273918 54.113078 0
M  V30 39 H 36.942147 32.448155 58.526317 0
M  V30 40 H 38.371437 27.202206 59.413299 0
M  V30 41 H 40.011981 27.147207 58.832001 0
M  V30 42 H 35.629373 31.837250 61.212860 0
M  V30 43 H 34.869139 32.516664 59.783409 0
M  V30 44 H 35.467403 30.873556 59.743381 0
M  V30 45 H 38.469374 24.094525 54.811045 0
M  V30 46 H 37.067409 24.680250 53.914755 0
M  V30 47 H 37.329514 33.903141 61.164956 0
M  V30 48 H 38.224230 34.218254 59.679383 0
M  V30 49 H 36.488882 34.494313 59.736555 0
M  V30 50 H 36.838305 26.592510 55.408065 0
M  V30 51 H 35.840727 24.448285 55.791192 0
M  V30 END ATOM
M  V30 BEGIN BOND
M  V30 1 1 2 1
M  V30 2 1 5 3
M  V30 3 1 6 3
M  V30 4 1 7 2
M  V30 5 1 10 8
M  V30 6 1 12 5
M  V30 7 1 13 7
M  V30 8 1 14 1
M  V30 9 1 14 8
M  V30 10 1 15 13
M  V30 11 2 16 11
M  V30 12 1 16 12
M  V30 13 1 18 13
M  V30 14 1 19 4
M  V30 15 1 19 7
M  V30 16 2 19 9
M  V30 17 1 20 10
M  V30 18 1 20 16
M  V30 19 1 20 17
M  V30 20 1 21 17
M  V30 21 1 22 1
M  V30 22 1 23 1
M  V30 23 1 24 2
M  V30 24 1 25 2
M  V30 25 1 26 3
M  V30 26 1 27 3
M  V30 27 1 28 5
M  V30 28 1 29 5
M  V30 29 1 30 6
M  V30 30 1 31 6
M  V30 31 1 32 6
M  V30 32 1 7 33 CFG=3
M  V30 33 1 34 8
M  V30 34 1 35 8
M  V30 35 1 36 10
M  V30 36 1 37 10
M  V30 37 1 38 12
M  V30 38 1 39 13
M  V30 39 1 40 14
M  V30 40 1 41 14
M  V30 41 1 42 15
M  V30 42 1 43 15
M  V30 43 1 44 15
M  V30 44 1 45 17
M  V30 45 1 46 17
M  V30 46 1 47 18
M  V30 47 1 48 18
M  V30 48 1 49 18
M  V30 49 1 20 50 CFG=1
M  V30 50 1 51 21
M  V30 END BOND
M  V30 END CTAB
M  END
>  <i_epik_Tot_Q>  (1) 
-1

>  <i_epik_Tot_abs_Q>  (1) 
1

>  <i_i_glide_confnum>  (1) 
1169

>  <i_i_glide_lignum>  (1) 
266

>  <i_i_glide_posenum>  (1) 
172

>  <i_i_glide_rotatable_bonds>  (1) 
14

>  <i_lp_mmshare_version>  (1) 
72125

>  <i_m_source_file_index>  (1) 
96

>  <i_f3d_flags>  (1) 
0

>  <num_sample>  (1) 
100

>  <b_lp_Chiralities_Consistent>  (1) 
1

>  <r_epik_Charging_Adjusted_Penalty>  (1) 
0.001438735801478555

>  <r_epik_Ionization_Penalty>  (1) 
0.0014388430371294766

>  <r_epik_Ionization_Penalty_Charging>  (1) 
0.001438735801478555

>  <r_epik_Ionization_Penalty_Neutral>  (1) 
1.0723565092155607e-07

>  <r_epik_State_Penalty>  (1) 
-0

>  <r_glide_ring_energy>  (1) 
0

>  <r_i_docking_score>  (1) 
-4.740366849455051

>  <r_i_glide_ecoul>  (1) 
-2.7719985411650367

>  <r_i_glide_eff_state_penalty>  (1) 
-0

>  <r_i_glide_einternal>  (1) 
4.6355184862680812

>  <r_i_glide_emodel>  (1) 
-42.733899672845745

>  <r_i_glide_emodel_strain>  (1) 
0.7050541336833569

>  <r_i_glide_energy>  (1) 
-35.109781284579604

>  <r_i_glide_erotb>  (1) 
2.0366524636838417

>  <r_i_glide_esite>  (1) 
0

>  <r_i_glide_evdw>  (1) 
-32.337782743414564

>  <r_i_glide_gscore>  (1) 
-4.740366849455051

>  <r_i_glide_gscore_strain>  (1) 
0

>  <r_i_glide_hbond>  (1) 
-0.11305436694008095

>  <r_i_glide_ligand_efficiency>  (1) 
-0.2257317547359548

>  <r_i_glide_ligand_efficiency_ln>  (1) 
-1.1720461247146163

>  <r_i_glide_ligand_efficiency_sa>  (1) 
-0.62277679551795939

>  <r_i_glide_lipo>  (1) 
-2.4801410230604253

>  <r_i_glide_metal>  (1) 
-0

>  <r_i_glide_rewards>  (1) 
-2.1511350047929025

>  <r_lp_Energy>  (1) 
10.841768999999999

>  <r_lp_tautomer_probability>  (1) 
1

>  <s_epik_cmdline>  (1) 
J2VwaWtfcHl0aG9uJywgJy1waHQnLCAnMS4wJywgJy1waCcsICc3LjQnLCAnLXRuJywgJzgnLCAnLW1hJywgJzUwMCcsICctaW1hZScsICc8aW5maWxlLm1hZT4nLCAnLW9tYWUnLCAnPG91dGZpbGUubWFlPic=

>  <s_epik_input>  (1) 
W09IXUMoPU8pW0NASF0oW0NIXShbQ0gzXSlbQ0gzXSlbQ0gyXVtDSDJdW0NIMl1bQ0gyXVtDSDJdW0NASF0oW0NIMl1bT0hdKUMoPU8pW05IXVtDSDJdW0NIMl1bQ0gzXQ==

>  <s_glide_docking_method>  (1) 
confgen

>  <s_i_glide_gridfile>  (1) 
gpcr_5ht2c_6bqh_protein_autoprepared_prepared

>  <s_lp_Force_Field>  (1) 
S-OPLS

>  <s_lp_Variant>  (1) 
DiffSBDD_95_num_sample_100-1

>  <s_m_source_file>  (1) 
generated__ligand_DiffSBDD_2026-05-06_prepared.sdf

>  <GenAI_Model>  (1) 
DiffSBDD

>  <Protein>  (1) 
GPCR_5HT2C

$$$$
DiffSBDD_57_num_sample_100
     RDKit          3D

  0  0  0  0  0  0  0  0  0  0999 V3000
M  V30 BEGIN CTAB
M  V30 COUNTS 38 40 0 0 1
M  V30 BEGIN ATOM
M  V30 1 C 38.329504 27.414114 54.924954 0
M  V30 2 C 37.982867 26.915361 57.279538 0
M  V30 3 N 39.369592 27.061598 51.350297 0
M  V30 4 O 36.461645 23.221444 55.825561 0
M  V30 5 C 37.611563 29.877518 59.235096 0
M  V30 6 C 38.387269 31.364516 57.253167 0
M  V30 7 C 38.692704 28.335397 51.242042 0 CFG=2
M  V30 8 C 37.068454 24.194948 56.314057 0
M  V30 9 N 38.858059 28.628036 55.200579 0
M  V30 10 C 37.888748 26.513112 55.918782 0
M  V30 11 C 38.920089 29.007405 56.489895 0
M  V30 12 C 38.575959 28.697683 58.994301 0
M  V30 13 C 38.499661 28.193761 57.561939 0
M  V30 14 C 38.217925 27.064330 53.450056 0 CFG=1
M  V30 15 C 38.134344 31.246176 58.765653 0
M  V30 16 C 39.457615 30.396592 56.739985 0
M  V30 17 Cl 39.937390 29.605588 51.383928 0
M  V30 18 S 37.467944 28.421431 52.575451 0
M  V30 19 N 37.324627 25.244084 55.513115 0
M  V30 20 C 39.560064 26.832120 52.769004 0
M  V30 21 O 37.451528 24.197510 57.501257 0 CHG=-1
M  V30 22 H 37.641018 26.293325 58.082797 0
M  V30 23 H 40.247433 27.091684 50.853065 0
M  V30 24 H 36.637424 29.667306 58.789789 0
M  V30 25 H 37.434534 29.961506 60.306082 0
M  V30 26 H 37.467419 31.236455 56.683323 0
M  V30 27 H 38.721724 32.383605 57.056600 0
M  V30 28 H 38.266707 28.421735 50.252074 0
M  V30 29 H 38.310735 27.880653 59.665587 0
M  V30 30 H 39.601309 28.966891 59.249419 0
M  V30 31 H 37.570568 26.209728 53.265244 0
M  V30 32 H 37.406034 32.008297 59.047407 0
M  V30 33 H 39.046521 31.490751 59.310020 0
M  V30 34 H 40.267404 30.320764 57.453392 0
M  V30 35 H 39.884051 30.788631 55.815455 0
M  V30 36 H 37.081286 25.147471 54.540560 0
M  V30 37 H 40.265524 27.585573 53.053495 0
M  V30 38 H 40.036572 25.890133 53.017089 0
M  V30 END ATOM
M  V30 BEGIN BOND
M  V30 1 1 7 3
M  V30 2 2 8 4
M  V30 3 1 9 1
M  V30 4 2 10 1
M  V30 5 1 10 2
M  V30 6 2 11 9
M  V30 7 1 12 5
M  V30 8 2 13 2
M  V30 9 1 13 11
M  V30 10 1 13 12
M  V30 11 1 14 1
M  V30 12 1 15 5
M  V30 13 1 15 6
M  V30 14 1 16 6
M  V30 15 1 16 11
M  V30 16 1 17 7
M  V30 17 1 18 7
M  V30 18 1 18 14
M  V30 19 1 19 8
M  V30 20 1 19 10
M  V30 21 1 20 3
M  V30 22 1 20 14
M  V30 23 1 21 8
M  V30 24 1 22 2
M  V30 25 1 23 3
M  V30 26 1 24 5
M  V30 27 1 25 5
M  V30 28 1 26 6
M  V30 29 1 27 6
M  V30 30 1 7 28 CFG=3
M  V30 31 1 29 12
M  V30 32 1 30 12
M  V30 33 1 14 31 CFG=1
M  V30 34 1 32 15
M  V30 35 1 33 15
M  V30 36 1 34 16
M  V30 37 1 35 16
M  V30 38 1 36 19
M  V30 39 1 37 20
M  V30 40 1 38 20
M  V30 END BOND
M  V30 END CTAB
M  END
>  <i_epik_Tot_Q>  (1) 
-1

>  <i_epik_Tot_abs_Q>  (1) 
1

>  <i_i_glide_confnum>  (1) 
5

>  <i_i_glide_lignum>  (1) 
146

>  <i_i_glide_posenum>  (1) 
310

>  <i_i_glide_rotatable_bonds>  (1) 
3

>  <i_lp_mmshare_version>  (1) 
72125

>  <i_m_source_file_index>  (1) 
58

>  <i_f3d_flags>  (1) 
0

>  <num_sample>  (1) 
100

>  <b_lp_Chiralities_Consistent>  (1) 
1

>  <r_epik_Charging_Adjusted_Penalty>  (1) 
0.030249611806120975

>  <r_epik_Ionization_Penalty>  (1) 
0.0034756844334769034

>  <r_epik_Ionization_Penalty_Charging>  (1) 
0.00037093854589671571

>  <r_epik_Ionization_Penalty_Neutral>  (1) 
0.0031047458875801876

>  <r_epik_State_Penalty>  (1) 
0.02987867326022426

>  <r_glide_ring_energy>  (1) 
0

>  <r_i_docking_score>  (1) 
-4.7395167952035138

>  <r_i_glide_ecoul>  (1) 
0.14700262592011315

>  <r_i_glide_eff_state_penalty>  (1) 
0.02987867326022426

>  <r_i_glide_einternal>  (1) 
0.76541460034989228

>  <r_i_glide_emodel>  (1) 
-33.92877932096264

>  <r_i_glide_emodel_strain>  (1) 
0.0068311822728830407

>  <r_i_glide_energy>  (1) 
-26.820302449486423

>  <r_i_glide_erotb>  (1) 
0.35125710597842541

>  <r_i_glide_esite>  (1) 
0

>  <r_i_glide_evdw>  (1) 
-26.967305075406536

>  <r_i_glide_gscore>  (1) 
-4.7693954684637383

>  <r_i_glide_gscore_strain>  (1) 
0

>  <r_i_glide_hbond>  (1) 
0

>  <r_i_glide_ligand_efficiency>  (1) 
-0.22569127596207209

>  <r_i_glide_ligand_efficiency_ln>  (1) 
-1.1718359505186202

>  <r_i_glide_ligand_efficiency_sa>  (1) 
-0.62266511765006405

>  <r_i_glide_lipo>  (1) 
-2.5405383408378541

>  <r_i_glide_metal>  (1) 
-0

>  <r_i_glide_rewards>  (1) 
-1.2537993737219997

>  <r_lp_Energy>  (1) 
18.504829000000001

>  <s_epik_Chemistry_Notes>  (1) 
This compound contains an acetal/aminal-like group ( X-CH(R)-Y where X, Y are N, S, or O) that may be acid/base labile, releasing an aldehyde.

>  <s_epik_cmdline>  (1) 
J2VwaWtfcHl0aG9uJywgJy1waHQnLCAnMS4wJywgJy1waCcsICc3LjQnLCAnLXRuJywgJzgnLCAnLW1hJywgJzUwMCcsICctaW1hZScsICc8aW5maWxlLm1hZT4nLCAnLW9tYWUnLCAnPG91dGZpbGUubWFlPic=

>  <s_epik_input>  (1) 
Q2xbQ0BIXTFbTkhdW0NIMl1bQ0BIXShTMSljKG4yKWMoW05IXUMoPU8pW09IXSlbY0hdYyhjMjMpW0NIMl1bQ0gyXVtDSDJdW0NIMl1bQ0gyXTM=

>  <s_glide_docking_method>  (1) 
confgen

>  <s_i_glide_gridfile>  (1) 
gpcr_5ht2c_6bqh_protein_autoprepared_prepared

>  <s_lp_Force_Field>  (1) 
S-OPLS

>  <s_lp_Variant>  (1) 
DiffSBDD_57_num_sample_100-1

>  <s_m_source_file>  (1) 
generated__ligand_DiffSBDD_2026-05-06_prepared.sdf

>  <GenAI_Model>  (1) 
DiffSBDD

>  <Protein>  (1) 
GPCR_5HT2C

$$$$
DiffSBDD_44_num_sample_100
     RDKit          3D

  0  0  0  0  0  0  0  0  0  0999 V3000
M  V30 BEGIN CTAB
M  V30 COUNTS 58 59 0 0 1
M  V30 BEGIN ATOM
M  V30 1 C 37.903952 31.984837 55.665077 0
M  V30 2 O 37.635157 31.001249 60.159006 0 CHG=-1
M  V30 3 C 39.424453 28.395186 55.036921 0
M  V30 4 C 38.277391 32.993986 57.890583 0 CFG=1
M  V30 5 N 37.977025 31.552825 58.026113 0 CFG=1 CHG=1
M  V30 6 C 38.149193 26.306476 54.800154 0
M  V30 7 N 38.076464 27.345096 57.733279 0
M  V30 8 C 39.011137 27.288167 55.591202 0
M  V30 9 O 39.658549 25.592472 57.275849 0
M  V30 10 C 37.792555 33.265582 56.470201 0 CFG=1
M  V30 11 C 38.418008 34.344588 55.669678 0
M  V30 12 C 38.925520 29.346926 58.967037 0 CFG=1
M  V30 13 C 37.834563 28.434289 58.348671 0
M  V30 14 C 38.328653 30.988847 56.700141 0
M  V30 15 C 38.643348 24.647884 57.623229 0
M  V30 16 C 38.788762 29.027686 52.733405 0
M  V30 17 C 38.538207 30.858670 59.221323 0 CFG=2
M  V30 18 C 39.296202 26.964430 57.059730 0 CFG=2
M  V30 19 F 39.467550 26.821472 52.263408 0
M  V30 20 C 38.380922 27.557651 52.462124 0 CFG=1
M  V30 21 C 39.458441 29.281386 54.076165 0
M  V30 22 C 39.499732 28.695070 60.237124 0
M  V30 23 C 36.399619 28.913773 58.522823 0
M  V30 24 C 37.529294 33.851062 58.934247 0
M  V30 25 C 37.467820 26.892965 53.527021 0
M  V30 26 H 38.651419 32.033142 54.871218 0
M  V30 27 H 36.968087 31.705743 55.185427 0
M  V30 28 H 39.354227 33.167982 57.947004 0
M  V30 29 H 38.745245 25.425744 54.555441 0
M  V30 30 H 37.333005 25.979089 55.436895 0
M  V30 31 H 36.776182 33.584531 56.653625 0
M  V30 32 H 39.467706 34.173083 55.453523 0
M  V30 33 H 37.869680 34.421394 54.736623 0
M  V30 34 H 38.267410 35.221450 56.253036 0
M  V30 35 H 39.760024 29.389779 58.270558 0
M  V30 36 H 39.407072 30.848056 56.637551 0
M  V30 37 H 37.824616 30.065433 56.447673 0
M  V30 38 H 39.090516 23.659723 57.709578 0
M  V30 39 H 38.188551 24.876364 58.589263 0
M  V30 40 H 37.857080 24.559225 56.879952 0
M  V30 41 H 37.880150 29.621478 52.708813 0
M  V30 42 H 39.441466 29.381194 51.933358 0
M  V30 43 H 39.467384 31.353636 59.415711 0
M  V30 44 H 40.155583 27.543712 57.390326 0
M  V30 45 H 37.868312 27.534613 51.500178 0
M  V30 46 H 39.964181 30.227608 54.200279 0
M  V30 47 H 39.878888 27.690298 60.041980 0
M  V30 48 H 40.322747 29.282237 60.642335 0
M  V30 49 H 38.742583 28.617143 61.015854 0
M  V30 50 H 36.150607 29.220827 59.536597 0
M  V30 51 H 36.149926 29.722330 57.843479 0
M  V30 52 H 35.747228 28.095817 58.253494 0
M  V30 53 H 37.467430 34.899352 58.638643 0
M  V30 54 H 36.501009 33.506116 59.057703 0
M  V30 55 H 38.013237 33.791115 59.909689 0
M  V30 56 H 36.929187 26.074493 53.053465 0
M  V30 57 H 36.700670 27.609732 53.825043 0
M  V30 58 H 36.966439 31.481159 58.098578 0
M  V30 END ATOM
M  V30 BEGIN BOND
M  V30 1 1 5 4
M  V30 2 2 8 3
M  V30 3 1 8 6
M  V30 4 1 10 1
M  V30 5 1 10 4
M  V30 6 1 11 10
M  V30 7 2 13 7
M  V30 8 1 13 12
M  V30 9 1 14 1
M  V30 10 1 14 5
M  V30 11 1 15 9
M  V30 12 1 17 2
M  V30 13 1 17 5
M  V30 14 1 17 12
M  V30 15 1 18 7
M  V30 16 1 18 8
M  V30 17 1 18 9
M  V30 18 1 20 16
M  V30 19 1 20 19
M  V30 20 2 21 3
M  V30 21 1 21 16
M  V30 22 1 22 12
M  V30 23 1 23 13
M  V30 24 1 24 4
M  V30 25 1 25 6
M  V30 26 1 25 20
M  V30 27 1 26 1
M  V30 28 1 27 1
M  V30 29 1 4 28 CFG=3
M  V30 30 1 29 6
M  V30 31 1 30 6
M  V30 32 1 10 31 CFG=1
M  V30 33 1 32 11
M  V30 34 1 33 11
M  V30 35 1 34 11
M  V30 36 1 12 35 CFG=3
M  V30 37 1 36 14
M  V30 38 1 37 14
M  V30 39 1 38 15
M  V30 40 1 39 15
M  V30 41 1 40 15
M  V30 42 1 41 16
M  V30 43 1 42 16
M  V30 44 1 17 43 CFG=1
M  V30 45 1 18 44 CFG=1
M  V30 46 1 20 45 CFG=3
M  V30 47 1 46 21
M  V30 48 1 47 22
M  V30 49 1 48 22
M  V30 50 1 49 22
M  V30 51 1 50 23
M  V30 52 1 51 23
M  V30 53 1 52 23
M  V30 54 1 53 24
M  V30 55 1 54 24
M  V30 56 1 55 24
M  V30 57 1 56 25
M  V30 58 1 57 25
M  V30 59 1 5 58 CFG=1
M  V30 END BOND
M  V30 END CTAB
M  END
>  <i_epik_Tot_Q>  (1) 
0

>  <i_epik_Tot_abs_Q>  (1) 
2

>  <i_i_glide_confnum>  (1) 
50

>  <i_i_glide_lignum>  (1) 
110

>  <i_i_glide_posenum>  (1) 
139

>  <i_i_glide_rotatable_bonds>  (1) 
6

>  <i_lp_mmshare_version>  (1) 
72125

>  <i_m_source_file_index>  (1) 
45

>  <i_f3d_flags>  (1) 
0

>  <num_sample>  (1) 
100

>  <b_lp_Chiralities_Consistent>  (1) 
1

>  <r_epik_Charging_Adjusted_Penalty>  (1) 
0.41733257654759531

>  <r_epik_Ionization_Penalty>  (1) 
0.0069177268181324029

>  <r_epik_Ionization_Penalty_Charging>  (1) 
0.0066527375949913311

>  <r_epik_Ionization_Penalty_Neutral>  (1) 
0.00026498922314107146

>  <r_epik_State_Penalty>  (1) 
0.41067983895260396

>  <r_glide_ring_energy>  (1) 
0

>  <r_i_docking_score>  (1) 
-4.7342822072179294

>  <r_i_glide_ecoul>  (1) 
-2.7973619983965223

>  <r_i_glide_eff_state_penalty>  (1) 
0.41067983895260396

>  <r_i_glide_einternal>  (1) 
7.3909516657114622

>  <r_i_glide_emodel>  (1) 
-22.353041804090484

>  <r_i_glide_emodel_strain>  (1) 
1.7638267832759027

>  <r_i_glide_energy>  (1) 
-15.297564423986692

>  <r_i_glide_erotb>  (1) 
0.61440649929112812

>  <r_i_glide_esite>  (1) 
-0.11535459078933014

>  <r_i_glide_evdw>  (1) 
-12.500202425590169

>  <r_i_glide_gscore>  (1) 
-5.1449620461705337

>  <r_i_glide_gscore_strain>  (1) 
0

>  <r_i_glide_hbond>  (1) 
-0.14570272332808798

>  <r_i_glide_ligand_efficiency>  (1) 
-0.18937128828871719

>  <r_i_glide_ligand_efficiency_ln>  (1) 
-1.1221667580997907

>  <r_i_glide_ligand_efficiency_sa>  (1) 
-0.55372500606443142

>  <r_i_glide_lipo>  (1) 
-2.2155143171372815

>  <r_i_glide_metal>  (1) 
-0

>  <r_i_glide_rewards>  (1) 
-2.238182493167975

>  <r_lp_Energy>  (1) 
10.814218

>  <r_lp_tautomer_probability>  (1) 
0.49999399997599986

>  <s_epik_Chemistry_Notes>  (1) 
This compound has an imine and may undergo hydrolysis. This compound contains an acetal/aminal-like group ( X-CH(R)-Y where X, Y are N, S, or O) that may be acid/base labile, releasing an aldehyde.

>  <s_epik_cmdline>  (1) 
J2VwaWtfcHl0aG9uJywgJy1waHQnLCAnMS4wJywgJy1waCcsICc3LjQnLCAnLXRuJywgJzgnLCAnLW1hJywgJzUwMCcsICctaW1hZScsICc8aW5maWxlLm1hZT4nLCAnLW9tYWUnLCAnPG91dGZpbGUubWFlPic=

>  <s_epik_input>  (1) 
W0NIM11bQ0BIXTFbQ0gyXVtDSDJdTihbQ0BASF0xW0NIM10pW0NAQEhdKFtPSF0pW0NAQEhdKFtDSDNdKS9DKFtDSDNdKT1OXFtDQEBIXShPW0NIM10pQzI9Qz1bQ0hdW0NIMl1bQ0BASF0oRilbQ0gyXVtDSDJdMg==

>  <s_glide_docking_method>  (1) 
confgen

>  <s_i_glide_gridfile>  (1) 
gpcr_5ht2c_6bqh_protein_autoprepared_prepared

>  <s_lp_Force_Field>  (1) 
S-OPLS

>  <s_lp_Variant>  (1) 
DiffSBDD_44_num_sample_100-3

>  <s_m_source_file>  (1) 
generated__ligand_DiffSBDD_2026-05-06_prepared.sdf

>  <GenAI_Model>  (1) 
DiffSBDD

>  <Protein>  (1) 
GPCR_5HT2C

$$$$
DiffSBDD_95_num_sample_100
     RDKit          3D

  0  0  0  0  0  0  0  0  0  0999 V3000
M  V30 BEGIN CTAB
M  V30 COUNTS 51 50 0 0 1
M  V30 BEGIN ATOM
M  V30 1 C 39.311987 29.155488 59.295443 0
M  V30 2 C 38.038268 30.029100 59.362600 0
M  V30 3 C 38.885098 28.221805 51.454475 0
M  V30 4 O 37.867427 31.221440 62.253485 0 CHG=-1
M  V30 5 C 38.855521 28.793253 52.881575 0
M  V30 6 C 39.625844 29.161643 50.493863 0
M  V30 7 C 38.253074 31.465019 59.906658 0 CFG=1
M  V30 8 C 38.579293 27.642973 57.344705 0
M  V30 9 O 39.951878 31.621416 61.574796 0
M  V30 10 C 38.462529 26.198346 56.818970 0
M  V30 11 O 39.791746 26.421415 54.072737 0
M  V30 12 N 38.138908 27.950945 53.833818 0
M  V30 13 C 37.030882 32.404143 59.657515 0
M  V30 14 C 39.067736 27.719091 58.798873 0
M  V30 15 C 35.676991 31.895637 60.192587 0
M  V30 16 C 38.672769 26.841572 54.370882 0
M  V30 17 C 37.555013 24.654259 54.968359 0
M  V30 18 C 37.281400 33.855717 60.108212 0
M  V30 19 C 38.730596 31.434299 61.373196 0
M  V30 20 C 37.817389 26.102847 55.413124 0 CFG=1
M  V30 21 O 36.667401 24.003784 55.853495 0
M  V30 22 H 39.764576 29.092122 60.285498 0
M  V30 23 H 40.054892 29.633132 58.657176 0
M  V30 24 H 37.611589 30.111286 58.363063 0
M  V30 25 H 37.288976 29.516959 59.963759 0
M  V30 26 H 39.370458 27.244967 51.445564 0
M  V30 27 H 37.867403 28.060228 51.099584 0
M  V30 28 H 38.354897 29.759253 52.881962 0
M  V30 29 H 39.867338 28.992827 53.233943 0
M  V30 30 H 39.578878 28.806977 49.465349 0
M  V30 31 H 39.190587 30.160539 50.506537 0
M  V30 32 H 40.676663 29.254230 50.769279 0
M  V30 33 H 39.067403 31.897678 59.327597 0
M  V30 34 H 39.260191 28.217140 56.715270 0
M  V30 35 H 37.604334 28.123960 57.265644 0
M  V30 36 H 37.865290 25.629698 57.531788 0
M  V30 37 H 39.447772 25.728623 56.810755 0
M  V30 38 H 37.216235 28.242327 54.121014 0
M  V30 39 H 36.922769 32.453249 58.574470 0
M  V30 40 H 38.354888 27.220791 59.453956 0
M  V30 41 H 40.000165 27.160531 58.888723 0
M  V30 42 H 35.634927 31.889005 61.280740 0
M  V30 43 H 34.863105 32.530481 59.841015 0
M  V30 44 H 35.467400 30.888598 59.836620 0
M  V30 45 H 38.480576 24.083671 54.894121 0
M  V30 46 H 37.082277 24.659274 53.985508 0
M  V30 47 H 37.333960 33.936976 61.194493 0
M  V30 48 H 38.215341 34.239975 59.697624 0
M  V30 49 H 36.479917 34.512391 59.768387 0
M  V30 50 H 36.844374 26.586520 55.453446 0
M  V30 51 H 37.067769 23.963974 56.708826 0
M  V30 END ATOM
M  V30 BEGIN BOND
M  V30 1 1 2 1
M  V30 2 1 5 3
M  V30 3 1 6 3
M  V30 4 1 7 2
M  V30 5 1 10 8
M  V30 6 1 12 5
M  V30 7 1 13 7
M  V30 8 1 14 1
M  V30 9 1 14 8
M  V30 10 1 15 13
M  V30 11 2 16 11
M  V30 12 1 16 12
M  V30 13 1 18 13
M  V30 14 1 19 4
M  V30 15 1 19 7
M  V30 16 2 19 9
M  V30 17 1 20 10
M  V30 18 1 20 16
M  V30 19 1 20 17
M  V30 20 1 21 17
M  V30 21 1 22 1
M  V30 22 1 23 1
M  V30 23 1 24 2
M  V30 24 1 25 2
M  V30 25 1 26 3
M  V30 26 1 27 3
M  V30 27 1 28 5
M  V30 28 1 29 5
M  V30 29 1 30 6
M  V30 30 1 31 6
M  V30 31 1 32 6
M  V30 32 1 7 33 CFG=3
M  V30 33 1 34 8
M  V30 34 1 35 8
M  V30 35 1 36 10
M  V30 36 1 37 10
M  V30 37 1 38 12
M  V30 38 1 39 13
M  V30 39 1 40 14
M  V30 40 1 41 14
M  V30 41 1 42 15
M  V30 42 1 43 15
M  V30 43 1 44 15
M  V30 44 1 45 17
M  V30 45 1 46 17
M  V30 46 1 47 18
M  V30 47 1 48 18
M  V30 48 1 49 18
M  V30 49 1 20 50 CFG=1
M  V30 50 1 51 21
M  V30 END BOND
M  V30 END CTAB
M  END
>  <i_epik_Tot_Q>  (1) 
-1

>  <i_epik_Tot_abs_Q>  (1) 
1

>  <i_i_glide_confnum>  (1) 
1169

>  <i_i_glide_lignum>  (1) 
266

>  <i_i_glide_posenum>  (1) 
172

>  <i_i_glide_rotatable_bonds>  (1) 
14

>  <i_lp_mmshare_version>  (1) 
72125

>  <i_m_source_file_index>  (1) 
96

>  <i_f3d_flags>  (1) 
0

>  <num_sample>  (1) 
100

>  <b_lp_Chiralities_Consistent>  (1) 
1

>  <r_epik_Charging_Adjusted_Penalty>  (1) 
0.001438735801478555

>  <r_epik_Ionization_Penalty>  (1) 
0.0014388430371294766

>  <r_epik_Ionization_Penalty_Charging>  (1) 
0.001438735801478555

>  <r_epik_Ionization_Penalty_Neutral>  (1) 
1.0723565092155607e-07

>  <r_epik_State_Penalty>  (1) 
-0

>  <r_glide_ring_energy>  (1) 
0

>  <r_i_docking_score>  (1) 
-4.7332847227922681

>  <r_i_glide_ecoul>  (1) 
-2.6185707245233578

>  <r_i_glide_eff_state_penalty>  (1) 
-0

>  <r_i_glide_einternal>  (1) 
4.8861090361423773

>  <r_i_glide_emodel>  (1) 
-42.558102562933506

>  <r_i_glide_emodel_strain>  (1) 
0.62451616225209428

>  <r_i_glide_energy>  (1) 
-34.994648035983012

>  <r_i_glide_erotb>  (1) 
2.0366524636838417

>  <r_i_glide_esite>  (1) 
0

>  <r_i_glide_evdw>  (1) 
-32.376077311459653

>  <r_i_glide_gscore>  (1) 
-4.7332847227922681

>  <r_i_glide_gscore_strain>  (1) 
0

>  <r_i_glide_hbond>  (1) 
-0.10991725250053433

>  <r_i_glide_ligand_efficiency>  (1) 
-0.22539451060915563

>  <r_i_glide_ligand_efficiency_ln>  (1) 
-1.1702950832080277

>  <r_i_glide_ligand_efficiency_sa>  (1) 
-0.62184636454319053

>  <r_i_glide_lipo>  (1) 
-2.4954943579528077

>  <r_i_glide_metal>  (1) 
-0

>  <r_i_glide_rewards>  (1) 
-2.1529361017712803

>  <r_lp_Energy>  (1) 
10.841768999999999

>  <r_lp_tautomer_probability>  (1) 
1

>  <s_epik_cmdline>  (1) 
J2VwaWtfcHl0aG9uJywgJy1waHQnLCAnMS4wJywgJy1waCcsICc3LjQnLCAnLXRuJywgJzgnLCAnLW1hJywgJzUwMCcsICctaW1hZScsICc8aW5maWxlLm1hZT4nLCAnLW9tYWUnLCAnPG91dGZpbGUubWFlPic=

>  <s_epik_input>  (1) 
W09IXUMoPU8pW0NASF0oW0NIXShbQ0gzXSlbQ0gzXSlbQ0gyXVtDSDJdW0NIMl1bQ0gyXVtDSDJdW0NASF0oW0NIMl1bT0hdKUMoPU8pW05IXVtDSDJdW0NIMl1bQ0gzXQ==

>  <s_glide_docking_method>  (1) 
confgen

>  <s_i_glide_gridfile>  (1) 
gpcr_5ht2c_6bqh_protein_autoprepared_prepared

>  <s_lp_Force_Field>  (1) 
S-OPLS

>  <s_lp_Variant>  (1) 
DiffSBDD_95_num_sample_100-1

>  <s_m_source_file>  (1) 
generated__ligand_DiffSBDD_2026-05-06_prepared.sdf

>  <GenAI_Model>  (1) 
DiffSBDD

>  <Protein>  (1) 
GPCR_5HT2C

$$$$
DiffSBDD_90_num_sample_100
     RDKit          3D

  0  0  0  0  0  0  0  0  0  0999 V3000
M  V30 BEGIN CTAB
M  V30 COUNTS 85 88 0 0 1
M  V30 BEGIN ATOM
M  V30 1 C 38.528816 31.504283 54.822701 0
M  V30 2 O 37.988900 36.661151 62.989425 0
M  V30 3 F 39.783507 25.800754 59.053602 0
M  V30 4 C 38.683689 27.505101 53.359568 0 CFG=1
M  V30 5 C 40.275565 34.071376 61.584086 0 CFG=2
M  V30 6 C 38.264072 33.344185 60.354828 0 CFG=1
M  V30 7 C 39.850816 26.897788 50.566301 0
M  V30 8 C 37.471007 33.442851 57.909705 0
M  V30 9 C 39.145752 28.484520 52.251053 0
M  V30 10 N 39.053957 36.156770 62.148389 0
M  V30 11 C 38.650585 27.830666 58.852774 0
M  V30 12 C 37.926589 28.786278 51.442602 0
M  V30 13 C 39.704972 33.824210 60.189450 0
M  V30 14 C 37.815166 34.049336 61.638901 0
M  V30 15 O 41.842311 32.271872 61.839899 0
M  V30 16 N 38.387609 30.807414 56.113362 0 CFG=1 CHG=1
M  V30 17 C 37.242394 33.563683 59.236796 0
M  V30 18 F 40.923239 27.621683 59.369815 0
M  V30 19 C 39.218863 26.253387 56.436293 0 CFG=1
M  V30 20 N 38.930261 29.418532 56.001152 0
M  V30 21 C 37.520982 27.308655 57.943573 0
M  V30 22 C 39.060258 31.544633 57.208056 0
M  V30 23 O 40.133829 28.021442 51.354639 0
M  V30 24 C 39.860755 29.772163 52.667035 0
M  V30 25 C 38.019575 32.899367 54.889196 0
M  V30 26 C 40.377251 26.924208 57.204261 0
M  V30 27 C 38.790567 33.071800 57.257249 0 CFG=1
M  V30 28 C 39.066132 34.697865 62.303638 0 CFG=1
M  V30 29 C 39.867301 26.888422 54.085672 0
M  V30 30 O 39.944290 32.159041 63.000691 0 CHG=-1
M  V30 31 C 37.896614 28.427558 55.733653 0 CFG=1
M  V30 32 C 38.851639 33.705723 55.853441 0
M  V30 33 O 41.375384 34.968108 61.510792 0
M  V30 34 C 37.590040 28.154137 54.265613 0
M  V30 35 C 37.943551 27.102872 56.507771 0 CFG=1
M  V30 36 C 39.578363 25.763777 55.047428 0
M  V30 37 C 39.954738 27.052748 58.655050 0
M  V30 38 C 40.728120 32.717036 62.200038 0
M  V30 39 H 37.921366 31.008422 54.078921 0
M  V30 40 H 39.574841 31.541719 54.523998 0
M  V30 41 H 37.423619 37.086899 62.363247 0
M  V30 42 H 38.197524 26.667571 52.858525 0
M  V30 43 H 38.284746 32.270317 60.552633 0
M  V30 44 H 40.667409 26.820895 49.853519 0
M  V30 45 H 39.797308 26.021450 51.201971 0
M  V30 46 H 38.956819 26.954565 49.954222 0
M  V30 47 H 36.663285 33.622836 57.236742 0
M  V30 48 H 39.870149 36.581649 62.571331 0
M  V30 49 H 38.345146 27.777035 59.898580 0
M  V30 50 H 38.822407 28.885298 58.656656 0
M  V30 51 H 37.093707 29.221408 51.950378 0
M  V30 52 H 38.267413 29.439514 50.653508 0
M  V30 53 H 37.473738 27.883079 51.053521 0
M  V30 54 H 40.267365 33.058785 59.682139 0
M  V30 55 H 39.749437 34.754831 59.630528 0
M  V30 56 H 37.371652 33.271026 62.253517 0
M  V30 57 H 37.030688 34.784870 61.456785 0
M  V30 58 H 36.247924 33.836986 59.560709 0
M  V30 59 H 38.987422 25.323116 56.955641 0
M  V30 60 H 39.251695 29.298642 56.952551 0
M  V30 61 H 37.179169 26.324451 58.253549 0
M  V30 62 H 36.660900 27.975723 58.001647 0
M  V30 63 H 40.107500 31.372534 57.010097 0
M  V30 64 H 38.830493 31.093884 58.171849 0
M  V30 65 H 39.223648 30.635863 52.544547 0
M  V30 66 H 40.267287 29.718048 53.670396 0
M  V30 67 H 40.683614 30.016295 52.001363 0
M  V30 68 H 37.067402 32.782344 55.314010 0
M  V30 69 H 37.867401 33.340842 53.908319 0
M  V30 70 H 41.284285 26.339427 57.155705 0
M  V30 71 H 40.674456 27.889889 56.810935 0
M  V30 72 H 39.590604 33.542700 57.797059 0
M  V30 73 H 39.126469 34.489633 63.368340 0
M  V30 74 H 40.619098 26.540925 53.375253 0
M  V30 75 H 40.267402 27.689144 54.671883 0
M  V30 76 H 37.067404 28.967092 56.133105 0
M  V30 77 H 38.494492 34.734815 55.856711 0
M  V30 78 H 39.867333 33.737390 55.481813 0
M  V30 79 H 41.070059 35.761965 61.099977 0
M  V30 80 H 36.704457 27.519858 54.203121 0
M  V30 81 H 37.216165 29.095051 53.902086 0
M  V30 82 H 37.156713 26.472922 56.086630 0
M  V30 83 H 38.834588 25.070878 54.653440 0
M  V30 84 H 40.504029 25.221434 55.174034 0
M  V30 85 H 37.397703 30.740155 56.332482 0
M  V30 END ATOM
M  V30 BEGIN BOND
M  V30 1 1 9 4
M  V30 2 1 10 2
M  V30 3 1 12 9
M  V30 4 1 13 5
M  V30 5 1 13 6
M  V30 6 1 14 6
M  V30 7 1 16 1
M  V30 8 1 17 6
M  V30 9 2 17 8
M  V30 10 1 20 16
M  V30 11 1 21 11
M  V30 12 1 22 16
M  V30 13 1 23 7
M  V30 14 1 23 9
M  V30 15 1 24 9
M  V30 16 1 25 1
M  V30 17 1 26 19
M  V30 18 1 27 8
M  V30 19 1 27 22
M  V30 20 1 28 5
M  V30 21 1 28 10
M  V30 22 1 28 14
M  V30 23 1 29 4
M  V30 24 1 31 20
M  V30 25 1 32 25
M  V30 26 1 32 27
M  V30 27 1 5 33 CFG=3
M  V30 28 1 34 4
M  V30 29 1 34 31
M  V30 30 1 35 19
M  V30 31 1 35 21
M  V30 32 1 35 31
M  V30 33 1 36 19
M  V30 34 1 36 29
M  V30 35 1 37 3
M  V30 36 1 37 11
M  V30 37 1 37 18
M  V30 38 1 37 26
M  V30 39 1 38 5
M  V30 40 2 38 15
M  V30 41 1 38 30
M  V30 42 1 39 1
M  V30 43 1 40 1
M  V30 44 1 41 2
M  V30 45 1 4 42 CFG=3
M  V30 46 1 6 43 CFG=1
M  V30 47 1 44 7
M  V30 48 1 45 7
M  V30 49 1 46 7
M  V30 50 1 47 8
M  V30 51 1 48 10
M  V30 52 1 49 11
M  V30 53 1 50 11
M  V30 54 1 51 12
M  V30 55 1 52 12
M  V30 56 1 53 12
M  V30 57 1 54 13
M  V30 58 1 55 13
M  V30 59 1 56 14
M  V30 60 1 57 14
M  V30 61 1 58 17
M  V30 62 1 19 59 CFG=1
M  V30 63 1 60 20
M  V30 64 1 61 21
M  V30 65 1 62 21
M  V30 66 1 63 22
M  V30 67 1 64 22
M  V30 68 1 65 24
M  V30 69 1 66 24
M  V30 70 1 67 24
M  V30 71 1 68 25
M  V30 72 1 69 25
M  V30 73 1 70 26
M  V30 74 1 71 26
M  V30 75 1 27 72 CFG=1
M  V30 76 1 28 73 CFG=1
M  V30 77 1 74 29
M  V30 78 1 75 29
M  V30 79 1 31 76 CFG=1
M  V30 80 1 77 32
M  V30 81 1 78 32
M  V30 82 1 79 33
M  V30 83 1 80 34
M  V30 84 1 81 34
M  V30 85 1 35 82 CFG=3
M  V30 86 1 83 36
M  V30 87 1 84 36
M  V30 88 1 16 85 CFG=1
M  V30 END BOND
M  V30 END CTAB
M  END
>  <i_epik_Tot_Q>  (1) 
0

>  <i_epik_Tot_abs_Q>  (1) 
2

>  <i_i_glide_confnum>  (1) 
141

>  <i_i_glide_lignum>  (1) 
241

>  <i_i_glide_posenum>  (1) 
130

>  <i_i_glide_rotatable_bonds>  (1) 
10

>  <i_lp_mmshare_version>  (1) 
72125

>  <i_m_source_file_index>  (1) 
91

>  <i_f3d_flags>  (1) 
0

>  <num_sample>  (1) 
100

>  <b_lp_Chiralities_Consistent>  (1) 
1

>  <r_epik_Charging_Adjusted_Penalty>  (1) 
1.5083745474312953

>  <r_epik_Ionization_Penalty>  (1) 
0.65750586125956467

>  <r_epik_Ionization_Penalty_Charging>  (1) 
0.6544614066189578

>  <r_epik_Ionization_Penalty_Neutral>  (1) 
0.0030444546406068235

>  <r_epik_State_Penalty>  (1) 
0.8539131408123376

>  <r_glide_ring_energy>  (1) 
0.5227007341330594

>  <r_i_docking_score>  (1) 
-4.7164367611810212

>  <r_i_glide_ecoul>  (1) 
-4.434467268437392

>  <r_i_glide_eff_state_penalty>  (1) 
0.8539131408123376

>  <r_i_glide_einternal>  (1) 
35.170091921134272

>  <r_i_glide_emodel>  (1) 
1.9301276717665417

>  <r_i_glide_emodel_strain>  (1) 
3.0123683511657617

>  <r_i_glide_energy>  (1) 
-13.315347028182391

>  <r_i_glide_erotb>  (1) 
0.42002339013477186

>  <r_i_glide_esite>  (1) 
-0.061169395853824596

>  <r_i_glide_evdw>  (1) 
-8.8808797597449978

>  <r_i_glide_gscore>  (1) 
-5.5703499019933584

>  <r_i_glide_gscore_strain>  (1) 
0

>  <r_i_glide_hbond>  (1) 
-0.021870131709778813

>  <r_i_glide_ligand_efficiency>  (1) 
-0.12411675687318477

>  <r_i_glide_ligand_efficiency_ln>  (1) 
-1.0170025092233084

>  <r_i_glide_ligand_efficiency_sa>  (1) 
-0.4172774841792935

>  <r_i_glide_lipo>  (1) 
-3.5730636090298318

>  <r_i_glide_metal>  (1) 
-0

>  <r_i_glide_rewards>  (1) 
-1.225056077281836

>  <r_lp_Energy>  (1) 
49.266497000000001

>  <s_epik_Chemistry_Notes>  (1) 
This compound has a N-S or N-O group and may undergo hydrolysis at high or low pH.

>  <s_epik_cmdline>  (1) 
J2VwaWtfcHl0aG9uJywgJy1waHQnLCAnMS4wJywgJy1waCcsICc3LjQnLCAnLXRuJywgJzgnLCAnLW1hJywgJzUwMCcsICctaW1hZScsICc8aW5maWxlLm1hZT4nLCAnLW9tYWUnLCAnPG91dGZpbGUubWFlPic=

>  <s_epik_input>  (1) 
RkMoRikoW0NIMl0xKVtDSDJdW0NIMl1bQ0BIXShbQ0BASF0xMilbQ0BIXShbQ0gyXVtDQEhdKFtDSDJdW0NIMl0yKUMoW0NIM10pKFtDSDNdKU9bQ0gzXSlbTkhdTjNbQ0gyXVtDSDJdW0NIMl1bQ0BIXShbQ0gyXTMpL1tDSF09W0NIXVxbQ0BASF0oW0NIMl1bQ0BdNChbT0hdKUMoPU8pW09IXSlbQ0gyXVtDQEBIXTRbTkhdW09IXQ==

>  <s_glide_docking_method>  (1) 
confgen

>  <s_i_glide_gridfile>  (1) 
gpcr_5ht2c_6bqh_protein_autoprepared_prepared

>  <s_lp_Force_Field>  (1) 
S-OPLS

>  <s_lp_Variant>  (1) 
DiffSBDD_90_num_sample_100-13

>  <s_m_source_file>  (1) 
generated__ligand_DiffSBDD_2026-05-06_prepared.sdf

>  <GenAI_Model>  (1) 
DiffSBDD

>  <Protein>  (1) 
GPCR_5HT2C

$$$$
DiffSBDD_39_num_sample_100
     RDKit          3D

  0  0  0  0  0  0  0  0  0  0999 V3000
M  V30 BEGIN CTAB
M  V30 COUNTS 61 64 0 0 1
M  V30 BEGIN ATOM
M  V30 1 C 39.704219 30.986836 62.112403 0
M  V30 2 C 39.113226 31.458580 55.467116 0
M  V30 3 C 35.933509 32.890056 60.498912 0
M  V30 4 C 39.177674 32.143173 56.853913 0
M  V30 5 C 38.611593 31.517371 59.879337 0
M  V30 6 C 39.166460 29.144033 56.517963 0
M  V30 7 N 38.735581 25.690600 57.946472 0
M  V30 8 O 34.766725 33.222822 60.199768 0 CHG=-1
M  V30 9 C 38.813423 27.707317 56.642630 0
M  V30 10 C 39.679627 33.340237 61.407211 0
M  V30 11 O 36.217488 32.131211 61.453502 0
M  V30 12 C 40.359755 33.684893 62.597163 0
M  V30 13 C 40.700930 32.696806 63.535928 0
M  V30 14 N 38.038537 32.484531 59.103653 0
M  V30 15 C 40.717496 30.290775 64.331281 0
M  V30 16 C 37.814075 34.632793 60.365525 0
M  V30 17 C 37.449714 23.711505 57.353155 0
M  V30 18 C 37.867414 32.191034 57.656384 0
M  V30 19 C 43.303225 30.169022 64.353969 0
M  V30 20 C 38.066611 26.973394 55.533468 0
M  V30 21 C 37.080868 33.490961 59.640146 0 CFG=2
M  V30 22 C 36.667404 23.242430 56.039935 0
M  V30 23 O 43.245413 31.209375 65.048814 0 CHG=-1
M  V30 24 C 39.341033 31.967123 61.155374 0
M  V30 25 S 36.679470 24.592320 54.812815 0
M  V30 26 C 37.631598 25.589955 55.847069 0
M  V30 27 O 37.826728 27.480714 54.440961 0
M  V30 28 C 40.371849 31.352412 63.298596 0
M  V30 29 Cl 39.985763 27.736185 59.071429 0
M  V30 30 C 41.983588 29.456520 64.039978 0
M  V30 31 C 39.120380 27.000256 57.767663 0
M  V30 32 C 38.760595 29.976822 55.525862 0
M  V30 33 C 39.326696 34.435683 60.426536 0
M  V30 34 O 38.561037 30.322546 59.591290 0
M  V30 35 C 37.961964 25.060023 57.002400 0
M  V30 36 O 44.345619 29.651017 63.897051 0
M  V30 37 H 39.455807 29.948995 61.939774 0
M  V30 38 H 40.061946 31.568106 54.940360 0
M  V30 39 H 38.360268 31.964315 54.860801 0
M  V30 40 H 39.867400 31.579676 57.444168 0
M  V30 41 H 39.584774 33.149405 56.758282 0
M  V30 42 H 39.784115 29.563055 57.290303 0
M  V30 43 H 40.615792 34.716538 62.791577 0
M  V30 44 H 41.214413 32.972878 64.445657 0
M  V30 45 H 40.773197 30.745462 65.321543 0
M  V30 46 H 39.867397 29.621321 64.391679 0
M  V30 47 H 37.422895 34.787317 61.373842 0
M  V30 48 H 37.613031 35.560692 59.828884 0
M  V30 49 H 38.170203 23.066067 57.853506 0
M  V30 50 H 36.718306 23.990180 58.105947 0
M  V30 51 H 37.227840 32.919563 57.161368 0
M  V30 52 H 37.365426 31.228702 57.564971 0
M  V30 53 H 36.564347 33.972935 58.809232 0
M  V30 54 H 35.644249 22.950750 56.253474 0
M  V30 55 H 37.067404 22.421380 55.453509 0
M  V30 56 H 41.966896 28.564857 64.666732 0
M  V30 57 H 41.989446 29.104803 63.007832 0
M  V30 58 H 38.146930 29.622009 54.726168 0
M  V30 59 H 39.777331 35.367383 60.767967 0
M  V30 60 H 39.782819 34.254147 59.453493 0
M  V30 61 H 38.940231 25.226654 58.819391 0
M  V30 END ATOM
M  V30 BEGIN BOND
M  V30 1 1 4 2
M  V30 2 1 8 3
M  V30 3 1 9 6
M  V30 4 2 11 3
M  V30 5 1 12 10
M  V30 6 2 13 12
M  V30 7 1 14 5
M  V30 8 1 18 4
M  V30 9 1 18 14
M  V30 10 1 20 9
M  V30 11 1 21 3
M  V30 12 1 21 14
M  V30 13 1 21 16
M  V30 14 1 22 17
M  V30 15 1 23 19
M  V30 16 1 24 1
M  V30 17 1 24 5
M  V30 18 2 24 10
M  V30 19 1 25 22
M  V30 20 1 26 20
M  V30 21 1 26 25
M  V30 22 2 27 20
M  V30 23 2 28 1
M  V30 24 1 28 13
M  V30 25 1 28 15
M  V30 26 1 30 15
M  V30 27 1 30 19
M  V30 28 1 31 7
M  V30 29 2 31 9
M  V30 30 1 31 29
M  V30 31 1 32 2
M  V30 32 2 32 6
M  V30 33 1 33 10
M  V30 34 1 33 16
M  V30 35 2 34 5
M  V30 36 1 35 7
M  V30 37 1 35 17
M  V30 38 2 35 26
M  V30 39 2 36 19
M  V30 40 1 37 1
M  V30 41 1 38 2
M  V30 42 1 39 2
M  V30 43 1 40 4
M  V30 44 1 41 4
M  V30 45 1 42 6
M  V30 46 1 43 12
M  V30 47 1 44 13
M  V30 48 1 45 15
M  V30 49 1 46 15
M  V30 50 1 47 16
M  V30 51 1 48 16
M  V30 52 1 49 17
M  V30 53 1 50 17
M  V30 54 1 51 18
M  V30 55 1 52 18
M  V30 56 1 21 53 CFG=3
M  V30 57 1 54 22
M  V30 58 1 55 22
M  V30 59 1 56 30
M  V30 60 1 57 30
M  V30 61 1 58 32
M  V30 62 1 59 33
M  V30 63 1 60 33
M  V30 64 1 61 7
M  V30 END BOND
M  V30 END CTAB
M  END
>  <i_epik_Tot_Q>  (1) 
-2

>  <i_epik_Tot_abs_Q>  (1) 
2

>  <i_i_glide_confnum>  (1) 
242

>  <i_i_glide_lignum>  (1) 
98

>  <i_i_glide_posenum>  (1) 
222

>  <i_i_glide_rotatable_bonds>  (1) 
9

>  <i_lp_mmshare_version>  (1) 
72125

>  <i_m_source_file_index>  (1) 
40

>  <i_f3d_flags>  (1) 
0

>  <num_sample>  (1) 
100

>  <b_lp_Chiralities_Consistent>  (1) 
1

>  <r_epik_Charging_Adjusted_Penalty>  (1) 
2.4833595310622814

>  <r_epik_Ionization_Penalty>  (1) 
1.1966221344959846

>  <r_epik_Ionization_Penalty_Charging>  (1) 
1.1966221333468745

>  <r_epik_Ionization_Penalty_Neutral>  (1) 
1.1491101627543943e-09

>  <r_epik_State_Penalty>  (1) 
1.2867373977154066

>  <r_glide_ring_energy>  (1) 
0

>  <r_i_docking_score>  (1) 
-4.7140652703882333

>  <r_i_glide_ecoul>  (1) 
-1.0015655103572385

>  <r_i_glide_eff_state_penalty>  (1) 
1.2867373977154066

>  <r_i_glide_einternal>  (1) 
4.7587642758556647

>  <r_i_glide_emodel>  (1) 
-45.15173723431694

>  <r_i_glide_emodel_strain>  (1) 
1.643207522737498

>  <r_i_glide_energy>  (1) 
-33.693021476388736

>  <r_i_glide_erotb>  (1) 
0.44176053004123106

>  <r_i_glide_esite>  (1) 
-0.048364643021687026

>  <r_i_glide_evdw>  (1) 
-32.691455966031498

>  <r_i_glide_gscore>  (1) 
-6.0008026681036402

>  <r_i_glide_gscore_strain>  (1) 
0

>  <r_i_glide_hbond>  (1) 
-0.11881691170883965

>  <r_i_glide_ligand_efficiency>  (1) 
-0.13094625751078426

>  <r_i_glide_ligand_efficiency_ln>  (1) 
-1.0284816826732903

>  <r_i_glide_ligand_efficiency_sa>  (1) 
-0.43237501581563131

>  <r_i_glide_lipo>  (1) 
-3.6972254616332179

>  <r_i_glide_metal>  (1) 
-0

>  <r_i_glide_rewards>  (1) 
-0.79334855692596595

>  <r_lp_Energy>  (1) 
53.030488999999996

>  <s_epik_cmdline>  (1) 
J2VwaWtfcHl0aG9uJywgJy1waHQnLCAnMS4wJywgJy1waCcsICc3LjQnLCAnLXRuJywgJzgnLCAnLW1hJywgJzUwMCcsICctaW1hZScsICc8aW5maWxlLm1hZT4nLCAnLW9tYWUnLCAnPG91dGZpbGUubWFlPic=

>  <s_epik_input>  (1) 
W09IXUMoPU8pW0NIMl1bQ0gyXWMoW2NIXVtjSF0xKVtjSF1jKGMxMilDKD1PKU4oW0NAQEhdKEMoPU8pW09IXSlbQ0gyXVtDSDJdMilbQ0gyXVtDSDJdW0NIMl1cW0NIXT1bQ0hdXGMoYzNbT0hdKWMoQ2wpbmMoYzM0KVtDSDJdW0NIMl1TNA==

>  <s_glide_docking_method>  (1) 
confgen

>  <s_i_glide_gridfile>  (1) 
gpcr_5ht2c_6bqh_protein_autoprepared_prepared

>  <s_lp_Force_Field>  (1) 
S-OPLS

>  <s_lp_Variant>  (1) 
DiffSBDD_39_num_sample_100-5

>  <s_m_source_file>  (1) 
generated__ligand_DiffSBDD_2026-05-06_prepared.sdf

>  <GenAI_Model>  (1) 
DiffSBDD

>  <Protein>  (1) 
GPCR_5HT2C

$$$$
DiffSBDD_44_num_sample_100
     RDKit          3D

  0  0  0  0  0  0  0  0  0  0999 V3000
M  V30 BEGIN CTAB
M  V30 COUNTS 58 59 0 0 1
M  V30 BEGIN ATOM
M  V30 1 C 37.757929 28.123658 51.787520 0
M  V30 2 O 39.240871 26.893649 55.387742 0 CHG=-1
M  V30 3 C 37.033551 30.981992 60.039572 0
M  V30 4 C 39.301596 28.789602 53.442104 0 CFG=1
M  V30 5 N 38.068145 28.362273 54.141680 0 CFG=1 CHG=1
M  V30 6 C 38.873289 32.508147 59.446046 0
M  V30 7 N 38.571684 28.606777 59.177723 0
M  V30 8 C 38.275668 31.118289 59.634697 0
M  V30 9 O 40.269700 29.857630 60.253439 0
M  V30 10 C 38.998447 28.971297 51.969804 0 CFG=1
M  V30 11 C 40.127411 28.601890 50.999959 0
M  V30 12 C 38.367809 28.667542 56.676479 0 CFG=1
M  V30 13 C 38.298238 27.995668 58.081466 0
M  V30 14 C 37.341315 27.565730 53.143043 0
M  V30 15 C 39.915746 29.505344 61.587936 0
M  V30 16 C 35.597642 32.957351 60.458038 0
M  V30 17 C 38.187324 27.672563 55.470772 0 CFG=2
M  V30 18 C 39.196203 29.921939 59.313584 0 CFG=1
M  V30 19 F 36.265576 35.106172 59.856777 0
M  V30 20 C 36.610717 33.832390 59.668491 0 CFG=1
M  V30 21 C 35.874902 31.462120 60.421136 0
M  V30 22 C 37.370599 29.853666 56.596809 0
M  V30 23 C 37.867539 26.532022 58.087682 0
M  V30 24 C 39.963406 30.035600 54.059432 0
M  V30 25 C 38.089591 33.679553 60.099390 0
M  V30 26 H 37.868322 27.329001 51.053516 0
M  V30 27 H 37.020713 28.820222 51.453616 0
M  V30 28 H 39.867407 27.881504 53.399727 0
M  V30 29 H 39.866961 32.509912 59.884658 0
M  V30 30 H 38.996376 32.688874 58.377124 0
M  V30 31 H 38.795163 30.020129 51.797848 0
M  V30 32 H 40.267390 27.525320 50.954869 0
M  V30 33 H 39.885364 28.936259 49.990764 0
M  V30 34 H 41.069297 29.064650 51.292324 0
M  V30 35 H 39.368345 29.077433 56.584695 0
M  V30 36 H 37.637952 26.516561 53.208931 0
M  V30 37 H 36.267471 27.621540 53.302626 0
M  V30 38 H 40.814099 29.487657 62.203731 0
M  V30 39 H 39.226606 30.225175 62.030501 0
M  V30 40 H 39.464630 28.513815 61.641144 0
M  V30 41 H 34.599962 33.121525 60.048818 0
M  V30 42 H 35.561141 33.274406 61.501110 0
M  V30 43 H 37.207171 27.221145 55.597890 0
M  V30 44 H 39.689971 30.185070 58.381997 0
M  V30 45 H 36.508888 33.654122 58.595335 0
M  V30 46 H 35.067446 30.816912 60.715354 0
M  V30 47 H 37.751129 30.731261 57.110696 0
M  V30 48 H 37.170253 30.204210 55.587339 0
M  V30 49 H 36.406392 29.621465 57.050632 0
M  V30 50 H 36.807665 26.428888 57.853520 0
M  V30 51 H 38.445947 25.904469 57.417575 0
M  V30 52 H 38.079138 26.096921 59.053473 0
M  V30 53 H 40.667293 30.486079 53.365356 0
M  V30 54 H 39.227817 30.805201 54.293117 0
M  V30 55 H 40.518087 29.807358 54.966449 0
M  V30 56 H 38.141751 33.600973 61.185800 0
M  V30 57 H 38.622554 34.597997 59.853531 0
M  V30 58 H 37.515338 29.192054 54.299427 0
M  V30 END ATOM
M  V30 BEGIN BOND
M  V30 1 1 5 4
M  V30 2 2 8 3
M  V30 3 1 8 6
M  V30 4 1 10 1
M  V30 5 1 10 4
M  V30 6 1 11 10
M  V30 7 2 13 7
M  V30 8 1 13 12
M  V30 9 1 14 1
M  V30 10 1 14 5
M  V30 11 1 15 9
M  V30 12 1 17 2
M  V30 13 1 17 5
M  V30 14 1 17 12
M  V30 15 1 18 7
M  V30 16 1 18 8
M  V30 17 1 18 9
M  V30 18 1 20 16
M  V30 19 1 20 19
M  V30 20 2 21 3
M  V30 21 1 21 16
M  V30 22 1 22 12
M  V30 23 1 23 13
M  V30 24 1 24 4
M  V30 25 1 25 6
M  V30 26 1 25 20
M  V30 27 1 26 1
M  V30 28 1 27 1
M  V30 29 1 4 28 CFG=3
M  V30 30 1 29 6
M  V30 31 1 30 6
M  V30 32 1 10 31 CFG=1
M  V30 33 1 32 11
M  V30 34 1 33 11
M  V30 35 1 34 11
M  V30 36 1 12 35 CFG=3
M  V30 37 1 36 14
M  V30 38 1 37 14
M  V30 39 1 38 15
M  V30 40 1 39 15
M  V30 41 1 40 15
M  V30 42 1 41 16
M  V30 43 1 42 16
M  V30 44 1 17 43 CFG=1
M  V30 45 1 18 44 CFG=3
M  V30 46 1 20 45 CFG=3
M  V30 47 1 46 21
M  V30 48 1 47 22
M  V30 49 1 48 22
M  V30 50 1 49 22
M  V30 51 1 50 23
M  V30 52 1 51 23
M  V30 53 1 52 23
M  V30 54 1 53 24
M  V30 55 1 54 24
M  V30 56 1 55 24
M  V30 57 1 56 25
M  V30 58 1 57 25
M  V30 59 1 5 58 CFG=1
M  V30 END BOND
M  V30 END CTAB
M  END
>  <i_epik_Tot_Q>  (1) 
0

>  <i_epik_Tot_abs_Q>  (1) 
2

>  <i_i_glide_confnum>  (1) 
20

>  <i_i_glide_lignum>  (1) 
114

>  <i_i_glide_posenum>  (1) 
376

>  <i_i_glide_rotatable_bonds>  (1) 
6

>  <i_lp_mmshare_version>  (1) 
72125

>  <i_m_source_file_index>  (1) 
45

>  <i_f3d_flags>  (1) 
0

>  <num_sample>  (1) 
100

>  <b_lp_Chiralities_Consistent>  (1) 
1

>  <r_epik_Charging_Adjusted_Penalty>  (1) 
0.41733257654759531

>  <r_epik_Ionization_Penalty>  (1) 
0.0069177268181324029

>  <r_epik_Ionization_Penalty_Charging>  (1) 
0.0066527375949913311

>  <r_epik_Ionization_Penalty_Neutral>  (1) 
0.00026498922314107146

>  <r_epik_State_Penalty>  (1) 
0.41067983895260396

>  <r_glide_ring_energy>  (1) 
0

>  <r_i_docking_score>  (1) 
-4.7131320971606865

>  <r_i_glide_ecoul>  (1) 
-0.45581014562321931

>  <r_i_glide_eff_state_penalty>  (1) 
0.41067983895260396

>  <r_i_glide_einternal>  (1) 
10.921657289039636

>  <r_i_glide_emodel>  (1) 
-30.595669588927734

>  <r_i_glide_emodel_strain>  (1) 
2.2433911518294849

>  <r_i_glide_energy>  (1) 
-24.714568349885138

>  <r_i_glide_erotb>  (1) 
0.61440649929112812

>  <r_i_glide_esite>  (1) 
0

>  <r_i_glide_evdw>  (1) 
-24.25875820426192

>  <r_i_glide_gscore>  (1) 
-5.1238119361132908

>  <r_i_glide_gscore_strain>  (1) 
0

>  <r_i_glide_hbond>  (1) 
0

>  <r_i_glide_ligand_efficiency>  (1) 
-0.18852528388642745

>  <r_i_glide_ligand_efficiency_ln>  (1) 
-1.1171535481985717

>  <r_i_glide_ligand_efficiency_sa>  (1) 
-0.5512512741855301

>  <r_i_glide_lipo>  (1) 
-2.0836994329738392

>  <r_i_glide_metal>  (1) 
-0

>  <r_i_glide_rewards>  (1) 
-2.3732095703740006

>  <r_lp_Energy>  (1) 
9.5307370000000002

>  <r_lp_tautomer_probability>  (1) 
0.49999399997599986

>  <s_epik_Chemistry_Notes>  (1) 
This compound has an imine and may undergo hydrolysis. This compound contains an acetal/aminal-like group ( X-CH(R)-Y where X, Y are N, S, or O) that may be acid/base labile, releasing an aldehyde.

>  <s_epik_cmdline>  (1) 
J2VwaWtfcHl0aG9uJywgJy1waHQnLCAnMS4wJywgJy1waCcsICc3LjQnLCAnLXRuJywgJzgnLCAnLW1hJywgJzUwMCcsICctaW1hZScsICc8aW5maWxlLm1hZT4nLCAnLW9tYWUnLCAnPG91dGZpbGUubWFlPic=

>  <s_epik_input>  (1) 
W0NIM11bQ0BIXTFbQ0gyXVtDSDJdTihbQ0BASF0xW0NIM10pW0NAQEhdKFtPSF0pW0NAQEhdKFtDSDNdKS9DKFtDSDNdKT1OXFtDQEBIXShPW0NIM10pQzI9Qz1bQ0hdW0NIMl1bQ0BASF0oRilbQ0gyXVtDSDJdMg==

>  <s_glide_docking_method>  (1) 
confgen

>  <s_i_glide_gridfile>  (1) 
gpcr_5ht2c_6bqh_protein_autoprepared_prepared

>  <s_lp_Force_Field>  (1) 
S-OPLS

>  <s_lp_Variant>  (1) 
DiffSBDD_44_num_sample_100-7

>  <s_m_source_file>  (1) 
generated__ligand_DiffSBDD_2026-05-06_prepared.sdf

>  <GenAI_Model>  (1) 
DiffSBDD

>  <Protein>  (1) 
GPCR_5HT2C

$$$$
DiffSBDD_60_num_sample_100
     RDKit          3D

  0  0  0  0  0  0  0  0  0  0999 V3000
M  V30 BEGIN CTAB
M  V30 COUNTS 74 76 0 0 1
M  V30 BEGIN ATOM
M  V30 1 C 39.460721 27.032192 52.652732 0
M  V30 2 C 39.867310 37.208618 62.745314 0
M  V30 3 C 38.757621 36.804065 61.979203 0
M  V30 4 C 38.253188 30.173928 57.674186 0
M  V30 5 N 39.067438 28.994138 52.051281 0
M  V30 6 C 39.250239 25.712070 55.370897 0
M  V30 7 C 39.365404 31.229613 62.040956 0
M  V30 8 C 36.083373 29.290608 58.744790 0
M  V30 9 C 37.555795 29.648527 58.953289 0 CFG=2
M  V30 10 C 38.062039 30.122083 54.029709 0
M  V30 11 C 38.776315 32.396015 61.207795 0 CFG=1
M  V30 12 O 40.275561 28.264973 56.454823 0
M  V30 13 C 36.747602 32.754783 59.534815 0 CFG=1
M  V30 14 C 37.051400 33.770259 58.428872 0
M  V30 15 C 38.131283 29.397084 56.358882 0 CFG=1
M  V30 16 N 38.658694 30.294733 55.333938 0
M  V30 17 C 39.897029 33.369771 60.760306 0
M  V30 18 C 38.638895 28.942620 53.344575 0
M  V30 19 C 38.573110 27.082441 55.162244 0 CFG=1
M  V30 20 C 38.881062 28.039129 56.349588 0 CFG=1
M  V30 21 O 37.675606 37.621613 61.854087 0
M  V30 22 C 38.766713 35.555833 61.339017 0
M  V30 23 C 38.867040 27.675601 53.790979 0
M  V30 24 C 34.997063 33.115928 61.156117 0
M  V30 25 C 35.110433 31.719243 61.765580 0
M  V30 26 C 40.983281 36.358787 62.869417 0
M  V30 27 C 37.984336 31.896740 59.958953 0 CFG=2
M  V30 28 O 37.638540 30.510758 60.104151 0
M  V30 29 N 39.562293 27.840125 51.597835 0
M  V30 30 C 40.132149 31.676742 63.294559 0
M  V30 31 C 39.883534 34.706339 61.462846 0
M  V30 32 C 40.991234 35.109086 62.230352 0
M  V30 33 O 36.237564 33.529453 60.615108 0
M  V30 34 H 39.814567 26.021421 52.562129 0
M  V30 35 H 39.867348 38.169102 63.237638 0
M  V30 36 H 37.808244 31.140757 57.447919 0
M  V30 37 H 39.309968 30.347510 57.881466 0
M  V30 38 H 38.894549 24.974432 54.653588 0
M  V30 39 H 39.036131 25.314219 56.363504 0
M  V30 40 H 40.334326 25.781199 55.275029 0
M  V30 41 H 40.011053 30.609523 61.418289 0
M  V30 42 H 38.552745 30.582730 62.374375 0
M  V30 43 H 35.989530 28.328527 58.253501 0
M  V30 44 H 35.551816 30.021430 58.146714 0
M  V30 45 H 35.565090 29.220116 59.694713 0
M  V30 46 H 38.064406 28.734757 59.260382 0
M  V30 47 H 36.977870 30.038729 54.106026 0
M  V30 48 H 38.267232 31.021901 53.453489 0
M  V30 49 H 38.099552 32.911673 61.887463 0
M  V30 50 H 40.450145 28.669763 57.290459 0
M  V30 51 H 35.969562 32.106093 59.134583 0
M  V30 52 H 37.306191 33.292662 57.484092 0
M  V30 53 H 37.868920 34.427511 58.699132 0
M  V30 54 H 36.175478 34.393992 58.253485 0
M  V30 55 H 37.069064 29.226758 56.183080 0
M  V30 56 H 39.646707 30.068734 55.247964 0
M  V30 57 H 40.870624 32.892271 60.871096 0
M  V30 58 H 39.834449 33.622777 59.702473 0
M  V30 59 H 37.500798 26.890285 55.211338 0
M  V30 60 H 38.590424 27.507962 57.256731 0
M  V30 61 H 37.919110 35.249761 60.750722 0
M  V30 62 H 34.208723 33.169962 60.404054 0
M  V30 63 H 34.736959 33.824101 61.942207 0
M  V30 64 H 34.320903 31.532466 62.498127 0
M  V30 65 H 36.077429 31.621430 62.253503 0
M  V30 66 H 35.067496 30.947119 61.004368 0
M  V30 67 H 41.834827 36.668450 63.453480 0
M  V30 68 H 38.719531 31.964692 59.169576 0
M  V30 69 H 39.032352 29.815674 51.465048 0
M  V30 70 H 40.319347 30.830334 63.955440 0
M  V30 71 H 39.566114 32.421034 63.853609 0
M  V30 72 H 41.098374 32.115500 63.047469 0
M  V30 73 H 41.848839 34.460434 62.326210 0
M  V30 74 H 36.977344 37.230513 61.351666 0
M  V30 END ATOM
M  V30 BEGIN BOND
M  V30 1 2 3 2
M  V30 2 1 9 4
M  V30 3 1 9 8
M  V30 4 1 11 7
M  V30 5 1 14 13
M  V30 6 1 15 4
M  V30 7 1 16 10
M  V30 8 1 16 15
M  V30 9 1 17 11
M  V30 10 1 18 5
M  V30 11 1 18 10
M  V30 12 1 19 6
M  V30 13 1 20 12
M  V30 14 1 20 15
M  V30 15 1 20 19
M  V30 16 1 21 3
M  V30 17 1 22 3
M  V30 18 1 23 1
M  V30 19 2 23 18
M  V30 20 1 23 19
M  V30 21 1 25 24
M  V30 22 1 26 2
M  V30 23 1 27 11
M  V30 24 1 27 13
M  V30 25 1 28 9
M  V30 26 1 28 27
M  V30 27 2 29 1
M  V30 28 1 29 5
M  V30 29 1 30 7
M  V30 30 1 31 17
M  V30 31 2 31 22
M  V30 32 2 32 26
M  V30 33 1 32 31
M  V30 34 1 33 13
M  V30 35 1 33 24
M  V30 36 1 34 1
M  V30 37 1 35 2
M  V30 38 1 36 4
M  V30 39 1 37 4
M  V30 40 1 38 6
M  V30 41 1 39 6
M  V30 42 1 40 6
M  V30 43 1 41 7
M  V30 44 1 42 7
M  V30 45 1 43 8
M  V30 46 1 44 8
M  V30 47 1 45 8
M  V30 48 1 9 46 CFG=1
M  V30 49 1 47 10
M  V30 50 1 48 10
M  V30 51 1 11 49 CFG=1
M  V30 52 1 50 12
M  V30 53 1 13 51 CFG=3
M  V30 54 1 52 14
M  V30 55 1 53 14
M  V30 56 1 54 14
M  V30 57 1 15 55 CFG=3
M  V30 58 1 56 16
M  V30 59 1 57 17
M  V30 60 1 58 17
M  V30 61 1 19 59 CFG=3
M  V30 62 1 20 60 CFG=1
M  V30 63 1 61 22
M  V30 64 1 62 24
M  V30 65 1 63 24
M  V30 66 1 64 25
M  V30 67 1 65 25
M  V30 68 1 66 25
M  V30 69 1 67 26
M  V30 70 1 27 68 CFG=3
M  V30 71 1 69 5
M  V30 72 1 70 30
M  V30 73 1 71 30
M  V30 74 1 72 30
M  V30 75 1 73 32
M  V30 76 1 74 21
M  V30 END BOND
M  V30 END CTAB
M  END
>  <i_epik_Tot_Q>  (1) 
0

>  <i_epik_Tot_abs_Q>  (1) 
0

>  <i_i_glide_confnum>  (1) 
1095

>  <i_i_glide_lignum>  (1) 
154

>  <i_i_glide_posenum>  (1) 
362

>  <i_i_glide_rotatable_bonds>  (1) 
13

>  <i_lp_mmshare_version>  (1) 
72125

>  <i_m_source_file_index>  (1) 
61

>  <i_f3d_flags>  (1) 
0

>  <num_sample>  (1) 
100

>  <b_lp_Chiralities_Consistent>  (1) 
1

>  <r_epik_Charging_Adjusted_Penalty>  (1) 
0.96999093632078437

>  <r_epik_Ionization_Penalty>  (1) 
0.47106789062039978

>  <r_epik_Ionization_Penalty_Charging>  (1) 
0

>  <r_epik_Ionization_Penalty_Neutral>  (1) 
0.47106789062039978

>  <r_epik_State_Penalty>  (1) 
0.96999093632078437

>  <r_glide_ring_energy>  (1) 
0

>  <r_i_docking_score>  (1) 
-4.7033764283578723

>  <r_i_glide_ecoul>  (1) 
0.42691152350473449

>  <r_i_glide_eff_state_penalty>  (1) 
0.96999093632078437

>  <r_i_glide_einternal>  (1) 
16.832167069350909

>  <r_i_glide_emodel>  (1) 
-49.802205801936722

>  <r_i_glide_emodel_strain>  (1) 
2.3167018006571851

>  <r_i_glide_energy>  (1) 
-42.951383224829449

>  <r_i_glide_erotb>  (1) 
0.85721886193159891

>  <r_i_glide_esite>  (1) 
0

>  <r_i_glide_evdw>  (1) 
-43.378294748334184

>  <r_i_glide_gscore>  (1) 
-5.6733673646786569

>  <r_i_glide_gscore_strain>  (1) 
0

>  <r_i_glide_hbond>  (1) 
0

>  <r_i_glide_ligand_efficiency>  (1) 
-0.14252655843508705

>  <r_i_glide_ligand_efficiency_ln>  (1) 
-1.0460065648869774

>  <r_i_glide_ligand_efficiency_sa>  (1) 
-0.45715882911669797

>  <r_i_glide_lipo>  (1) 
-3.821230350599945

>  <r_i_glide_metal>  (1) 
-0

>  <r_i_glide_rewards>  (1) 
-0.60447786711931029

>  <r_lp_Energy>  (1) 
22.684680999999998

>  <r_lp_tautomer_probability>  (1) 
0.49999999999868239

>  <s_epik_cmdline>  (1) 
J2VwaWtfcHl0aG9uJywgJy1waHQnLCAnMS4wJywgJy1waCcsICc3LjQnLCAnLXRuJywgJzgnLCAnLW1hJywgJzUwMCcsICctaW1hZScsICc8aW5maWxlLm1hZT4nLCAnLW9tYWUnLCAnPG91dGZpbGUubWFlPic=

>  <s_epik_input>  (1) 
bjFbbkhdW2NIXWMoYzEyKVtDQEBIXShbQ0gzXSlbQ0BASF0oW09IXSlbQ0BIXShbTkhdW0NIMl0yKVtDSDJdW0NASF0oW0NIM10pT1tDQEBIXShbQ0BIXShbQ0gzXSlPW0NIMl1bQ0gzXSlbQ0BASF0oW0NIMl1bQ0gzXSlbQ0gyXUMoPVtDSF0zKVtDSDJdW0NIXT1bQ0hdQzM9Tw==

>  <s_glide_docking_method>  (1) 
confgen

>  <s_i_glide_gridfile>  (1) 
gpcr_5ht2c_6bqh_protein_autoprepared_prepared

>  <s_lp_Force_Field>  (1) 
S-OPLS

>  <s_lp_Variant>  (1) 
DiffSBDD_60_num_sample_100-3

>  <s_m_source_file>  (1) 
generated__ligand_DiffSBDD_2026-05-06_prepared.sdf

>  <GenAI_Model>  (1) 
DiffSBDD

>  <Protein>  (1) 
GPCR_5HT2C

$$$$
DiffSBDD_90_num_sample_100
     RDKit          3D

  0  0  0  0  0  0  0  0  0  0999 V3000
M  V30 BEGIN CTAB
M  V30 COUNTS 84 87 0 0 1
M  V30 BEGIN ATOM
M  V30 1 C 38.880022 30.297055 54.513273 0
M  V30 2 O 35.068163 33.570827 61.653740 0
M  V30 3 F 38.098377 24.154770 54.653513 0
M  V30 4 C 40.052031 28.018162 59.278688 0 CFG=1
M  V30 5 C 38.774244 34.098804 61.762878 0 CFG=2
M  V30 6 C 38.395274 33.115693 59.516933 0 CFG=1
M  V30 7 C 41.651565 28.493229 62.679081 0
M  V30 8 C 37.678331 33.474293 57.123476 0
M  V30 9 C 40.285966 28.822577 60.640918 0
M  V30 10 N 36.293702 34.309115 61.453697 0
M  V30 11 C 38.917615 26.306434 54.090146 0
M  V30 12 C 40.664882 30.274394 60.429150 0
M  V30 13 C 39.213343 34.152942 60.292008 0
M  V30 14 C 37.505136 32.407080 60.541978 0
M  V30 15 O 39.525203 32.215111 63.053207 0
M  V30 16 N 38.922311 30.041873 55.944488 0
M  V30 17 C 37.592080 33.780081 58.424994 0
M  V30 18 F 36.706024 25.606521 53.945856 0
M  V30 19 C 38.853304 25.771430 56.981754 0 CFG=1
M  V30 20 N 38.781291 28.697510 56.272364 0
M  V30 21 C 40.177719 26.083245 54.920915 0
M  V30 22 C 38.080887 30.972340 56.698899 0
M  V30 23 O 41.362337 28.171958 61.316223 0
M  V30 24 C 39.075757 28.893974 61.576321 0
M  V30 25 C 39.476799 31.661247 54.244357 0
M  V30 26 C 37.540726 25.836897 56.156118 0
M  V30 27 C 38.589886 32.415858 56.532564 0 CFG=1
M  V30 28 C 37.391477 33.375948 61.721093 0 CFG=1
M  V30 29 C 38.653669 27.400470 59.076985 0
M  V30 30 O 40.982276 33.854312 62.676061 0 CHG=-1
M  V30 31 C 40.062634 28.073910 56.600111 0 CFG=1
M  V30 32 C 38.751548 32.753169 55.053538 0
M  V30 33 O 38.667319 35.427514 62.253234 0
M  V30 34 C 40.628140 28.601511 57.958267 0
M  V30 35 C 40.052614 26.536462 56.390311 0 CFG=1
M  V30 36 C 38.645923 25.986694 58.467307 0
M  V30 37 C 37.791175 25.452819 54.689041 0
M  V30 38 C 39.854545 33.320848 62.570701 0
M  V30 39 H 39.460342 29.539683 53.985833 0
M  V30 40 H 37.849785 30.239186 54.159764 0
M  V30 41 H 34.657362 34.061780 62.352273 0
M  V30 42 H 40.682475 27.162641 59.418325 0
M  V30 43 H 39.067343 32.404682 59.061810 0
M  V30 44 H 42.550302 27.962120 62.992095 0
M  V30 45 H 41.839403 29.555323 62.827774 0
M  V30 46 H 40.854735 28.177945 63.353785 0
M  V30 47 H 37.067437 34.010624 56.424198 0
M  V30 48 H 36.221936 34.575628 60.481012 0
M  V30 49 H 39.112905 26.025260 53.058718 0
M  V30 50 H 38.629524 27.353834 54.048972 0
M  V30 51 H 39.866197 30.746536 59.880093 0
M  V30 52 H 40.816076 30.832960 61.350137 0
M  V30 53 H 41.561139 30.357616 59.853487 0
M  V30 54 H 40.267303 33.933480 60.178682 0
M  V30 55 H 39.086210 35.152402 59.882993 0
M  V30 56 H 38.014306 31.518717 60.901342 0
M  V30 57 H 36.552412 32.070707 60.131765 0
M  V30 58 H 36.908896 34.554123 58.734772 0
M  V30 59 H 39.137914 24.719168 56.918852 0
M  V30 60 H 38.345865 28.216802 55.488900 0
M  V30 61 H 40.267351 25.005121 54.946506 0
M  V30 62 H 41.067235 26.444588 54.421836 0
M  V30 63 H 38.070890 30.690155 57.751181 0
M  V30 64 H 37.067402 30.866019 56.324718 0
M  V30 65 H 38.267410 29.331304 61.000825 0
M  V30 66 H 38.800701 27.918142 61.976917 0
M  V30 67 H 39.227584 29.555922 62.431120 0
M  V30 68 H 40.530028 31.621315 54.526276 0
M  V30 69 H 39.431180 31.874615 53.176646 0
M  V30 70 H 36.804062 25.149563 56.573444 0
M  V30 71 H 37.085643 26.820940 56.221649 0
M  V30 72 H 39.574170 32.498215 56.992447 0
M  V30 73 H 37.184504 32.821474 62.640661 0
M  V30 74 H 38.267440 27.221458 60.062057 0
M  V30 75 H 37.943746 28.081567 58.609487 0
M  V30 76 H 40.770238 28.439424 55.854932 0
M  V30 77 H 37.776476 32.926135 54.593788 0
M  V30 78 H 39.289809 33.696543 55.053497 0
M  V30 79 H 37.881095 35.793355 61.878803 0
M  V30 80 H 41.709595 28.458949 57.966118 0
M  V30 81 H 40.490004 29.676175 57.952606 0
M  V30 82 H 40.949484 26.174094 56.891412 0
M  V30 83 H 39.426202 25.449675 58.982053 0
M  V30 84 H 37.709532 25.473714 58.653439 0
M  V30 END ATOM
M  V30 BEGIN BOND
M  V30 1 1 9 4
M  V30 2 1 10 2
M  V30 3 1 12 9
M  V30 4 1 13 5
M  V30 5 1 13 6
M  V30 6 1 14 6
M  V30 7 1 16 1
M  V30 8 1 17 6
M  V30 9 2 17 8
M  V30 10 1 20 16
M  V30 11 1 21 11
M  V30 12 1 22 16
M  V30 13 1 23 7
M  V30 14 1 23 9
M  V30 15 1 24 9
M  V30 16 1 25 1
M  V30 17 1 26 19
M  V30 18 1 27 8
M  V30 19 1 27 22
M  V30 20 1 28 5
M  V30 21 1 28 10
M  V30 22 1 28 14
M  V30 23 1 29 4
M  V30 24 1 31 20
M  V30 25 1 32 25
M  V30 26 1 32 27
M  V30 27 1 5 33 CFG=1
M  V30 28 1 34 4
M  V30 29 1 34 31
M  V30 30 1 35 19
M  V30 31 1 35 21
M  V30 32 1 35 31
M  V30 33 1 36 19
M  V30 34 1 36 29
M  V30 35 1 37 3
M  V30 36 1 37 11
M  V30 37 1 37 18
M  V30 38 1 37 26
M  V30 39 1 38 5
M  V30 40 2 38 15
M  V30 41 1 38 30
M  V30 42 1 39 1
M  V30 43 1 40 1
M  V30 44 1 41 2
M  V30 45 1 4 42 CFG=1
M  V30 46 1 6 43 CFG=3
M  V30 47 1 44 7
M  V30 48 1 45 7
M  V30 49 1 46 7
M  V30 50 1 47 8
M  V30 51 1 48 10
M  V30 52 1 49 11
M  V30 53 1 50 11
M  V30 54 1 51 12
M  V30 55 1 52 12
M  V30 56 1 53 12
M  V30 57 1 54 13
M  V30 58 1 55 13
M  V30 59 1 56 14
M  V30 60 1 57 14
M  V30 61 1 58 17
M  V30 62 1 19 59 CFG=1
M  V30 63 1 60 20
M  V30 64 1 61 21
M  V30 65 1 62 21
M  V30 66 1 63 22
M  V30 67 1 64 22
M  V30 68 1 65 24
M  V30 69 1 66 24
M  V30 70 1 67 24
M  V30 71 1 68 25
M  V30 72 1 69 25
M  V30 73 1 70 26
M  V30 74 1 71 26
M  V30 75 1 27 72 CFG=1
M  V30 76 1 28 73 CFG=1
M  V30 77 1 74 29
M  V30 78 1 75 29
M  V30 79 1 31 76 CFG=3
M  V30 80 1 77 32
M  V30 81 1 78 32
M  V30 82 1 79 33
M  V30 83 1 80 34
M  V30 84 1 81 34
M  V30 85 1 35 82 CFG=1
M  V30 86 1 83 36
M  V30 87 1 84 36
M  V30 END BOND
M  V30 END CTAB
M  END
>  <i_epik_Tot_Q>  (1) 
-1

>  <i_epik_Tot_abs_Q>  (1) 
1

>  <i_i_glide_confnum>  (1) 
1880

>  <i_i_glide_lignum>  (1) 
231

>  <i_i_glide_posenum>  (1) 
204

>  <i_i_glide_rotatable_bonds>  (1) 
10

>  <i_lp_mmshare_version>  (1) 
72125

>  <i_m_source_file_index>  (1) 
91

>  <i_f3d_flags>  (1) 
0

>  <num_sample>  (1) 
100

>  <b_lp_Chiralities_Consistent>  (1) 
1

>  <r_epik_Charging_Adjusted_Penalty>  (1) 
0.43821527866000726

>  <r_epik_Ionization_Penalty>  (1) 
0.52002734918543769

>  <r_epik_Ionization_Penalty_Charging>  (1) 
0.00012691742049533285

>  <r_epik_Ionization_Penalty_Neutral>  (1) 
0.51990043176494238

>  <r_epik_State_Penalty>  (1) 
0.43808836123951195

>  <r_glide_ring_energy>  (1) 
2.1449054143447368

>  <r_i_docking_score>  (1) 
-4.7008957661149386

>  <r_i_glide_ecoul>  (1) 
0.45785328299680594

>  <r_i_glide_eff_state_penalty>  (1) 
0.43808836123951195

>  <r_i_glide_einternal>  (1) 
35.256310898051851

>  <r_i_glide_emodel>  (1) 
-4.9904796429139076

>  <r_i_glide_emodel_strain>  (1) 
1.646878191172874

>  <r_i_glide_energy>  (1) 
-19.849289173398162

>  <r_i_glide_erotb>  (1) 
0.42146348941000378

>  <r_i_glide_esite>  (1) 
0

>  <r_i_glide_evdw>  (1) 
-20.307142456394967

>  <r_i_glide_gscore>  (1) 
-5.1389841273544503

>  <r_i_glide_gscore_strain>  (1) 
0

>  <r_i_glide_hbond>  (1) 
-0.092596879083140474

>  <r_i_glide_ligand_efficiency>  (1) 
-0.12370778331881417

>  <r_i_glide_ligand_efficiency_ln>  (1) 
-1.0136514135173045

>  <r_i_glide_ligand_efficiency_sa>  (1) 
-0.41590252514746839

>  <r_i_glide_lipo>  (1) 
-3.5360048531479427

>  <r_i_glide_metal>  (1) 
-0

>  <r_i_glide_rewards>  (1) 
-0.98516675416314248

>  <r_lp_Energy>  (1) 
56.361058

>  <s_epik_Chemistry_Notes>  (1) 
This compound has a N-S or N-O group and may undergo hydrolysis at high or low pH.

>  <s_epik_cmdline>  (1) 
J2VwaWtfcHl0aG9uJywgJy1waHQnLCAnMS4wJywgJy1waCcsICc3LjQnLCAnLXRuJywgJzgnLCAnLW1hJywgJzUwMCcsICctaW1hZScsICc8aW5maWxlLm1hZT4nLCAnLW9tYWUnLCAnPG91dGZpbGUubWFlPic=

>  <s_epik_input>  (1) 
RkMoRikoW0NIMl0xKVtDSDJdW0NIMl1bQ0BIXShbQ0BASF0xMilbQ0BIXShbQ0gyXVtDQEhdKFtDSDJdW0NIMl0yKUMoW0NIM10pKFtDSDNdKU9bQ0gzXSlbTkhdTjNbQ0gyXVtDSDJdW0NIMl1bQ0BIXShbQ0gyXTMpL1tDSF09W0NIXVxbQ0BASF0oW0NIMl1bQ0BdNChbT0hdKUMoPU8pW09IXSlbQ0gyXVtDQEBIXTRbTkhdW09IXQ==

>  <s_glide_docking_method>  (1) 
confgen

>  <s_i_glide_gridfile>  (1) 
gpcr_5ht2c_6bqh_protein_autoprepared_prepared

>  <s_lp_Force_Field>  (1) 
S-OPLS

>  <s_lp_Variant>  (1) 
DiffSBDD_90_num_sample_100-3

>  <s_m_source_file>  (1) 
generated__ligand_DiffSBDD_2026-05-06_prepared.sdf

>  <GenAI_Model>  (1) 
DiffSBDD

>  <Protein>  (1) 
GPCR_5HT2C

$$$$
DiffSBDD_43_num_sample_100
     RDKit          3D

  0  0  0  0  0  0  0  0  0  0999 V3000
M  V30 BEGIN CTAB
M  V30 COUNTS 72 75 0 0 1
M  V30 BEGIN ATOM
M  V30 1 C 37.783181 28.536665 52.959714 0 CFG=2
M  V30 2 N 38.010157 31.752690 60.026662 0
M  V30 3 O 39.410781 28.492096 61.086645 0
M  V30 4 C 39.264700 26.521557 52.359240 0
M  V30 5 C 39.328357 28.923276 56.591695 0
M  V30 6 C 39.625846 30.002210 53.898247 0
M  V30 7 C 40.008036 31.184316 54.410688 0
M  V30 8 C 38.458012 28.322709 55.486776 0 CFG=1
M  V30 9 C 38.314614 29.278640 54.232480 0 CFG=2
M  V30 10 F 36.777852 27.722020 53.270564 0
M  V30 11 C 37.016300 29.621416 59.459427 0 CFG=2
M  V30 12 C 40.333322 26.421434 53.421633 0
M  V30 13 O 35.692467 32.763916 59.453546 0
M  V30 14 C 37.525088 28.723384 58.350747 0 CFG=2
M  V30 15 C 37.342403 34.308783 60.818023 0
M  V30 16 C 39.000202 28.530593 58.047371 0 CFG=2
M  V30 17 C 38.257549 36.852189 61.238616 0
M  V30 18 O 37.068812 30.044133 58.095521 0
M  V30 19 C 36.677412 35.435653 60.310328 0
M  V30 20 C 37.940808 39.212344 60.848332 0
M  V30 21 C 38.764585 27.890013 51.954330 0
M  V30 22 C 40.261203 36.009598 62.577203 0
M  V30 23 C 38.753186 26.818359 55.327160 0
M  V30 24 O 36.267245 32.154279 61.853505 0
M  V30 25 C 37.985707 30.327889 60.380357 0 CFG=1
M  V30 26 C 39.886786 29.422589 58.932700 0 CFG=1
M  V30 27 S 36.666784 32.688636 60.547375 0
M  V30 28 C 37.251135 30.351130 54.605965 0
M  V30 29 C 39.390646 29.702853 60.357337 0 CFG=2
M  V30 30 C 40.105550 26.546209 54.733166 0
M  V30 31 C 38.524294 34.461758 61.549623 0
M  V30 32 N 37.120058 36.700515 60.502014 0
M  V30 33 C 38.994791 35.767229 61.772025 0
M  V30 34 C 41.330815 28.933324 58.944715 0
M  V30 35 O 38.675084 38.151127 61.453520 0
M  V30 36 H 37.269498 29.221425 52.317111 0
M  V30 37 H 38.111134 31.860022 59.015338 0
M  V30 38 H 40.302367 28.184934 61.143589 0
M  V30 39 H 39.615403 26.021432 51.461317 0
M  V30 40 H 38.388388 26.021452 52.735684 0
M  V30 41 H 39.205423 30.000686 56.549732 0
M  V30 42 H 40.373845 28.737242 56.351985 0
M  V30 43 H 40.267425 29.519376 53.203841 0
M  V30 44 H 40.946776 31.621252 54.127371 0
M  V30 45 H 39.394961 31.723378 55.114904 0
M  V30 46 H 37.467416 28.297019 55.887057 0
M  V30 47 H 35.995284 29.517516 59.818440 0
M  V30 48 H 41.333327 26.231519 53.078502 0
M  V30 49 H 36.853442 27.953529 57.976047 0
M  V30 50 H 39.237576 27.484098 58.235191 0
M  V30 51 H 35.765193 35.327591 59.745009 0
M  V30 52 H 38.416352 40.161260 61.092206 0
M  V30 53 H 37.925272 39.127189 59.761503 0
M  V30 54 H 36.914850 39.245015 61.221085 0
M  V30 55 H 39.571144 28.530957 51.607809 0
M  V30 56 H 38.186368 27.723038 51.045504 0
M  V30 57 H 40.633755 35.086430 63.023963 0
M  V30 58 H 41.049839 36.419673 61.943220 0
M  V30 59 H 40.068178 36.716906 63.384037 0
M  V30 60 H 38.721613 26.324346 56.297863 0
M  V30 61 H 37.963478 26.320818 54.774919 0
M  V30 62 H 37.637518 30.247296 61.405866 0
M  V30 63 H 39.867348 30.407720 58.474103 0
M  V30 64 H 36.267438 29.913255 54.714702 0
M  V30 65 H 37.443616 30.848826 55.554875 0
M  V30 66 H 37.184586 31.136422 53.853662 0
M  V30 67 H 40.076238 30.387498 60.858477 0
M  V30 68 H 40.928327 26.460303 55.428704 0
M  V30 69 H 39.046592 33.604676 61.946185 0
M  V30 70 H 41.457280 27.993018 59.481970 0
M  V30 71 H 41.769120 28.822368 57.956761 0
M  V30 72 H 41.867258 29.711411 59.453558 0
M  V30 END ATOM
M  V30 BEGIN BOND
M  V30 1 2 7 6
M  V30 2 1 8 5
M  V30 3 1 9 1
M  V30 4 1 9 6
M  V30 5 1 9 8
M  V30 6 1 10 1
M  V30 7 1 12 4
M  V30 8 1 14 11
M  V30 9 1 16 5
M  V30 10 1 16 14
M  V30 11 1 18 11
M  V30 12 1 18 14
M  V30 13 1 19 15
M  V30 14 1 21 1
M  V30 15 1 21 4
M  V30 16 1 23 8
M  V30 17 1 25 2
M  V30 18 1 25 11
M  V30 19 1 26 16
M  V30 20 1 27 2
M  V30 21 2 27 13
M  V30 22 1 27 15
M  V30 23 2 27 24
M  V30 24 1 9 28 CFG=1
M  V30 25 1 29 3
M  V30 26 1 29 25
M  V30 27 1 29 26
M  V30 28 2 30 12
M  V30 29 1 30 23
M  V30 30 2 31 15
M  V30 31 1 32 17
M  V30 32 2 32 19
M  V30 33 2 33 17
M  V30 34 1 33 22
M  V30 35 1 33 31
M  V30 36 1 34 26
M  V30 37 1 35 17
M  V30 38 1 35 20
M  V30 39 1 1 36 CFG=3
M  V30 40 1 37 2
M  V30 41 1 38 3
M  V30 42 1 39 4
M  V30 43 1 40 4
M  V30 44 1 41 5
M  V30 45 1 42 5
M  V30 46 1 43 6
M  V30 47 1 44 7
M  V30 48 1 45 7
M  V30 49 1 8 46 CFG=1
M  V30 50 1 11 47 CFG=1
M  V30 51 1 48 12
M  V30 52 1 14 49 CFG=3
M  V30 53 1 16 50 CFG=3
M  V30 54 1 51 19
M  V30 55 1 52 20
M  V30 56 1 53 20
M  V30 57 1 54 20
M  V30 58 1 55 21
M  V30 59 1 56 21
M  V30 60 1 57 22
M  V30 61 1 58 22
M  V30 62 1 59 22
M  V30 63 1 60 23
M  V30 64 1 61 23
M  V30 65 1 25 62 CFG=1
M  V30 66 1 26 63 CFG=3
M  V30 67 1 64 28
M  V30 68 1 65 28
M  V30 69 1 66 28
M  V30 70 1 29 67 CFG=1
M  V30 71 1 68 30
M  V30 72 1 69 31
M  V30 73 1 70 34
M  V30 74 1 71 34
M  V30 75 1 72 34
M  V30 END BOND
M  V30 END CTAB
M  END
>  <i_epik_Tot_Q>  (1) 
0

>  <i_epik_Tot_abs_Q>  (1) 
0

>  <i_i_glide_confnum>  (1) 
125

>  <i_i_glide_lignum>  (1) 
107

>  <i_i_glide_posenum>  (1) 
371

>  <i_i_glide_rotatable_bonds>  (1) 
8

>  <i_lp_mmshare_version>  (1) 
72125

>  <i_m_source_file_index>  (1) 
44

>  <i_f3d_flags>  (1) 
0

>  <num_sample>  (1) 
100

>  <b_lp_Chiralities_Consistent>  (1) 
1

>  <r_epik_Charging_Adjusted_Penalty>  (1) 
0

>  <r_epik_Ionization_Penalty>  (1) 
0.00039719250782603149

>  <r_epik_Ionization_Penalty_Charging>  (1) 
0

>  <r_epik_Ionization_Penalty_Neutral>  (1) 
0.00039719250782603149

>  <r_epik_State_Penalty>  (1) 
-0

>  <r_glide_ring_energy>  (1) 
0

>  <r_i_docking_score>  (1) 
-4.6925752442374344

>  <r_i_glide_ecoul>  (1) 
0.16366045490672798

>  <r_i_glide_eff_state_penalty>  (1) 
-0

>  <r_i_glide_einternal>  (1) 
6.170905524227317

>  <r_i_glide_emodel>  (1) 
-36.891754045294348

>  <r_i_glide_emodel_strain>  (1) 
0.9959880134851602

>  <r_i_glide_energy>  (1) 
-30.914800917721056

>  <r_i_glide_erotb>  (1) 
0.47480880431145434

>  <r_i_glide_esite>  (1) 
-0.18307508051096877

>  <r_i_glide_evdw>  (1) 
-31.078461372627785

>  <r_i_glide_gscore>  (1) 
-4.6925752442374344

>  <r_i_glide_gscore_strain>  (1) 
0

>  <r_i_glide_hbond>  (1) 
0

>  <r_i_glide_ligand_efficiency>  (1) 
-0.13407357840678383

>  <r_i_glide_ligand_efficiency_ln>  (1) 
-1.0301244122064195

>  <r_i_glide_ligand_efficiency_sa>  (1) 
-0.43856356541285907

>  <r_i_glide_lipo>  (1) 
-4.4025617900319025

>  <r_i_glide_metal>  (1) 
-0

>  <r_i_glide_rewards>  (1) 
0.94762682238936335

>  <r_lp_Energy>  (1) 
35.002376999999996

>  <r_lp_tautomer_probability>  (1) 
1

>  <s_epik_cmdline>  (1) 
J2VwaWtfcHl0aG9uJywgJy1waHQnLCAnMS4wJywgJy1waCcsICc3LjQnLCAnLXRuJywgJzgnLCAnLW1hJywgJzUwMCcsICctaW1hZScsICc8aW5maWxlLm1hZT4nLCAnLW9tYWUnLCAnPG91dGZpbGUubWFlPic=

>  <s_epik_input>  (1) 
W0NIMl09W0NIXVtDQEBdMShbQ0gzXSlbQ0BIXShGKVtDSDJdW0NIMl0vW0NIXT1bQ0hdXFtDSDJdW0NASF0xW0NIMl1bQ0BIXShbQ0BIXShPMilbQ0BIXTIzKVtDQEhdKFtDSDNdKVtDQEhdKFtPSF0pW0NASF0zW05IXVMoPU8pKD1PKWM0W2NIXW5jKGMoW0NIM10pW2NIXTQpT1tDSDNd

>  <s_glide_docking_method>  (1) 
confgen

>  <s_i_glide_gridfile>  (1) 
gpcr_5ht2c_6bqh_protein_autoprepared_prepared

>  <s_lp_Force_Field>  (1) 
S-OPLS

>  <s_lp_Variant>  (1) 
DiffSBDD_43_num_sample_100-1

>  <s_m_source_file>  (1) 
generated__ligand_DiffSBDD_2026-05-06_prepared.sdf

>  <GenAI_Model>  (1) 
DiffSBDD

>  <Protein>  (1) 
GPCR_5HT2C

$$$$
DiffSBDD_1_num_sample_100
     RDKit          3D

  0  0  0  0  0  0  0  0  0  0999 V3000
M  V30 BEGIN CTAB
M  V30 COUNTS 63 66 0 0 1
M  V30 BEGIN ATOM
M  V30 1 C 41.141522 33.810045 62.863775 0
M  V30 2 C 37.801922 28.584102 55.394943 0
M  V30 3 O 42.391744 34.436429 64.615813 0
M  V30 4 C 37.667293 30.404392 57.154847 0 CFG=1
M  V30 5 C 40.565839 32.832007 61.912046 0
M  V30 6 C 38.667420 32.504374 57.680695 0
M  V30 7 C 38.450513 24.821456 55.910485 0
M  V30 8 C 37.596184 28.559314 53.050096 0
M  V30 9 N 38.184951 27.278919 53.520098 0 CHG=1
M  V30 10 C 36.235511 31.697869 60.466490 0
M  V30 11 C 39.601946 33.353534 60.829509 0
M  V30 12 C 38.930060 26.271046 55.754317 0 CFG=2
M  V30 13 C 37.918149 27.142789 54.970356 0 CFG=1
M  V30 14 C 37.872258 32.606206 59.007966 0 CFG=2
M  V30 15 C 37.509204 31.899233 61.309273 0
M  V30 16 C 41.938184 33.455563 63.820238 0
M  V30 17 N 38.930318 31.113705 57.290751 0
M  V30 18 C 37.850586 28.979807 56.686774 0
M  V30 19 O 40.833037 31.629487 61.953739 0
M  V30 20 C 40.361941 26.389913 55.225452 0
M  V30 21 C 41.730745 35.621437 64.013979 0
M  V30 22 C 36.938576 30.380239 58.519329 0
M  V30 23 C 37.601260 29.530012 54.246182 0
M  V30 24 N 36.672397 31.739000 59.053501 0 CFG=1 CHG=1
M  V30 25 O 37.282485 33.894057 59.085543 0
M  V30 26 C 40.818981 35.234713 62.746013 0
M  V30 27 C 38.625118 32.273469 60.308868 0 CFG=2
M  V30 28 O 39.067387 24.271479 57.053497 0
M  V30 29 H 37.067449 30.907684 56.402917 0
M  V30 30 H 39.596597 33.067099 57.756689 0
M  V30 31 H 38.097717 32.986246 56.883522 0
M  V30 32 H 38.667410 24.228849 55.022557 0
M  V30 33 H 37.373287 24.771464 56.073397 0
M  V30 34 H 36.571435 28.367532 52.729530 0
M  V30 35 H 38.139652 28.951495 52.189806 0
M  V30 36 H 39.185428 27.331490 53.395008 0
M  V30 37 H 35.698592 30.783509 60.718294 0
M  V30 38 H 35.546908 32.526978 60.636944 0
M  V30 39 H 40.201811 33.734862 60.006052 0
M  V30 40 H 39.026343 34.197671 61.206889 0
M  V30 41 H 38.983275 26.635975 56.775024 0
M  V30 42 H 36.914556 26.728321 55.061218 0
M  V30 43 H 37.777357 30.994137 61.856031 0
M  V30 44 H 37.346607 32.687547 62.045549 0
M  V30 45 H 42.292520 32.465455 64.070803 0
M  V30 46 H 39.405871 31.118355 56.393185 0
M  V30 47 H 37.987063 28.246612 57.464214 0
M  V30 48 H 40.471610 26.012961 54.208522 0
M  V30 49 H 40.667404 27.433095 55.252342 0
M  V30 50 H 41.059228 25.839195 55.853496 0
M  V30 51 H 41.117325 36.095414 64.780848 0
M  V30 52 H 42.495935 36.343303 63.725174 0
M  V30 53 H 35.983452 29.862288 58.418280 0
M  V30 54 H 37.528010 29.809543 59.239868 0
M  V30 55 H 36.667561 30.088491 54.325119 0
M  V30 56 H 38.435614 30.230565 54.189492 0
M  V30 57 H 37.314855 34.305944 58.232982 0
M  V30 58 H 41.177893 35.671934 61.812948 0
M  V30 59 H 39.762298 35.447753 62.911886 0
M  V30 60 H 39.189224 31.363760 60.097018 0
M  V30 61 H 38.790217 24.749209 57.820296 0
M  V30 62 H 37.820390 26.495381 52.993953 0
M  V30 63 H 35.952929 32.095661 58.422579 0
M  V30 END ATOM
M  V30 BEGIN BOND
M  V30 1 1 5 1
M  V30 2 1 9 8
M  V30 3 1 11 5
M  V30 4 1 12 7
M  V30 5 1 13 2
M  V30 6 1 13 9
M  V30 7 1 13 12
M  V30 8 1 14 6
M  V30 9 1 15 10
M  V30 10 2 16 1
M  V30 11 1 16 3
M  V30 12 1 17 4
M  V30 13 1 17 6
M  V30 14 2 18 2
M  V30 15 1 18 4
M  V30 16 2 19 5
M  V30 17 1 20 12
M  V30 18 1 21 3
M  V30 19 1 22 4
M  V30 20 1 23 2
M  V30 21 1 23 8
M  V30 22 1 24 10
M  V30 23 1 24 14
M  V30 24 1 24 22
M  V30 25 1 14 25 CFG=1
M  V30 26 1 26 1
M  V30 27 1 26 21
M  V30 28 1 27 11
M  V30 29 1 27 14
M  V30 30 1 27 15
M  V30 31 1 28 7
M  V30 32 1 4 29 CFG=3
M  V30 33 1 30 6
M  V30 34 1 31 6
M  V30 35 1 32 7
M  V30 36 1 33 7
M  V30 37 1 34 8
M  V30 38 1 35 8
M  V30 39 1 36 9
M  V30 40 1 37 10
M  V30 41 1 38 10
M  V30 42 1 39 11
M  V30 43 1 40 11
M  V30 44 1 12 41 CFG=1
M  V30 45 1 13 42 CFG=3
M  V30 46 1 43 15
M  V30 47 1 44 15
M  V30 48 1 45 16
M  V30 49 1 46 17
M  V30 50 1 47 18
M  V30 51 1 48 20
M  V30 52 1 49 20
M  V30 53 1 50 20
M  V30 54 1 51 21
M  V30 55 1 52 21
M  V30 56 1 53 22
M  V30 57 1 54 22
M  V30 58 1 55 23
M  V30 59 1 56 23
M  V30 60 1 57 25
M  V30 61 1 58 26
M  V30 62 1 59 26
M  V30 63 1 27 60 CFG=3
M  V30 64 1 61 28
M  V30 65 1 62 9
M  V30 66 1 24 63 CFG=3
M  V30 END BOND
M  V30 END CTAB
M  END
>  <i_epik_Tot_Q>  (1) 
2

>  <i_epik_Tot_abs_Q>  (1) 
2

>  <i_i_glide_confnum>  (1) 
101

>  <i_i_glide_lignum>  (1) 
12

>  <i_i_glide_posenum>  (1) 
334

>  <i_i_glide_rotatable_bonds>  (1) 
8

>  <i_lp_mmshare_version>  (1) 
72125

>  <i_m_source_file_index>  (1) 
2

>  <i_f3d_flags>  (1) 
0

>  <num_sample>  (1) 
100

>  <b_lp_Chiralities_Consistent>  (1) 
1

>  <r_epik_Charging_Adjusted_Penalty>  (1) 
2.3622130296898831

>  <r_epik_Ionization_Penalty>  (1) 
1.4312966064593899

>  <r_epik_Ionization_Penalty_Charging>  (1) 
1.1852885594971458

>  <r_epik_Ionization_Penalty_Neutral>  (1) 
0.24600804696224418

>  <r_epik_State_Penalty>  (1) 
1.176924470192737

>  <r_glide_ring_energy>  (1) 
0

>  <r_i_docking_score>  (1) 
-4.6924128064213999

>  <r_i_glide_ecoul>  (1) 
-6.4702677327865086

>  <r_i_glide_eff_state_penalty>  (1) 
1.176924470192737

>  <r_i_glide_einternal>  (1) 
8.6327389507756749

>  <r_i_glide_emodel>  (1) 
-52.560944623399813

>  <r_i_glide_emodel_strain>  (1) 
1.9217848806679569

>  <r_i_glide_energy>  (1) 
-39.742866109268206

>  <r_i_glide_erotb>  (1) 
0.75687532201182384

>  <r_i_glide_esite>  (1) 
-0.15204227147543051

>  <r_i_glide_evdw>  (1) 
-33.272598376481696

>  <r_i_glide_gscore>  (1) 
-5.8693372766141367

>  <r_i_glide_gscore_strain>  (1) 
0

>  <r_i_glide_hbond>  (1) 
-0.16853534963119288

>  <r_i_glide_ligand_efficiency>  (1) 
-0.16758617165790715

>  <r_i_glide_ligand_efficiency_ln>  (1) 
-1.0831466509487633

>  <r_i_glide_ligand_efficiency_sa>  (1) 
-0.50889032069526263

>  <r_i_glide_lipo>  (1) 
-2.4485752418519158

>  <r_i_glide_metal>  (1) 
-0

>  <r_i_glide_rewards>  (1) 
-1.2228896569253616

>  <r_lp_Energy>  (1) 
21.512373

>  <s_epik_cmdline>  (1) 
J2VwaWtfcHl0aG9uJywgJy1waHQnLCAnMS4wJywgJy1waCcsICc3LjQnLCAnLXRuJywgJzgnLCAnLW1hJywgJzUwMCcsICctaW1hZScsICc8aW5maWxlLm1hZT4nLCAnLW9tYWUnLCAnPG91dGZpbGUubWFlPic=

>  <s_epik_input>  (1) 
W0NIMl0xW0NIMl1PW0NIXT1DMUMoPU8pW0NIMl1bQ0BIXTJbQ0gyXVtDSDJdTihbQ0BAXTIzW09IXSlbQ0gyXVtDQEBIXShbTkhdW0NIMl0zKVxbQ0hdPUM0XFtDQEBIXShbTkhdW0NIMl1bQ0gyXTQpW0NASF0oW0NIM10pW0NIMl1bT0hd

>  <s_glide_docking_method>  (1) 
confgen

>  <s_i_glide_gridfile>  (1) 
gpcr_5ht2c_6bqh_protein_autoprepared_prepared

>  <s_lp_Force_Field>  (1) 
S-OPLS

>  <s_lp_Variant>  (1) 
DiffSBDD_1_num_sample_100-6

>  <s_m_source_file>  (1) 
generated__ligand_DiffSBDD_2026-05-06_prepared.sdf

>  <GenAI_Model>  (1) 
DiffSBDD

>  <Protein>  (1) 
GPCR_5HT2C

$$$$
DiffSBDD_93_num_sample_100
     RDKit          3D

  0  0  0  0  0  0  0  0  0  0999 V3000
M  V30 BEGIN CTAB
M  V30 COUNTS 74 77 0 0 1
M  V30 BEGIN ATOM
M  V30 1 C 38.622993 29.089652 55.759992 0
M  V30 2 S 38.872172 32.243499 61.894990 0
M  V30 3 C 38.309609 28.358513 53.336306 0 CFG=2
M  V30 4 O 41.930920 28.728971 64.156666 0
M  V30 5 C 39.939832 35.525613 60.542513 0
M  V30 6 C 40.136287 29.177214 61.893536 0 CFG=1
M  V30 7 C 37.065478 34.839689 59.466126 0
M  V30 8 C 37.981569 32.558529 59.318224 0
M  V30 9 C 39.226335 29.505129 52.905697 0
M  V30 10 N 37.717568 30.222783 60.251346 0 CHG=1
M  V30 11 C 39.052101 36.523761 61.258246 0
M  V30 12 C 38.221961 28.173791 54.841246 0
M  V30 13 C 38.503131 28.764914 57.217600 0
M  V30 14 C 38.861936 29.475275 59.669409 0 CFG=1
M  V30 15 C 38.998506 30.722002 53.780488 0
M  V30 16 Cl 38.439841 31.906988 56.013384 0
M  V30 17 O 37.247012 38.056360 61.283891 0
M  V30 18 C 39.189262 30.454427 55.284493 0 CFG=1
M  V30 19 C 37.865487 27.434415 57.669709 0
M  V30 20 C 39.202807 31.061918 63.193303 0
M  V30 21 C 41.091318 28.021367 62.034783 0
M  V30 22 C 38.955245 29.655825 58.146465 0
M  V30 23 C 36.786383 35.865645 60.537744 0
M  V30 24 C 40.454833 30.253646 62.942126 0 CFG=1
M  V30 25 C 37.702739 31.682366 60.579194 0 CFG=1
M  V30 26 C 37.796213 36.982437 60.549843 0 CFG=2
M  V30 27 C 40.948529 29.726865 64.312837 0
M  V30 28 C 41.388884 27.611657 63.484232 0
M  V30 29 C 39.532577 34.420356 59.870219 0
M  V30 30 S 35.975043 31.880955 61.053781 0 CHG=-1
M  V30 31 N 38.219453 33.965305 59.651220 0
M  V30 32 C 38.743866 27.037675 52.699360 0
M  V30 33 C 40.179691 29.695376 60.419160 0
M  V30 34 H 37.295634 28.574193 53.000376 0
M  V30 35 H 41.000626 35.705863 60.634798 0
M  V30 36 H 39.150717 28.774409 62.129331 0
M  V30 37 H 37.165921 35.328880 58.498049 0
M  V30 38 H 36.168131 34.225941 59.370096 0
M  V30 39 H 37.187699 32.453221 58.574708 0
M  V30 40 H 38.894439 32.219877 58.840951 0
M  V30 41 H 40.267130 29.222981 52.958645 0
M  V30 42 H 39.071452 29.745059 51.854381 0
M  V30 43 H 37.439030 29.678907 61.061588 0
M  V30 44 H 39.675346 37.395113 61.460754 0
M  V30 45 H 38.813783 36.117421 62.240608 0
M  V30 46 H 37.817803 27.234612 55.158000 0
M  V30 47 H 38.599039 28.449710 59.896010 0
M  V30 48 H 39.634778 31.545651 53.456721 0
M  V30 49 H 37.970606 31.044036 53.620299 0
M  V30 50 H 37.753480 38.829605 61.097864 0
M  V30 51 H 40.251618 30.471216 55.519439 0
M  V30 52 H 37.963786 26.600855 56.981790 0
M  V30 53 H 38.331441 27.000669 58.552558 0
M  V30 54 H 36.802860 27.583485 57.854013 0
M  V30 55 H 39.467561 31.680494 64.052320 0
M  V30 56 H 38.333387 30.451918 63.446345 0
M  V30 57 H 42.020663 28.307008 61.581386 0
M  V30 58 H 40.666739 27.221469 61.438781 0
M  V30 59 H 39.414875 30.563886 57.820776 0
M  V30 60 H 36.632913 35.403377 61.512888 0
M  V30 61 H 35.867035 36.334642 60.249633 0
M  V30 62 H 41.241961 30.903496 62.560525 0
M  V30 63 H 37.990009 37.335254 59.536269 0
M  V30 64 H 41.381974 30.545113 64.889893 0
M  V30 65 H 40.134417 29.337566 64.922587 0
M  V30 66 H 42.141445 26.822155 63.517031 0
M  V30 67 H 40.500041 27.234775 63.992647 0
M  V30 68 H 40.267403 33.748994 59.462181 0
M  V30 69 H 38.106590 26.226563 53.052603 0
M  V30 70 H 38.673625 27.076055 51.613182 0
M  V30 71 H 39.769563 26.782711 52.964804 0
M  V30 72 H 40.482754 30.737475 60.363864 0
M  V30 73 H 40.959771 29.176550 59.861328 0
M  V30 74 H 36.960519 30.138030 59.587269 0
M  V30 END ATOM
M  V30 BEGIN BOND
M  V30 1 1 9 3
M  V30 2 1 11 5
M  V30 3 2 12 1
M  V30 4 1 12 3
M  V30 5 1 13 1
M  V30 6 1 14 10
M  V30 7 1 15 9
M  V30 8 1 18 1
M  V30 9 1 18 15
M  V30 10 1 18 16
M  V30 11 1 19 13
M  V30 12 1 20 2
M  V30 13 1 21 6
M  V30 14 2 22 13
M  V30 15 1 22 14
M  V30 16 1 23 7
M  V30 17 1 24 6
M  V30 18 1 24 20
M  V30 19 1 25 2
M  V30 20 1 25 8
M  V30 21 1 25 10
M  V30 22 1 26 11
M  V30 23 1 26 17
M  V30 24 1 26 23
M  V30 25 1 27 4
M  V30 26 1 27 24
M  V30 27 1 28 4
M  V30 28 1 28 21
M  V30 29 2 29 5
M  V30 30 1 25 30 CFG=1
M  V30 31 1 31 7
M  V30 32 1 31 8
M  V30 33 1 31 29
M  V30 34 1 32 3
M  V30 35 1 33 6
M  V30 36 1 33 14
M  V30 37 1 3 34 CFG=3
M  V30 38 1 35 5
M  V30 39 1 6 36 CFG=1
M  V30 40 1 37 7
M  V30 41 1 38 7
M  V30 42 1 39 8
M  V30 43 1 40 8
M  V30 44 1 41 9
M  V30 45 1 42 9
M  V30 46 1 43 10
M  V30 47 1 44 11
M  V30 48 1 45 11
M  V30 49 1 46 12
M  V30 50 1 14 47 CFG=3
M  V30 51 1 48 15
M  V30 52 1 49 15
M  V30 53 1 50 17
M  V30 54 1 18 51 CFG=3
M  V30 55 1 52 19
M  V30 56 1 53 19
M  V30 57 1 54 19
M  V30 58 1 55 20
M  V30 59 1 56 20
M  V30 60 1 57 21
M  V30 61 1 58 21
M  V30 62 1 59 22
M  V30 63 1 60 23
M  V30 64 1 61 23
M  V30 65 1 24 62 CFG=3
M  V30 66 1 26 63 CFG=3
M  V30 67 1 64 27
M  V30 68 1 65 27
M  V30 69 1 66 28
M  V30 70 1 67 28
M  V30 71 1 68 29
M  V30 72 1 69 32
M  V30 73 1 70 32
M  V30 74 1 71 32
M  V30 75 1 72 33
M  V30 76 1 73 33
M  V30 77 1 74 10
M  V30 END BOND
M  V30 END CTAB
M  END
>  <i_epik_Tot_Q>  (1) 
0

>  <i_epik_Tot_abs_Q>  (1) 
2

>  <i_i_glide_confnum>  (1) 
104

>  <i_i_glide_lignum>  (1) 
261

>  <i_i_glide_posenum>  (1) 
367

>  <i_i_glide_rotatable_bonds>  (1) 
5

>  <i_lp_mmshare_version>  (1) 
72125

>  <i_m_source_file_index>  (1) 
94

>  <i_f3d_flags>  (1) 
0

>  <num_sample>  (1) 
100

>  <b_lp_Chiralities_Consistent>  (1) 
1

>  <r_epik_Charging_Adjusted_Penalty>  (1) 
0.80501984278308969

>  <r_epik_Ionization_Penalty>  (1) 
0.072421558423421364

>  <r_epik_Ionization_Penalty_Charging>  (1) 
0.072408791886815996

>  <r_epik_Ionization_Penalty_Neutral>  (1) 
1.2766536605372598e-05

>  <r_epik_State_Penalty>  (1) 
0.73261105089627365

>  <r_glide_ring_energy>  (1) 
0

>  <r_i_docking_score>  (1) 
-4.681983622263024

>  <r_i_glide_ecoul>  (1) 
-0.46076068413320032

>  <r_i_glide_eff_state_penalty>  (1) 
0.73261105089627365

>  <r_i_glide_einternal>  (1) 
13.256278133235448

>  <r_i_glide_emodel>  (1) 
-20.112538832946402

>  <r_i_glide_emodel_strain>  (1) 
4.0581951296608594

>  <r_i_glide_energy>  (1) 
-30.264208770809674

>  <r_i_glide_erotb>  (1) 
0.31140238833871409

>  <r_i_glide_esite>  (1) 
0

>  <r_i_glide_evdw>  (1) 
-29.803448086676475

>  <r_i_glide_gscore>  (1) 
-5.4145946731592973

>  <r_i_glide_gscore_strain>  (1) 
0.014548782415214845

>  <r_i_glide_hbond>  (1) 
-0.062819937062052356

>  <r_i_glide_ligand_efficiency>  (1) 
-0.141878291583728

>  <r_i_glide_ligand_efficiency_ln>  (1) 
-1.0412489155775051

>  <r_i_glide_ligand_efficiency_sa>  (1) 
-0.45507949093596556

>  <r_i_glide_lipo>  (1) 
-3.3918922362532729

>  <r_i_glide_metal>  (1) 
-0

>  <r_i_glide_rewards>  (1) 
-0.72654716364409766

>  <r_lp_Energy>  (1) 
38.886989999999997

>  <s_epik_Chemistry_Notes>  (1) 
This compound has an imine and may undergo hydrolysis.

>  <s_epik_cmdline>  (1) 
J2VwaWtfcHl0aG9uJywgJy1waHQnLCAnMS4wJywgJy1waCcsICc3LjQnLCAnLXRuJywgJzgnLCAnLW1hJywgJzUwMCcsICctaW1hZScsICc8aW5maWxlLm1hZT4nLCAnLW9tYWUnLCAnPG91dGZpbGUubWFlPic=

>  <s_epik_input>  (1) 
Q2xbQ0BIXTFbQ0gyXVtDSDJdW0NAQEhdKFtDSDNdKVtDSF09QzEvQyhbQ0gzXSk9W0NIXS9bQ0BASF0oW0NIMl0yKVtOSF1bQ0BAXShbU0hdKShTW0NIMl1bQ0BIXShbQ0BASF0yMylbQ0gyXU9bQ0gyXVtDSDJdMylbQ0gyXU4oW0NIMl1bQ0gyXTQpW0NIXT1bQ0hdW0NIMl1bQ0BASF00W09IXQ==

>  <s_glide_docking_method>  (1) 
confgen

>  <s_i_glide_gridfile>  (1) 
gpcr_5ht2c_6bqh_protein_autoprepared_prepared

>  <s_lp_Force_Field>  (1) 
S-OPLS

>  <s_lp_Variant>  (1) 
DiffSBDD_93_num_sample_100-13

>  <s_m_source_file>  (1) 
generated__ligand_DiffSBDD_2026-05-06_prepared.sdf

>  <GenAI_Model>  (1) 
DiffSBDD

>  <Protein>  (1) 
GPCR_5HT2C

$$$$
DiffSBDD_30_num_sample_100
     RDKit          3D

  0  0  0  0  0  0  0  0  0  0999 V3000
M  V30 BEGIN CTAB
M  V30 COUNTS 70 73 0 0 1
M  V30 BEGIN ATOM
M  V30 1 C 43.304034 27.753533 66.324173 0
M  V30 2 C 43.622265 30.488839 68.677245 0 CFG=1
M  V30 3 O 41.067624 27.188426 67.053495 0
M  V30 4 C 38.016545 29.142962 55.820948 0
M  V30 5 C 38.662042 29.844002 54.789366 0
M  V30 6 N 40.766580 29.927742 66.627215 0
M  V30 7 C 39.067298 31.705703 56.307393 0
M  V30 8 C 41.810480 29.481373 67.556049 0 CFG=1
M  V30 9 O 45.558181 30.821576 66.282546 0
M  V30 10 O 43.767350 32.215028 70.382332 0
M  V30 11 C 36.376729 32.379223 60.263706 0
M  V30 12 C 43.164207 31.779964 69.402507 0
M  V30 13 C 41.933680 32.496435 68.853946 0
M  V30 14 C 35.093143 33.174637 60.245084 0
M  V30 15 C 38.435147 33.116398 58.968066 0 CFG=2
M  V30 16 C 40.502792 31.003832 63.074316 0
M  V30 17 N 40.267401 30.885329 64.526205 0 CHG=1
M  V30 18 C 35.067147 31.666696 60.160389 0
M  V30 19 C 39.730934 32.195128 60.920847 0 CFG=1
M  V30 20 C 39.186941 31.122590 55.031765 0
M  V30 21 C 39.088335 33.464842 60.304468 0
M  V30 22 N 37.113876 32.464555 58.978532 0 CFG=1 CHG=1
M  V30 23 C 37.891158 29.718578 57.101322 0
M  V30 24 C 41.135028 29.919445 65.215042 0
M  V30 25 C 38.417696 31.010679 57.357346 0
M  V30 26 C 39.636989 32.122174 62.456578 0
M  V30 27 C 45.524062 31.381603 67.573701 0
M  V30 28 C 42.197239 27.983290 67.372285 0 CFG=2
M  V30 29 C 38.291725 31.643351 58.722632 0 CFG=1
M  V30 30 O 37.260856 29.023488 58.093414 0
M  V30 31 S 38.970636 30.732382 60.146118 0
M  V30 32 O 42.934739 30.312039 67.469117 0
M  V30 33 O 45.018792 30.490431 68.528285 0
M  V30 34 H 44.204528 28.322411 66.555401 0
M  V30 35 H 43.594041 26.702515 66.303205 0
M  V30 36 H 42.996547 28.014125 65.314058 0
M  V30 37 H 43.425334 29.640122 69.333335 0
M  V30 38 H 40.462390 27.209553 67.789761 0
M  V30 39 H 37.615392 28.158953 55.631723 0
M  V30 40 H 38.755073 29.399027 53.809631 0
M  V30 41 H 39.977501 29.296688 66.747523 0
M  V30 42 H 39.475657 32.689726 56.482827 0
M  V30 43 H 41.373618 29.595800 68.550717 0
M  V30 44 H 46.302554 30.224906 66.253458 0
M  V30 45 H 36.929878 32.286416 61.192071 0
M  V30 46 H 42.069083 32.730823 67.798046 0
M  V30 47 H 41.048882 31.872344 68.964554 0
M  V30 48 H 41.766672 33.427995 69.394931 0
M  V30 49 H 34.761741 33.621683 61.180162 0
M  V30 50 H 34.833334 33.729655 59.344581 0
M  V30 51 H 38.400676 33.864239 58.178986 0
M  V30 52 H 40.280625 30.039394 62.615516 0
M  V30 53 H 41.558942 31.210261 62.892998 0
M  V30 54 H 40.406685 31.786200 64.961357 0
M  V30 55 H 34.795869 31.221512 59.203569 0
M  V30 56 H 34.718565 31.151173 61.053335 0
M  V30 57 H 40.787613 32.189547 60.653488 0
M  V30 58 H 39.683935 31.659444 54.237525 0
M  V30 59 H 38.373430 33.949977 60.969245 0
M  V30 60 H 39.866991 34.207293 60.124555 0
M  V30 61 H 41.002823 28.926226 64.783582 0
M  V30 62 H 42.174989 30.219946 65.075984 0
M  V30 63 H 39.940847 33.079838 62.882872 0
M  V30 64 H 38.594764 31.978980 62.737329 0
M  V30 65 H 44.974317 32.321776 67.518258 0
M  V30 66 H 46.553203 31.619850 67.844846 0
M  V30 67 H 42.581258 27.635183 68.332004 0
M  V30 68 H 37.347020 29.407387 58.950434 0
M  V30 69 H 39.310699 30.593369 64.669685 0
M  V30 70 H 36.548660 32.515148 58.128751 0
M  V30 END ATOM
M  V30 BEGIN BOND
M  V30 1 1 5 4
M  V30 2 1 8 6
M  V30 3 1 12 2
M  V30 4 2 12 10
M  V30 5 1 13 12
M  V30 6 1 14 11
M  V30 7 1 17 16
M  V30 8 1 18 11
M  V30 9 1 18 14
M  V30 10 2 20 5
M  V30 11 1 20 7
M  V30 12 1 21 15
M  V30 13 1 21 19
M  V30 14 1 22 11
M  V30 15 1 22 15
M  V30 16 2 23 4
M  V30 17 1 24 6
M  V30 18 1 24 17
M  V30 19 2 25 7
M  V30 20 1 25 23
M  V30 21 1 26 16
M  V30 22 1 26 19
M  V30 23 1 27 9
M  V30 24 1 28 1
M  V30 25 1 28 3
M  V30 26 1 28 8
M  V30 27 1 29 15
M  V30 28 1 29 22
M  V30 29 1 29 25 CFG=3
M  V30 30 1 30 23
M  V30 31 1 31 19
M  V30 32 1 31 29
M  V30 33 1 32 2
M  V30 34 1 32 8
M  V30 35 1 33 2
M  V30 36 1 33 27
M  V30 37 1 34 1
M  V30 38 1 35 1
M  V30 39 1 36 1
M  V30 40 1 2 37 CFG=1
M  V30 41 1 38 3
M  V30 42 1 39 4
M  V30 43 1 40 5
M  V30 44 1 41 6
M  V30 45 1 42 7
M  V30 46 1 8 43 CFG=1
M  V30 47 1 44 9
M  V30 48 1 45 11
M  V30 49 1 46 13
M  V30 50 1 47 13
M  V30 51 1 48 13
M  V30 52 1 49 14
M  V30 53 1 50 14
M  V30 54 1 15 51 CFG=3
M  V30 55 1 52 16
M  V30 56 1 53 16
M  V30 57 1 54 17
M  V30 58 1 55 18
M  V30 59 1 56 18
M  V30 60 1 19 57 CFG=1
M  V30 61 1 58 20
M  V30 62 1 59 21
M  V30 63 1 60 21
M  V30 64 1 61 24
M  V30 65 1 62 24
M  V30 66 1 63 26
M  V30 67 1 64 26
M  V30 68 1 65 27
M  V30 69 1 66 27
M  V30 70 1 28 67 CFG=1
M  V30 71 1 68 30
M  V30 72 1 69 17
M  V30 73 1 22 70 CFG=3
M  V30 END BOND
M  V30 END CTAB
M  END
>  <i_epik_Tot_Q>  (1) 
2

>  <i_epik_Tot_abs_Q>  (1) 
2

>  <i_i_glide_confnum>  (1) 
1098

>  <i_i_glide_lignum>  (1) 
81

>  <i_i_glide_posenum>  (1) 
183

>  <i_i_glide_rotatable_bonds>  (1) 
17

>  <i_lp_mmshare_version>  (1) 
72125

>  <i_m_source_file_index>  (1) 
31

>  <i_f3d_flags>  (1) 
0

>  <num_sample>  (1) 
100

>  <b_lp_Chiralities_Consistent>  (1) 
1

>  <r_epik_Charging_Adjusted_Penalty>  (1) 
1.979093595035226

>  <r_epik_Ionization_Penalty>  (1) 
0.79989620662071081

>  <r_epik_Ionization_Penalty_Charging>  (1) 
0.66086891892205935

>  <r_epik_Ionization_Penalty_Neutral>  (1) 
0.13902728769865147

>  <r_epik_State_Penalty>  (1) 
1.3182246761131666

>  <r_glide_ring_energy>  (1) 
0

>  <r_i_docking_score>  (1) 
-4.6706268025639535

>  <r_i_glide_ecoul>  (1) 
-13.260455176564527

>  <r_i_glide_eff_state_penalty>  (1) 
1.3182246761131666

>  <r_i_glide_einternal>  (1) 
15.640672789624146

>  <r_i_glide_emodel>  (1) 
-65.769816967055235

>  <r_i_glide_emodel_strain>  (1) 
0.16080865758689811

>  <r_i_glide_energy>  (1) 
-50.434233713931377

>  <r_i_glide_erotb>  (1) 
1.1283805066766976

>  <r_i_glide_esite>  (1) 
-0.10000000000000001

>  <r_i_glide_evdw>  (1) 
-37.17377853736685

>  <r_i_glide_gscore>  (1) 
-5.9888514786771205

>  <r_i_glide_gscore_strain>  (1) 
0

>  <r_i_glide_hbond>  (1) 
-0.80800000000000005

>  <r_i_glide_ligand_efficiency>  (1) 
-0.141534145532241

>  <r_i_glide_ligand_efficiency_ln>  (1) 
-1.0387232176788972

>  <r_i_glide_ligand_efficiency_sa>  (1) 
-0.45397563066128849

>  <r_i_glide_lipo>  (1) 
-1.1605828067186557

>  <r_i_glide_metal>  (1) 
-0

>  <r_i_glide_rewards>  (1) 
-1.200891975282141

>  <r_lp_Energy>  (1) 
32.029553999999997

>  <r_lp_tautomer_probability>  (1) 
0.99999996999736518

>  <s_epik_Chemistry_Notes>  (1) 
This compound contains an acetal/aminal-like group ( X-CH(R)-Y where X, Y are N, S, or O) that may be acid/base labile, releasing an aldehyde.

>  <s_epik_cmdline>  (1) 
J2VwaWtfcHl0aG9uJywgJy1waHQnLCAnMS4wJywgJy1waCcsICc3LjQnLCAnLXRuJywgJzgnLCAnLW1hJywgJzUwMCcsICctaW1hZScsICc8aW5maWxlLm1hZT4nLCAnLW9tYWUnLCAnPG91dGZpbGUubWFlPic=

>  <s_epik_input>  (1) 
W09IXVtDSDJdT1tDQEBIXShDKD1PKVtDSDNdKU9bQ0BIXShbQ0BIXShbQ0gzXSlbT0hdKVtOSF1bQ0gyXVtOSF1bQ0gyXVtDSDJdW0NAQEhdKFMxKVtDSDJdW0NASF0oTjJbQ0hdM1tDSDJdW0NIMl0zKVtDQEBdMTJjNFtjSF1bY0hdW2NIXVtjSF1jNFtPSF0=

>  <s_glide_docking_method>  (1) 
confgen

>  <s_i_glide_gridfile>  (1) 
gpcr_5ht2c_6bqh_protein_autoprepared_prepared

>  <s_lp_Force_Field>  (1) 
S-OPLS

>  <s_lp_Variant>  (1) 
DiffSBDD_30_num_sample_100-3

>  <s_m_source_file>  (1) 
generated__ligand_DiffSBDD_2026-05-06_prepared.sdf

>  <GenAI_Model>  (1) 
DiffSBDD

>  <Protein>  (1) 
GPCR_5HT2C

$$$$
DiffSBDD_20_num_sample_100
     RDKit          3D

  0  0  0  0  0  0  0  0  0  0999 V3000
M  V30 BEGIN CTAB
M  V30 COUNTS 55 55 0 0 1
M  V30 BEGIN ATOM
M  V30 1 C 36.619015 34.002560 59.751883 0 CFG=1
M  V30 2 C 38.625086 32.963822 61.218374 0 CFG=2
M  V30 3 C 38.268809 31.515701 57.466343 0
M  V30 4 C 37.409854 36.411067 60.617469 0
M  V30 5 N 39.468763 33.506910 62.266151 0
M  V30 6 C 41.135178 31.719495 61.921739 0
M  V30 7 O 37.262760 25.626942 57.453468 0
M  V30 8 C 38.966694 27.281072 57.606638 0
M  V30 9 C 38.516072 29.420434 56.192746 0
M  V30 10 C 41.285270 32.838516 64.995735 0
M  V30 11 N 37.940631 30.228796 57.268452 0
M  V30 12 O 39.067404 32.135046 56.762796 0
M  V30 13 C 35.252973 33.475272 59.263374 0
M  V30 14 C 36.536318 35.560982 59.676795 0
M  V30 15 C 40.591526 32.982467 62.581176 0
M  V30 16 C 38.135810 26.257195 56.817952 0
M  V30 17 O 42.267382 35.621462 64.700700 0
M  V30 18 N 37.635380 32.052190 58.522172 0
M  V30 19 C 39.049116 33.499425 59.846466 0
M  V30 20 S 36.884447 33.418735 61.453294 0
M  V30 21 C 41.300251 35.104204 63.811309 0
M  V30 22 O 38.393131 26.124653 55.600987 0 CHG=-1
M  V30 23 C 37.822028 33.445976 58.933094 0 CFG=2
M  V30 24 C 41.490921 33.579818 63.661315 0 CFG=1
M  V30 25 C 39.553990 28.419871 56.737719 0
M  V30 26 H 38.630982 31.873641 61.203884 0
M  V30 27 H 37.156488 37.464691 60.500334 0
M  V30 28 H 37.246250 36.164467 61.665890 0
M  V30 29 H 38.471580 36.325332 60.405543 0
M  V30 30 H 42.088849 31.431007 62.363035 0
M  V30 31 H 39.780658 26.735965 58.084891 0
M  V30 32 H 38.359477 27.693053 58.412248 0
M  V30 33 H 37.708012 28.893750 55.685430 0
M  V30 34 H 38.980402 30.043776 55.426371 0
M  V30 35 H 41.479189 31.770782 64.894676 0
M  V30 36 H 41.961022 33.212995 65.764418 0
M  V30 37 H 40.267720 32.957086 65.366135 0
M  V30 38 H 37.270190 29.790654 57.879950 0
M  V30 39 H 35.047027 33.829320 58.253500 0
M  V30 40 H 35.188826 32.387545 59.265567 0
M  V30 41 H 34.438479 33.829054 59.896490 0
M  V30 42 H 36.729619 35.879928 58.653697 0
M  V30 43 H 35.506480 35.865990 59.853170 0
M  V30 44 H 42.211663 36.573552 64.698007 0
M  V30 45 H 36.980474 31.490477 59.042940 0
M  V30 46 H 39.426976 34.514535 59.918486 0
M  V30 47 H 39.867399 32.916446 59.443997 0
M  V30 48 H 40.303077 35.347323 64.181065 0
M  V30 49 H 41.418480 35.603013 62.847834 0
M  V30 50 H 37.973199 34.048751 58.037278 0
M  V30 51 H 42.524805 33.424934 63.348741 0
M  V30 52 H 40.112622 27.992953 55.903651 0
M  V30 53 H 40.292888 28.965551 57.324817 0
M  V30 54 H 40.451096 30.882498 62.060989 0
M  V30 55 H 41.300616 31.876013 60.858235 0
M  V30 END ATOM
M  V30 BEGIN BOND
M  V30 1 1 5 2
M  V30 2 1 11 3
M  V30 3 1 11 9
M  V30 4 2 12 3
M  V30 5 1 1 13 CFG=3
M  V30 6 1 14 1
M  V30 7 1 14 4
M  V30 8 2 15 5
M  V30 9 1 15 6
M  V30 10 2 16 7
M  V30 11 1 16 8
M  V30 12 1 18 3
M  V30 13 1 19 2
M  V30 14 1 20 1
M  V30 15 1 20 2
M  V30 16 1 21 17
M  V30 17 1 22 16
M  V30 18 1 23 1
M  V30 19 1 23 18
M  V30 20 1 23 19
M  V30 21 1 24 10
M  V30 22 1 24 15
M  V30 23 1 24 21
M  V30 24 1 25 8
M  V30 25 1 25 9
M  V30 26 1 2 26 CFG=3
M  V30 27 1 27 4
M  V30 28 1 28 4
M  V30 29 1 29 4
M  V30 30 1 30 6
M  V30 31 1 31 8
M  V30 32 1 32 8
M  V30 33 1 33 9
M  V30 34 1 34 9
M  V30 35 1 35 10
M  V30 36 1 36 10
M  V30 37 1 37 10
M  V30 38 1 38 11
M  V30 39 1 39 13
M  V30 40 1 40 13
M  V30 41 1 41 13
M  V30 42 1 42 14
M  V30 43 1 43 14
M  V30 44 1 44 17
M  V30 45 1 45 18
M  V30 46 1 46 19
M  V30 47 1 47 19
M  V30 48 1 48 21
M  V30 49 1 49 21
M  V30 50 1 23 50 CFG=3
M  V30 51 1 24 51 CFG=3
M  V30 52 1 52 25
M  V30 53 1 53 25
M  V30 54 1 54 6
M  V30 55 1 55 6
M  V30 END BOND
M  V30 END CTAB
M  END
>  <i_epik_Tot_Q>  (1) 
-1

>  <i_epik_Tot_abs_Q>  (1) 
1

>  <i_i_glide_confnum>  (1) 
151

>  <i_i_glide_lignum>  (1) 
55

>  <i_i_glide_posenum>  (1) 
324

>  <i_i_glide_rotatable_bonds>  (1) 
12

>  <i_lp_mmshare_version>  (1) 
72125

>  <i_m_source_file_index>  (1) 
21

>  <i_f3d_flags>  (1) 
0

>  <num_sample>  (1) 
100

>  <b_lp_Chiralities_Consistent>  (1) 
1

>  <r_epik_Charging_Adjusted_Penalty>  (1) 
0.43743025276339681

>  <r_epik_Ionization_Penalty>  (1) 
0.026773266926762091

>  <r_epik_Ionization_Penalty_Charging>  (1) 
0.0015534882308521432

>  <r_epik_Ionization_Penalty_Neutral>  (1) 
0.025219778695909949

>  <r_epik_State_Penalty>  (1) 
0.43587676453254465

>  <r_glide_ring_energy>  (1) 
0

>  <r_i_docking_score>  (1) 
-4.653005014198988

>  <r_i_glide_ecoul>  (1) 
-4.4822631052671973

>  <r_i_glide_eff_state_penalty>  (1) 
0.43587676453254465

>  <r_i_glide_einternal>  (1) 
4.3078413388504231

>  <r_i_glide_emodel>  (1) 
-45.6455338256185

>  <r_i_glide_emodel_strain>  (1) 
0.81059444242611178

>  <r_i_glide_energy>  (1) 
-37.330946669259561

>  <r_i_glide_erotb>  (1) 
1.2527341714622291

>  <r_i_glide_esite>  (1) 
-0.25659859742803592

>  <r_i_glide_evdw>  (1) 
-32.848683563992367

>  <r_i_glide_gscore>  (1) 
-5.0888817787315324

>  <r_i_glide_gscore_strain>  (1) 
0

>  <r_i_glide_hbond>  (1) 
-0.32000000000000001

>  <r_i_glide_ligand_efficiency>  (1) 
-0.18612020056795953

>  <r_i_glide_ligand_efficiency_ln>  (1) 
-1.1029016276733743

>  <r_i_glide_ligand_efficiency_sa>  (1) 
-0.54421876790044998

>  <r_i_glide_lipo>  (1) 
-1.6680309729989979

>  <r_i_glide_metal>  (1) 
-0

>  <r_i_glide_rewards>  (1) 
-1.7822127357770279

>  <r_lp_Energy>  (1) 
19.180076

>  <r_lp_tautomer_probability>  (1) 
0.49999399997599986

>  <s_epik_Chemistry_Notes>  (1) 
This compound has an imine and may undergo hydrolysis. This compound contains an acetal/aminal-like group ( X-CH(R)-Y where X, Y are N, S, or O) that may be acid/base labile, releasing an aldehyde.

>  <s_epik_cmdline>  (1) 
J2VwaWtfcHl0aG9uJywgJy1waHQnLCAnMS4wJywgJy1waCcsICc3LjQnLCAnLXRuJywgJzgnLCAnLW1hJywgJzUwMCcsICctaW1hZScsICc8aW5maWxlLm1hZT4nLCAnLW9tYWUnLCAnPG91dGZpbGUubWFlPic=

>  <s_epik_input>  (1) 
W09IXVtDSDJdW0NAQEhdKFtDSDNdKUMoPVtDSDJdKVtOSF1bQ0BASF0oU1tDQEBdMShbQ0gzXSlbQ0gyXVtDSDNdKVtDSDJdW0NASF0xW05IXUMoPU8pW05IXVtDSDJdW0NIMl1bQ0gyXUMoPU8pW09IXQ==

>  <s_glide_docking_method>  (1) 
confgen

>  <s_i_glide_gridfile>  (1) 
gpcr_5ht2c_6bqh_protein_autoprepared_prepared

>  <s_lp_Force_Field>  (1) 
S-OPLS

>  <s_lp_Variant>  (1) 
DiffSBDD_20_num_sample_100-3

>  <s_m_source_file>  (1) 
generated__ligand_DiffSBDD_2026-05-06_prepared.sdf

>  <GenAI_Model>  (1) 
DiffSBDD

>  <Protein>  (1) 
GPCR_5HT2C

$$$$
DiffSBDD_52_num_sample_100
     RDKit          3D

  0  0  0  0  0  0  0  0  0  0999 V3000
M  V30 BEGIN CTAB
M  V30 COUNTS 25 25 0 0 1
M  V30 BEGIN ATOM
M  V30 1 C 38.969120 28.993312 54.660640 0 CFG=1
M  V30 2 O 37.867403 28.527364 56.702056 0
M  V30 3 C 38.693577 30.753549 56.649727 0 CFG=2
M  V30 4 S 39.067534 27.386007 52.412593 0
M  V30 5 C 39.189212 29.110017 51.954441 0 CFG=1
M  V30 6 S 39.466449 30.187847 53.373968 0
M  V30 7 O 37.867957 32.468328 55.069753 0
M  V30 8 C 38.090664 29.596317 55.794890 0 CFG=1
M  V30 9 O 37.866858 31.002837 57.770043 0
M  V30 10 C 38.899477 32.126274 55.974772 0
M  V30 11 N 40.268123 29.278824 51.009320 0
M  V30 12 C 38.255268 27.802978 53.974530 0
M  V30 13 H 39.900982 28.621094 55.085436 0
M  V30 14 H 38.502006 28.588489 57.400744 0
M  V30 15 H 39.655968 30.428144 57.049247 0
M  V30 16 H 38.251997 29.377609 51.473827 0
M  V30 17 H 37.038087 32.590262 55.526092 0
M  V30 18 H 37.125921 29.897045 55.384154 0
M  V30 19 H 36.985027 31.221472 57.464211 0
M  V30 20 H 39.839912 32.117652 55.424759 0
M  V30 21 H 39.004431 32.910235 56.726391 0
M  V30 22 H 39.990377 28.852991 50.137510 0
M  V30 23 H 40.399290 30.263631 50.819580 0
M  V30 24 H 38.232324 26.925113 54.619231 0
M  V30 25 H 37.219494 28.062389 53.758293 0
M  V30 END ATOM
M  V30 BEGIN BOND
M  V30 1 1 5 4
M  V30 2 1 6 1
M  V30 3 1 6 5
M  V30 4 1 8 1
M  V30 5 1 8 2
M  V30 6 1 8 3
M  V30 7 1 9 3
M  V30 8 1 10 3
M  V30 9 1 10 7
M  V30 10 1 11 5
M  V30 11 1 12 1
M  V30 12 1 12 4
M  V30 13 1 1 13 CFG=1
M  V30 14 1 14 2
M  V30 15 1 3 15 CFG=1
M  V30 16 1 5 16 CFG=3
M  V30 17 1 17 7
M  V30 18 1 8 18 CFG=3
M  V30 19 1 19 9
M  V30 20 1 20 10
M  V30 21 1 21 10
M  V30 22 1 22 11
M  V30 23 1 23 11
M  V30 24 1 24 12
M  V30 25 1 25 12
M  V30 END BOND
M  V30 END CTAB
M  END
>  <i_epik_Tot_Q>  (1) 
0

>  <i_epik_Tot_abs_Q>  (1) 
0

>  <i_i_glide_confnum>  (1) 
9

>  <i_i_glide_lignum>  (1) 
138

>  <i_i_glide_posenum>  (1) 
54

>  <i_i_glide_rotatable_bonds>  (1) 
6

>  <i_lp_mmshare_version>  (1) 
72125

>  <i_m_source_file_index>  (1) 
53

>  <i_f3d_flags>  (1) 
0

>  <num_sample>  (1) 
100

>  <b_lp_Chiralities_Consistent>  (1) 
1

>  <r_epik_Charging_Adjusted_Penalty>  (1) 
0.012458627256782779

>  <r_epik_Ionization_Penalty>  (1) 
0.012459545935989014

>  <r_epik_Ionization_Penalty_Charging>  (1) 
0

>  <r_epik_Ionization_Penalty_Neutral>  (1) 
0.012459545935989014

>  <r_epik_State_Penalty>  (1) 
0.012458627256782779

>  <r_glide_ring_energy>  (1) 
0

>  <r_i_docking_score>  (1) 
-4.6476177739349218

>  <r_i_glide_ecoul>  (1) 
-5.6284522561457289

>  <r_i_glide_eff_state_penalty>  (1) 
0.012458627256782779

>  <r_i_glide_einternal>  (1) 
6.947340486686441

>  <r_i_glide_emodel>  (1) 
-34.129093007031926

>  <r_i_glide_emodel_strain>  (1) 
0.50743236449109119

>  <r_i_glide_energy>  (1) 
-28.241992333850561

>  <r_i_glide_erotb>  (1) 
1.1173698675060917

>  <r_i_glide_esite>  (1) 
0

>  <r_i_glide_evdw>  (1) 
-22.613540077704833

>  <r_i_glide_gscore>  (1) 
-4.6600764011917049

>  <r_i_glide_gscore_strain>  (1) 
0

>  <r_i_glide_hbond>  (1) 
-0.33702591807221782

>  <r_i_glide_ligand_efficiency>  (1) 
-0.38730148116124347

>  <r_i_glide_ligand_efficiency_ln>  (1) 
-1.3336419712182688

>  <r_i_glide_ligand_efficiency_sa>  (1) 
-0.88669904329455285

>  <r_i_glide_lipo>  (1) 
-1.3676158741503373

>  <r_i_glide_metal>  (1) 
-0

>  <r_i_glide_rewards>  (1) 
-2.0978596341681408

>  <r_lp_Energy>  (1) 
-4.7131299999999996

>  <s_epik_Chemistry_Notes>  (1) 
This compound contains an acetal/aminal-like group ( X-CH(R)-Y where X, Y are N, S, or O) that may be acid/base labile, releasing an aldehyde.

>  <s_epik_cmdline>  (1) 
J2VwaWtfcHl0aG9uJywgJy1waHQnLCAnMS4wJywgJy1waCcsICc3LjQnLCAnLXRuJywgJzgnLCAnLW1hJywgJzUwMCcsICctaW1hZScsICc8aW5maWxlLm1hZT4nLCAnLW9tYWUnLCAnPG91dGZpbGUubWFlPic=

>  <s_epik_input>  (1) 
W0NIMl0xU1tDQEhdKFtOSDJdKVNbQ0BIXTFbQ0BASF0oW09IXSlbQ0BIXShbT0hdKVtDSDJdW09IXQ==

>  <s_glide_docking_method>  (1) 
confgen

>  <s_i_glide_gridfile>  (1) 
gpcr_5ht2c_6bqh_protein_autoprepared_prepared

>  <s_lp_Force_Field>  (1) 
S-OPLS

>  <s_lp_Variant>  (1) 
DiffSBDD_52_num_sample_100-1

>  <s_m_source_file>  (1) 
generated__ligand_DiffSBDD_2026-05-06_prepared.sdf

>  <GenAI_Model>  (1) 
DiffSBDD

>  <Protein>  (1) 
GPCR_5HT2C

$$$$
DiffSBDD_90_num_sample_100
     RDKit          3D

  0  0  0  0  0  0  0  0  0  0999 V3000
M  V30 BEGIN CTAB
M  V30 COUNTS 85 88 0 0 1
M  V30 BEGIN ATOM
M  V30 1 C 36.907306 30.455719 59.511910 0
M  V30 2 O 42.518441 26.881938 65.330172 0
M  V30 3 F 37.467405 23.261357 55.247271 0
M  V30 4 C 38.604099 30.019915 55.321500 0 CFG=1
M  V30 5 C 41.405649 30.188241 66.702288 0 CFG=2
M  V30 6 C 41.129141 30.751493 64.359231 0 CFG=1
M  V30 7 C 37.856778 32.970170 54.364013 0
M  V30 8 C 40.063971 31.606110 62.238054 0
M  V30 9 C 39.452557 31.270513 55.014464 0
M  V30 10 N 41.616801 27.809278 65.990808 0
M  V30 11 C 38.163144 24.560564 57.085969 0
M  V30 12 C 39.625743 32.167439 56.254771 0
M  V30 13 C 40.353264 30.652581 65.679169 0
M  V30 14 C 42.197282 29.644388 64.429179 0
M  V30 15 O 41.661304 32.350920 67.710760 0
M  V30 16 N 38.272744 29.995891 59.245722 0
M  V30 17 C 40.241565 30.625628 63.141012 0
M  V30 18 F 39.299497 24.421432 55.052086 0
M  V30 19 C 37.912696 26.865583 55.238232 0 CFG=2
M  V30 20 N 38.267715 28.609649 58.728753 0 CHG=1
M  V30 21 C 38.668481 25.960357 57.477496 0
M  V30 22 C 39.086739 30.043554 60.457081 0
M  V30 23 O 38.838244 32.021341 53.973171 0
M  V30 24 C 40.800724 30.823567 54.454145 0
M  V30 25 C 36.926695 31.916759 59.992470 0
M  V30 26 C 37.272464 25.521024 54.906277 0
M  V30 27 C 39.183176 31.486385 61.004633 0 CFG=1
M  V30 28 C 42.223375 29.139338 65.892685 0 CFG=1
M  V30 29 C 38.383850 29.133385 54.076746 0
M  V30 30 O 43.491438 31.367777 66.905144 0 CHG=-1
M  V30 31 C 38.061261 28.491064 57.267169 0 CFG=1
M  V30 32 C 37.786931 32.076172 61.252757 0
M  V30 33 O 40.797758 29.621337 67.853280 0
M  V30 34 C 39.184248 29.172742 56.484823 0
M  V30 35 C 37.806252 27.047296 56.788586 0 CFG=1
M  V30 36 C 37.396953 27.991014 54.306368 0
M  V30 37 C 38.068858 24.410262 55.560058 0
M  V30 38 C 42.262959 31.408510 67.145600 0
M  V30 39 H 36.303510 30.401951 58.605876 0
M  V30 40 H 36.426119 29.821223 60.253454 0
M  V30 41 H 43.358282 27.109307 65.703712 0
M  V30 42 H 37.630249 30.410947 55.615402 0
M  V30 43 H 41.634866 31.718548 64.329746 0
M  V30 44 H 37.467426 33.525142 53.515389 0
M  V30 45 H 37.067419 32.421466 54.853991 0
M  V30 46 H 38.207776 33.749772 55.041349 0
M  V30 47 H 40.571673 32.550674 62.374265 0
M  V30 48 H 41.599198 27.463700 66.942377 0
M  V30 49 H 37.179825 24.393886 57.528393 0
M  V30 50 H 38.818718 23.792205 57.495317 0
M  V30 51 H 40.235763 31.681207 56.980186 0
M  V30 52 H 40.115979 33.109896 56.025236 0
M  V30 53 H 38.683098 32.379428 56.761206 0
M  V30 54 H 39.877571 31.598574 65.936548 0
M  V30 55 H 39.558489 29.909539 65.597807 0
M  V30 56 H 43.169350 30.056730 64.157104 0
M  V30 57 H 41.993027 28.842087 63.718826 0
M  V30 58 H 39.734960 29.680842 63.016035 0
M  V30 59 H 38.967643 26.768706 54.980935 0
M  V30 60 H 39.157977 28.206387 58.981539 0
M  V30 61 H 38.629696 26.038560 58.563233 0
M  V30 62 H 39.716770 26.071840 57.194389 0
M  V30 63 H 40.090401 29.683235 60.226064 0
M  V30 64 H 38.667388 29.368530 61.201343 0
M  V30 65 H 41.232934 30.024290 55.053411 0
M  V30 66 H 40.667511 30.463697 53.433301 0
M  V30 67 H 41.533427 31.621378 54.433289 0
M  V30 68 H 37.314221 32.555282 59.197320 0
M  V30 69 H 35.910128 32.259035 60.187717 0
M  V30 70 H 36.267525 25.474848 55.308994 0
M  V30 71 H 37.208512 25.355401 53.831570 0
M  V30 72 H 39.671051 32.094673 60.243490 0
M  V30 73 H 43.247537 29.061659 66.260289 0
M  V30 74 H 37.998067 29.750412 53.265954 0
M  V30 75 H 39.321229 28.715866 53.709929 0
M  V30 76 H 37.126709 29.022241 57.091134 0
M  V30 77 H 37.313478 31.570438 62.093212 0
M  V30 78 H 37.859897 33.130299 61.525824 0
M  V30 79 H 40.220394 28.923481 67.584055 0
M  V30 80 H 39.777495 29.754551 57.176318 0
M  V30 81 H 39.913540 28.448408 56.121587 0
M  V30 82 H 36.782510 26.821231 57.091231 0
M  V30 83 H 36.484071 28.435173 54.653493 0
M  V30 84 H 37.165105 27.572065 53.326448 0
M  V30 85 H 37.523560 28.134415 59.217114 0
M  V30 END ATOM
M  V30 BEGIN BOND
M  V30 1 1 9 4
M  V30 2 1 10 2
M  V30 3 1 12 9
M  V30 4 1 13 5
M  V30 5 1 13 6
M  V30 6 1 14 6
M  V30 7 1 16 1
M  V30 8 1 17 6
M  V30 9 2 17 8
M  V30 10 1 20 16
M  V30 11 1 21 11
M  V30 12 1 22 16
M  V30 13 1 23 7
M  V30 14 1 23 9
M  V30 15 1 24 9
M  V30 16 1 25 1
M  V30 17 1 26 19
M  V30 18 1 27 8
M  V30 19 1 27 22
M  V30 20 1 28 5
M  V30 21 1 28 10
M  V30 22 1 28 14
M  V30 23 1 29 4
M  V30 24 1 31 20
M  V30 25 1 32 25
M  V30 26 1 32 27
M  V30 27 1 5 33 CFG=1
M  V30 28 1 34 4
M  V30 29 1 34 31
M  V30 30 1 35 19
M  V30 31 1 35 21
M  V30 32 1 35 31
M  V30 33 1 36 19
M  V30 34 1 36 29
M  V30 35 1 37 3
M  V30 36 1 37 11
M  V30 37 1 37 18
M  V30 38 1 37 26
M  V30 39 1 38 5
M  V30 40 2 38 15
M  V30 41 1 38 30
M  V30 42 1 39 1
M  V30 43 1 40 1
M  V30 44 1 41 2
M  V30 45 1 4 42 CFG=1
M  V30 46 1 6 43 CFG=3
M  V30 47 1 44 7
M  V30 48 1 45 7
M  V30 49 1 46 7
M  V30 50 1 47 8
M  V30 51 1 48 10
M  V30 52 1 49 11
M  V30 53 1 50 11
M  V30 54 1 51 12
M  V30 55 1 52 12
M  V30 56 1 53 12
M  V30 57 1 54 13
M  V30 58 1 55 13
M  V30 59 1 56 14
M  V30 60 1 57 14
M  V30 61 1 58 17
M  V30 62 1 19 59 CFG=1
M  V30 63 1 60 20
M  V30 64 1 61 21
M  V30 65 1 62 21
M  V30 66 1 63 22
M  V30 67 1 64 22
M  V30 68 1 65 24
M  V30 69 1 66 24
M  V30 70 1 67 24
M  V30 71 1 68 25
M  V30 72 1 69 25
M  V30 73 1 70 26
M  V30 74 1 71 26
M  V30 75 1 27 72 CFG=3
M  V30 76 1 28 73 CFG=1
M  V30 77 1 74 29
M  V30 78 1 75 29
M  V30 79 1 31 76 CFG=1
M  V30 80 1 77 32
M  V30 81 1 78 32
M  V30 82 1 79 33
M  V30 83 1 80 34
M  V30 84 1 81 34
M  V30 85 1 35 82 CFG=1
M  V30 86 1 83 36
M  V30 87 1 84 36
M  V30 88 1 85 20
M  V30 END BOND
M  V30 END CTAB
M  END
>  <i_epik_Tot_Q>  (1) 
0

>  <i_epik_Tot_abs_Q>  (1) 
2

>  <i_i_glide_confnum>  (1) 
119

>  <i_i_glide_lignum>  (1) 
234

>  <i_i_glide_posenum>  (1) 
79

>  <i_i_glide_rotatable_bonds>  (1) 
10

>  <i_lp_mmshare_version>  (1) 
72125

>  <i_m_source_file_index>  (1) 
91

>  <i_f3d_flags>  (1) 
0

>  <num_sample>  (1) 
100

>  <b_lp_Chiralities_Consistent>  (1) 
1

>  <r_epik_Charging_Adjusted_Penalty>  (1) 
1.3235823108087639

>  <r_epik_Ionization_Penalty>  (1) 
0.58520961668590687

>  <r_epik_Ionization_Penalty_Charging>  (1) 
0.5818654171532841

>  <r_epik_Ionization_Penalty_Neutral>  (1) 
0.0033441995326227757

>  <r_epik_State_Penalty>  (1) 
0.74171689365547977

>  <r_glide_ring_energy>  (1) 
0.35261698705854638

>  <r_i_docking_score>  (1) 
-4.6393979018174658

>  <r_i_glide_ecoul>  (1) 
-1.0273817660812319

>  <r_i_glide_eff_state_penalty>  (1) 
0.74171689365547977

>  <r_i_glide_einternal>  (1) 
9.854454374841767

>  <r_i_glide_emodel>  (1) 
-30.858619663802962

>  <r_i_glide_emodel_strain>  (1) 
0.24060215403294194

>  <r_i_glide_energy>  (1) 
-25.654795495865535

>  <r_i_glide_erotb>  (1) 
0.42002339013477186

>  <r_i_glide_esite>  (1) 
0

>  <r_i_glide_evdw>  (1) 
-24.627413729784305

>  <r_i_glide_gscore>  (1) 
-5.3811147954729455

>  <r_i_glide_gscore_strain>  (1) 
0

>  <r_i_glide_hbond>  (1) 
-0.051752973381278315

>  <r_i_glide_ligand_efficiency>  (1) 
-0.12208941846888068

>  <r_i_glide_ligand_efficiency_ln>  (1) 
-1.0003906648908896

>  <r_i_glide_ligand_efficiency_sa>  (1) 
-0.41046162232276406

>  <r_i_glide_lipo>  (1) 
-3.5727159943911841

>  <r_i_glide_metal>  (1) 
-0

>  <r_i_glide_rewards>  (1) 
-0.7911912664338554

>  <r_lp_Energy>  (1) 
50.269594999999995

>  <s_epik_Chemistry_Notes>  (1) 
This compound has a N-S or N-O group and may undergo hydrolysis at high or low pH.

>  <s_epik_cmdline>  (1) 
J2VwaWtfcHl0aG9uJywgJy1waHQnLCAnMS4wJywgJy1waCcsICc3LjQnLCAnLXRuJywgJzgnLCAnLW1hJywgJzUwMCcsICctaW1hZScsICc8aW5maWxlLm1hZT4nLCAnLW9tYWUnLCAnPG91dGZpbGUubWFlPic=

>  <s_epik_input>  (1) 
RkMoRikoW0NIMl0xKVtDSDJdW0NIMl1bQ0BIXShbQ0BASF0xMilbQ0BIXShbQ0gyXVtDQEhdKFtDSDJdW0NIMl0yKUMoW0NIM10pKFtDSDNdKU9bQ0gzXSlbTkhdTjNbQ0gyXVtDSDJdW0NIMl1bQ0BIXShbQ0gyXTMpL1tDSF09W0NIXS9bQ0BASF0oW0NIMl1bQ0BdNChbT0hdKUMoPU8pW09IXSlbQ0gyXVtDQEBIXTRbTkhdW09IXQ==

>  <s_glide_docking_method>  (1) 
confgen

>  <s_i_glide_gridfile>  (1) 
gpcr_5ht2c_6bqh_protein_autoprepared_prepared

>  <s_lp_Force_Field>  (1) 
S-OPLS

>  <s_lp_Variant>  (1) 
DiffSBDD_90_num_sample_100-6

>  <s_m_source_file>  (1) 
generated__ligand_DiffSBDD_2026-05-06_prepared.sdf

>  <GenAI_Model>  (1) 
DiffSBDD

>  <Protein>  (1) 
GPCR_5HT2C

$$$$
DiffSBDD_29_num_sample_100
     RDKit          3D

  0  0  0  0  0  0  0  0  0  0999 V3000
M  V30 BEGIN CTAB
M  V30 COUNTS 86 90 0 0 1
M  V30 BEGIN ATOM
M  V30 1 F 38.944819 35.785455 61.578274 0
M  V30 2 C 36.361788 33.858167 58.560631 0
M  V30 3 C 39.171633 32.819641 61.832716 0
M  V30 4 C 39.866431 27.765482 57.622414 0 CFG=2
M  V30 5 C 39.880154 26.630626 52.564526 0
M  V30 6 C 41.195762 28.421069 57.255566 0
M  V30 7 C 40.659895 35.890098 63.067452 0
M  V30 8 N 37.074953 32.590520 58.882725 0 CFG=2 CHG=1
M  V30 9 C 38.037657 26.099409 56.798593 0 CFG=1
M  V30 10 C 37.950006 28.664809 51.806419 0
M  V30 11 C 38.362012 32.136708 56.778895 0
M  V30 12 C 38.643511 28.676100 53.119913 0 CFG=1
M  V30 13 C 39.846936 35.185790 62.371034 0
M  V30 14 C 38.869984 31.095887 57.754565 0 CFG=2
M  V30 15 C 34.959509 33.516882 60.635431 0
M  V30 16 C 36.288207 24.331011 56.249900 0
M  V30 17 C 39.224404 27.013314 56.391010 0 CFG=1
M  V30 18 C 38.154235 29.846075 58.234861 0 CFG=1
M  V30 19 C 41.053339 33.401009 63.427034 0
M  V30 20 N 35.704121 32.282651 60.878443 0
M  V30 21 N 39.977228 33.840882 62.506732 0
M  V30 22 F 40.667421 37.221401 63.053471 0
M  V30 23 S 37.816292 28.935033 54.682096 0
M  V30 24 C 37.078050 32.338731 60.363533 0 CFG=2
M  V30 25 C 34.933802 33.809976 59.133514 0
M  V30 26 C 38.484516 24.421461 55.109376 0
M  V30 27 O 37.036793 29.563077 57.464036 0
M  V30 28 C 39.204724 27.788407 55.028544 0 CFG=2
M  V30 29 C 39.026332 28.629789 58.625539 0
M  V30 30 C 39.008691 28.255895 50.782721 0
M  V30 31 C 39.464158 26.832142 51.060502 0
M  V30 32 C 37.926309 33.368557 61.125014 0
M  V30 33 O 37.067410 26.821270 57.453502 0
M  V30 34 C 38.920315 27.254025 53.568843 0 CFG=2
M  V30 35 C 38.426032 32.485258 58.242182 0 CFG=2
M  V30 36 C 37.380424 25.257207 55.711091 0
M  V30 37 O 40.269377 26.733117 58.483762 0
M  V30 38 S 41.790518 35.046396 64.071198 0
M  V30 39 H 36.881930 34.732586 58.948976 0
M  V30 40 H 36.332992 34.007312 57.485089 0
M  V30 41 H 38.870320 32.077195 62.572613 0
M  V30 42 H 39.805126 32.301988 61.111841 0
M  V30 43 H 40.267366 25.639046 52.799622 0
M  V30 44 H 40.758640 27.221422 52.653496 0
M  V30 45 H 40.986596 29.221427 56.560463 0
M  V30 46 H 41.722395 28.821666 58.124222 0
M  V30 47 H 41.869802 27.727400 56.750866 0
M  V30 48 H 38.387094 25.402846 57.562212 0
M  V30 49 H 37.072015 28.021441 51.806032 0
M  V30 50 H 37.632736 29.621427 51.539771 0
M  V30 51 H 39.103871 32.614681 56.142520 0
M  V30 52 H 37.443326 31.910352 56.268536 0
M  V30 53 H 39.535629 29.307127 53.096563 0
M  V30 54 H 39.872998 30.878478 57.453679 0
M  V30 55 H 35.380543 34.358824 61.183851 0
M  V30 56 H 33.941370 33.390314 60.998974 0
M  V30 57 H 36.672241 23.673945 57.030340 0
M  V30 58 H 35.467601 24.919750 56.653427 0
M  V30 59 H 35.879195 23.702825 55.457418 0
M  V30 60 H 40.001888 26.277721 56.176696 0
M  V30 61 H 37.689206 30.066713 59.180599 0
M  V30 62 H 40.657744 32.803364 64.248347 0
M  V30 63 H 41.811773 32.828536 62.893665 0
M  V30 64 H 35.214719 31.516947 60.431957 0
M  V30 65 H 37.506281 31.373375 60.606889 0
M  V30 66 H 34.422600 34.753752 58.938594 0
M  V30 67 H 34.337562 33.036478 58.653488 0
M  V30 68 H 39.067234 24.016406 55.928860 0
M  V30 69 H 38.087592 23.621453 54.495855 0
M  V30 70 H 39.208769 24.976746 54.538151 0
M  V30 71 H 37.195808 29.827607 56.566418 0
M  V30 72 H 40.122657 28.351823 54.961719 0
M  V30 73 H 38.379317 27.967501 59.202404 0
M  V30 74 H 39.719758 28.997838 59.384403 0
M  V30 75 H 38.667398 28.372685 49.762618 0
M  V30 76 H 39.867597 28.923961 50.856376 0
M  V30 77 H 38.667582 26.189435 50.705109 0
M  V30 78 H 40.267395 26.633319 50.360376 0
M  V30 79 H 38.276313 34.088842 60.397978 0
M  V30 80 H 37.331934 33.915415 61.853485 0
M  V30 81 H 37.075312 27.726052 57.159805 0
M  V30 82 H 37.992519 26.692893 53.506172 0
M  V30 83 H 39.171822 33.201376 58.578587 0
M  V30 84 H 36.888528 25.889908 54.982588 0
M  V30 85 H 40.961163 26.244357 58.063116 0
M  V30 86 H 36.502770 31.882837 58.424303 0
M  V30 END ATOM
M  V30 BEGIN BOND
M  V30 1 1 6 4
M  V30 2 1 8 2
M  V30 3 1 12 10
M  V30 4 1 13 1
M  V30 5 2 13 7
M  V30 6 1 14 11
M  V30 7 1 17 4
M  V30 8 1 17 9
M  V30 9 1 18 14
M  V30 10 1 20 15
M  V30 11 1 21 3
M  V30 12 1 21 13
M  V30 13 1 21 19
M  V30 14 1 22 7
M  V30 15 1 23 12
M  V30 16 1 24 8
M  V30 17 1 24 20
M  V30 18 1 25 2
M  V30 19 1 25 15
M  V30 20 1 27 18
M  V30 21 1 28 17
M  V30 22 1 28 23
M  V30 23 1 29 4
M  V30 24 1 29 18
M  V30 25 1 30 10
M  V30 26 1 31 5
M  V30 27 1 31 30
M  V30 28 1 32 3
M  V30 29 1 32 24
M  V30 30 1 33 9
M  V30 31 1 34 5
M  V30 32 1 34 12
M  V30 33 1 34 28
M  V30 34 1 35 8
M  V30 35 1 35 11
M  V30 36 1 35 14
M  V30 37 1 36 9
M  V30 38 1 36 16
M  V30 39 1 36 26
M  V30 40 1 4 37 CFG=1
M  V30 41 1 38 7
M  V30 42 1 38 19
M  V30 43 1 39 2
M  V30 44 1 40 2
M  V30 45 1 41 3
M  V30 46 1 42 3
M  V30 47 1 43 5
M  V30 48 1 44 5
M  V30 49 1 45 6
M  V30 50 1 46 6
M  V30 51 1 47 6
M  V30 52 1 9 48 CFG=1
M  V30 53 1 49 10
M  V30 54 1 50 10
M  V30 55 1 51 11
M  V30 56 1 52 11
M  V30 57 1 12 53 CFG=3
M  V30 58 1 14 54 CFG=3
M  V30 59 1 55 15
M  V30 60 1 56 15
M  V30 61 1 57 16
M  V30 62 1 58 16
M  V30 63 1 59 16
M  V30 64 1 17 60 CFG=3
M  V30 65 1 18 61 CFG=1
M  V30 66 1 62 19
M  V30 67 1 63 19
M  V30 68 1 64 20
M  V30 69 1 24 65 CFG=3
M  V30 70 1 66 25
M  V30 71 1 67 25
M  V30 72 1 68 26
M  V30 73 1 69 26
M  V30 74 1 70 26
M  V30 75 1 71 27
M  V30 76 1 28 72 CFG=3
M  V30 77 1 73 29
M  V30 78 1 74 29
M  V30 79 1 75 30
M  V30 80 1 76 30
M  V30 81 1 77 31
M  V30 82 1 78 31
M  V30 83 1 79 32
M  V30 84 1 80 32
M  V30 85 1 81 33
M  V30 86 1 34 82 CFG=1
M  V30 87 1 35 83 CFG=3
M  V30 88 1 84 36
M  V30 89 1 85 37
M  V30 90 1 8 86 CFG=3
M  V30 END BOND
M  V30 END CTAB
M  END
>  <i_epik_Tot_Q>  (1) 
1

>  <i_epik_Tot_abs_Q>  (1) 
1

>  <i_i_glide_confnum>  (1) 
689

>  <i_i_glide_lignum>  (1) 
78

>  <i_i_glide_posenum>  (1) 
42

>  <i_i_glide_rotatable_bonds>  (1) 
14

>  <i_lp_mmshare_version>  (1) 
72125

>  <i_m_source_file_index>  (1) 
30

>  <i_f3d_flags>  (1) 
0

>  <num_sample>  (1) 
100

>  <b_lp_Chiralities_Consistent>  (1) 
1

>  <r_epik_Charging_Adjusted_Penalty>  (1) 
1.7477768688038313

>  <r_epik_Ionization_Penalty>  (1) 
0.56833185219894722

>  <r_epik_Ionization_Penalty_Charging>  (1) 
0.56833130032608237

>  <r_epik_Ionization_Penalty_Neutral>  (1) 
5.5187286482775955e-07

>  <r_epik_State_Penalty>  (1) 
1.179445568477749

>  <r_glide_ring_energy>  (1) 
2.3029442833191154

>  <r_i_docking_score>  (1) 
-4.6377809027047592

>  <r_i_glide_ecoul>  (1) 
-3.3028509886100128

>  <r_i_glide_eff_state_penalty>  (1) 
1.179445568477749

>  <r_i_glide_einternal>  (1) 
15.751191935491224

>  <r_i_glide_emodel>  (1) 
-20.051407630205361

>  <r_i_glide_emodel_strain>  (1) 
10.279536749107137

>  <r_i_glide_energy>  (1) 
-24.861888587048199

>  <r_i_glide_erotb>  (1) 
0.46833353265868582

>  <r_i_glide_esite>  (1) 
-0.14714571890408512

>  <r_i_glide_evdw>  (1) 
-21.559037598438188

>  <r_i_glide_gscore>  (1) 
-5.8172264711825079

>  <r_i_glide_gscore_strain>  (1) 
1.5698841872767844

>  <r_i_glide_hbond>  (1) 
-0.14185580464406339

>  <r_i_glide_ligand_efficiency>  (1) 
-0.12204686586065155

>  <r_i_glide_ligand_efficiency_ln>  (1) 
-1.0000419923148953

>  <r_i_glide_ligand_efficiency_sa>  (1) 
-0.41031856150040263

>  <r_i_glide_lipo>  (1) 
-4.7506452733515276

>  <r_i_glide_metal>  (1) 
-0

>  <r_i_glide_rewards>  (1) 
-1.2424178660048917

>  <r_lp_Energy>  (1) 
47.259627999999999

>  <s_epik_Chemistry_Notes>  (1) 
This compound has an imine and may undergo hydrolysis. This compound contains an acetal/aminal-like group ( X-CH(R)-Y where X, Y are N, S, or O) that may be acid/base labile, releasing an aldehyde.

>  <s_epik_cmdline>  (1) 
J2VwaWtfcHl0aG9uJywgJy1waHQnLCAnMS4wJywgJy1waCcsICc3LjQnLCAnLXRuJywgJzgnLCAnLW1hJywgJzUwMCcsICctaW1hZScsICc8aW5maWxlLm1hZT4nLCAnLW9tYWUnLCAnPG91dGZpbGUubWFlPic=

>  <s_epik_input>  (1) 
RkMxPUMoRilOKFtDSDJdUzEpW0NIMl1bQ0gyXVtDQEhdMltOSF1bQ0gyXVtDSDJdW0NIMl1OMltDQEBIXTNbQ0gyXVtDQEBIXTNbQ0BASF0oW09IXSlbQ0gyXVtDQEBdKFtDSDNdKShbT0hdKVtDQEBIXShbQ0BASF0oW09IXSlbQ0hdKFtDSDNdKVtDSDNdKVtDQEhdKFM0KVtDQEBIXShbQ0BASF00NSlbQ0gyXVtDSDJdW0NIMl1bQ0gyXTU=

>  <s_glide_docking_method>  (1) 
confgen

>  <s_i_glide_gridfile>  (1) 
gpcr_5ht2c_6bqh_protein_autoprepared_prepared

>  <s_lp_Force_Field>  (1) 
S-OPLS

>  <s_lp_Variant>  (1) 
DiffSBDD_29_num_sample_100-8

>  <s_m_source_file>  (1) 
generated__ligand_DiffSBDD_2026-05-06_prepared.sdf

>  <GenAI_Model>  (1) 
DiffSBDD

>  <Protein>  (1) 
GPCR_5HT2C

$$$$
DiffSBDD_90_num_sample_100
     RDKit          3D

  0  0  0  0  0  0  0  0  0  0999 V3000
M  V30 BEGIN CTAB
M  V30 COUNTS 85 88 0 0 1
M  V30 BEGIN ATOM
M  V30 1 C 40.376294 28.954646 62.002288 0
M  V30 2 O 37.434928 28.421424 52.673763 0
M  V30 3 F 41.758090 29.469656 67.686132 0
M  V30 4 C 41.386600 34.167967 63.384647 0 CFG=1
M  V30 5 C 38.866540 27.976985 56.048153 0 CFG=2
M  V30 6 C 38.176550 30.199444 56.796633 0 CFG=1
M  V30 7 C 38.093837 34.239539 61.604142 0
M  V30 8 C 37.283130 29.853856 59.199579 0
M  V30 9 C 40.259025 34.873222 62.552748 0
M  V30 10 N 37.467407 27.808385 53.981977 0
M  V30 11 C 41.274134 28.961007 65.448461 0
M  V30 12 C 39.774792 36.180535 63.234593 0
M  V30 13 C 39.368100 29.212400 56.800563 0
M  V30 14 C 37.594542 29.962722 55.368831 0
M  V30 15 O 39.940647 26.355859 54.665886 0
M  V30 16 N 40.069421 30.367503 61.797940 0
M  V30 17 C 37.078050 30.016921 57.870793 0
M  V30 18 F 39.682337 29.230667 67.130006 0
M  V30 19 C 42.023504 31.804384 65.872909 0 CFG=1
M  V30 20 N 40.296211 31.111962 63.061810 0 CHG=1
M  V30 21 C 42.540820 29.572666 64.820581 0
M  V30 22 C 38.711944 30.525478 61.256056 0
M  V30 23 O 39.205498 33.907996 62.437264 0
M  V30 24 C 40.742412 35.260396 61.141318 0
M  V30 25 C 40.397312 28.249898 60.659706 0
M  V30 26 C 40.736105 31.213712 66.495709 0
M  V30 27 C 38.638435 29.807810 59.875566 0 CFG=1
M  V30 28 C 38.276880 28.684986 54.816226 0 CFG=1
M  V30 29 C 40.968719 33.895429 64.843072 0
M  V30 30 O 40.854463 26.821444 56.646363 0 CHG=-1
M  V30 31 C 41.721671 31.501358 63.229306 0 CFG=1
M  V30 32 C 39.015787 28.323857 60.042917 0
M  V30 33 O 37.867421 27.323731 56.814546 0
M  V30 34 C 41.994458 32.919977 62.679410 0
M  V30 35 C 42.430827 31.096521 64.566514 0 CFG=1
M  V30 36 C 42.047444 33.334071 65.768274 0
M  V30 37 C 40.861264 29.701540 66.727145 0
M  V30 38 C 39.984282 26.965558 55.760549 0
M  V30 39 H 41.352244 28.820962 62.456635 0
M  V30 40 H 39.639809 28.484674 62.653477 0
M  V30 41 H 36.521028 28.345236 52.446336 0
M  V30 42 H 42.195106 34.897826 63.452788 0
M  V30 43 H 38.536503 31.225325 56.882544 0
M  V30 44 H 37.311477 33.492071 61.735807 0
M  V30 45 H 37.658975 35.205682 61.853696 0
M  V30 46 H 38.360668 34.239558 60.547079 0
M  V30 47 H 36.426621 29.739362 59.847922 0
M  V30 48 H 37.999121 26.958644 53.809461 0
M  V30 49 H 41.437204 27.904919 65.667696 0
M  V30 50 H 40.447215 28.989553 64.745506 0
M  V30 51 H 40.625346 36.823718 63.463232 0
M  V30 52 H 39.113885 36.761436 62.591982 0
M  V30 53 H 39.225192 36.021360 64.160037 0
M  V30 54 H 40.168669 29.661777 56.208393 0
M  V30 55 H 39.863983 29.001569 57.733018 0
M  V30 56 H 37.814743 30.809533 54.717671 0
M  V30 57 H 36.509888 29.865247 55.375520 0
M  V30 58 H 36.063389 30.021420 57.509994 0
M  V30 59 H 42.812976 31.573793 66.589532 0
M  V30 60 H 39.718668 31.943692 63.022282 0
M  V30 61 H 43.364950 29.399416 65.513780 0
M  V30 62 H 42.833694 29.039821 63.917051 0
M  V30 63 H 38.491498 31.583059 61.125050 0
M  V30 64 H 37.980275 30.122994 61.956006 0
M  V30 65 H 41.765243 35.637903 61.137570 0
M  V30 66 H 40.667306 34.407457 60.480240 0
M  V30 67 H 40.109089 36.021592 60.687878 0
M  V30 68 H 41.150721 28.680304 59.997781 0
M  V30 69 H 40.667293 27.221445 60.816140 0
M  V30 70 H 40.523189 31.707687 67.444075 0
M  V30 71 H 39.871066 31.382820 65.857245 0
M  V30 72 H 39.355200 30.329007 59.245075 0
M  V30 73 H 39.129497 29.003777 54.211357 0
M  V30 74 H 40.654173 34.827975 65.306139 0
M  V30 75 H 40.117222 33.221406 64.838140 0
M  V30 76 H 42.267719 30.884564 62.520144 0
M  V30 77 H 38.285137 27.801553 60.653659 0
M  V30 78 H 38.998853 27.759651 59.115674 0
M  V30 79 H 37.209254 27.968658 57.018730 0
M  V30 80 H 43.067386 33.050483 62.653780 0
M  V30 81 H 41.727848 32.908534 61.624738 0
M  V30 82 H 43.465858 31.402601 64.406912 0
M  V30 83 H 43.032608 33.690420 65.463324 0
M  V30 84 H 41.890215 33.740481 66.769148 0
M  V30 85 H 40.000459 30.502857 63.811862 0
M  V30 END ATOM
M  V30 BEGIN BOND
M  V30 1 1 9 4
M  V30 2 1 10 2
M  V30 3 1 12 9
M  V30 4 1 13 5
M  V30 5 1 13 6
M  V30 6 1 14 6
M  V30 7 1 16 1
M  V30 8 1 17 6
M  V30 9 2 17 8
M  V30 10 1 20 16
M  V30 11 1 21 11
M  V30 12 1 22 16
M  V30 13 1 23 7
M  V30 14 1 23 9
M  V30 15 1 24 9
M  V30 16 1 25 1
M  V30 17 1 26 19
M  V30 18 1 27 8
M  V30 19 1 27 22
M  V30 20 1 28 5
M  V30 21 1 28 10
M  V30 22 1 28 14
M  V30 23 1 29 4
M  V30 24 1 31 20
M  V30 25 1 32 25
M  V30 26 1 32 27
M  V30 27 1 5 33 CFG=1
M  V30 28 1 34 4
M  V30 29 1 34 31
M  V30 30 1 35 19
M  V30 31 1 35 21
M  V30 32 1 35 31
M  V30 33 1 36 19
M  V30 34 1 36 29
M  V30 35 1 37 3
M  V30 36 1 37 11
M  V30 37 1 37 18
M  V30 38 1 37 26
M  V30 39 1 38 5
M  V30 40 2 38 15
M  V30 41 1 38 30
M  V30 42 1 39 1
M  V30 43 1 40 1
M  V30 44 1 41 2
M  V30 45 1 4 42 CFG=1
M  V30 46 1 6 43 CFG=3
M  V30 47 1 44 7
M  V30 48 1 45 7
M  V30 49 1 46 7
M  V30 50 1 47 8
M  V30 51 1 48 10
M  V30 52 1 49 11
M  V30 53 1 50 11
M  V30 54 1 51 12
M  V30 55 1 52 12
M  V30 56 1 53 12
M  V30 57 1 54 13
M  V30 58 1 55 13
M  V30 59 1 56 14
M  V30 60 1 57 14
M  V30 61 1 58 17
M  V30 62 1 19 59 CFG=1
M  V30 63 1 60 20
M  V30 64 1 61 21
M  V30 65 1 62 21
M  V30 66 1 63 22
M  V30 67 1 64 22
M  V30 68 1 65 24
M  V30 69 1 66 24
M  V30 70 1 67 24
M  V30 71 1 68 25
M  V30 72 1 69 25
M  V30 73 1 70 26
M  V30 74 1 71 26
M  V30 75 1 27 72 CFG=3
M  V30 76 1 28 73 CFG=3
M  V30 77 1 74 29
M  V30 78 1 75 29
M  V30 79 1 31 76 CFG=3
M  V30 80 1 77 32
M  V30 81 1 78 32
M  V30 82 1 79 33
M  V30 83 1 80 34
M  V30 84 1 81 34
M  V30 85 1 35 82 CFG=3
M  V30 86 1 83 36
M  V30 87 1 84 36
M  V30 88 1 85 20
M  V30 END BOND
M  V30 END CTAB
M  END
>  <i_epik_Tot_Q>  (1) 
0

>  <i_epik_Tot_abs_Q>  (1) 
2

>  <i_i_glide_confnum>  (1) 
239

>  <i_i_glide_lignum>  (1) 
235

>  <i_i_glide_posenum>  (1) 
338

>  <i_i_glide_rotatable_bonds>  (1) 
10

>  <i_lp_mmshare_version>  (1) 
72125

>  <i_m_source_file_index>  (1) 
91

>  <i_f3d_flags>  (1) 
0

>  <num_sample>  (1) 
100

>  <b_lp_Chiralities_Consistent>  (1) 
1

>  <r_epik_Charging_Adjusted_Penalty>  (1) 
1.3235823108087639

>  <r_epik_Ionization_Penalty>  (1) 
0.58520961668590687

>  <r_epik_Ionization_Penalty_Charging>  (1) 
0.5818654171532841

>  <r_epik_Ionization_Penalty_Neutral>  (1) 
0.0033441995326227757

>  <r_epik_State_Penalty>  (1) 
0.74171689365547977

>  <r_glide_ring_energy>  (1) 
0.16952212376529802

>  <r_i_docking_score>  (1) 
-4.6377616498649568

>  <r_i_glide_ecoul>  (1) 
0.69560637422686711

>  <r_i_glide_eff_state_penalty>  (1) 
0.74171689365547977

>  <r_i_glide_einternal>  (1) 
12.910966735903665

>  <r_i_glide_emodel>  (1) 
-30.271986869723079

>  <r_i_glide_emodel_strain>  (1) 
3.7815228728634054

>  <r_i_glide_energy>  (1) 
-36.856999903703773

>  <r_i_glide_erotb>  (1) 
0.42002339013477186

>  <r_i_glide_esite>  (1) 
-0.00067790933470999667

>  <r_i_glide_evdw>  (1) 
-37.552606277930643

>  <r_i_glide_gscore>  (1) 
-5.3794785435204364

>  <r_i_glide_gscore_strain>  (1) 
0

>  <r_i_glide_hbond>  (1) 
0

>  <r_i_glide_ligand_efficiency>  (1) 
-0.12204635920697254

>  <r_i_glide_ligand_efficiency_ln>  (1) 
-1.0000378408362727

>  <r_i_glide_ligand_efficiency_sa>  (1) 
-0.41031685814319402

>  <r_i_glide_lipo>  (1) 
-3.2906276045872427

>  <r_i_glide_metal>  (1) 
-0

>  <r_i_glide_rewards>  (1) 
-0.73490706197075506

>  <r_lp_Energy>  (1) 
57.103046999999997

>  <s_epik_Chemistry_Notes>  (1) 
This compound has a N-S or N-O group and may undergo hydrolysis at high or low pH.

>  <s_epik_cmdline>  (1) 
J2VwaWtfcHl0aG9uJywgJy1waHQnLCAnMS4wJywgJy1waCcsICc3LjQnLCAnLXRuJywgJzgnLCAnLW1hJywgJzUwMCcsICctaW1hZScsICc8aW5maWxlLm1hZT4nLCAnLW9tYWUnLCAnPG91dGZpbGUubWFlPic=

>  <s_epik_input>  (1) 
RkMoRikoW0NIMl0xKVtDSDJdW0NIMl1bQ0BIXShbQ0BASF0xMilbQ0BIXShbQ0gyXVtDQEhdKFtDSDJdW0NIMl0yKUMoW0NIM10pKFtDSDNdKU9bQ0gzXSlbTkhdTjNbQ0gyXVtDSDJdW0NIMl1bQ0BIXShbQ0gyXTMpL1tDSF09W0NIXVxbQ0BASF0oW0NIMl1bQ0BdNChbT0hdKUMoPU8pW09IXSlbQ0gyXVtDQEBIXTRbTkhdW09IXQ==

>  <s_glide_docking_method>  (1) 
confgen

>  <s_i_glide_gridfile>  (1) 
gpcr_5ht2c_6bqh_protein_autoprepared_prepared

>  <s_lp_Force_Field>  (1) 
S-OPLS

>  <s_lp_Variant>  (1) 
DiffSBDD_90_num_sample_100-7

>  <s_m_source_file>  (1) 
generated__ligand_DiffSBDD_2026-05-06_prepared.sdf

>  <GenAI_Model>  (1) 
DiffSBDD

>  <Protein>  (1) 
GPCR_5HT2C

$$$$
DiffSBDD_31_num_sample_100
     RDKit          3D

  0  0  0  0  0  0  0  0  0  0999 V3000
M  V30 BEGIN CTAB
M  V30 COUNTS 22 22 0 0 1
M  V30 BEGIN ATOM
M  V30 1 O 39.030449 33.211343 55.853335 0
M  V30 2 C 38.486277 30.958622 55.273976 0 CFG=1
M  V30 3 C 39.261722 30.018034 53.002599 0
M  V30 4 O 37.089939 30.820583 55.053161 0
M  V30 5 C 39.678839 29.259058 50.535028 0 CFG=2
M  V30 6 O 38.667187 31.764773 57.508024 0 CHG=-1
M  V30 7 C 39.770162 30.335295 51.597873 0 CFG=2
M  V30 8 C 39.205259 31.234035 53.932094 0
M  V30 9 C 38.748550 32.076133 56.299365 0
M  V30 10 S 39.067490 27.621309 51.053577 0
M  V30 11 C 41.022104 29.730730 50.994523 0
M  V30 12 H 38.861031 30.029982 55.705764 0
M  V30 13 H 39.867390 29.229776 53.445817 0
M  V30 14 H 38.251718 29.618385 52.914891 0
M  V30 15 H 36.622204 31.201368 55.800116 0
M  V30 16 H 39.466104 29.525388 49.503719 0
M  V30 17 H 39.489096 31.327529 51.246704 0
M  V30 18 H 38.690634 32.050828 53.426466 0
M  V30 19 H 40.224831 31.572729 54.117745 0
M  V30 20 H 37.787079 27.957377 51.238624 0
M  V30 21 H 41.592138 30.366195 50.318800 0
M  V30 22 H 41.592371 28.934880 51.453912 0
M  V30 END ATOM
M  V30 BEGIN BOND
M  V30 1 1 4 2
M  V30 2 1 7 3
M  V30 3 1 7 5
M  V30 4 1 8 2
M  V30 5 1 8 3
M  V30 6 2 9 1
M  V30 7 1 9 2
M  V30 8 1 9 6
M  V30 9 1 10 5
M  V30 10 1 11 5
M  V30 11 1 11 7
M  V30 12 1 2 12 CFG=1
M  V30 13 1 13 3
M  V30 14 1 14 3
M  V30 15 1 15 4
M  V30 16 1 5 16 CFG=3
M  V30 17 1 7 17 CFG=3
M  V30 18 1 18 8
M  V30 19 1 19 8
M  V30 20 1 20 10
M  V30 21 1 21 11
M  V30 22 1 22 11
M  V30 END BOND
M  V30 END CTAB
M  END
>  <i_epik_Tot_Q>  (1) 
-1

>  <i_epik_Tot_abs_Q>  (1) 
1

>  <i_i_glide_confnum>  (1) 
24

>  <i_i_glide_lignum>  (1) 
85

>  <i_i_glide_posenum>  (1) 
58

>  <i_i_glide_rotatable_bonds>  (1) 
6

>  <i_lp_mmshare_version>  (1) 
72125

>  <i_m_source_file_index>  (1) 
32

>  <i_f3d_flags>  (1) 
0

>  <num_sample>  (1) 
100

>  <b_lp_Chiralities_Consistent>  (1) 
1

>  <r_epik_Charging_Adjusted_Penalty>  (1) 
0.00018608046313999227

>  <r_epik_Ionization_Penalty>  (1) 
0.0019748008794804291

>  <r_epik_Ionization_Penalty_Charging>  (1) 
0.00018608046313999227

>  <r_epik_Ionization_Penalty_Neutral>  (1) 
0.0017887204163404367

>  <r_epik_State_Penalty>  (1) 
-0

>  <r_glide_ring_energy>  (1) 
0

>  <r_i_docking_score>  (1) 
-4.6287022320801414

>  <r_i_glide_ecoul>  (1) 
-3.5554418558859586

>  <r_i_glide_eff_state_penalty>  (1) 
-0

>  <r_i_glide_einternal>  (1) 
7.8732663244917624

>  <r_i_glide_emodel>  (1) 
-24.448263148901049

>  <r_i_glide_emodel_strain>  (1) 
1.3854075815273514

>  <r_i_glide_energy>  (1) 
-23.106410244513196

>  <r_i_glide_erotb>  (1) 
1.524023084200782

>  <r_i_glide_esite>  (1) 
-0.0536574748138966

>  <r_i_glide_evdw>  (1) 
-19.550968388627236

>  <r_i_glide_gscore>  (1) 
-4.6287022320801414

>  <r_i_glide_gscore_strain>  (1) 
0

>  <r_i_glide_hbond>  (1) 
-0.16

>  <r_i_glide_ligand_efficiency>  (1) 
-0.42079111200728558

>  <r_i_glide_ligand_efficiency_ln>  (1) 
-1.3622262784656478

>  <r_i_glide_ligand_efficiency_sa>  (1) 
-0.93583105539272604

>  <r_i_glide_lipo>  (1) 
-1.3736174434156012

>  <r_i_glide_metal>  (1) 
-0

>  <r_i_glide_rewards>  (1) 
-3.0545857002371695

>  <r_lp_Energy>  (1) 
14.639012999999998

>  <r_lp_tautomer_probability>  (1) 
1

>  <s_epik_cmdline>  (1) 
J2VwaWtfcHl0aG9uJywgJy1waHQnLCAnMS4wJywgJy1waCcsICc3LjQnLCAnLXRuJywgJzgnLCAnLW1hJywgJzUwMCcsICctaW1hZScsICc8aW5maWxlLm1hZT4nLCAnLW9tYWUnLCAnPG91dGZpbGUubWFlPic=

>  <s_epik_input>  (1) 
Tz1DKFtPSF0pW0NAQEhdKFtPSF0pW0NIMl1bQ0gyXVtDQEBIXShbQ0gyXTEpW0NAQEhdMVtTSF0=

>  <s_glide_docking_method>  (1) 
confgen

>  <s_i_glide_gridfile>  (1) 
gpcr_5ht2c_6bqh_protein_autoprepared_prepared

>  <s_lp_Force_Field>  (1) 
S-OPLS

>  <s_lp_Variant>  (1) 
DiffSBDD_31_num_sample_100-1

>  <s_m_source_file>  (1) 
generated__ligand_DiffSBDD_2026-05-06_prepared.sdf

>  <GenAI_Model>  (1) 
DiffSBDD

>  <Protein>  (1) 
GPCR_5HT2C

$$$$
DiffSBDD_47_num_sample_100
     RDKit          3D

  0  0  0  0  0  0  0  0  0  0999 V3000
M  V30 BEGIN CTAB
M  V30 COUNTS 32 32 0 0 1
M  V30 BEGIN ATOM
M  V30 1 S 38.276303 28.059919 52.939759 0
M  V30 2 C 37.986008 25.374418 55.590220 0
M  V30 3 N 38.866630 29.804138 54.850756 0
M  V30 4 C 37.806013 30.009503 57.066445 0
M  V30 5 C 39.495367 27.472091 55.363607 0
M  V30 6 O 39.299414 25.776602 57.989562 0 CHG=-1
M  V30 7 C 38.454653 28.418818 54.712647 0 CFG=2
M  V30 8 C 38.106779 31.016286 58.205336 0 CFG=2
M  V30 9 C 39.318252 25.963197 55.102832 0
M  V30 10 C 37.067426 30.969691 59.338197 0
M  V30 11 O 36.269678 30.036115 59.455521 0
M  V30 12 O 37.467274 23.972621 57.853502 0
M  V30 13 S 37.928006 25.369569 57.447042 0
M  V30 14 C 38.577301 30.518610 55.866998 0
M  V30 15 C 38.308998 32.428461 57.592314 0
M  V30 16 O 37.140164 32.032614 60.161699 0
M  V30 17 O 36.135766 32.020783 61.218790 0
M  V30 18 S 39.066680 32.217524 55.963622 0
M  V30 19 H 37.815087 26.814554 53.091814 0
M  V30 20 H 37.135316 25.932967 55.202647 0
M  V30 21 H 37.877880 24.348120 55.237801 0
M  V30 22 H 38.094371 29.002180 57.361675 0
M  V30 23 H 36.743415 30.002490 56.819716 0
M  V30 24 H 40.497067 27.740940 55.054508 0
M  V30 25 H 39.512455 27.645147 56.435481 0
M  V30 26 H 37.473410 28.251317 55.154331 0
M  V30 27 H 39.061378 30.726849 58.647452 0
M  V30 28 H 39.424129 25.772179 54.037313 0
M  V30 29 H 40.142200 25.421283 55.569088 0
M  V30 30 H 37.360238 32.943795 57.452676 0
M  V30 31 H 38.941244 33.060950 58.218433 0
M  V30 32 H 35.404393 32.420955 60.770550 0
M  V30 END ATOM
M  V30 BEGIN BOND
M  V30 1 1 7 1
M  V30 2 1 7 3
M  V30 3 1 7 5
M  V30 4 1 8 4
M  V30 5 1 9 2
M  V30 6 1 9 5
M  V30 7 1 10 8
M  V30 8 2 11 10
M  V30 9 1 13 2
M  V30 10 1 13 6
M  V30 11 2 13 12
M  V30 12 2 14 3
M  V30 13 1 14 4
M  V30 14 1 15 8
M  V30 15 1 16 10
M  V30 16 1 17 16
M  V30 17 1 18 14
M  V30 18 1 18 15
M  V30 19 1 19 1
M  V30 20 1 20 2
M  V30 21 1 21 2
M  V30 22 1 22 4
M  V30 23 1 23 4
M  V30 24 1 24 5
M  V30 25 1 25 5
M  V30 26 1 7 26 CFG=1
M  V30 27 1 8 27 CFG=1
M  V30 28 1 28 9
M  V30 29 1 29 9
M  V30 30 1 30 15
M  V30 31 1 31 15
M  V30 32 1 32 17
M  V30 END BOND
M  V30 END CTAB
M  END
>  <i_epik_Tot_Q>  (1) 
-1

>  <i_epik_Tot_abs_Q>  (1) 
1

>  <i_i_glide_confnum>  (1) 
15

>  <i_i_glide_lignum>  (1) 
130

>  <i_i_glide_posenum>  (1) 
323

>  <i_i_glide_rotatable_bonds>  (1) 
9

>  <i_lp_mmshare_version>  (1) 
72125

>  <i_m_source_file_index>  (1) 
48

>  <i_f3d_flags>  (1) 
0

>  <num_sample>  (1) 
100

>  <b_lp_Chiralities_Consistent>  (1) 
1

>  <r_epik_Charging_Adjusted_Penalty>  (1) 
0.41068401557064588

>  <r_epik_Ionization_Penalty>  (1) 
0.088233061061265911

>  <r_epik_Ionization_Penalty_Charging>  (1) 
4.1766180419441644e-06

>  <r_epik_Ionization_Penalty_Neutral>  (1) 
0.088228884443223965

>  <r_epik_State_Penalty>  (1) 
0.41067983895260396

>  <r_glide_ring_energy>  (1) 
0

>  <r_i_docking_score>  (1) 
-4.6256002382811667

>  <r_i_glide_ecoul>  (1) 
-3.6026105766097416

>  <r_i_glide_eff_state_penalty>  (1) 
0.41067983895260396

>  <r_i_glide_einternal>  (1) 
3.2502252929171274

>  <r_i_glide_emodel>  (1) 
-51.825278268992676

>  <r_i_glide_emodel_strain>  (1) 
0.33517213576714333

>  <r_i_glide_energy>  (1) 
-40.367843659550303

>  <r_i_glide_erotb>  (1) 
1.1409563005043168

>  <r_i_glide_esite>  (1) 
-0.20884514058126782

>  <r_i_glide_evdw>  (1) 
-36.765233082940561

>  <r_i_glide_gscore>  (1) 
-5.036280077233771

>  <r_i_glide_gscore_strain>  (1) 
0

>  <r_i_glide_hbond>  (1) 
0

>  <r_i_glide_ligand_efficiency>  (1) 
-0.25697779101562035

>  <r_i_glide_ligand_efficiency_ln>  (1) 
-1.188986689740571

>  <r_i_glide_ligand_efficiency_sa>  (1) 
-0.67347233430699949

>  <r_i_glide_lipo>  (1) 
-1.0638371013745687

>  <r_i_glide_metal>  (1) 
-0

>  <r_i_glide_rewards>  (1) 
-2.5259008951437623

>  <r_lp_Energy>  (1) 
-2.1524229999999998

>  <r_lp_tautomer_probability>  (1) 
0.49990026989615577

>  <s_epik_Chemistry_Notes>  (1) 
This compound has an imine and may undergo hydrolysis. This compound contains an acetal/aminal-like group ( X-CH(R)-Y where X, Y are N, S, or O) that may be acid/base labile, releasing an aldehyde.

>  <s_epik_cmdline>  (1) 
J2VwaWtfcHl0aG9uJywgJy1waHQnLCAnMS4wJywgJy1waCcsICc3LjQnLCAnLXRuJywgJzgnLCAnLW1hJywgJzUwMCcsICctaW1hZScsICc8aW5maWxlLm1hZT4nLCAnLW9tYWUnLCAnPG91dGZpbGUubWFlPic=

>  <s_epik_input>  (1) 
W09IXVtTQEBdKD1PKVtDSDJdW0NIMl1bQ0gyXVtDQEhdKFtTSF0pL049QyhTW0NIMl0xKVxbQ0gyXVtDQEBIXTFDKD1PKU9bT0hd

>  <s_glide_docking_method>  (1) 
confgen

>  <s_i_glide_gridfile>  (1) 
gpcr_5ht2c_6bqh_protein_autoprepared_prepared

>  <s_lp_Force_Field>  (1) 
S-OPLS

>  <s_lp_Variant>  (1) 
DiffSBDD_47_num_sample_100-2

>  <s_m_source_file>  (1) 
generated__ligand_DiffSBDD_2026-05-06_prepared.sdf

>  <GenAI_Model>  (1) 
DiffSBDD

>  <Protein>  (1) 
GPCR_5HT2C

$$$$
DiffSBDD_32_num_sample_100
     RDKit          3D

  0  0  0  0  0  0  0  0  0  0999 V3000
M  V30 BEGIN CTAB
M  V30 COUNTS 84 87 0 0 1
M  V30 BEGIN ATOM
M  V30 1 C 38.200979 29.726169 58.774392 0 CFG=2
M  V30 2 O 35.332602 31.663139 61.530400 0 CHG=-1
M  V30 3 O 36.824087 28.190878 52.946974 0
M  V30 4 C 39.403263 26.848522 52.120232 0
M  V30 5 C 37.655095 23.828389 57.377978 0
M  V30 6 C 37.942941 34.341072 60.831892 0
M  V30 7 O 37.630603 27.653749 57.612614 0
M  V30 8 C 38.252970 36.785573 61.145820 0
M  V30 9 C 40.082910 27.456514 55.682033 0 CFG=1
M  V30 10 C 38.654318 32.682241 58.568656 0
M  V30 11 C 39.139709 28.341738 52.148152 0 CFG=2
M  V30 12 C 36.273557 35.306731 59.284097 0
M  V30 13 C 39.148562 29.756503 56.346471 0
M  V30 14 C 37.555038 37.338817 60.154143 0
M  V30 15 O 37.867392 38.583190 59.787769 0
M  V30 16 C 36.451984 36.657775 59.453319 0
M  V30 17 C 37.130379 26.340661 55.705587 0
M  V30 18 C 36.431319 31.523368 60.966492 0
M  V30 19 O 37.519732 31.287740 61.532093 0
M  V30 20 C 36.438552 31.638034 59.450752 0 CFG=2
M  V30 21 O 36.648367 35.621494 62.253562 0
M  V30 22 C 40.360709 28.820556 56.264016 0
M  V30 23 C 37.155607 34.216334 59.746332 0
M  V30 24 C 37.945439 35.489867 61.750817 0 CFG=1
M  V30 25 C 39.499311 26.359130 56.608521 0
M  V30 26 C 38.403969 28.187462 58.700409 0
M  V30 27 N 38.632829 31.816327 57.408549 0 CHG=1
M  V30 28 C 39.419907 28.797866 53.562312 0
M  V30 29 C 39.991791 26.486509 53.454372 0
M  V30 30 C 37.666610 28.507284 51.852738 0
M  V30 31 C 36.667487 23.396132 56.261525 0
M  V30 32 N 39.466966 27.523077 54.342459 0 CFG=1 CHG=1
M  V30 33 C 37.992938 26.420416 56.972911 0 CFG=1
M  V30 34 C 36.730087 30.209428 58.826254 0
M  V30 35 C 37.575115 25.273826 57.913286 0
M  V30 36 C 37.207002 32.921500 58.932501 0 CFG=1
M  V30 37 C 39.029862 30.434335 57.682754 0 CFG=1
M  V30 38 H 38.650161 30.003336 59.725593 0
M  V30 39 H 35.925776 28.164453 52.651029 0
M  V30 40 H 39.867232 26.465054 51.217898 0
M  V30 41 H 38.420430 26.421409 52.158466 0
M  V30 42 H 38.678437 23.622129 57.072800 0
M  V30 43 H 37.476436 23.174004 58.229192 0
M  V30 44 H 38.583488 33.520650 61.114256 0
M  V30 45 H 39.051457 37.349385 61.607759 0
M  V30 46 H 41.067491 27.065003 55.508379 0
M  V30 47 H 39.137895 33.615492 58.270420 0
M  V30 48 H 39.227433 32.270477 59.398508 0
M  V30 49 H 39.753200 28.878067 51.424058 0
M  V30 50 H 35.428946 35.013180 58.675692 0
M  V30 51 H 38.198900 29.304750 56.061364 0
M  V30 52 H 39.327530 30.533248 55.600622 0
M  V30 53 H 38.569040 38.880010 60.346333 0
M  V30 54 H 35.730430 37.292049 58.966120 0
M  V30 55 H 37.518312 25.631426 54.978247 0
M  V30 56 H 36.119564 26.021179 55.937563 0
M  V30 57 H 37.068072 27.297595 55.209278 0
M  V30 58 H 35.394602 31.828236 59.198737 0
M  V30 59 H 36.131142 34.892537 61.937446 0
M  V30 60 H 41.068040 29.287546 55.587637 0
M  V30 61 H 40.918875 28.710193 57.192254 0
M  V30 62 H 38.656235 35.297163 62.555698 0
M  V30 63 H 39.693604 25.399568 56.129122 0
M  V30 64 H 40.106185 26.299267 57.510721 0
M  V30 65 H 38.245902 27.686556 59.651127 0
M  V30 66 H 39.465885 28.016420 58.575445 0
M  V30 67 H 37.680841 31.812731 57.053370 0
M  V30 68 H 38.615911 29.447989 53.896545 0
M  V30 69 H 40.267027 29.478373 53.577821 0
M  V30 70 H 41.078783 26.421550 53.434717 0
M  V30 71 H 39.615025 25.569359 53.854948 0
M  V30 72 H 37.508725 29.484454 51.478805 0
M  V30 73 H 37.445318 27.831813 51.053105 0
M  V30 74 H 36.362559 22.356374 56.381227 0
M  V30 75 H 35.752137 23.972679 56.253004 0
M  V30 76 H 37.116860 23.472676 55.272549 0
M  V30 77 H 36.290053 30.094830 57.837853 0
M  V30 78 H 36.173951 29.478337 59.416928 0
M  V30 79 H 38.206126 25.332950 58.799917 0
M  V30 80 H 36.553553 25.447810 58.252096 0
M  V30 81 H 36.707675 33.211889 58.008094 0
M  V30 82 H 40.025302 30.421210 58.074036 0
M  V30 83 H 38.487822 27.312081 54.482557 0
M  V30 84 H 39.239283 32.209165 56.706407 0
M  V30 END ATOM
M  V30 BEGIN BOND
M  V30 1 1 11 4
M  V30 2 2 14 8
M  V30 3 1 15 14
M  V30 4 2 16 12
M  V30 5 1 16 14
M  V30 6 1 18 2
M  V30 7 2 19 18
M  V30 8 1 20 18
M  V30 9 1 22 9
M  V30 10 1 22 13
M  V30 11 2 23 6
M  V30 12 1 23 12
M  V30 13 1 24 6
M  V30 14 1 24 8
M  V30 15 1 24 21
M  V30 16 1 25 9
M  V30 17 1 26 1
M  V30 18 1 26 7
M  V30 19 1 27 10
M  V30 20 1 28 11
M  V30 21 1 29 4
M  V30 22 1 30 3
M  V30 23 1 30 11
M  V30 24 1 31 5
M  V30 25 1 32 9
M  V30 26 1 32 28
M  V30 27 1 32 29
M  V30 28 1 33 7
M  V30 29 1 33 17 CFG=3
M  V30 30 1 33 25
M  V30 31 1 34 1
M  V30 32 1 34 20
M  V30 33 1 35 5
M  V30 34 1 35 33
M  V30 35 1 36 10
M  V30 36 1 36 20
M  V30 37 1 36 23
M  V30 38 1 37 1
M  V30 39 1 37 13
M  V30 40 1 37 27
M  V30 41 1 1 38 CFG=1
M  V30 42 1 39 3
M  V30 43 1 40 4
M  V30 44 1 41 4
M  V30 45 1 42 5
M  V30 46 1 43 5
M  V30 47 1 44 6
M  V30 48 1 45 8
M  V30 49 1 9 46 CFG=3
M  V30 50 1 47 10
M  V30 51 1 48 10
M  V30 52 1 11 49 CFG=3
M  V30 53 1 50 12
M  V30 54 1 51 13
M  V30 55 1 52 13
M  V30 56 1 53 15
M  V30 57 1 54 16
M  V30 58 1 55 17
M  V30 59 1 56 17
M  V30 60 1 57 17
M  V30 61 1 20 58 CFG=3
M  V30 62 1 59 21
M  V30 63 1 60 22
M  V30 64 1 61 22
M  V30 65 1 24 62 CFG=1
M  V30 66 1 63 25
M  V30 67 1 64 25
M  V30 68 1 65 26
M  V30 69 1 66 26
M  V30 70 1 67 27
M  V30 71 1 68 28
M  V30 72 1 69 28
M  V30 73 1 70 29
M  V30 74 1 71 29
M  V30 75 1 72 30
M  V30 76 1 73 30
M  V30 77 1 74 31
M  V30 78 1 75 31
M  V30 79 1 76 31
M  V30 80 1 77 34
M  V30 81 1 78 34
M  V30 82 1 79 35
M  V30 83 1 80 35
M  V30 84 1 36 81 CFG=3
M  V30 85 1 37 82 CFG=1
M  V30 86 1 32 83 CFG=1
M  V30 87 1 84 27
M  V30 END BOND
M  V30 END CTAB
M  END
>  <i_epik_Tot_Q>  (1) 
1

>  <i_epik_Tot_abs_Q>  (1) 
3

>  <i_i_glide_confnum>  (1) 
20

>  <i_i_glide_lignum>  (1) 
86

>  <i_i_glide_posenum>  (1) 
384

>  <i_i_glide_rotatable_bonds>  (1) 
9

>  <i_lp_mmshare_version>  (1) 
72125

>  <i_m_source_file_index>  (1) 
33

>  <i_f3d_flags>  (1) 
0

>  <num_sample>  (1) 
100

>  <b_lp_Chiralities_Consistent>  (1) 
1

>  <r_epik_Charging_Adjusted_Penalty>  (1) 
0.016900800142501185

>  <r_epik_Ionization_Penalty>  (1) 
0.019380071947909534

>  <r_epik_Ionization_Penalty_Charging>  (1) 
0.016900800142501185

>  <r_epik_Ionization_Penalty_Neutral>  (1) 
0.0024792718054083493

>  <r_epik_State_Penalty>  (1) 
-0

>  <r_glide_ring_energy>  (1) 
0.61486460330697923

>  <r_i_docking_score>  (1) 
-4.6218052884878773

>  <r_i_glide_ecoul>  (1) 
-3.2489947997580702

>  <r_i_glide_eff_state_penalty>  (1) 
-0

>  <r_i_glide_einternal>  (1) 
8.2510909926035456

>  <r_i_glide_emodel>  (1) 
-4.1213520353144375

>  <r_i_glide_emodel_strain>  (1) 
9.3673884200306361

>  <r_i_glide_energy>  (1) 
-14.83571551728155

>  <r_i_glide_erotb>  (1) 
0.30428459818937692

>  <r_i_glide_esite>  (1) 
-0.12346166816597148

>  <r_i_glide_evdw>  (1) 
-11.586720717523479

>  <r_i_glide_gscore>  (1) 
-4.6218052884878773

>  <r_i_glide_gscore_strain>  (1) 
1.341847105007659

>  <r_i_glide_hbond>  (1) 
-0.59689257209645374

>  <r_i_glide_ligand_efficiency>  (1) 
-0.1249136564456183

>  <r_i_glide_ligand_efficiency_ln>  (1) 
-1.0023612165841855

>  <r_i_glide_ligand_efficiency_sa>  (1) 
-0.41624001557708473

>  <r_i_glide_lipo>  (1) 
-3.5808974955826045

>  <r_i_glide_metal>  (1) 
-0

>  <r_i_glide_rewards>  (1) 
-0.90000000000000002

>  <r_lp_Energy>  (1) 
56.404024999999997

>  <r_lp_tautomer_probability>  (1) 
1

>  <s_epik_cmdline>  (1) 
J2VwaWtfcHl0aG9uJywgJy1waHQnLCAnMS4wJywgJy1waCcsICc3LjQnLCAnLXRuJywgJzgnLCAnLW1hJywgJzUwMCcsICctaW1hZScsICc8aW5maWxlLm1hZT4nLCAnLW9tYWUnLCAnPG91dGZpbGUubWFlPic=

>  <s_epik_input>  (1) 
W09IXUMxPVtDSF1bQ0BASF0oW09IXSlbQ0hdPUMoW0NIXT1bQ0hdMSlbQ0BIXShbQ0BASF0oW0NIMl0yKUMoPU8pW09IXSlbQ0gyXVtOSF1bQ0BASF0oW0NAQEhdMjMpW0NIMl1bQ0gyXVtDQEBIXShbQ0gyXVtDQF0oW0NIM10pKE9bQ0gyXTMpW0NIMl1bQ0gyXVtDSDNdKU4oW0NIMl00KVtDSDJdW0NIMl1bQ0BIXTRbQ0gyXVtPSF0=

>  <s_glide_docking_method>  (1) 
confgen

>  <s_i_glide_gridfile>  (1) 
gpcr_5ht2c_6bqh_protein_autoprepared_prepared

>  <s_lp_Force_Field>  (1) 
S-OPLS

>  <s_lp_Variant>  (1) 
DiffSBDD_32_num_sample_100-1

>  <s_m_source_file>  (1) 
generated__ligand_DiffSBDD_2026-05-06_prepared.sdf

>  <GenAI_Model>  (1) 
DiffSBDD

>  <Protein>  (1) 
GPCR_5HT2C

$$$$
DiffSBDD_90_num_sample_100
     RDKit          3D

  0  0  0  0  0  0  0  0  0  0999 V3000
M  V30 BEGIN CTAB
M  V30 COUNTS 85 88 0 0 1
M  V30 BEGIN ATOM
M  V30 1 C 35.891504 30.704804 59.819885 0
M  V30 2 O 41.196715 35.629080 61.268511 0
M  V30 3 F 37.839350 23.622831 57.086834 0
M  V30 4 C 38.481800 30.156115 54.969333 0 CFG=1
M  V30 5 C 40.758419 32.681031 61.924323 0 CFG=2
M  V30 6 C 38.645094 33.749778 61.162829 0 CFG=1
M  V30 7 C 38.268226 33.151865 55.505528 0
M  V30 8 C 37.312909 34.696681 59.188393 0
M  V30 9 C 39.476748 31.237695 54.498028 0
M  V30 10 N 41.462783 35.066444 62.571025 0
M  V30 11 C 38.156509 25.583858 58.238763 0
M  V30 12 C 40.899879 30.718358 54.542599 0
M  V30 13 C 39.880776 32.946569 60.688335 0
M  V30 14 C 39.086714 34.273068 62.541048 0
M  V30 15 O 41.000983 30.856815 63.477632 0
M  V30 16 N 36.750606 30.857063 58.653493 0 CFG=2 CHG=1
M  V30 17 C 38.219601 34.849442 60.183792 0
M  V30 18 F 39.677983 24.704519 56.704673 0
M  V30 19 C 38.029580 27.031889 55.744113 0 CFG=2
M  V30 20 N 37.624370 29.705528 58.511448 0
M  V30 21 C 38.564324 27.037200 58.162503 0
M  V30 22 C 37.461829 32.144062 58.730815 0
M  V30 23 O 39.465650 32.387841 55.356670 0
M  V30 24 C 39.222269 31.620921 53.050761 0
M  V30 25 C 34.823519 31.781076 59.754388 0
M  V30 26 C 37.667616 25.532598 55.764214 0
M  V30 27 C 36.569122 33.404985 58.860921 0 CFG=1
M  V30 28 C 40.558320 33.936983 62.791247 0 CFG=1
M  V30 29 C 38.441149 28.904651 54.047571 0
M  V30 30 O 39.049678 31.038668 62.414522 0 CHG=-1
M  V30 31 C 37.613065 29.222007 57.143483 0 CFG=1
M  V30 32 C 35.368761 33.211816 59.798536 0
M  V30 33 O 42.109667 32.507861 61.571111 0
M  V30 34 C 38.810787 29.805886 56.431168 0
M  V30 35 C 37.658032 27.681232 57.118165 0 CFG=1
M  V30 36 C 37.530760 27.766533 54.490844 0
M  V30 37 C 38.374295 24.828814 56.938608 0
M  V30 38 C 40.223390 31.411269 62.672278 0
M  V30 39 H 36.462300 30.789411 60.745531 0
M  V30 40 H 35.468148 29.706782 59.824505 0
M  V30 41 H 40.302900 35.924727 61.356669 0
M  V30 42 H 37.484315 30.594710 54.926994 0
M  V30 43 H 37.785208 33.108374 61.355830 0
M  V30 44 H 38.462271 33.978766 56.191501 0
M  V30 45 H 37.878482 33.591827 54.589371 0
M  V30 46 H 37.471155 32.559765 55.944467 0
M  V30 47 H 37.078771 35.544791 58.560101 0
M  V30 48 H 41.253547 35.832954 63.199630 0
M  V30 49 H 37.093874 25.483707 58.427242 0
M  V30 50 H 38.695004 25.221629 59.085644 0
M  V30 51 H 41.065860 30.222155 53.599512 0
M  V30 52 H 41.641513 31.506626 54.652065 0
M  V30 53 H 41.065216 29.944118 55.278323 0
M  V30 54 H 39.743140 31.965263 60.248685 0
M  V30 55 H 40.266755 33.531147 59.870162 0
M  V30 56 H 38.667384 33.523092 63.183907 0
M  V30 57 H 38.740341 35.273676 62.829126 0
M  V30 58 H 38.687099 35.817403 60.312022 0
M  V30 59 H 39.114736 27.041981 55.658327 0
M  V30 60 H 37.136415 29.055731 59.111038 0
M  V30 61 H 38.459500 27.465813 59.159194 0
M  V30 62 H 39.613645 27.135001 57.888452 0
M  V30 63 H 38.224386 32.264526 57.975069 0
M  V30 64 H 37.932444 31.971160 59.656663 0
M  V30 65 H 39.075975 30.758862 52.416048 0
M  V30 66 H 38.391169 32.316457 52.989973 0
M  V30 67 H 40.087136 32.021429 52.538949 0
M  V30 68 H 34.267913 31.651824 60.654690 0
M  V30 69 H 34.155219 31.618157 58.905559 0
M  V30 70 H 36.585883 25.412092 55.850204 0
M  V30 71 H 37.942964 25.047032 54.826068 0
M  V30 72 H 36.177587 33.624675 57.869528 0
M  V30 73 H 40.708442 33.676460 63.839850 0
M  V30 74 H 38.030286 29.167839 53.077387 0
M  V30 75 H 39.444543 28.522858 53.870325 0
M  V30 76 H 36.692452 29.568496 56.661993 0
M  V30 77 H 35.641780 33.459423 60.826007 0
M  V30 78 H 34.569622 33.908721 59.533754 0
M  V30 79 H 42.411881 33.376700 61.348712 0
M  V30 80 H 39.179385 30.679442 56.962732 0
M  V30 81 H 39.635276 29.100740 56.508399 0
M  V30 82 H 36.667270 27.378759 57.451740 0
M  V30 83 H 36.543652 28.171184 54.614221 0
M  V30 84 H 37.459807 27.061730 53.662089 0
M  V30 85 H 36.142934 30.938851 57.826652 0
M  V30 END ATOM
M  V30 BEGIN BOND
M  V30 1 1 9 4
M  V30 2 1 10 2
M  V30 3 1 12 9
M  V30 4 1 13 5
M  V30 5 1 13 6
M  V30 6 1 14 6
M  V30 7 1 16 1
M  V30 8 1 17 6
M  V30 9 2 17 8
M  V30 10 1 20 16
M  V30 11 1 21 11
M  V30 12 1 22 16
M  V30 13 1 23 7
M  V30 14 1 23 9
M  V30 15 1 24 9
M  V30 16 1 25 1
M  V30 17 1 26 19
M  V30 18 1 27 8
M  V30 19 1 27 22
M  V30 20 1 28 5
M  V30 21 1 28 10
M  V30 22 1 28 14
M  V30 23 1 29 4
M  V30 24 1 31 20
M  V30 25 1 32 25
M  V30 26 1 32 27
M  V30 27 1 5 33 CFG=3
M  V30 28 1 34 4
M  V30 29 1 34 31
M  V30 30 1 35 19
M  V30 31 1 35 21
M  V30 32 1 35 31
M  V30 33 1 36 19
M  V30 34 1 36 29
M  V30 35 1 37 3
M  V30 36 1 37 11
M  V30 37 1 37 18
M  V30 38 1 37 26
M  V30 39 1 38 5
M  V30 40 2 38 15
M  V30 41 1 38 30
M  V30 42 1 39 1
M  V30 43 1 40 1
M  V30 44 1 41 2
M  V30 45 1 4 42 CFG=1
M  V30 46 1 6 43 CFG=1
M  V30 47 1 44 7
M  V30 48 1 45 7
M  V30 49 1 46 7
M  V30 50 1 47 8
M  V30 51 1 48 10
M  V30 52 1 49 11
M  V30 53 1 50 11
M  V30 54 1 51 12
M  V30 55 1 52 12
M  V30 56 1 53 12
M  V30 57 1 54 13
M  V30 58 1 55 13
M  V30 59 1 56 14
M  V30 60 1 57 14
M  V30 61 1 58 17
M  V30 62 1 19 59 CFG=3
M  V30 63 1 60 20
M  V30 64 1 61 21
M  V30 65 1 62 21
M  V30 66 1 63 22
M  V30 67 1 64 22
M  V30 68 1 65 24
M  V30 69 1 66 24
M  V30 70 1 67 24
M  V30 71 1 68 25
M  V30 72 1 69 25
M  V30 73 1 70 26
M  V30 74 1 71 26
M  V30 75 1 27 72 CFG=3
M  V30 76 1 28 73 CFG=1
M  V30 77 1 74 29
M  V30 78 1 75 29
M  V30 79 1 31 76 CFG=3
M  V30 80 1 77 32
M  V30 81 1 78 32
M  V30 82 1 79 33
M  V30 83 1 80 34
M  V30 84 1 81 34
M  V30 85 1 35 82 CFG=1
M  V30 86 1 83 36
M  V30 87 1 84 36
M  V30 88 1 16 85 CFG=3
M  V30 END BOND
M  V30 END CTAB
M  END
>  <i_epik_Tot_Q>  (1) 
0

>  <i_epik_Tot_abs_Q>  (1) 
2

>  <i_i_glide_confnum>  (1) 
458

>  <i_i_glide_lignum>  (1) 
238

>  <i_i_glide_posenum>  (1) 
219

>  <i_i_glide_rotatable_bonds>  (1) 
10

>  <i_lp_mmshare_version>  (1) 
72125

>  <i_m_source_file_index>  (1) 
91

>  <i_f3d_flags>  (1) 
0

>  <num_sample>  (1) 
100

>  <b_lp_Chiralities_Consistent>  (1) 
1

>  <r_epik_Charging_Adjusted_Penalty>  (1) 
1.5083745474312953

>  <r_epik_Ionization_Penalty>  (1) 
0.65750586125956467

>  <r_epik_Ionization_Penalty_Charging>  (1) 
0.6544614066189578

>  <r_epik_Ionization_Penalty_Neutral>  (1) 
0.0030444546406068235

>  <r_epik_State_Penalty>  (1) 
0.8539131408123376

>  <r_glide_ring_energy>  (1) 
1.5457856915782662

>  <r_i_docking_score>  (1) 
-4.6206204569083935

>  <r_i_glide_ecoul>  (1) 
-6.8926944051782355

>  <r_i_glide_eff_state_penalty>  (1) 
0.8539131408123376

>  <r_i_glide_einternal>  (1) 
23.492053278882853

>  <r_i_glide_emodel>  (1) 
-9.4409982024185268

>  <r_i_glide_emodel_strain>  (1) 
7.242488117912842

>  <r_i_glide_energy>  (1) 
-17.622384443127011

>  <r_i_glide_erotb>  (1) 
0.42002339013477186

>  <r_i_glide_esite>  (1) 
-0.10000000000000001

>  <r_i_glide_evdw>  (1) 
-10.729690037948776

>  <r_i_glide_gscore>  (1) 
-5.4745335977207308

>  <r_i_glide_gscore_strain>  (1) 
0.81062202947821049

>  <r_i_glide_hbond>  (1) 
-0.18152724259353034

>  <r_i_glide_ligand_efficiency>  (1) 
-0.12159527518179983

>  <r_i_glide_ligand_efficiency_ln>  (1) 
-0.99634169539202844

>  <r_i_glide_ligand_efficiency_sa>  (1) 
-0.40880032474416345

>  <r_i_glide_lipo>  (1) 
-3.1988736904304154

>  <r_i_glide_metal>  (1) 
-0

>  <r_i_glide_rewards>  (1) 
-1.6543894216355932

>  <r_lp_Energy>  (1) 
51.758362999999996

>  <s_epik_Chemistry_Notes>  (1) 
This compound has a N-S or N-O group and may undergo hydrolysis at high or low pH.

>  <s_epik_cmdline>  (1) 
J2VwaWtfcHl0aG9uJywgJy1waHQnLCAnMS4wJywgJy1waCcsICc3LjQnLCAnLXRuJywgJzgnLCAnLW1hJywgJzUwMCcsICctaW1hZScsICc8aW5maWxlLm1hZT4nLCAnLW9tYWUnLCAnPG91dGZpbGUubWFlPic=

>  <s_epik_input>  (1) 
RkMoRikoW0NIMl0xKVtDSDJdW0NIMl1bQ0BIXShbQ0BASF0xMilbQ0BIXShbQ0gyXVtDQEhdKFtDSDJdW0NIMl0yKUMoW0NIM10pKFtDSDNdKU9bQ0gzXSlbTkhdTjNbQ0gyXVtDSDJdW0NIMl1bQ0BIXShbQ0gyXTMpL1tDSF09W0NIXVxbQ0BASF0oW0NIMl1bQ0BdNChbT0hdKUMoPU8pW09IXSlbQ0gyXVtDQEBIXTRbTkhdW09IXQ==

>  <s_glide_docking_method>  (1) 
confgen

>  <s_i_glide_gridfile>  (1) 
gpcr_5ht2c_6bqh_protein_autoprepared_prepared

>  <s_lp_Force_Field>  (1) 
S-OPLS

>  <s_lp_Variant>  (1) 
DiffSBDD_90_num_sample_100-10

>  <s_m_source_file>  (1) 
generated__ligand_DiffSBDD_2026-05-06_prepared.sdf

>  <GenAI_Model>  (1) 
DiffSBDD

>  <Protein>  (1) 
GPCR_5HT2C

$$$$
DiffSBDD_90_num_sample_100
     RDKit          3D

  0  0  0  0  0  0  0  0  0  0999 V3000
M  V30 BEGIN CTAB
M  V30 COUNTS 85 88 0 0 1
M  V30 BEGIN ATOM
M  V30 1 C 36.540298 30.552494 59.453892 0
M  V30 2 O 41.136934 27.880998 65.314797 0
M  V30 3 F 37.467323 23.264415 55.364828 0
M  V30 4 C 38.477703 30.050951 55.279523 0 CFG=1
M  V30 5 C 41.618492 30.640634 66.285590 0 CFG=2
M  V30 6 C 41.151367 31.162326 63.954732 0 CFG=1
M  V30 7 C 37.551730 32.821525 54.253498 0
M  V30 8 C 39.849274 31.937307 61.931769 0
M  V30 9 C 39.315823 31.293350 54.934365 0
M  V30 10 N 42.487240 28.322499 65.626199 0
M  V30 11 C 38.166921 24.632728 57.156744 0
M  V30 12 C 39.512719 32.231209 56.139636 0
M  V30 13 C 40.466936 30.959457 65.313135 0
M  V30 14 C 42.330928 30.172180 63.944130 0
M  V30 15 O 41.600809 32.652242 67.595730 0
M  V30 16 N 37.914056 30.096033 59.123369 0 CFG=2 CHG=1
M  V30 17 C 40.207441 30.961221 62.789629 0
M  V30 18 F 39.303376 24.421446 55.120272 0
M  V30 19 C 37.879057 26.874781 55.245497 0 CFG=2
M  V30 20 N 37.990229 28.693247 58.666744 0
M  V30 21 C 38.613152 26.064751 57.510149 0
M  V30 22 C 38.849219 30.284449 60.254029 0
M  V30 23 O 38.673985 32.021424 53.901500 0
M  V30 24 C 40.672902 30.841741 54.377561 0
M  V30 25 C 36.539002 32.026957 59.891985 0
M  V30 26 C 37.287086 25.503681 54.925514 0
M  V30 27 C 38.905051 31.742309 60.749970 0 CFG=1
M  V30 28 C 42.586696 29.775879 65.418149 0 CFG=1
M  V30 29 C 38.316223 29.117202 54.059187 0
M  V30 30 O 43.346222 32.313360 66.254368 0 CHG=-1
M  V30 31 C 37.885768 28.569940 57.224797 0 CFG=1
M  V30 32 C 37.492014 32.254724 61.077657 0
M  V30 33 O 41.141293 29.914139 67.407939 0
M  V30 34 C 39.033029 29.274767 56.500473 0
M  V30 35 C 37.716967 27.095919 56.781081 0 CFG=1
M  V30 36 C 37.344415 27.966558 54.292381 0
M  V30 37 C 38.075635 24.421417 55.635165 0
M  V30 38 C 42.246137 31.985256 66.755181 0
M  V30 39 H 36.141415 29.935901 60.253602 0
M  V30 40 H 35.874343 30.416060 58.604174 0
M  V30 41 H 40.938803 28.351764 64.517879 0
M  V30 42 H 37.489045 30.437338 55.533523 0
M  V30 43 H 41.554483 32.175864 63.922600 0
M  V30 44 H 37.467379 33.621098 53.515025 0
M  V30 45 H 36.667510 32.187902 54.253516 0
M  V30 46 H 37.589719 33.366689 55.192920 0
M  V30 47 H 40.245325 32.934176 62.067927 0
M  V30 48 H 43.062934 27.778111 64.996649 0
M  V30 49 H 37.193912 24.439814 57.611850 0
M  V30 50 H 38.854429 23.904351 57.587332 0
M  V30 51 H 40.267387 31.810153 56.759890 0
M  V30 52 H 39.867163 33.221115 55.853367 0
M  V30 53 H 38.618306 32.340680 56.757110 0
M  V30 54 H 39.888571 31.836372 65.606192 0
M  V30 55 H 39.763976 30.126113 65.266621 0
M  V30 56 H 43.216306 30.642451 63.513579 0
M  V30 57 H 42.120348 29.301792 63.321760 0
M  V30 58 H 39.815313 29.964790 62.666742 0
M  V30 59 H 38.943966 26.805582 55.023523 0
M  V30 60 H 37.149772 28.330999 59.094006 0
M  V30 61 H 38.558784 26.177103 58.592557 0
M  V30 62 H 39.657970 26.213470 57.234287 0
M  V30 63 H 39.846026 29.955436 59.955440 0
M  V30 64 H 38.517231 29.621164 61.051289 0
M  V30 65 H 41.069437 30.021949 54.971254 0
M  V30 66 H 40.600541 30.506927 53.342236 0
M  V30 67 H 41.423768 31.621415 54.417747 0
M  V30 68 H 35.527376 32.332489 60.163978 0
M  V30 69 H 36.829333 32.659062 59.050577 0
M  V30 70 H 36.267394 25.441102 55.283145 0
M  V30 71 H 37.276703 25.312292 53.853640 0
M  V30 72 H 39.309857 32.348901 59.939199 0
M  V30 73 H 43.623570 30.006116 65.666539 0
M  V30 74 H 37.950512 29.696095 53.213568 0
M  V30 75 H 39.272509 28.704784 53.740452 0
M  V30 76 H 36.961515 29.095734 57.001380 0
M  V30 77 H 37.108229 31.739759 61.958510 0
M  V30 78 H 37.522445 33.314590 61.332002 0
M  V30 79 H 41.000573 29.024233 67.109323 0
M  V30 80 H 39.561643 29.916856 57.194126 0
M  V30 81 H 39.803009 28.563633 56.201046 0
M  V30 82 H 36.699656 26.821341 57.064398 0
M  V30 83 H 36.430678 28.398510 54.653470 0
M  V30 84 H 37.114957 27.531558 53.318379 0
M  V30 85 H 38.232439 30.651330 58.340253 0
M  V30 END ATOM
M  V30 BEGIN BOND
M  V30 1 1 9 4
M  V30 2 1 10 2
M  V30 3 1 12 9
M  V30 4 1 13 5
M  V30 5 1 13 6
M  V30 6 1 14 6
M  V30 7 1 16 1
M  V30 8 1 17 6
M  V30 9 2 17 8
M  V30 10 1 20 16
M  V30 11 1 21 11
M  V30 12 1 22 16
M  V30 13 1 23 7
M  V30 14 1 23 9
M  V30 15 1 24 9
M  V30 16 1 25 1
M  V30 17 1 26 19
M  V30 18 1 27 8
M  V30 19 1 27 22
M  V30 20 1 28 5
M  V30 21 1 28 10
M  V30 22 1 28 14
M  V30 23 1 29 4
M  V30 24 1 31 20
M  V30 25 1 32 25
M  V30 26 1 32 27
M  V30 27 1 5 33 CFG=1
M  V30 28 1 34 4
M  V30 29 1 34 31
M  V30 30 1 35 19
M  V30 31 1 35 21
M  V30 32 1 35 31
M  V30 33 1 36 19
M  V30 34 1 36 29
M  V30 35 1 37 3
M  V30 36 1 37 11
M  V30 37 1 37 18
M  V30 38 1 37 26
M  V30 39 1 38 5
M  V30 40 2 38 15
M  V30 41 1 38 30
M  V30 42 1 39 1
M  V30 43 1 40 1
M  V30 44 1 41 2
M  V30 45 1 4 42 CFG=1
M  V30 46 1 6 43 CFG=1
M  V30 47 1 44 7
M  V30 48 1 45 7
M  V30 49 1 46 7
M  V30 50 1 47 8
M  V30 51 1 48 10
M  V30 52 1 49 11
M  V30 53 1 50 11
M  V30 54 1 51 12
M  V30 55 1 52 12
M  V30 56 1 53 12
M  V30 57 1 54 13
M  V30 58 1 55 13
M  V30 59 1 56 14
M  V30 60 1 57 14
M  V30 61 1 58 17
M  V30 62 1 19 59 CFG=1
M  V30 63 1 60 20
M  V30 64 1 61 21
M  V30 65 1 62 21
M  V30 66 1 63 22
M  V30 67 1 64 22
M  V30 68 1 65 24
M  V30 69 1 66 24
M  V30 70 1 67 24
M  V30 71 1 68 25
M  V30 72 1 69 25
M  V30 73 1 70 26
M  V30 74 1 71 26
M  V30 75 1 27 72 CFG=3
M  V30 76 1 28 73 CFG=1
M  V30 77 1 74 29
M  V30 78 1 75 29
M  V30 79 1 31 76 CFG=3
M  V30 80 1 77 32
M  V30 81 1 78 32
M  V30 82 1 79 33
M  V30 83 1 80 34
M  V30 84 1 81 34
M  V30 85 1 35 82 CFG=1
M  V30 86 1 83 36
M  V30 87 1 84 36
M  V30 88 1 16 85 CFG=3
M  V30 END BOND
M  V30 END CTAB
M  END
>  <i_epik_Tot_Q>  (1) 
0

>  <i_epik_Tot_abs_Q>  (1) 
2

>  <i_i_glide_confnum>  (1) 
836

>  <i_i_glide_lignum>  (1) 
240

>  <i_i_glide_posenum>  (1) 
357

>  <i_i_glide_rotatable_bonds>  (1) 
10

>  <i_lp_mmshare_version>  (1) 
72125

>  <i_m_source_file_index>  (1) 
91

>  <i_f3d_flags>  (1) 
0

>  <num_sample>  (1) 
100

>  <b_lp_Chiralities_Consistent>  (1) 
1

>  <r_epik_Charging_Adjusted_Penalty>  (1) 
1.5083745474312953

>  <r_epik_Ionization_Penalty>  (1) 
0.65750586125956467

>  <r_epik_Ionization_Penalty_Charging>  (1) 
0.6544614066189578

>  <r_epik_Ionization_Penalty_Neutral>  (1) 
0.0030444546406068235

>  <r_epik_State_Penalty>  (1) 
0.8539131408123376

>  <r_glide_ring_energy>  (1) 
0.69230642483631666

>  <r_i_docking_score>  (1) 
-4.6112291904334937

>  <r_i_glide_ecoul>  (1) 
-0.92733104641147968

>  <r_i_glide_eff_state_penalty>  (1) 
0.8539131408123376

>  <r_i_glide_einternal>  (1) 
9.792659264223694

>  <r_i_glide_emodel>  (1) 
-57.279181946875028

>  <r_i_glide_emodel_strain>  (1) 
0.96673977572432079

>  <r_i_glide_energy>  (1) 
-27.520659992749493

>  <r_i_glide_erotb>  (1) 
0.42002339013477186

>  <r_i_glide_esite>  (1) 
-0.016125290251840896

>  <r_i_glide_evdw>  (1) 
-26.593328946338012

>  <r_i_glide_gscore>  (1) 
-5.4651423312458309

>  <r_i_glide_gscore_strain>  (1) 
0

>  <r_i_glide_hbond>  (1) 
0

>  <r_i_glide_ligand_efficiency>  (1) 
-0.12134813659035509

>  <r_i_glide_ligand_efficiency_ln>  (1) 
-0.99431666207697

>  <r_i_glide_ligand_efficiency_sa>  (1) 
-0.40796945087765535

>  <r_i_glide_lipo>  (1) 
-3.5451483786347562

>  <r_i_glide_metal>  (1) 
-0

>  <r_i_glide_rewards>  (1) 
-0.8551259482153839

>  <r_lp_Energy>  (1) 
52.906404999999999

>  <s_epik_Chemistry_Notes>  (1) 
This compound has a N-S or N-O group and may undergo hydrolysis at high or low pH.

>  <s_epik_cmdline>  (1) 
J2VwaWtfcHl0aG9uJywgJy1waHQnLCAnMS4wJywgJy1waCcsICc3LjQnLCAnLXRuJywgJzgnLCAnLW1hJywgJzUwMCcsICctaW1hZScsICc8aW5maWxlLm1hZT4nLCAnLW9tYWUnLCAnPG91dGZpbGUubWFlPic=

>  <s_epik_input>  (1) 
RkMoRikoW0NIMl0xKVtDSDJdW0NIMl1bQ0BIXShbQ0BASF0xMilbQ0BIXShbQ0gyXVtDQEhdKFtDSDJdW0NIMl0yKUMoW0NIM10pKFtDSDNdKU9bQ0gzXSlbTkhdTjNbQ0gyXVtDSDJdW0NIMl1bQ0BIXShbQ0gyXTMpL1tDSF09W0NIXS9bQ0BASF0oW0NIMl1bQ0BdNChbT0hdKUMoPU8pW09IXSlbQ0gyXVtDQEBIXTRbTkhdW09IXQ==

>  <s_glide_docking_method>  (1) 
confgen

>  <s_i_glide_gridfile>  (1) 
gpcr_5ht2c_6bqh_protein_autoprepared_prepared

>  <s_lp_Force_Field>  (1) 
S-OPLS

>  <s_lp_Variant>  (1) 
DiffSBDD_90_num_sample_100-12

>  <s_m_source_file>  (1) 
generated__ligand_DiffSBDD_2026-05-06_prepared.sdf

>  <GenAI_Model>  (1) 
DiffSBDD

>  <Protein>  (1) 
GPCR_5HT2C

$$$$
DiffSBDD_90_num_sample_100
     RDKit          3D

  0  0  0  0  0  0  0  0  0  0999 V3000
M  V30 BEGIN CTAB
M  V30 COUNTS 85 88 0 0 1
M  V30 BEGIN ATOM
M  V30 1 C 38.040759 29.655186 59.841539 0
M  V30 2 O 40.650997 30.095451 50.181201 0
M  V30 3 F 42.688619 35.509271 64.667345 0
M  V30 4 C 37.269055 33.985668 60.550026 0 CFG=1
M  V30 5 C 38.760014 28.254240 52.861049 0 CFG=2
M  V30 6 C 38.955579 30.245591 54.207853 0 CFG=1
M  V30 7 C 34.649355 34.550249 58.412844 0
M  V30 8 C 38.104431 31.768338 56.042653 0
M  V30 9 C 35.737780 33.739775 60.418567 0
M  V30 10 N 39.467427 29.497860 50.767054 0
M  V30 11 C 41.830638 33.431177 64.020056 0
M  V30 12 C 35.308761 32.324763 59.917276 0
M  V30 13 C 37.949971 29.186351 53.760147 0
M  V30 14 C 39.837715 30.496048 52.987311 0
M  V30 15 O 39.143480 27.005061 54.877793 0
M  V30 16 N 39.067855 30.646111 59.549111 0
M  V30 17 C 38.309323 31.512291 54.739750 0
M  V30 18 F 40.667407 35.055686 65.230694 0
M  V30 19 C 39.882303 34.892624 62.347265 0 CFG=2
M  V30 20 N 39.671663 31.280184 60.784932 0 CHG=1
M  V30 21 C 40.672084 32.710095 63.316469 0
M  V30 22 C 38.708533 31.579413 58.470274 0
M  V30 23 O 35.285252 34.821439 59.630962 0
M  V30 24 C 35.067421 33.828460 61.758823 0
M  V30 25 C 37.677603 28.907339 58.548411 0
M  V30 26 C 41.059469 35.653080 62.989911 0
M  V30 27 C 38.485117 30.826366 57.170302 0 CFG=1
M  V30 28 C 39.794231 29.192391 52.155121 0 CFG=1
M  V30 29 C 37.687811 35.406841 61.033385 0
M  V30 30 O 40.267342 26.420972 53.053524 0 CHG=-1
M  V30 31 C 39.387631 32.716488 61.037195 0 CFG=1
M  V30 32 C 37.357679 29.843980 57.415616 0
M  V30 33 O 37.918629 27.621495 51.932305 0
M  V30 34 C 37.928299 32.897824 61.414252 0
M  V30 35 C 40.351979 33.444257 61.999931 0 CFG=1
M  V30 36 C 39.211528 35.674137 61.187835 0
M  V30 37 C 41.563368 34.928763 64.255596 0
M  V30 38 C 39.449775 27.128640 53.669988 0
M  V30 39 H 38.411979 28.947869 60.582562 0
M  V30 40 H 37.149582 30.126299 60.246679 0
M  V30 41 H 40.335062 30.950855 49.925016 0
M  V30 42 H 37.640927 33.939644 59.529325 0
M  V30 43 H 39.598187 29.786313 54.954929 0
M  V30 44 H 34.358933 35.465863 57.898770 0
M  V30 45 H 35.404934 34.021437 57.853401 0
M  V30 46 H 33.742918 33.958642 58.521005 0
M  V30 47 H 37.632102 32.696750 56.329671 0
M  V30 48 H 39.310233 28.679481 50.194849 0
M  V30 49 H 42.691580 33.336542 63.370523 0
M  V30 50 H 42.084275 32.937091 64.958513 0
M  V30 51 H 35.456002 31.535482 60.652414 0
M  V30 52 H 34.248581 32.258933 59.679839 0
M  V30 53 H 35.855394 32.018564 59.053380 0
M  V30 54 H 37.451517 28.673829 54.576566 0
M  V30 55 H 37.149484 29.621418 53.193911 0
M  V30 56 H 40.834042 30.775381 53.313590 0
M  V30 57 H 39.467381 31.342357 52.406150 0
M  V30 58 H 37.998695 32.239712 54.003055 0
M  V30 59 H 39.124403 34.836782 63.124829 0
M  V30 60 H 39.358288 30.727280 61.570140 0
M  V30 61 H 40.966565 31.677835 63.131778 0
M  V30 62 H 39.802685 32.676202 63.970168 0
M  V30 63 H 39.467324 32.333377 58.281681 0
M  V30 64 H 37.805303 32.107365 58.718544 0
M  V30 65 H 35.495029 32.988693 62.253500 0
M  V30 66 H 35.250324 34.736596 62.330167 0
M  V30 67 H 34.005461 33.621295 61.682310 0
M  V30 68 H 38.436629 28.177206 58.263005 0
M  V30 69 H 36.725096 28.421435 58.653498 0
M  V30 70 H 41.867375 35.745647 62.264021 0
M  V30 71 H 40.767117 36.672020 63.249293 0
M  V30 72 H 39.403532 30.292010 56.938674 0
M  V30 73 H 40.762323 28.713453 52.115099 0
M  V30 74 H 37.298201 36.141842 60.327230 0
M  V30 75 H 37.209412 35.642357 61.982425 0
M  V30 76 H 39.591612 33.231343 60.103648 0
M  V30 77 H 36.471700 30.377112 57.733326 0
M  V30 78 H 37.092609 29.287830 56.526087 0
M  V30 79 H 38.399256 26.876396 51.600805 0
M  V30 80 H 37.418418 31.950328 61.305420 0
M  V30 81 H 37.824089 33.106032 62.474003 0
M  V30 82 H 41.293644 33.525698 61.453677 0
M  V30 83 H 39.748220 35.518208 60.253380 0
M  V30 84 H 39.314795 36.739932 61.396364 0
M  V30 85 H 40.667879 31.161728 60.679943 0
M  V30 END ATOM
M  V30 BEGIN BOND
M  V30 1 1 9 4
M  V30 2 1 10 2
M  V30 3 1 12 9
M  V30 4 1 13 5
M  V30 5 1 13 6
M  V30 6 1 14 6
M  V30 7 1 16 1
M  V30 8 1 17 6
M  V30 9 2 17 8
M  V30 10 1 20 16
M  V30 11 1 21 11
M  V30 12 1 22 16
M  V30 13 1 23 7
M  V30 14 1 23 9
M  V30 15 1 24 9
M  V30 16 1 25 1
M  V30 17 1 26 19
M  V30 18 1 27 8
M  V30 19 1 27 22
M  V30 20 1 28 5
M  V30 21 1 28 10
M  V30 22 1 28 14
M  V30 23 1 29 4
M  V30 24 1 31 20
M  V30 25 1 32 25
M  V30 26 1 32 27
M  V30 27 1 5 33 CFG=3
M  V30 28 1 34 4
M  V30 29 1 34 31
M  V30 30 1 35 19
M  V30 31 1 35 21
M  V30 32 1 35 31
M  V30 33 1 36 19
M  V30 34 1 36 29
M  V30 35 1 37 3
M  V30 36 1 37 11
M  V30 37 1 37 18
M  V30 38 1 37 26
M  V30 39 1 38 5
M  V30 40 2 38 15
M  V30 41 1 38 30
M  V30 42 1 39 1
M  V30 43 1 40 1
M  V30 44 1 41 2
M  V30 45 1 4 42 CFG=3
M  V30 46 1 6 43 CFG=1
M  V30 47 1 44 7
M  V30 48 1 45 7
M  V30 49 1 46 7
M  V30 50 1 47 8
M  V30 51 1 48 10
M  V30 52 1 49 11
M  V30 53 1 50 11
M  V30 54 1 51 12
M  V30 55 1 52 12
M  V30 56 1 53 12
M  V30 57 1 54 13
M  V30 58 1 55 13
M  V30 59 1 56 14
M  V30 60 1 57 14
M  V30 61 1 58 17
M  V30 62 1 19 59 CFG=1
M  V30 63 1 60 20
M  V30 64 1 61 21
M  V30 65 1 62 21
M  V30 66 1 63 22
M  V30 67 1 64 22
M  V30 68 1 65 24
M  V30 69 1 66 24
M  V30 70 1 67 24
M  V30 71 1 68 25
M  V30 72 1 69 25
M  V30 73 1 70 26
M  V30 74 1 71 26
M  V30 75 1 27 72 CFG=3
M  V30 76 1 28 73 CFG=3
M  V30 77 1 74 29
M  V30 78 1 75 29
M  V30 79 1 31 76 CFG=3
M  V30 80 1 77 32
M  V30 81 1 78 32
M  V30 82 1 79 33
M  V30 83 1 80 34
M  V30 84 1 81 34
M  V30 85 1 35 82 CFG=3
M  V30 86 1 83 36
M  V30 87 1 84 36
M  V30 88 1 85 20
M  V30 END BOND
M  V30 END CTAB
M  END
>  <i_epik_Tot_Q>  (1) 
0

>  <i_epik_Tot_abs_Q>  (1) 
2

>  <i_i_glide_confnum>  (1) 
416

>  <i_i_glide_lignum>  (1) 
233

>  <i_i_glide_posenum>  (1) 
38

>  <i_i_glide_rotatable_bonds>  (1) 
10

>  <i_lp_mmshare_version>  (1) 
72125

>  <i_m_source_file_index>  (1) 
91

>  <i_f3d_flags>  (1) 
0

>  <num_sample>  (1) 
100

>  <b_lp_Chiralities_Consistent>  (1) 
1

>  <r_epik_Charging_Adjusted_Penalty>  (1) 
1.3235823108087639

>  <r_epik_Ionization_Penalty>  (1) 
0.58520961668590687

>  <r_epik_Ionization_Penalty_Charging>  (1) 
0.5818654171532841

>  <r_epik_Ionization_Penalty_Neutral>  (1) 
0.0033441995326227757

>  <r_epik_State_Penalty>  (1) 
0.74171689365547977

>  <r_glide_ring_energy>  (1) 
0.52270073413304585

>  <r_i_docking_score>  (1) 
-4.585886096180432

>  <r_i_glide_ecoul>  (1) 
1.5460908147488011

>  <r_i_glide_eff_state_penalty>  (1) 
0.74171689365547977

>  <r_i_glide_einternal>  (1) 
20.363041124566479

>  <r_i_glide_emodel>  (1) 
-13.339089181610433

>  <r_i_glide_emodel_strain>  (1) 
3.7528351609388864

>  <r_i_glide_energy>  (1) 
-23.135344285847559

>  <r_i_glide_erotb>  (1) 
0.42002339013477186

>  <r_i_glide_esite>  (1) 
-0.0094461520099783491

>  <r_i_glide_evdw>  (1) 
-24.68143510059636

>  <r_i_glide_gscore>  (1) 
-5.3276029898359116

>  <r_i_glide_gscore_strain>  (1) 
0

>  <r_i_glide_hbond>  (1) 
0

>  <r_i_glide_ligand_efficiency>  (1) 
-0.12068121305737979

>  <r_i_glide_ligand_efficiency_ln>  (1) 
-0.98885194543770938

>  <r_i_glide_ligand_efficiency_sa>  (1) 
-0.40572727036157685

>  <r_i_glide_lipo>  (1) 
-3.7919633977250333

>  <r_i_glide_metal>  (1) 
-0

>  <r_i_glide_rewards>  (1) 
-0.94405869741817461

>  <r_lp_Energy>  (1) 
57.623837999999999

>  <s_epik_Chemistry_Notes>  (1) 
This compound has a N-S or N-O group and may undergo hydrolysis at high or low pH.

>  <s_epik_cmdline>  (1) 
J2VwaWtfcHl0aG9uJywgJy1waHQnLCAnMS4wJywgJy1waCcsICc3LjQnLCAnLXRuJywgJzgnLCAnLW1hJywgJzUwMCcsICctaW1hZScsICc8aW5maWxlLm1hZT4nLCAnLW9tYWUnLCAnPG91dGZpbGUubWFlPic=

>  <s_epik_input>  (1) 
RkMoRikoW0NIMl0xKVtDSDJdW0NIMl1bQ0BIXShbQ0BASF0xMilbQ0BIXShbQ0gyXVtDQEhdKFtDSDJdW0NIMl0yKUMoW0NIM10pKFtDSDNdKU9bQ0gzXSlbTkhdTjNbQ0gyXVtDSDJdW0NIMl1bQ0BIXShbQ0gyXTMpL1tDSF09W0NIXVxbQ0BASF0oW0NIMl1bQ0BdNChbT0hdKUMoPU8pW09IXSlbQ0gyXVtDQEBIXTRbTkhdW09IXQ==

>  <s_glide_docking_method>  (1) 
confgen

>  <s_i_glide_gridfile>  (1) 
gpcr_5ht2c_6bqh_protein_autoprepared_prepared

>  <s_lp_Force_Field>  (1) 
S-OPLS

>  <s_lp_Variant>  (1) 
DiffSBDD_90_num_sample_100-5

>  <s_m_source_file>  (1) 
generated__ligand_DiffSBDD_2026-05-06_prepared.sdf

>  <GenAI_Model>  (1) 
DiffSBDD

>  <Protein>  (1) 
GPCR_5HT2C

$$$$
DiffSBDD_18_num_sample_100
     RDKit          3D

  0  0  0  0  0  0  0  0  0  0999 V3000
M  V30 BEGIN CTAB
M  V30 COUNTS 71 73 0 0 1
M  V30 BEGIN ATOM
M  V30 1 O 39.090442 34.559702 62.167208 0
M  V30 2 C 39.641929 30.384284 54.652681 0
M  V30 3 C 37.988471 30.642315 58.813096 0
M  V30 4 C 39.467523 30.421360 53.337541 0
M  V30 5 O 36.982303 32.288664 61.853481 0
M  V30 6 C 39.477808 28.835253 56.555955 0 CFG=2
M  V30 7 C 41.648829 32.415571 67.048682 0
M  V30 8 N 39.371354 29.216574 55.126226 0 CHG=1
M  V30 9 N 40.204976 27.567679 56.672242 0
M  V30 10 C 41.016598 34.876836 63.587690 0
M  V30 11 C 41.757429 31.401312 64.785417 0
M  V30 12 O 40.812813 32.014446 67.853519 0
M  V30 13 O 38.774526 28.821420 51.730295 0
M  V30 14 C 44.593405 30.420643 65.303288 0
M  V30 15 C 38.919538 28.426265 59.640292 0
M  V30 16 C 39.067362 29.233054 52.971399 0
M  V30 17 C 44.489827 31.412819 67.602687 0
M  V30 18 C 41.336275 32.464460 64.060902 0
M  V30 19 C 37.537619 32.084799 60.781284 0
M  V30 20 N 42.038003 33.706832 66.880340 0
M  V30 21 C 37.949730 29.108718 58.648209 0 CFG=2
M  V30 22 C 40.517037 34.645845 62.163756 0 CFG=2
M  V30 23 C 38.100973 28.612253 57.188690 0 CFG=2
M  V30 24 C 37.936923 27.090006 57.058571 0
M  V30 25 O 44.322316 30.328947 68.205195 0 CHG=-1
M  V30 26 C 38.896415 28.150052 54.067751 0
M  V30 27 C 41.867475 34.398108 65.820805 0
M  V30 28 C 38.479620 33.146282 60.182194 0
M  V30 29 C 38.397666 34.508188 60.914311 0
M  V30 30 C 40.989217 35.826737 61.308697 0
M  V30 31 C 41.392733 33.906488 64.458634 0
M  V30 32 C 42.371727 31.445149 66.151192 0 CFG=1
M  V30 33 C 43.933009 31.514533 66.169602 0 CFG=2
M  V30 34 N 37.350281 30.947637 60.091402 0
M  V30 35 N 39.280252 26.520749 56.953843 0
M  V30 36 O 45.067441 32.421394 68.058962 0
M  V30 37 H 39.968832 31.196604 55.292983 0
M  V30 38 H 39.019107 30.992886 58.761871 0
M  V30 39 H 37.431418 31.134524 58.014687 0
M  V30 40 H 39.641953 31.297490 52.728609 0
M  V30 41 H 40.036773 29.622110 57.063317 0
M  V30 42 H 40.739229 27.355787 55.832247 0
M  V30 43 H 41.065642 35.911536 63.902380 0
M  V30 44 H 41.653123 30.414992 64.356740 0
M  V30 45 H 37.862145 27.865507 54.259255 0
M  V30 46 H 45.681420 30.476299 65.361967 0
M  V30 47 H 44.298289 29.422021 65.628610 0
M  V30 48 H 44.320856 30.519084 64.253638 0
M  V30 49 H 39.957678 28.680472 59.424691 0
M  V30 50 H 38.721906 28.726171 60.668539 0
M  V30 51 H 38.833397 27.340923 59.612486 0
M  V30 52 H 40.921400 32.238242 63.094390 0
M  V30 53 H 36.936738 28.821436 58.927239 0
M  V30 54 H 40.947973 33.748175 61.726793 0
M  V30 55 H 37.334001 29.119894 56.602221 0
M  V30 56 H 37.394705 26.835868 56.148802 0
M  V30 57 H 37.389657 26.637220 57.885385 0
M  V30 58 H 39.601027 27.319314 54.016329 0
M  V30 59 H 42.034854 35.478370 65.851512 0
M  V30 60 H 39.504993 32.779257 60.165602 0
M  V30 61 H 38.182043 33.312955 59.146034 0
M  V30 62 H 38.699682 35.317098 60.253422 0
M  V30 63 H 37.352804 34.736382 61.130356 0
M  V30 64 H 42.047899 36.015779 61.453335 0
M  V30 65 H 40.842159 35.621444 60.253517 0
M  V30 66 H 40.457803 36.744591 61.562604 0
M  V30 67 H 42.120155 30.465971 66.563784 0
M  V30 68 H 44.247844 32.483889 65.787901 0
M  V30 69 H 36.728872 30.251769 60.474618 0
M  V30 70 H 39.326426 25.798422 56.236870 0
M  V30 71 H 38.460020 27.930430 51.776422 0
M  V30 END ATOM
M  V30 BEGIN BOND
M  V30 1 1 4 2
M  V30 2 2 8 2
M  V30 3 1 8 6
M  V30 4 1 9 6
M  V30 5 2 12 7
M  V30 6 2 16 4
M  V30 7 1 16 13
M  V30 8 2 18 11
M  V30 9 2 19 5
M  V30 10 1 20 7
M  V30 11 1 21 3
M  V30 12 1 21 15
M  V30 13 1 22 1
M  V30 14 1 22 10
M  V30 15 1 23 6
M  V30 16 1 23 21
M  V30 17 1 24 23
M  V30 18 1 25 17
M  V30 19 1 26 8
M  V30 20 1 26 16
M  V30 21 2 27 20
M  V30 22 1 28 19
M  V30 23 1 29 1
M  V30 24 1 29 28
M  V30 25 1 30 22
M  V30 26 2 31 10
M  V30 27 1 31 18
M  V30 28 1 31 27
M  V30 29 1 32 7
M  V30 30 1 32 11
M  V30 31 1 33 14
M  V30 32 1 33 17
M  V30 33 1 33 32
M  V30 34 1 34 3
M  V30 35 1 34 19
M  V30 36 1 35 9
M  V30 37 1 35 24
M  V30 38 2 36 17
M  V30 39 1 37 2
M  V30 40 1 38 3
M  V30 41 1 39 3
M  V30 42 1 40 4
M  V30 43 1 6 41 CFG=1
M  V30 44 1 42 9
M  V30 45 1 43 10
M  V30 46 1 44 11
M  V30 47 1 45 26
M  V30 48 1 46 14
M  V30 49 1 47 14
M  V30 50 1 48 14
M  V30 51 1 49 15
M  V30 52 1 50 15
M  V30 53 1 51 15
M  V30 54 1 52 18
M  V30 55 1 21 53 CFG=1
M  V30 56 1 22 54 CFG=3
M  V30 57 1 23 55 CFG=3
M  V30 58 1 56 24
M  V30 59 1 57 24
M  V30 60 1 58 26
M  V30 61 1 59 27
M  V30 62 1 60 28
M  V30 63 1 61 28
M  V30 64 1 62 29
M  V30 65 1 63 29
M  V30 66 1 64 30
M  V30 67 1 65 30
M  V30 68 1 66 30
M  V30 69 1 32 67 CFG=1
M  V30 70 1 33 68 CFG=3
M  V30 71 1 69 34
M  V30 72 1 70 35
M  V30 73 1 71 13
M  V30 END BOND
M  V30 END CTAB
M  END
>  <i_epik_Tot_Q>  (1) 
0

>  <i_epik_Tot_abs_Q>  (1) 
2

>  <i_i_glide_confnum>  (1) 
1941

>  <i_i_glide_lignum>  (1) 
47

>  <i_i_glide_posenum>  (1) 
291

>  <i_i_glide_rotatable_bonds>  (1) 
13

>  <i_lp_mmshare_version>  (1) 
72125

>  <i_m_source_file_index>  (1) 
19

>  <i_f3d_flags>  (1) 
0

>  <num_sample>  (1) 
100

>  <b_lp_Chiralities_Consistent>  (1) 
1

>  <r_epik_Charging_Adjusted_Penalty>  (1) 
0.76693695219889413

>  <r_epik_Ionization_Penalty>  (1) 
0.76778133156762796

>  <r_epik_Ionization_Penalty_Charging>  (1) 
0.00011398914501928687

>  <r_epik_Ionization_Penalty_Neutral>  (1) 
0.7676673424226087

>  <r_epik_State_Penalty>  (1) 
0.76682296305387487

>  <r_glide_ring_energy>  (1) 
1.845819541117304

>  <r_i_docking_score>  (1) 
-4.5831801017790577

>  <r_i_glide_ecoul>  (1) 
-3.1091731728594585

>  <r_i_glide_eff_state_penalty>  (1) 
0.76682296305387487

>  <r_i_glide_einternal>  (1) 
12.374910475358014

>  <r_i_glide_emodel>  (1) 
-63.515063504586422

>  <r_i_glide_emodel_strain>  (1) 
0.38571758643951171

>  <r_i_glide_energy>  (1) 
-52.083017686680599

>  <r_i_glide_erotb>  (1) 
0.89312676016186854

>  <r_i_glide_esite>  (1) 
-0.032226114830562903

>  <r_i_glide_evdw>  (1) 
-48.973844513821142

>  <r_i_glide_gscore>  (1) 
-5.3500030648329329

>  <r_i_glide_gscore_strain>  (1) 
0

>  <r_i_glide_hbond>  (1) 
-0.19639955320069624

>  <r_i_glide_ligand_efficiency>  (1) 
-0.1273105583827516

>  <r_i_glide_ligand_efficiency_ln>  (1) 
-0.99992607499137631

>  <r_i_glide_ligand_efficiency_sa>  (1) 
-0.42037020179599782

>  <r_i_glide_lipo>  (1) 
-3.0377435210746135

>  <r_i_glide_metal>  (1) 
-0

>  <r_i_glide_rewards>  (1) 
-0.061692434268952656

>  <r_lp_Energy>  (1) 
29.432984999999999

>  <r_lp_tautomer_probability>  (1) 
0.99929914239148299

>  <s_epik_Chemistry_Notes>  (1) 
This compound has an imine and may undergo hydrolysis. This compound contains an acetal/aminal-like group ( X-CH(R)-Y where X, Y are N, S, or O) that may be acid/base labile, releasing an aldehyde.

>  <s_epik_cmdline>  (1) 
J2VwaWtfcHl0aG9uJywgJy1waHQnLCAnMS4wJywgJy1waCcsICc3LjQnLCAnLXRuJywgJzgnLCAnLW1hJywgJzUwMCcsICctaW1hZScsICc8aW5maWxlLm1hZT4nLCAnLW9tYWUnLCAnPG91dGZpbGUubWFlPic=

>  <s_epik_input>  (1) 
W09IXUMoPU8pW0NASF0oW0NIM10pW0NAQEhdMVtDSF09W0NIXS9DKFtDSF09TkMxPU8pPVtDSF1cW0NASF0oW0NIM10pT1tDSDJdW0NIMl1DKD1PKVtOSF1bQ0gyXVtDQEhdKFtDSDNdKVtDQEBIXTJbQ0gyXVtOSF1bTkhdW0NASF0ybjNbY0hdW2NIXWMoW09IXSlbY0hdMw==

>  <s_glide_docking_method>  (1) 
confgen

>  <s_i_glide_gridfile>  (1) 
gpcr_5ht2c_6bqh_protein_autoprepared_prepared

>  <s_lp_Force_Field>  (1) 
S-OPLS

>  <s_lp_Variant>  (1) 
DiffSBDD_18_num_sample_100-7

>  <s_m_source_file>  (1) 
generated__ligand_DiffSBDD_2026-05-06_prepared.sdf

>  <GenAI_Model>  (1) 
DiffSBDD

>  <Protein>  (1) 
GPCR_5HT2C

$$$$
DiffSBDD_1_num_sample_100
     RDKit          3D

  0  0  0  0  0  0  0  0  0  0999 V3000
M  V30 BEGIN CTAB
M  V30 COUNTS 63 66 0 0 1
M  V30 BEGIN ATOM
M  V30 1 C 37.961286 28.545427 56.255673 0
M  V30 2 C 40.561309 33.965264 63.561003 0
M  V30 3 O 37.482923 29.167978 54.152626 0
M  V30 4 C 38.836589 32.950685 61.967256 0 CFG=1
M  V30 5 C 37.883772 28.608150 57.741562 0
M  V30 6 C 36.998009 31.470991 61.311598 0
M  V30 7 C 39.199053 37.474329 62.311481 0
M  V30 8 C 41.597014 35.014383 65.361482 0
M  V30 9 N 40.898015 36.021480 64.536945 0 CHG=1
M  V30 10 C 38.323765 33.213176 58.216241 0
M  V30 11 C 36.977100 29.670301 58.392758 0
M  V30 12 C 39.946862 36.132400 62.202862 0 CFG=2
M  V30 13 C 39.985807 35.392264 63.550436 0 CFG=1
M  V30 14 C 37.175475 31.887834 59.829904 0 CFG=2
M  V30 15 C 38.244619 31.789430 57.664316 0
M  V30 16 C 37.330269 29.365536 55.472181 0
M  V30 17 N 38.215987 31.631390 62.100921 0
M  V30 18 C 40.058867 32.919637 62.865689 0
M  V30 19 O 38.518527 27.843914 58.466672 0
M  V30 20 C 41.339286 36.259139 61.610107 0
M  V30 21 C 38.351420 27.964661 54.139356 0
M  V30 22 C 39.199393 33.106158 60.489101 0
M  V30 23 C 41.763397 33.816803 64.445551 0
M  V30 24 N 37.970122 33.130921 59.652564 0 CFG=1 CHG=1
M  V30 25 O 35.886780 32.315889 59.453213 0
M  V30 26 C 38.775403 27.504652 55.623042 0
M  V30 27 C 37.801589 30.893920 58.831027 0 CFG=2
M  V30 28 O 37.804725 37.220776 62.350770 0
M  V30 29 H 38.155304 33.748203 62.252986 0
M  V30 30 H 36.644142 30.441329 61.356294 0
M  V30 31 H 36.210980 32.071835 61.773809 0
M  V30 32 H 39.406545 38.113253 61.452793 0
M  V30 33 H 39.498390 38.021484 63.202816 0
M  V30 34 H 40.967757 34.750768 66.212429 0
M  V30 35 H 42.544564 35.393757 65.747129 0
M  V30 36 H 41.614044 36.539249 64.041437 0
M  V30 37 H 39.318803 33.622202 58.047733 0
M  V30 38 H 37.604215 33.854806 57.703154 0
M  V30 39 H 36.519497 29.216221 59.270568 0
M  V30 40 H 36.144467 29.949778 57.749697 0
M  V30 41 H 39.344414 35.572954 61.501897 0
M  V30 42 H 39.021856 35.621476 63.996914 0
M  V30 43 H 39.193756 31.461618 57.240329 0
M  V30 44 H 37.509747 31.792271 56.864493 0
M  V30 45 H 36.677142 30.185216 55.731964 0
M  V30 46 H 38.025078 31.435159 63.077111 0
M  V30 47 H 40.550204 31.961355 62.951365 0
M  V30 48 H 41.949731 36.819569 62.305444 0
M  V30 49 H 41.807821 35.290121 61.424699 0
M  V30 50 H 41.320724 36.792150 60.663225 0
M  V30 51 H 37.811078 27.155562 53.642940 0
M  V30 52 H 39.233683 28.165209 53.529728 0
M  V30 53 H 39.797596 33.992918 60.298259 0
M  V30 54 H 39.836830 32.270540 60.198199 0
M  V30 55 H 41.788050 32.867201 64.982230 0
M  V30 56 H 42.667770 33.910297 63.844750 0
M  V30 57 H 35.703112 32.020800 58.552735 0
M  V30 58 H 39.838945 27.639242 55.828384 0
M  V30 59 H 38.450608 26.494664 55.879850 0
M  V30 60 H 38.704415 30.514878 59.313354 0
M  V30 61 H 37.552169 36.964193 63.224305 0
M  V30 62 H 40.416060 36.692345 65.121439 0
M  V30 63 H 37.403479 33.923632 59.924900 0
M  V30 END ATOM
M  V30 BEGIN BOND
M  V30 1 1 5 1
M  V30 2 1 9 8
M  V30 3 1 11 5
M  V30 4 1 12 7
M  V30 5 1 13 2
M  V30 6 1 13 9
M  V30 7 1 13 12
M  V30 8 1 14 6
M  V30 9 1 15 10
M  V30 10 2 16 1
M  V30 11 1 16 3
M  V30 12 1 17 4
M  V30 13 1 17 6
M  V30 14 2 18 2
M  V30 15 1 18 4
M  V30 16 2 19 5
M  V30 17 1 20 12
M  V30 18 1 21 3
M  V30 19 1 22 4
M  V30 20 1 23 2
M  V30 21 1 23 8
M  V30 22 1 24 10
M  V30 23 1 24 14
M  V30 24 1 24 22
M  V30 25 1 14 25 CFG=3
M  V30 26 1 26 1
M  V30 27 1 26 21
M  V30 28 1 27 11
M  V30 29 1 27 14
M  V30 30 1 27 15
M  V30 31 1 28 7
M  V30 32 1 4 29 CFG=1
M  V30 33 1 30 6
M  V30 34 1 31 6
M  V30 35 1 32 7
M  V30 36 1 33 7
M  V30 37 1 34 8
M  V30 38 1 35 8
M  V30 39 1 36 9
M  V30 40 1 37 10
M  V30 41 1 38 10
M  V30 42 1 39 11
M  V30 43 1 40 11
M  V30 44 1 12 41 CFG=3
M  V30 45 1 13 42 CFG=1
M  V30 46 1 43 15
M  V30 47 1 44 15
M  V30 48 1 45 16
M  V30 49 1 46 17
M  V30 50 1 47 18
M  V30 51 1 48 20
M  V30 52 1 49 20
M  V30 53 1 50 20
M  V30 54 1 51 21
M  V30 55 1 52 21
M  V30 56 1 53 22
M  V30 57 1 54 22
M  V30 58 1 55 23
M  V30 59 1 56 23
M  V30 60 1 57 25
M  V30 61 1 58 26
M  V30 62 1 59 26
M  V30 63 1 27 60 CFG=1
M  V30 64 1 61 28
M  V30 65 1 62 9
M  V30 66 1 24 63 CFG=1
M  V30 END BOND
M  V30 END CTAB
M  END
>  <i_epik_Tot_Q>  (1) 
2

>  <i_epik_Tot_abs_Q>  (1) 
2

>  <i_i_glide_confnum>  (1) 
55

>  <i_i_glide_lignum>  (1) 
14

>  <i_i_glide_posenum>  (1) 
395

>  <i_i_glide_rotatable_bonds>  (1) 
8

>  <i_lp_mmshare_version>  (1) 
72125

>  <i_m_source_file_index>  (1) 
2

>  <i_f3d_flags>  (1) 
0

>  <num_sample>  (1) 
100

>  <b_lp_Chiralities_Consistent>  (1) 
1

>  <r_epik_Charging_Adjusted_Penalty>  (1) 
2.3622130296898831

>  <r_epik_Ionization_Penalty>  (1) 
1.4312966064593899

>  <r_epik_Ionization_Penalty_Charging>  (1) 
1.1852885594971458

>  <r_epik_Ionization_Penalty_Neutral>  (1) 
0.24600804696224418

>  <r_epik_State_Penalty>  (1) 
1.176924470192737

>  <r_glide_ring_energy>  (1) 
0

>  <r_i_docking_score>  (1) 
-4.5770662040513743

>  <r_i_glide_ecoul>  (1) 
-9.583381737320348

>  <r_i_glide_eff_state_penalty>  (1) 
1.176924470192737

>  <r_i_glide_einternal>  (1) 
4.6303091860639771

>  <r_i_glide_emodel>  (1) 
-49.664723147939171

>  <r_i_glide_emodel_strain>  (1) 
2.0733844046615388

>  <r_i_glide_energy>  (1) 
-35.924581126785981

>  <r_i_glide_erotb>  (1) 
0.75687532201182384

>  <r_i_glide_esite>  (1) 
-0.12943833250841666

>  <r_i_glide_evdw>  (1) 
-26.341199389465633

>  <r_i_glide_gscore>  (1) 
-5.7539906742441111

>  <r_i_glide_gscore_strain>  (1) 
0

>  <r_i_glide_hbond>  (1) 
-0.16

>  <r_i_glide_ligand_efficiency>  (1) 
-0.16346665014469194

>  <r_i_glide_ligand_efficiency_ln>  (1) 
-1.0565212683983534

>  <r_i_glide_ligand_efficiency_sa>  (1) 
-0.49638102709882881

>  <r_i_glide_lipo>  (1) 
-2.2730712412647365

>  <r_i_glide_metal>  (1) 
-0

>  <r_i_glide_rewards>  (1) 
-1.1937891924114488

>  <r_lp_Energy>  (1) 
20.193497000000001

>  <s_epik_cmdline>  (1) 
J2VwaWtfcHl0aG9uJywgJy1waHQnLCAnMS4wJywgJy1waCcsICc3LjQnLCAnLXRuJywgJzgnLCAnLW1hJywgJzUwMCcsICctaW1hZScsICc8aW5maWxlLm1hZT4nLCAnLW9tYWUnLCAnPG91dGZpbGUubWFlPic=

>  <s_epik_input>  (1) 
W0NIMl0xW0NIMl1PW0NIXT1DMUMoPU8pW0NIMl1bQ0BIXTJbQ0gyXVtDSDJdTihbQ0BAXTIzW09IXSlbQ0gyXVtDQEBIXShbTkhdW0NIMl0zKS9bQ0hdPUM0XFtDQEBIXShbTkhdW0NIMl1bQ0gyXTQpW0NASF0oW0NIM10pW0NIMl1bT0hd

>  <s_glide_docking_method>  (1) 
confgen

>  <s_i_glide_gridfile>  (1) 
gpcr_5ht2c_6bqh_protein_autoprepared_prepared

>  <s_lp_Force_Field>  (1) 
S-OPLS

>  <s_lp_Variant>  (1) 
DiffSBDD_1_num_sample_100-8

>  <s_m_source_file>  (1) 
generated__ligand_DiffSBDD_2026-05-06_prepared.sdf

>  <GenAI_Model>  (1) 
DiffSBDD

>  <Protein>  (1) 
GPCR_5HT2C

$$$$
DiffSBDD_32_num_sample_100
     RDKit          3D

  0  0  0  0  0  0  0  0  0  0999 V3000
M  V30 BEGIN CTAB
M  V30 COUNTS 84 87 0 0 1
M  V30 BEGIN ATOM
M  V30 1 C 38.542460 31.174988 60.909941 0 CFG=2
M  V30 2 O 40.803921 28.024752 59.644801 0 CHG=-1
M  V30 3 O 37.067416 36.222972 59.026591 0
M  V30 4 C 38.288902 38.783910 60.951307 0
M  V30 5 C 41.626856 33.098469 64.492107 0
M  V30 6 C 38.933423 28.432461 55.916463 0
M  V30 7 O 40.146446 32.995166 61.333598 0
M  V30 8 C 39.344987 25.943850 55.550775 0
M  V30 9 C 38.342035 35.211417 62.253469 0 CFG=1
M  V30 10 C 36.874039 30.067425 58.644058 0
M  V30 11 C 36.924150 38.138573 60.664094 0 CFG=2
M  V30 12 C 37.466935 27.326638 57.560614 0
M  V30 13 C 37.393938 33.459366 60.430600 0
M  V30 14 C 38.722926 25.369428 56.590600 0
M  V30 15 O 39.068083 24.132267 56.934298 0
M  V30 16 C 37.681022 26.003315 57.366223 0
M  V30 17 C 41.317223 35.102739 61.092498 0
M  V30 18 C 39.645077 28.487365 59.640172 0
M  V30 19 O 38.667564 28.021394 60.253339 0
M  V30 20 C 39.407127 29.756042 58.815650 0 CFG=2
M  V30 21 O 37.897610 27.214587 54.140944 0
M  V30 22 C 37.316624 34.063981 61.842966 0
M  V30 23 C 38.218038 28.471239 57.054343 0
M  V30 24 C 39.027478 27.280447 54.982251 0 CFG=1
M  V30 25 C 39.673823 34.778836 62.857163 0
M  V30 26 C 39.469098 31.874685 61.958662 0
M  V30 27 N 36.808000 31.492032 59.053549 0 CHG=1
M  V30 28 C 36.906786 37.004484 61.610514 0
M  V30 29 C 39.067870 37.682502 61.746599 0
M  V30 30 C 36.784719 37.582334 59.235012 0
M  V30 31 C 41.276845 31.622384 64.701394 0
M  V30 32 N 38.255735 36.470152 61.489329 0 CFG=1 CHG=1
M  V30 33 C 40.748129 34.061804 62.081084 0 CFG=1
M  V30 34 C 39.467408 30.954031 59.745045 0
M  V30 35 C 41.891782 33.589996 63.041046 0
M  V30 36 C 38.193073 29.765395 57.874270 0 CFG=1
M  V30 37 C 37.252476 31.912030 60.419816 0 CFG=1
M  V30 38 H 38.243234 30.223321 61.345641 0
M  V30 39 H 36.776348 36.004726 58.141899 0
M  V30 40 H 38.157004 39.730559 61.453512 0
M  V30 41 H 38.755375 39.146561 60.041379 0
M  V30 42 H 42.559771 33.251438 65.036493 0
M  V30 43 H 40.915565 33.734740 65.016284 0
M  V30 44 H 39.470037 29.320946 55.612001 0
M  V30 45 H 40.110230 25.388049 55.029604 0
M  V30 46 H 37.943700 35.626307 63.159420 0
M  V30 47 H 36.030580 29.896315 57.973909 0
M  V30 48 H 36.710927 29.423514 59.506612 0
M  V30 49 H 36.113903 38.822506 60.911012 0
M  V30 50 H 36.662771 27.563322 58.227915 0
M  V30 51 H 38.299836 33.775208 59.912507 0
M  V30 52 H 36.570409 33.880557 59.855031 0
M  V30 53 H 39.819567 23.893527 56.411677 0
M  V30 54 H 37.023915 25.337846 57.906715 0
M  V30 55 H 41.546592 36.033296 61.607545 0
M  V30 56 H 42.269195 34.821658 60.654894 0
M  V30 57 H 40.611864 35.317534 60.288013 0
M  V30 58 H 40.270381 29.820444 58.153707 0
M  V30 59 H 37.184138 26.847433 54.640376 0
M  V30 60 H 36.285043 34.367673 62.016540 0
M  V30 61 H 37.348538 33.221294 62.525385 0
M  V30 62 H 39.867156 27.513043 54.332467 0
M  V30 63 H 40.091828 35.549636 63.507321 0
M  V30 64 H 39.353459 33.965888 63.453536 0
M  V30 65 H 40.238612 31.168119 62.269646 0
M  V30 66 H 38.933930 32.062793 62.879388 0
M  V30 67 H 37.345531 31.996255 58.363656 0
M  V30 68 H 36.267398 36.233195 61.271199 0
M  V30 69 H 36.638467 37.312001 62.623677 0
M  V30 70 H 39.069108 37.893402 62.814615 0
M  V30 71 H 40.109460 37.599793 61.453510 0
M  V30 72 H 35.762669 37.621278 58.864593 0
M  V30 73 H 37.466849 38.178181 58.653503 0
M  V30 74 H 40.221760 31.420791 64.537762 0
M  V30 75 H 41.482190 31.328826 65.731617 0
M  V30 76 H 41.865479 30.972716 64.055048 0
M  V30 77 H 39.467363 31.873427 59.160141 0
M  V30 78 H 40.457430 30.821447 60.199042 0
M  V30 79 H 42.572943 32.914343 62.520750 0
M  V30 80 H 42.457262 34.493206 63.253820 0
M  V30 81 H 38.326363 30.580869 57.161755 0
M  V30 82 H 36.437551 31.638507 61.092142 0
M  V30 83 H 38.359194 36.233500 60.507870 0
M  V30 84 H 35.852504 31.785807 58.887175 0
M  V30 END ATOM
M  V30 BEGIN BOND
M  V30 1 1 11 4
M  V30 2 2 14 8
M  V30 3 1 15 14
M  V30 4 2 16 12
M  V30 5 1 16 14
M  V30 6 1 18 2
M  V30 7 2 19 18
M  V30 8 1 20 18
M  V30 9 1 22 9
M  V30 10 1 22 13
M  V30 11 2 23 6
M  V30 12 1 23 12
M  V30 13 1 24 6
M  V30 14 1 24 8
M  V30 15 1 24 21
M  V30 16 1 25 9
M  V30 17 1 26 1
M  V30 18 1 26 7
M  V30 19 1 27 10
M  V30 20 1 28 11
M  V30 21 1 29 4
M  V30 22 1 30 3
M  V30 23 1 30 11
M  V30 24 1 31 5
M  V30 25 1 32 9
M  V30 26 1 32 28
M  V30 27 1 32 29
M  V30 28 1 33 7
M  V30 29 1 33 17 CFG=3
M  V30 30 1 33 25
M  V30 31 1 34 1
M  V30 32 1 34 20
M  V30 33 1 35 5
M  V30 34 1 35 33
M  V30 35 1 36 10
M  V30 36 1 36 20
M  V30 37 1 36 23
M  V30 38 1 37 1
M  V30 39 1 37 13
M  V30 40 1 37 27
M  V30 41 1 1 38 CFG=1
M  V30 42 1 39 3
M  V30 43 1 40 4
M  V30 44 1 41 4
M  V30 45 1 42 5
M  V30 46 1 43 5
M  V30 47 1 44 6
M  V30 48 1 45 8
M  V30 49 1 9 46 CFG=1
M  V30 50 1 47 10
M  V30 51 1 48 10
M  V30 52 1 11 49 CFG=1
M  V30 53 1 50 12
M  V30 54 1 51 13
M  V30 55 1 52 13
M  V30 56 1 53 15
M  V30 57 1 54 16
M  V30 58 1 55 17
M  V30 59 1 56 17
M  V30 60 1 57 17
M  V30 61 1 20 58 CFG=3
M  V30 62 1 59 21
M  V30 63 1 60 22
M  V30 64 1 61 22
M  V30 65 1 24 62 CFG=3
M  V30 66 1 63 25
M  V30 67 1 64 25
M  V30 68 1 65 26
M  V30 69 1 66 26
M  V30 70 1 67 27
M  V30 71 1 68 28
M  V30 72 1 69 28
M  V30 73 1 70 29
M  V30 74 1 71 29
M  V30 75 1 72 30
M  V30 76 1 73 30
M  V30 77 1 74 31
M  V30 78 1 75 31
M  V30 79 1 76 31
M  V30 80 1 77 34
M  V30 81 1 78 34
M  V30 82 1 79 35
M  V30 83 1 80 35
M  V30 84 1 36 81 CFG=3
M  V30 85 1 37 82 CFG=1
M  V30 86 1 32 83 CFG=3
M  V30 87 1 84 27
M  V30 END BOND
M  V30 END CTAB
M  END
>  <i_epik_Tot_Q>  (1) 
1

>  <i_epik_Tot_abs_Q>  (1) 
3

>  <i_i_glide_confnum>  (1) 
73

>  <i_i_glide_lignum>  (1) 
86

>  <i_i_glide_posenum>  (1) 
290

>  <i_i_glide_rotatable_bonds>  (1) 
9

>  <i_lp_mmshare_version>  (1) 
72125

>  <i_m_source_file_index>  (1) 
33

>  <i_f3d_flags>  (1) 
0

>  <num_sample>  (1) 
100

>  <b_lp_Chiralities_Consistent>  (1) 
1

>  <r_epik_Charging_Adjusted_Penalty>  (1) 
0.016900800142501185

>  <r_epik_Ionization_Penalty>  (1) 
0.019380071947909534

>  <r_epik_Ionization_Penalty_Charging>  (1) 
0.016900800142501185

>  <r_epik_Ionization_Penalty_Neutral>  (1) 
0.0024792718054083493

>  <r_epik_State_Penalty>  (1) 
-0

>  <r_glide_ring_energy>  (1) 
0.61486460330697923

>  <r_i_docking_score>  (1) 
-4.566773441365247

>  <r_i_glide_ecoul>  (1) 
-3.6133721637073402

>  <r_i_glide_eff_state_penalty>  (1) 
-0

>  <r_i_glide_einternal>  (1) 
13.262793230297435

>  <r_i_glide_emodel>  (1) 
2.7193142928559277

>  <r_i_glide_emodel_strain>  (1) 
9.7720067604319922

>  <r_i_glide_energy>  (1) 
-10.938603093466753

>  <r_i_glide_erotb>  (1) 
0.30428459818937692

>  <r_i_glide_esite>  (1) 
-0.10000000000000001

>  <r_i_glide_evdw>  (1) 
-7.325230929759412

>  <r_i_glide_gscore>  (1) 
-4.566773441365247

>  <r_i_glide_gscore_strain>  (1) 
1.4430016901079981

>  <r_i_glide_hbond>  (1) 
-0.38097759623600252

>  <r_i_glide_ligand_efficiency>  (1) 
-0.12342630922608776

>  <r_i_glide_ligand_efficiency_ln>  (1) 
-0.9904260990728283

>  <r_i_glide_ligand_efficiency_sa>  (1) 
-0.41128384467118023

>  <r_i_glide_lipo>  (1) 
-3.7414850105405888

>  <r_i_glide_metal>  (1) 
-0

>  <r_i_glide_rewards>  (1) 
-1.1833297518419601

>  <r_lp_Energy>  (1) 
56.404024999999997

>  <r_lp_tautomer_probability>  (1) 
1

>  <s_epik_cmdline>  (1) 
J2VwaWtfcHl0aG9uJywgJy1waHQnLCAnMS4wJywgJy1waCcsICc3LjQnLCAnLXRuJywgJzgnLCAnLW1hJywgJzUwMCcsICctaW1hZScsICc8aW5maWxlLm1hZT4nLCAnLW9tYWUnLCAnPG91dGZpbGUubWFlPic=

>  <s_epik_input>  (1) 
W09IXUMxPVtDSF1bQ0BASF0oW09IXSlbQ0hdPUMoW0NIXT1bQ0hdMSlbQ0BIXShbQ0BASF0oW0NIMl0yKUMoPU8pW09IXSlbQ0gyXVtOSF1bQ0BASF0oW0NAQEhdMjMpW0NIMl1bQ0gyXVtDQEBIXShbQ0gyXVtDQF0oW0NIM10pKE9bQ0gyXTMpW0NIMl1bQ0gyXVtDSDNdKU4oW0NIMl00KVtDSDJdW0NIMl1bQ0BIXTRbQ0gyXVtPSF0=

>  <s_glide_docking_method>  (1) 
confgen

>  <s_i_glide_gridfile>  (1) 
gpcr_5ht2c_6bqh_protein_autoprepared_prepared

>  <s_lp_Force_Field>  (1) 
S-OPLS

>  <s_lp_Variant>  (1) 
DiffSBDD_32_num_sample_100-1

>  <s_m_source_file>  (1) 
generated__ligand_DiffSBDD_2026-05-06_prepared.sdf

>  <GenAI_Model>  (1) 
DiffSBDD

>  <Protein>  (1) 
GPCR_5HT2C

$$$$
DiffSBDD_93_num_sample_100
     RDKit          3D

  0  0  0  0  0  0  0  0  0  0999 V3000
M  V30 BEGIN CTAB
M  V30 COUNTS 74 77 0 0 1
M  V30 BEGIN ATOM
M  V30 1 C 41.675248 29.943681 64.408598 0
M  V30 2 S 37.771775 32.951774 59.185558 0
M  V30 3 C 42.877681 28.443899 66.076087 0 CFG=2
M  V30 4 O 39.556801 37.138070 61.854024 0
M  V30 5 C 39.866808 29.581824 56.746822 0
M  V30 6 C 39.758636 34.241737 61.652803 0 CFG=1
M  V30 7 C 39.048753 28.406745 59.374387 0
M  V30 8 C 37.347754 30.196031 59.479091 0
M  V30 9 C 43.734472 29.661263 66.441329 0
M  V30 10 N 38.376278 31.503090 61.476294 0 CHG=1
M  V30 11 C 40.739276 28.384477 57.102247 0
M  V30 12 C 42.054652 28.708666 64.829094 0
M  V30 13 C 40.905571 30.081172 63.140133 0
M  V30 14 C 39.858462 31.607939 61.355215 0 CFG=2
M  V30 15 C 42.871262 30.917367 66.523679 0
M  V30 16 Cl 40.667402 32.176326 65.733888 0
M  V30 17 O 39.486037 26.510726 56.220139 0
M  V30 18 C 42.070921 31.191908 65.232255 0 CFG=2
M  V30 19 C 40.471409 28.846756 62.365065 0
M  V30 20 C 37.515159 34.370988 60.303531 0
M  V30 21 C 40.906139 35.160419 62.123130 0
M  V30 22 C 40.598211 31.317144 62.669599 0
M  V30 23 C 38.868865 27.201384 58.446146 0
M  V30 24 C 38.806342 35.082253 60.759423 0 CFG=1
M  V30 25 C 37.470094 31.523639 60.282563 0 CFG=1
M  V30 26 C 39.998642 27.071994 57.411141 0 CFG=2
M  V30 27 C 38.410315 36.391600 61.480495 0
M  V30 28 C 40.377856 36.441959 62.777150 0
M  V30 29 C 38.899460 30.102667 57.534685 0
M  V30 30 S 35.855430 31.621603 61.053751 0 CHG=-1
M  V30 31 N 38.512230 29.635549 58.793209 0
M  V30 32 C 42.003762 27.929748 67.231499 0
M  V30 33 C 40.354502 33.006722 60.921379 0
M  V30 34 H 43.573196 27.645012 65.816508 0
M  V30 35 H 40.061747 30.038993 55.787565 0
M  V30 36 H 39.212853 33.921878 62.541676 0
M  V30 37 H 40.086807 28.541385 59.668526 0
M  V30 38 H 38.504787 28.166904 60.284911 0
M  V30 39 H 36.576629 30.337954 58.718464 0
M  V30 40 H 36.926833 29.443402 60.143467 0
M  V30 41 H 44.260343 29.492056 67.381716 0
M  V30 42 H 44.505457 29.799511 65.682501 0
M  V30 43 H 38.066433 32.266625 62.057311 0
M  V30 44 H 41.385429 28.656220 57.937011 0
M  V30 45 H 41.425000 28.214568 56.271799 0
M  V30 46 H 41.794879 27.837934 64.255144 0
M  V30 47 H 40.191784 30.885678 60.612902 0
M  V30 48 H 42.186798 30.804643 67.365238 0
M  V30 49 H 43.486029 31.786042 66.765801 0
M  V30 50 H 38.824003 27.093521 55.880319 0
M  V30 51 H 42.691575 31.818009 64.589564 0
M  V30 52 H 40.254597 27.989272 62.995025 0
M  V30 53 H 39.521072 29.038784 61.882389 0
M  V30 54 H 41.221843 28.567320 61.624906 0
M  V30 55 H 36.909485 35.078972 59.736272 0
M  V30 56 H 36.914121 34.101795 61.169838 0
M  V30 57 H 41.535560 35.434431 61.275359 0
M  V30 58 H 41.553221 34.634707 62.825195 0
M  V30 59 H 40.899563 32.184523 63.228086 0
M  V30 60 H 37.890855 27.263140 57.964136 0
M  V30 61 H 38.839085 26.292339 59.048795 0
M  V30 62 H 39.368081 35.365135 59.873841 0
M  V30 63 H 40.743886 26.373912 57.794927 0
M  V30 64 H 37.809575 37.020665 60.823084 0
M  V30 65 H 37.802835 36.186709 62.363369 0
M  V30 66 H 41.210789 37.088364 63.047136 0
M  V30 67 H 39.823391 36.218270 63.690286 0
M  V30 68 H 38.325566 30.959858 57.207936 0
M  V30 69 H 41.472420 27.016262 66.955879 0
M  V30 70 H 42.612660 27.701413 68.106395 0
M  V30 71 H 41.255238 28.665793 67.526067 0
M  V30 72 H 40.267007 33.133879 59.851727 0
M  V30 73 H 41.436939 33.003899 61.054432 0
M  V30 74 H 38.172350 30.645686 61.965706 0
M  V30 END ATOM
M  V30 BEGIN BOND
M  V30 1 1 9 3
M  V30 2 1 11 5
M  V30 3 2 12 1
M  V30 4 1 12 3
M  V30 5 1 13 1
M  V30 6 1 14 10
M  V30 7 1 15 9
M  V30 8 1 18 1
M  V30 9 1 18 15
M  V30 10 1 18 16
M  V30 11 1 19 13
M  V30 12 1 20 2
M  V30 13 1 21 6
M  V30 14 2 22 13
M  V30 15 1 22 14
M  V30 16 1 23 7
M  V30 17 1 24 6
M  V30 18 1 24 20
M  V30 19 1 25 2
M  V30 20 1 25 8
M  V30 21 1 25 10
M  V30 22 1 26 11
M  V30 23 1 26 17
M  V30 24 1 26 23
M  V30 25 1 27 4
M  V30 26 1 27 24
M  V30 27 1 28 4
M  V30 28 1 28 21
M  V30 29 2 29 5
M  V30 30 1 25 30 CFG=1
M  V30 31 1 31 7
M  V30 32 1 31 8
M  V30 33 1 31 29
M  V30 34 1 32 3
M  V30 35 1 33 6
M  V30 36 1 33 14
M  V30 37 1 3 34 CFG=3
M  V30 38 1 35 5
M  V30 39 1 6 36 CFG=1
M  V30 40 1 37 7
M  V30 41 1 38 7
M  V30 42 1 39 8
M  V30 43 1 40 8
M  V30 44 1 41 9
M  V30 45 1 42 9
M  V30 46 1 43 10
M  V30 47 1 44 11
M  V30 48 1 45 11
M  V30 49 1 46 12
M  V30 50 1 14 47 CFG=3
M  V30 51 1 48 15
M  V30 52 1 49 15
M  V30 53 1 50 17
M  V30 54 1 18 51 CFG=3
M  V30 55 1 52 19
M  V30 56 1 53 19
M  V30 57 1 54 19
M  V30 58 1 55 20
M  V30 59 1 56 20
M  V30 60 1 57 21
M  V30 61 1 58 21
M  V30 62 1 59 22
M  V30 63 1 60 23
M  V30 64 1 61 23
M  V30 65 1 24 62 CFG=3
M  V30 66 1 26 63 CFG=1
M  V30 67 1 64 27
M  V30 68 1 65 27
M  V30 69 1 66 28
M  V30 70 1 67 28
M  V30 71 1 68 29
M  V30 72 1 69 32
M  V30 73 1 70 32
M  V30 74 1 71 32
M  V30 75 1 72 33
M  V30 76 1 73 33
M  V30 77 1 74 10
M  V30 END BOND
M  V30 END CTAB
M  END
>  <i_epik_Tot_Q>  (1) 
0

>  <i_epik_Tot_abs_Q>  (1) 
2

>  <i_i_glide_confnum>  (1) 
45

>  <i_i_glide_lignum>  (1) 
259

>  <i_i_glide_posenum>  (1) 
118

>  <i_i_glide_rotatable_bonds>  (1) 
5

>  <i_lp_mmshare_version>  (1) 
72125

>  <i_m_source_file_index>  (1) 
94

>  <i_f3d_flags>  (1) 
0

>  <num_sample>  (1) 
100

>  <b_lp_Chiralities_Consistent>  (1) 
1

>  <r_epik_Charging_Adjusted_Penalty>  (1) 
0.80501984278308969

>  <r_epik_Ionization_Penalty>  (1) 
0.072421558423421364

>  <r_epik_Ionization_Penalty_Charging>  (1) 
0.072408791886815996

>  <r_epik_Ionization_Penalty_Neutral>  (1) 
1.2766536605372598e-05

>  <r_epik_State_Penalty>  (1) 
0.73261105089627365

>  <r_glide_ring_energy>  (1) 
1.2305908303780047

>  <r_i_docking_score>  (1) 
-4.5526548067263866

>  <r_i_glide_ecoul>  (1) 
-1.3624019038161783

>  <r_i_glide_eff_state_penalty>  (1) 
0.73261105089627365

>  <r_i_glide_einternal>  (1) 
8.8645488553410061

>  <r_i_glide_emodel>  (1) 
-32.504776985910993

>  <r_i_glide_emodel_strain>  (1) 
0.14735856276899995

>  <r_i_glide_energy>  (1) 
-36.73478795735614

>  <r_i_glide_erotb>  (1) 
0.31140238833871409

>  <r_i_glide_esite>  (1) 
0

>  <r_i_glide_evdw>  (1) 
-35.372386053539962

>  <r_i_glide_gscore>  (1) 
-5.2852658576226599

>  <r_i_glide_gscore_strain>  (1) 
0

>  <r_i_glide_hbond>  (1) 
-0.11424645761972933

>  <r_i_glide_ligand_efficiency>  (1) 
-0.13795923656746625

>  <r_i_glide_ligand_efficiency_ln>  (1) 
-1.012486856630926

>  <r_i_glide_ligand_efficiency_sa>  (1) 
-0.44250898743016365

>  <r_i_glide_lipo>  (1) 
-3.0533687500717077

>  <r_i_glide_metal>  (1) 
-0

>  <r_i_glide_rewards>  (1) 
-0.45607345002051181

>  <r_lp_Energy>  (1) 
34.184450999999996

>  <s_epik_Chemistry_Notes>  (1) 
This compound has an imine and may undergo hydrolysis.

>  <s_epik_cmdline>  (1) 
J2VwaWtfcHl0aG9uJywgJy1waHQnLCAnMS4wJywgJy1waCcsICc3LjQnLCAnLXRuJywgJzgnLCAnLW1hJywgJzUwMCcsICctaW1hZScsICc8aW5maWxlLm1hZT4nLCAnLW9tYWUnLCAnPG91dGZpbGUubWFlPic=

>  <s_epik_input>  (1) 
Q2xbQ0BIXTFbQ0gyXVtDSDJdW0NAQEhdKFtDSDNdKVtDSF09QzEvQyhbQ0gzXSk9W0NIXS9bQ0BASF0oW0NIMl0yKVtOSF1bQ0BAXShbU0hdKShTW0NIMl1bQ0BIXShbQ0BASF0yMylbQ0gyXU9bQ0gyXVtDSDJdMylbQ0gyXU4oW0NIMl1bQ0gyXTQpW0NIXT1bQ0hdW0NIMl1bQ0BASF00W09IXQ==

>  <s_glide_docking_method>  (1) 
confgen

>  <s_i_glide_gridfile>  (1) 
gpcr_5ht2c_6bqh_protein_autoprepared_prepared

>  <s_lp_Force_Field>  (1) 
S-OPLS

>  <s_lp_Variant>  (1) 
DiffSBDD_93_num_sample_100-11

>  <s_m_source_file>  (1) 
generated__ligand_DiffSBDD_2026-05-06_prepared.sdf

>  <GenAI_Model>  (1) 
DiffSBDD

>  <Protein>  (1) 
GPCR_5HT2C

$$$$
DiffSBDD_44_num_sample_100
     RDKit          3D

  0  0  0  0  0  0  0  0  0  0999 V3000
M  V30 BEGIN CTAB
M  V30 COUNTS 58 59 0 0 1
M  V30 BEGIN ATOM
M  V30 1 C 38.165349 25.567535 54.453122 0
M  V30 2 O 38.604646 27.032507 58.663173 0 CHG=-1
M  V30 3 C 38.174535 32.408343 59.165132 0
M  V30 4 C 37.507957 25.030337 56.725405 0 CFG=1
M  V30 5 N 38.144129 26.373483 56.682228 0 CFG=1 CHG=1
M  V30 6 C 37.185483 31.460233 61.204791 0
M  V30 7 N 39.467403 30.021431 58.479756 0
M  V30 8 C 38.147369 31.418287 60.026736 0
M  V30 9 O 40.109855 30.190275 60.749306 0
M  V30 10 C 37.785516 24.406808 55.375024 0 CFG=1
M  V30 11 C 36.667406 23.472705 54.919911 0
M  V30 12 C 37.527804 28.798737 57.513167 0 CFG=1
M  V30 13 C 38.850625 29.591784 57.453457 0
M  V30 14 C 38.030232 26.826342 55.283571 0
M  V30 15 C 40.667331 28.906378 61.008341 0
M  V30 16 C 36.558817 34.267650 59.179185 0
M  V30 17 C 37.679271 27.261218 57.765045 0 CFG=2
M  V30 18 C 39.004228 30.146193 59.854922 0 CFG=2
M  V30 19 F 37.118262 34.375108 61.453492 0
M  V30 20 C 36.188451 33.879662 60.642067 0 CFG=2
M  V30 21 C 37.718946 33.487474 58.590627 0
M  V30 22 C 36.418755 29.384427 58.423221 0
M  V30 23 C 39.398711 29.834281 56.058895 0
M  V30 24 C 38.024747 24.128822 57.853505 0
M  V30 25 C 35.936847 32.371667 60.964635 0
M  V30 26 H 37.584358 25.621436 53.531149 0
M  V30 27 H 39.225793 25.471686 54.224385 0
M  V30 28 H 36.425934 25.139567 56.816628 0
M  V30 29 H 36.845818 30.447982 61.411705 0
M  V30 30 H 37.738768 31.786133 62.086688 0
M  V30 31 H 38.667405 23.801172 55.488625 0
M  V30 32 H 35.867510 24.021895 54.427894 0
M  V30 33 H 37.060362 22.709883 54.253500 0
M  V30 34 H 36.229508 22.933943 55.761136 0
M  V30 35 H 37.075450 28.945469 56.539688 0
M  V30 36 H 37.067407 27.274969 55.069034 0
M  V30 37 H 38.805538 27.534481 55.012918 0
M  V30 38 H 41.473254 28.996366 61.733821 0
M  V30 39 H 39.928624 28.223533 61.431083 0
M  V30 40 H 41.072825 28.456605 60.101570 0
M  V30 41 H 36.788595 35.332422 59.124558 0
M  V30 42 H 35.698198 34.102908 58.529869 0
M  V30 43 H 36.640868 26.962628 57.857248 0
M  V30 44 H 38.431778 29.274094 60.153168 0
M  V30 45 H 35.278863 34.421426 60.896154 0
M  V30 46 H 38.110414 33.830001 57.644270 0
M  V30 47 H 36.267768 30.442289 58.253504 0
M  V30 48 H 35.467408 28.908020 58.253503 0
M  V30 49 H 36.552804 29.221435 59.482179 0
M  V30 50 H 40.174815 29.105338 55.827736 0
M  V30 51 H 38.623011 29.803873 55.294380 0
M  V30 52 H 39.856241 30.823803 56.012515 0
M  V30 53 H 37.508960 23.170403 57.853508 0
M  V30 54 H 39.093649 23.940430 57.749596 0
M  V30 55 H 37.867395 24.572265 58.832566 0
M  V30 56 H 35.326651 31.941279 60.168006 0
M  V30 57 H 35.311206 32.314941 61.853508 0
M  V30 58 H 39.124399 26.249582 56.887909 0
M  V30 END ATOM
M  V30 BEGIN BOND
M  V30 1 1 5 4
M  V30 2 2 8 3
M  V30 3 1 8 6
M  V30 4 1 10 1
M  V30 5 1 10 4
M  V30 6 1 11 10
M  V30 7 2 13 7
M  V30 8 1 13 12
M  V30 9 1 14 1
M  V30 10 1 14 5
M  V30 11 1 15 9
M  V30 12 1 17 2
M  V30 13 1 17 5
M  V30 14 1 17 12
M  V30 15 1 18 7
M  V30 16 1 18 8
M  V30 17 1 18 9
M  V30 18 1 20 16
M  V30 19 1 20 19
M  V30 20 2 21 3
M  V30 21 1 21 16
M  V30 22 1 22 12
M  V30 23 1 23 13
M  V30 24 1 24 4
M  V30 25 1 25 6
M  V30 26 1 25 20
M  V30 27 1 26 1
M  V30 28 1 27 1
M  V30 29 1 4 28 CFG=1
M  V30 30 1 29 6
M  V30 31 1 30 6
M  V30 32 1 10 31 CFG=1
M  V30 33 1 32 11
M  V30 34 1 33 11
M  V30 35 1 34 11
M  V30 36 1 12 35 CFG=3
M  V30 37 1 36 14
M  V30 38 1 37 14
M  V30 39 1 38 15
M  V30 40 1 39 15
M  V30 41 1 40 15
M  V30 42 1 41 16
M  V30 43 1 42 16
M  V30 44 1 17 43 CFG=1
M  V30 45 1 18 44 CFG=1
M  V30 46 1 20 45 CFG=1
M  V30 47 1 46 21
M  V30 48 1 47 22
M  V30 49 1 48 22
M  V30 50 1 49 22
M  V30 51 1 50 23
M  V30 52 1 51 23
M  V30 53 1 52 23
M  V30 54 1 53 24
M  V30 55 1 54 24
M  V30 56 1 55 24
M  V30 57 1 56 25
M  V30 58 1 57 25
M  V30 59 1 5 58 CFG=1
M  V30 END BOND
M  V30 END CTAB
M  END
>  <i_epik_Tot_Q>  (1) 
0

>  <i_epik_Tot_abs_Q>  (1) 
2

>  <i_i_glide_confnum>  (1) 
23

>  <i_i_glide_lignum>  (1) 
118

>  <i_i_glide_posenum>  (1) 
392

>  <i_i_glide_rotatable_bonds>  (1) 
6

>  <i_lp_mmshare_version>  (1) 
72125

>  <i_m_source_file_index>  (1) 
45

>  <i_f3d_flags>  (1) 
0

>  <num_sample>  (1) 
100

>  <b_lp_Chiralities_Consistent>  (1) 
1

>  <r_epik_Charging_Adjusted_Penalty>  (1) 
0.41733257654759531

>  <r_epik_Ionization_Penalty>  (1) 
0.0069177268181324029

>  <r_epik_Ionization_Penalty_Charging>  (1) 
0.0066527375949913311

>  <r_epik_Ionization_Penalty_Neutral>  (1) 
0.00026498922314107146

>  <r_epik_State_Penalty>  (1) 
0.41067983895260396

>  <r_glide_ring_energy>  (1) 
0

>  <r_i_docking_score>  (1) 
-4.5473014436693227

>  <r_i_glide_ecoul>  (1) 
-1.4822885319968095

>  <r_i_glide_eff_state_penalty>  (1) 
0.41067983895260396

>  <r_i_glide_einternal>  (1) 
11.937603263918668

>  <r_i_glide_emodel>  (1) 
-29.328089702001861

>  <r_i_glide_emodel_strain>  (1) 
3.7830511031117311

>  <r_i_glide_energy>  (1) 
-28.547222860666338

>  <r_i_glide_erotb>  (1) 
0.61440649929112812

>  <r_i_glide_esite>  (1) 
-0.0030313610415708056

>  <r_i_glide_evdw>  (1) 
-27.06493432866953

>  <r_i_glide_gscore>  (1) 
-4.9579812826219269

>  <r_i_glide_gscore_strain>  (1) 
0

>  <r_i_glide_hbond>  (1) 
0

>  <r_i_glide_ligand_efficiency>  (1) 
-0.18189205774677292

>  <r_i_glide_ligand_efficiency_ln>  (1) 
-1.0778467137774508

>  <r_i_glide_ligand_efficiency_sa>  (1) 
-0.53185560329160297

>  <r_i_glide_lipo>  (1) 
-2.0752445081544444

>  <r_i_glide_metal>  (1) 
-0

>  <r_i_glide_rewards>  (1) 
-1.9185219164840417

>  <r_lp_Energy>  (1) 
7.5226449999999998

>  <r_lp_tautomer_probability>  (1) 
0.49999399997599986

>  <s_epik_Chemistry_Notes>  (1) 
This compound has an imine and may undergo hydrolysis. This compound contains an acetal/aminal-like group ( X-CH(R)-Y where X, Y are N, S, or O) that may be acid/base labile, releasing an aldehyde.

>  <s_epik_cmdline>  (1) 
J2VwaWtfcHl0aG9uJywgJy1waHQnLCAnMS4wJywgJy1waCcsICc3LjQnLCAnLXRuJywgJzgnLCAnLW1hJywgJzUwMCcsICctaW1hZScsICc8aW5maWxlLm1hZT4nLCAnLW9tYWUnLCAnPG91dGZpbGUubWFlPic=

>  <s_epik_input>  (1) 
W0NIM11bQ0BIXTFbQ0gyXVtDSDJdTihbQ0BASF0xW0NIM10pW0NAQEhdKFtPSF0pW0NAQEhdKFtDSDNdKS9DKFtDSDNdKT1OXFtDQEBIXShPW0NIM10pQzI9Qz1bQ0hdW0NIMl1bQ0BASF0oRilbQ0gyXVtDSDJdMg==

>  <s_glide_docking_method>  (1) 
confgen

>  <s_i_glide_gridfile>  (1) 
gpcr_5ht2c_6bqh_protein_autoprepared_prepared

>  <s_lp_Force_Field>  (1) 
S-OPLS

>  <s_lp_Variant>  (1) 
DiffSBDD_44_num_sample_100-11

>  <s_m_source_file>  (1) 
generated__ligand_DiffSBDD_2026-05-06_prepared.sdf

>  <GenAI_Model>  (1) 
DiffSBDD

>  <Protein>  (1) 
GPCR_5HT2C

$$$$
DiffSBDD_39_num_sample_100
     RDKit          3D

  0  0  0  0  0  0  0  0  0  0999 V3000
M  V30 BEGIN CTAB
M  V30 COUNTS 61 64 0 0 1
M  V30 BEGIN ATOM
M  V30 1 C 39.867488 34.526718 62.930708 0
M  V30 2 C 38.077100 29.501010 59.287049 0
M  V30 3 C 41.867417 31.621359 62.219060 0
M  V30 4 C 39.135123 30.068244 60.247656 0
M  V30 5 C 39.067678 32.168808 62.576743 0
M  V30 6 C 38.414343 29.034489 56.823114 0
M  V30 7 N 39.500356 30.807533 53.525455 0
M  V30 8 O 41.658534 32.021366 61.053512 0 CHG=-1
M  V30 9 C 38.759477 29.327050 55.365868 0
M  V30 10 C 40.536726 32.862899 64.610382 0
M  V30 11 O 42.667382 32.154967 62.987098 0
M  V30 12 C 41.233479 33.874977 65.310664 0
M  V30 13 C 41.239365 35.201303 64.824505 0
M  V30 14 N 39.549645 30.891888 62.567007 0
M  V30 15 C 40.539038 36.957128 63.126361 0
M  V30 16 C 41.148202 30.350092 64.327087 0
M  V30 17 C 39.879974 29.904850 51.286419 0
M  V30 18 C 38.833263 29.899339 61.756682 0
M  V30 19 C 38.189098 37.219365 61.995282 0
M  V30 20 C 38.711768 28.250929 54.439740 0
M  V30 21 C 40.952367 30.538689 62.812104 0 CFG=2
M  V30 22 C 39.709243 28.463998 50.676341 0
M  V30 23 O 37.719545 37.173522 63.153331 0 CHG=-1
M  V30 24 C 39.849646 33.201512 63.390069 0
M  V30 25 S 39.067551 27.248198 51.920962 0
M  V30 26 C 39.067414 28.492067 53.112273 0
M  V30 27 O 38.342135 26.996472 54.835594 0
M  V30 28 C 40.548215 35.524929 63.637420 0
M  V30 29 Cl 39.217914 32.036820 55.833123 0
M  V30 30 C 39.719118 37.279116 61.853482 0
M  V30 31 C 39.157406 30.631718 54.835395 0
M  V30 32 C 38.413150 29.899125 57.862036 0
M  V30 33 C 40.500343 31.444466 65.180390 0
M  V30 34 O 38.073371 32.513945 61.930610 0
M  V30 35 C 39.458546 29.734572 52.718097 0
M  V30 36 O 37.524478 37.231097 60.937009 0
M  V30 37 H 39.343958 34.772266 62.021929 0
M  V30 38 H 37.093193 29.903497 59.531813 0
M  V30 39 H 38.018624 28.418830 59.379389 0
M  V30 40 H 40.105952 29.622606 60.025978 0
M  V30 41 H 39.249495 31.127140 60.015353 0
M  V30 42 H 38.149525 28.009456 57.035877 0
M  V30 43 H 41.753356 33.636855 66.225589 0
M  V30 44 H 41.766781 35.972949 65.368762 0
M  V30 45 H 40.180772 37.597121 63.928622 0
M  V30 46 H 41.577982 37.221258 62.951862 0
M  V30 47 H 42.212920 30.294361 64.557304 0
M  V30 48 H 40.745404 29.383758 64.631905 0
M  V30 49 H 39.279129 30.634771 50.747325 0
M  V30 50 H 40.920244 30.228867 51.240864 0
M  V30 51 H 37.776484 30.024475 61.950346 0
M  V30 52 H 39.067408 28.886469 62.085530 0
M  V30 53 H 41.224223 29.608928 62.310757 0
M  V30 54 H 39.038154 28.484316 49.821470 0
M  V30 55 H 40.667150 28.097904 50.320509 0
M  V30 56 H 38.356484 26.398000 54.102781 0
M  V30 57 H 39.954678 38.290964 61.526101 0
M  V30 58 H 40.028974 36.608863 61.053783 0
M  V30 59 H 38.655945 30.916913 57.732415 0
M  V30 60 H 40.968744 31.441174 66.164606 0
M  V30 61 H 39.467422 31.174105 65.373735 0
M  V30 END ATOM
M  V30 BEGIN BOND
M  V30 1 1 4 2
M  V30 2 1 8 3
M  V30 3 1 9 6
M  V30 4 2 11 3
M  V30 5 1 12 10
M  V30 6 2 13 12
M  V30 7 1 14 5
M  V30 8 1 18 4
M  V30 9 1 18 14
M  V30 10 2 20 9
M  V30 11 1 21 3
M  V30 12 1 21 14
M  V30 13 1 21 16
M  V30 14 1 22 17
M  V30 15 1 23 19
M  V30 16 1 24 1
M  V30 17 1 24 5
M  V30 18 2 24 10
M  V30 19 1 25 22
M  V30 20 1 26 20
M  V30 21 1 26 25
M  V30 22 1 27 20
M  V30 23 2 28 1
M  V30 24 1 28 13
M  V30 25 1 28 15
M  V30 26 1 30 15
M  V30 27 1 30 19
M  V30 28 2 31 7
M  V30 29 1 31 9
M  V30 30 1 31 29
M  V30 31 1 32 2
M  V30 32 2 32 6
M  V30 33 1 33 10
M  V30 34 1 33 16
M  V30 35 2 34 5
M  V30 36 1 35 7
M  V30 37 1 35 17
M  V30 38 2 35 26
M  V30 39 2 36 19
M  V30 40 1 37 1
M  V30 41 1 38 2
M  V30 42 1 39 2
M  V30 43 1 40 4
M  V30 44 1 41 4
M  V30 45 1 42 6
M  V30 46 1 43 12
M  V30 47 1 44 13
M  V30 48 1 45 15
M  V30 49 1 46 15
M  V30 50 1 47 16
M  V30 51 1 48 16
M  V30 52 1 49 17
M  V30 53 1 50 17
M  V30 54 1 51 18
M  V30 55 1 52 18
M  V30 56 1 21 53 CFG=3
M  V30 57 1 54 22
M  V30 58 1 55 22
M  V30 59 1 56 27
M  V30 60 1 57 30
M  V30 61 1 58 30
M  V30 62 1 59 32
M  V30 63 1 60 33
M  V30 64 1 61 33
M  V30 END BOND
M  V30 END CTAB
M  END
>  <i_epik_Tot_Q>  (1) 
-2

>  <i_epik_Tot_abs_Q>  (1) 
2

>  <i_i_glide_confnum>  (1) 
199

>  <i_i_glide_lignum>  (1) 
96

>  <i_i_glide_posenum>  (1) 
397

>  <i_i_glide_rotatable_bonds>  (1) 
10

>  <i_lp_mmshare_version>  (1) 
72125

>  <i_m_source_file_index>  (1) 
40

>  <i_f3d_flags>  (1) 
0

>  <num_sample>  (1) 
100

>  <b_lp_Chiralities_Consistent>  (1) 
1

>  <r_epik_Charging_Adjusted_Penalty>  (1) 
1.1553041349672681

>  <r_epik_Ionization_Penalty>  (1) 
1.0836065631352982

>  <r_epik_Ionization_Penalty_Charging>  (1) 
0.00098582723969229671

>  <r_epik_Ionization_Penalty_Neutral>  (1) 
1.0826207358956059

>  <r_epik_State_Penalty>  (1) 
1.1543183077275758

>  <r_glide_ring_energy>  (1) 
0

>  <r_i_docking_score>  (1) 
-4.5463901596489009

>  <r_i_glide_ecoul>  (1) 
-0.54317309514444378

>  <r_i_glide_eff_state_penalty>  (1) 
1.1543183077275758

>  <r_i_glide_einternal>  (1) 
4.2117731806676204

>  <r_i_glide_emodel>  (1) 
-40.671181341543829

>  <r_i_glide_emodel_strain>  (1) 
2.0272559826014458

>  <r_i_glide_energy>  (1) 
-31.74198138238312

>  <r_i_glide_erotb>  (1) 
0.51538728504810294

>  <r_i_glide_esite>  (1) 
0

>  <r_i_glide_evdw>  (1) 
-31.198808287238677

>  <r_i_glide_gscore>  (1) 
-5.7007084673764767

>  <r_i_glide_gscore_strain>  (1) 
0

>  <r_i_glide_hbond>  (1) 
-0.015714497582884332

>  <r_i_glide_ligand_efficiency>  (1) 
-0.12628861554580281

>  <r_i_glide_ligand_efficiency_ln>  (1) 
-0.99189950356794743

>  <r_i_glide_ligand_efficiency_sa>  (1) 
-0.4169958208958639

>  <r_i_glide_lipo>  (1) 
-3.4291724723845456

>  <r_i_glide_metal>  (1) 
-0

>  <r_i_glide_rewards>  (1) 
-1.1297924038235485

>  <r_lp_Energy>  (1) 
56.584314999999997

>  <s_epik_cmdline>  (1) 
J2VwaWtfcHl0aG9uJywgJy1waHQnLCAnMS4wJywgJy1waCcsICc3LjQnLCAnLXRuJywgJzgnLCAnLW1hJywgJzUwMCcsICctaW1hZScsICc8aW5maWxlLm1hZT4nLCAnLW9tYWUnLCAnPG91dGZpbGUubWFlPic=

>  <s_epik_input>  (1) 
W09IXUMoPU8pW0NIMl1bQ0gyXWMoW2NIXVtjSF0xKVtjSF1jKGMxMilDKD1PKU4oW0NAQEhdKEMoPU8pW09IXSlbQ0gyXVtDSDJdMilbQ0gyXVtDSDJdW0NIMl1cW0NIXT1bQ0hdXGMoYzNbT0hdKWMoQ2wpbmMoYzM0KVtDSDJdW0NIMl1TNA==

>  <s_glide_docking_method>  (1) 
confgen

>  <s_i_glide_gridfile>  (1) 
gpcr_5ht2c_6bqh_protein_autoprepared_prepared

>  <s_lp_Force_Field>  (1) 
S-OPLS

>  <s_lp_Variant>  (1) 
DiffSBDD_39_num_sample_100-3

>  <s_m_source_file>  (1) 
generated__ligand_DiffSBDD_2026-05-06_prepared.sdf

>  <GenAI_Model>  (1) 
DiffSBDD

>  <Protein>  (1) 
GPCR_5HT2C

$$$$
DiffSBDD_85_num_sample_100
     RDKit          3D

  0  0  0  0  0  0  0  0  0  0999 V3000
M  V30 BEGIN CTAB
M  V30 COUNTS 83 87 0 0 1
M  V30 BEGIN ATOM
M  V30 1 C 39.901500 30.465517 51.029259 0
M  V30 2 N 39.660251 35.132605 62.129502 0 CHG=1
M  V30 3 C 42.390628 34.380513 64.725504 0
M  V30 4 Cl 38.608963 31.626906 54.769162 0
M  V30 5 C 39.580573 28.340971 52.407293 0 CFG=1
M  V30 6 C 36.197794 32.718959 59.853573 0
M  V30 7 C 40.283520 34.904343 63.447081 0
M  V30 8 C 42.126019 35.553846 65.671972 0
M  V30 9 O 37.641879 26.436003 54.943076 0
M  V30 10 S 37.544007 29.749072 57.864550 0
M  V30 11 C 40.629035 35.890373 65.773619 0
M  V30 12 O 39.864963 26.336028 54.837676 0 CHG=-1
M  V30 13 C 41.795164 34.664144 63.337029 0
M  V30 14 C 38.928717 28.616132 57.569100 0 CFG=1
M  V30 15 C 39.018326 29.020194 59.965148 0 CFG=2
M  V30 16 C 38.459099 31.627973 59.805968 0 CFG=1
M  V30 17 C 40.417677 29.058206 51.328017 0
M  V30 18 N 39.313336 33.888361 61.432376 0
M  V30 19 C 39.468326 29.197624 53.729463 0 CFG=2
M  V30 20 C 36.723033 33.881118 59.011777 0 CFG=1
M  V30 21 C 39.999079 36.095147 64.381238 0
M  V30 22 C 38.231732 27.895696 51.804978 0
M  V30 23 C 37.881156 33.802097 61.161304 0 CFG=2
M  V30 24 C 38.849769 32.494768 58.562804 0
M  V30 25 C 37.432969 32.390952 60.699782 0 CFG=1
M  V30 26 C 39.624185 31.264498 52.311392 0
M  V30 27 C 38.779384 26.954755 54.914648 0
M  V30 28 C 38.849644 28.496753 54.985876 0 CFG=1
M  V30 29 C 37.415911 34.766470 60.055302 0
M  V30 30 O 39.789897 29.290020 61.121279 0
M  V30 31 C 39.648786 28.886293 56.248008 0
M  V30 32 C 39.894418 28.782282 58.735305 0 CFG=1
M  V30 33 C 38.812997 30.518813 53.387061 0 CFG=2
M  V30 34 C 37.715503 33.342840 57.957171 0
M  V30 35 C 38.010296 30.133327 59.576710 0 CFG=1
M  V30 36 O 40.682596 27.622848 58.829675 0
M  V30 37 H 40.627618 31.003375 50.420671 0
M  V30 38 H 39.013705 30.398816 50.409800 0
M  V30 39 H 40.285840 35.658932 61.534776 0
M  V30 40 H 41.953777 33.468899 65.136402 0
M  V30 41 H 43.463380 34.208239 64.663910 0
M  V30 42 H 40.126425 27.422697 52.617062 0
M  V30 43 H 35.364376 33.039382 60.480867 0
M  V30 44 H 35.848329 31.885323 59.243162 0
M  V30 45 H 39.869701 33.984636 63.854410 0
M  V30 46 H 42.535189 35.326965 66.653150 0
M  V30 47 H 42.666543 36.421364 65.302767 0
M  V30 48 H 40.124120 35.085810 66.308439 0
M  V30 49 H 40.481102 36.789135 66.375462 0
M  V30 50 H 41.998849 33.822399 62.671973 0
M  V30 51 H 42.264491 35.553356 62.913298 0
M  V30 52 H 38.514588 27.607779 57.596686 0
M  V30 53 H 38.448926 28.107506 60.162074 0
M  V30 54 H 39.377657 31.565895 60.382224 0
M  V30 55 H 41.462473 29.115458 51.622433 0
M  V30 56 H 40.411838 28.473312 50.408372 0
M  V30 57 H 39.810759 34.024652 60.563186 0
M  V30 58 H 40.426494 29.621831 54.031829 0
M  V30 59 H 35.910083 34.415651 58.518326 0
M  V30 60 H 40.383582 37.006024 63.923001 0
M  V30 61 H 38.927767 36.264758 64.490678 0
M  V30 62 H 37.644406 28.738321 51.453571 0
M  V30 63 H 38.384821 27.238548 50.949361 0
M  V30 64 H 37.609379 27.348858 52.510137 0
M  V30 65 H 37.322735 34.028485 62.065523 0
M  V30 66 H 39.612897 33.211737 58.868236 0
M  V30 67 H 39.315007 31.901139 57.776961 0
M  V30 68 H 37.174965 31.784018 61.569901 0
M  V30 69 H 40.574447 31.580505 52.734515 0
M  V30 70 H 39.069381 32.163871 52.048266 0
M  V30 71 H 37.824561 28.855016 55.092869 0
M  V30 72 H 38.229374 35.343794 59.628835 0
M  V30 73 H 36.699733 35.481083 60.461516 0
M  V30 74 H 40.252167 30.102649 61.000792 0
M  V30 75 H 39.935274 29.933937 56.232102 0
M  V30 76 H 40.599062 28.349616 56.247167 0
M  V30 77 H 40.558833 29.623716 58.567814 0
M  V30 78 H 37.832467 30.248636 53.055395 0
M  V30 79 H 38.135447 34.156970 57.369445 0
M  V30 80 H 37.195316 32.747379 57.221914 0
M  V30 81 H 37.110092 29.961139 60.164956 0
M  V30 82 H 41.191335 27.673885 59.625203 0
M  V30 83 H 38.792105 35.634138 62.251899 0
M  V30 END ATOM
M  V30 BEGIN BOND
M  V30 1 1 7 2
M  V30 2 1 8 3
M  V30 3 1 11 8
M  V30 4 1 13 3
M  V30 5 1 13 7
M  V30 6 1 14 10
M  V30 7 1 17 1
M  V30 8 1 17 5
M  V30 9 1 18 2
M  V30 10 1 19 5
M  V30 11 1 20 6
M  V30 12 1 21 7
M  V30 13 1 21 11
M  V30 14 1 22 5
M  V30 15 1 23 18
M  V30 16 1 24 16
M  V30 17 1 25 6
M  V30 18 1 25 16
M  V30 19 1 25 23
M  V30 20 1 26 1
M  V30 21 2 27 9
M  V30 22 1 27 12
M  V30 23 1 28 19
M  V30 24 1 28 27
M  V30 25 1 29 20
M  V30 26 1 29 23
M  V30 27 1 30 15
M  V30 28 1 31 14
M  V30 29 1 31 28
M  V30 30 1 32 14
M  V30 31 1 32 15
M  V30 32 1 33 4
M  V30 33 1 33 19
M  V30 34 1 33 26
M  V30 35 1 34 20
M  V30 36 1 34 24
M  V30 37 1 35 10
M  V30 38 1 35 15
M  V30 39 1 35 16
M  V30 40 1 36 32
M  V30 41 1 37 1
M  V30 42 1 38 1
M  V30 43 1 39 2
M  V30 44 1 40 3
M  V30 45 1 41 3
M  V30 46 1 5 42 CFG=1
M  V30 47 1 43 6
M  V30 48 1 44 6
M  V30 49 1 45 7
M  V30 50 1 46 8
M  V30 51 1 47 8
M  V30 52 1 48 11
M  V30 53 1 49 11
M  V30 54 1 50 13
M  V30 55 1 51 13
M  V30 56 1 14 52 CFG=3
M  V30 57 1 15 53 CFG=1
M  V30 58 1 16 54 CFG=1
M  V30 59 1 55 17
M  V30 60 1 56 17
M  V30 61 1 57 18
M  V30 62 1 19 58 CFG=1
M  V30 63 1 20 59 CFG=3
M  V30 64 1 60 21
M  V30 65 1 61 21
M  V30 66 1 62 22
M  V30 67 1 63 22
M  V30 68 1 64 22
M  V30 69 1 23 65 CFG=1
M  V30 70 1 66 24
M  V30 71 1 67 24
M  V30 72 1 25 68 CFG=1
M  V30 73 1 69 26
M  V30 74 1 70 26
M  V30 75 1 28 71 CFG=1
M  V30 76 1 72 29
M  V30 77 1 73 29
M  V30 78 1 74 30
M  V30 79 1 75 31
M  V30 80 1 76 31
M  V30 81 1 32 77 CFG=3
M  V30 82 1 33 78 CFG=3
M  V30 83 1 79 34
M  V30 84 1 80 34
M  V30 85 1 35 81 CFG=1
M  V30 86 1 82 36
M  V30 87 1 83 2
M  V30 END BOND
M  V30 END CTAB
M  END
>  <i_epik_Tot_Q>  (1) 
0

>  <i_epik_Tot_abs_Q>  (1) 
2

>  <i_i_glide_confnum>  (1) 
450

>  <i_i_glide_lignum>  (1) 
223

>  <i_i_glide_posenum>  (1) 
216

>  <i_i_glide_rotatable_bonds>  (1) 
10

>  <i_lp_mmshare_version>  (1) 
72125

>  <i_m_source_file_index>  (1) 
86

>  <i_f3d_flags>  (1) 
0

>  <num_sample>  (1) 
100

>  <b_lp_Chiralities_Consistent>  (1) 
1

>  <r_epik_Charging_Adjusted_Penalty>  (1) 
0.73371446279801333

>  <r_epik_Ionization_Penalty>  (1) 
0.028997413797582132

>  <r_epik_Ionization_Penalty_Charging>  (1) 
0.028997299906531444

>  <r_epik_Ionization_Penalty_Neutral>  (1) 
1.138910506862436e-07

>  <r_epik_State_Penalty>  (1) 
0.7047171628914819

>  <r_glide_ring_energy>  (1) 
0.097685505105199105

>  <r_i_docking_score>  (1) 
-4.5419576497858403

>  <r_i_glide_ecoul>  (1) 
2.4047868996443604

>  <r_i_glide_eff_state_penalty>  (1) 
0.7047171628914819

>  <r_i_glide_einternal>  (1) 
11.533798707173275

>  <r_i_glide_emodel>  (1) 
-35.531831462815568

>  <r_i_glide_emodel_strain>  (1) 
0.18807512445322061

>  <r_i_glide_energy>  (1) 
-28.911093201326807

>  <r_i_glide_erotb>  (1) 
0.49083612240102314

>  <r_i_glide_esite>  (1) 
0

>  <r_i_glide_evdw>  (1) 
-31.315880100971167

>  <r_i_glide_gscore>  (1) 
-5.2466748126773224

>  <r_i_glide_gscore_strain>  (1) 
0

>  <r_i_glide_hbond>  (1) 
0

>  <r_i_glide_ligand_efficiency>  (1) 
-0.12616549027182888

>  <r_i_glide_ligand_efficiency_ln>  (1) 
-0.99093244966840499

>  <r_i_glide_ligand_efficiency_sa>  (1) 
-0.41658927019870184

>  <r_i_glide_lipo>  (1) 
-3.2797952674747686

>  <r_i_glide_metal>  (1) 
-0

>  <r_i_glide_rewards>  (1) 
-1.2526396975016727

>  <r_lp_Energy>  (1) 
63.234845

>  <s_epik_cmdline>  (1) 
J2VwaWtfcHl0aG9uJywgJy1waHQnLCAnMS4wJywgJy1waCcsICc3LjQnLCAnLXRuJywgJzgnLCAnLW1hJywgJzUwMCcsICctaW1hZScsICc8aW5maWxlLm1hZT4nLCAnLW9tYWUnLCAnPG91dGZpbGUubWFlPic=

>  <s_epik_input>  (1) 
W0NIM11bQ0BIXTFbQ0gyXVtDSDJdW0NIMl1bQ0BIXShDbClbQ0BIXTFbQ0BASF0oQyg9TylbT0hdKVtDSDJdW0NAQEhdMlNbQ0BASF0oW0NAQEhdKFtPSF0pW0NASF0yW09IXSlbQ0BASF0oW0NIMl1bQ0gyXTMpW0NASF0oW0NIMl1bQ0BIXTM0KVtDQEhdKFtDSDJdNClbTkhdW05IXVtDSF01W0NIMl1bQ0gyXVtDSDJdW0NIMl1bQ0gyXTU=

>  <s_glide_docking_method>  (1) 
confgen

>  <s_i_glide_gridfile>  (1) 
gpcr_5ht2c_6bqh_protein_autoprepared_prepared

>  <s_lp_Force_Field>  (1) 
S-OPLS

>  <s_lp_Variant>  (1) 
DiffSBDD_85_num_sample_100-4

>  <s_m_source_file>  (1) 
generated__ligand_DiffSBDD_2026-05-06_prepared.sdf

>  <GenAI_Model>  (1) 
DiffSBDD

>  <Protein>  (1) 
GPCR_5HT2C

$$$$
DiffSBDD_93_num_sample_100
     RDKit          3D

  0  0  0  0  0  0  0  0  0  0999 V3000
M  V30 BEGIN CTAB
M  V30 COUNTS 74 77 0 0 1
M  V30 BEGIN ATOM
M  V30 1 C 39.230487 30.055385 52.961862 0
M  V30 2 S 39.115816 29.417390 59.925184 0
M  V30 3 C 39.866489 30.496285 50.526376 0 CFG=2
M  V30 4 O 39.327394 24.697066 57.453504 0
M  V30 5 C 40.439013 34.243572 61.368812 0
M  V30 6 C 39.625888 27.504738 57.196172 0 CFG=1
M  V30 7 C 38.422394 32.035847 61.662781 0
M  V30 8 C 38.319641 32.033361 59.156042 0
M  V30 9 C 39.540658 29.014502 50.261814 0
M  V30 10 N 37.969579 30.107918 57.550878 0 CHG=1
M  V30 11 C 40.392998 33.775795 62.817480 0
M  V30 12 C 39.751103 30.859538 51.995783 0
M  V30 13 C 39.214661 30.538771 54.348196 0
M  V30 14 C 39.259095 30.004807 56.802757 0 CFG=2
M  V30 15 C 38.432354 28.422608 51.143395 0
M  V30 16 Cl 39.467383 27.174776 53.150920 0
M  V30 17 O 41.803387 31.927057 62.283220 0
M  V30 18 C 38.656738 28.653147 52.610505 0 CFG=1
M  V30 19 C 39.301255 32.006801 54.671521 0
M  V30 20 C 38.469253 27.813843 59.410761 0
M  V30 21 C 40.461602 26.534214 56.376342 0
M  V30 22 C 39.130589 29.661357 55.333076 0
M  V30 23 C 39.476575 31.375401 62.576308 0
M  V30 24 C 39.334958 26.899823 58.547933 0 CFG=1
M  V30 25 C 37.992965 30.511507 58.992201 0 CFG=1
M  V30 26 C 40.643338 32.273366 63.008747 0 CFG=2
M  V30 27 C 38.557781 25.593194 58.253533 0
M  V30 28 C 39.673644 25.233937 56.191419 0
M  V30 29 C 39.790944 33.658503 60.334152 0
M  V30 30 S 36.267384 30.295027 59.453772 0 CHG=-1
M  V30 31 N 38.946692 32.547846 60.393138 0
M  V30 32 C 39.224032 31.562567 49.588877 0
M  V30 33 C 40.266254 28.897692 57.221411 0
M  V30 34 H 40.935218 30.576632 50.311309 0
M  V30 35 H 41.053997 35.110310 61.174318 0
M  V30 36 H 38.644773 27.553293 56.726590 0
M  V30 37 H 37.945061 32.863147 62.186712 0
M  V30 38 H 37.614898 31.327411 61.500044 0
M  V30 39 H 37.420618 32.623397 58.970527 0
M  V30 40 H 38.994182 32.316048 58.351178 0
M  V30 41 H 39.363321 28.841488 49.207091 0
M  V30 42 H 40.437046 28.437634 50.486258 0
M  V30 43 H 37.505059 29.215034 57.512533 0
M  V30 44 H 39.467405 34.099507 63.281718 0
M  V30 45 H 41.181516 34.314711 63.345619 0
M  V30 46 H 40.144207 31.821822 52.264978 0
M  V30 47 H 39.787134 30.946023 56.913576 0
M  V30 48 H 37.467433 28.860207 51.053519 0
M  V30 49 H 38.280524 27.367425 50.911047 0
M  V30 50 H 41.644253 32.183776 61.387229 0
M  V30 51 H 37.682101 28.607025 53.099803 0
M  V30 52 H 38.921902 32.595922 53.853533 0
M  V30 53 H 38.593441 32.245210 55.467786 0
M  V30 54 H 40.267401 32.285590 55.053492 0
M  V30 55 H 38.267375 27.289406 60.332181 0
M  V30 56 H 37.562073 28.021408 58.847872 0
M  V30 57 H 41.422886 26.421440 56.872410 0
M  V30 58 H 40.694570 26.944560 55.401966 0
M  V30 59 H 39.013083 28.629841 55.095716 0
M  V30 60 H 39.881849 30.456350 62.169775 0
M  V30 61 H 38.946078 31.023890 63.453543 0
M  V30 62 H 40.267172 26.683265 59.058167 0
M  V30 63 H 40.856794 32.073865 64.060547 0
M  V30 64 H 38.267376 25.107584 59.175229 0
M  V30 65 H 37.612706 25.806468 57.751703 0
M  V30 66 H 40.267403 24.511662 55.649389 0
M  V30 67 H 38.767167 25.410522 55.609132 0
M  V30 68 H 39.890304 34.052081 59.333767 0
M  V30 69 H 39.867363 32.421438 49.472887 0
M  V30 70 H 39.067398 31.206383 48.578762 0
M  V30 71 H 38.267402 31.963616 49.897674 0
M  V30 72 H 40.846341 29.101308 58.118481 0
M  V30 73 H 41.067405 28.861710 56.482040 0
M  V30 74 H 37.352564 30.770890 57.091347 0
M  V30 END ATOM
M  V30 BEGIN BOND
M  V30 1 1 9 3
M  V30 2 1 11 5
M  V30 3 2 12 1
M  V30 4 1 12 3
M  V30 5 1 13 1
M  V30 6 1 14 10
M  V30 7 1 15 9
M  V30 8 1 18 1
M  V30 9 1 18 15
M  V30 10 1 18 16
M  V30 11 1 19 13
M  V30 12 1 20 2
M  V30 13 1 21 6
M  V30 14 2 22 13
M  V30 15 1 22 14
M  V30 16 1 23 7
M  V30 17 1 24 6
M  V30 18 1 24 20
M  V30 19 1 25 2
M  V30 20 1 25 8
M  V30 21 1 25 10
M  V30 22 1 26 11
M  V30 23 1 26 17
M  V30 24 1 26 23
M  V30 25 1 27 4
M  V30 26 1 27 24
M  V30 27 1 28 4
M  V30 28 1 28 21
M  V30 29 2 29 5
M  V30 30 1 25 30 CFG=1
M  V30 31 1 31 7
M  V30 32 1 31 8
M  V30 33 1 31 29
M  V30 34 1 32 3
M  V30 35 1 33 6
M  V30 36 1 33 14
M  V30 37 1 3 34 CFG=3
M  V30 38 1 35 5
M  V30 39 1 6 36 CFG=3
M  V30 40 1 37 7
M  V30 41 1 38 7
M  V30 42 1 39 8
M  V30 43 1 40 8
M  V30 44 1 41 9
M  V30 45 1 42 9
M  V30 46 1 43 10
M  V30 47 1 44 11
M  V30 48 1 45 11
M  V30 49 1 46 12
M  V30 50 1 14 47 CFG=3
M  V30 51 1 48 15
M  V30 52 1 49 15
M  V30 53 1 50 17
M  V30 54 1 18 51 CFG=1
M  V30 55 1 52 19
M  V30 56 1 53 19
M  V30 57 1 54 19
M  V30 58 1 55 20
M  V30 59 1 56 20
M  V30 60 1 57 21
M  V30 61 1 58 21
M  V30 62 1 59 22
M  V30 63 1 60 23
M  V30 64 1 61 23
M  V30 65 1 24 62 CFG=1
M  V30 66 1 26 63 CFG=1
M  V30 67 1 64 27
M  V30 68 1 65 27
M  V30 69 1 66 28
M  V30 70 1 67 28
M  V30 71 1 68 29
M  V30 72 1 69 32
M  V30 73 1 70 32
M  V30 74 1 71 32
M  V30 75 1 72 33
M  V30 76 1 73 33
M  V30 77 1 74 10
M  V30 END BOND
M  V30 END CTAB
M  END
>  <i_epik_Tot_Q>  (1) 
0

>  <i_epik_Tot_abs_Q>  (1) 
2

>  <i_i_glide_confnum>  (1) 
12

>  <i_i_glide_lignum>  (1) 
263

>  <i_i_glide_posenum>  (1) 
11

>  <i_i_glide_rotatable_bonds>  (1) 
5

>  <i_lp_mmshare_version>  (1) 
72125

>  <i_m_source_file_index>  (1) 
94

>  <i_f3d_flags>  (1) 
0

>  <num_sample>  (1) 
100

>  <b_lp_Chiralities_Consistent>  (1) 
1

>  <r_epik_Charging_Adjusted_Penalty>  (1) 
0.80501984278308969

>  <r_epik_Ionization_Penalty>  (1) 
0.072421558423421364

>  <r_epik_Ionization_Penalty_Charging>  (1) 
0.072408791886815996

>  <r_epik_Ionization_Penalty_Neutral>  (1) 
1.2766536605372598e-05

>  <r_epik_State_Penalty>  (1) 
0.73261105089627365

>  <r_glide_ring_energy>  (1) 
0.82930930823907167

>  <r_i_docking_score>  (1) 
-4.5385559571751104

>  <r_i_glide_ecoul>  (1) 
-2.2646371181447584

>  <r_i_glide_eff_state_penalty>  (1) 
0.73261105089627365

>  <r_i_glide_einternal>  (1) 
21.308162706002655

>  <r_i_glide_emodel>  (1) 
-3.683617628967756

>  <r_i_glide_emodel_strain>  (1) 
11.930659057548709

>  <r_i_glide_energy>  (1) 
-21.380004032334373

>  <r_i_glide_erotb>  (1) 
0.31140238833871409

>  <r_i_glide_esite>  (1) 
-0.060908013965068911

>  <r_i_glide_evdw>  (1) 
-19.115366914189615

>  <r_i_glide_gscore>  (1) 
-5.2711670080713837

>  <r_i_glide_gscore_strain>  (1) 
1.9826647643871773

>  <r_i_glide_hbond>  (1) 
-0.094059480670316317

>  <r_i_glide_ligand_efficiency>  (1) 
-0.13753199870227606

>  <r_i_glide_ligand_efficiency_ln>  (1) 
-1.0093513454906584

>  <r_i_glide_ligand_efficiency_sa>  (1) 
-0.44113860731049198

>  <r_i_glide_lipo>  (1) 
-5.1103073292377079

>  <r_i_glide_metal>  (1) 
-0

>  <r_i_glide_rewards>  (1) 
-1.004495423492987

>  <r_lp_Energy>  (1) 
38.618955

>  <s_epik_Chemistry_Notes>  (1) 
This compound has an imine and may undergo hydrolysis.

>  <s_epik_cmdline>  (1) 
J2VwaWtfcHl0aG9uJywgJy1waHQnLCAnMS4wJywgJy1waCcsICc3LjQnLCAnLXRuJywgJzgnLCAnLW1hJywgJzUwMCcsICctaW1hZScsICc8aW5maWxlLm1hZT4nLCAnLW9tYWUnLCAnPG91dGZpbGUubWFlPic=

>  <s_epik_input>  (1) 
Q2xbQ0BIXTFbQ0gyXVtDSDJdW0NAQEhdKFtDSDNdKVtDSF09QzEvQyhbQ0gzXSk9W0NIXS9bQ0BASF0oW0NIMl0yKVtOSF1bQ0BAXShbU0hdKShTW0NIMl1bQ0BIXShbQ0BASF0yMylbQ0gyXU9bQ0gyXVtDSDJdMylbQ0gyXU4oW0NIMl1bQ0gyXTQpW0NIXT1bQ0hdW0NIMl1bQ0BASF00W09IXQ==

>  <s_glide_docking_method>  (1) 
confgen

>  <s_i_glide_gridfile>  (1) 
gpcr_5ht2c_6bqh_protein_autoprepared_prepared

>  <s_lp_Force_Field>  (1) 
S-OPLS

>  <s_lp_Variant>  (1) 
DiffSBDD_93_num_sample_100-15

>  <s_m_source_file>  (1) 
generated__ligand_DiffSBDD_2026-05-06_prepared.sdf

>  <GenAI_Model>  (1) 
DiffSBDD

>  <Protein>  (1) 
GPCR_5HT2C

$$$$
DiffSBDD_93_num_sample_100
     RDKit          3D

  0  0  0  0  0  0  0  0  0  0999 V3000
M  V30 BEGIN CTAB
M  V30 COUNTS 74 77 0 0 1
M  V30 BEGIN ATOM
M  V30 1 C 39.413755 28.648627 56.399785 0
M  V30 2 S 37.715327 32.458615 61.519750 0
M  V30 3 C 38.877250 27.242327 54.317280 0 CFG=2
M  V30 4 O 41.882000 29.554156 62.880932 0
M  V30 5 C 41.603007 34.651977 63.091967 0
M  V30 6 C 39.257874 29.635908 61.687704 0 CFG=1
M  V30 7 C 39.551130 35.724719 61.052886 0
M  V30 8 C 39.843551 33.557621 59.933067 0
M  V30 9 C 37.467402 27.766854 54.465072 0
M  V30 10 N 38.416740 31.724561 58.901406 0 CHG=1
M  V30 11 C 40.780431 35.645508 63.909254 0
M  V30 12 C 39.719947 27.634702 55.534636 0
M  V30 13 C 40.352770 28.900027 57.559386 0
M  V30 14 C 38.670340 30.241784 59.096142 0 CFG=1
M  V30 15 C 37.516295 29.262615 54.751183 0
M  V30 16 Cl 38.648076 31.270509 55.992378 0
M  V30 17 O 39.067419 37.185837 64.400584 0
M  V30 18 C 38.186466 29.546388 56.104941 0 CFG=2
M  V30 19 C 41.761566 28.321713 57.489600 0
M  V30 20 C 39.068228 31.931938 62.601323 0
M  V30 21 C 40.147674 28.399555 61.763602 0
M  V30 22 C 40.025396 29.621432 58.691788 0
M  V30 23 C 38.815200 36.089125 62.309777 0
M  V30 24 C 40.040135 30.923317 62.008029 0 CFG=1
M  V30 25 C 38.450233 32.855683 59.895103 0 CFG=1
M  V30 26 C 39.801596 36.657853 63.313660 0 CFG=2
M  V30 27 C 41.139423 30.734442 63.083028 0
M  V30 28 C 41.058233 28.415069 62.995051 0
M  V30 29 C 41.291038 34.130502 61.877718 0
M  V30 30 S 37.341779 33.992137 59.053496 0 CHG=-1
M  V30 31 N 40.181893 34.422053 61.068713 0
M  V30 32 C 39.467400 27.597073 52.945052 0
M  V30 33 C 38.276829 29.635737 60.460145 0
M  V30 34 H 38.801084 26.153961 54.346570 0
M  V30 35 H 42.499339 34.297246 63.578869 0
M  V30 36 H 38.609112 29.493227 62.546572 0
M  V30 37 H 40.357140 36.421422 60.848112 0
M  V30 38 H 38.860913 35.811503 60.219652 0
M  V30 39 H 39.965328 34.128801 59.019334 0
M  V30 40 H 40.617522 32.821430 59.881556 0
M  V30 41 H 36.851862 27.539599 53.593535 0
M  V30 42 H 37.067404 27.220354 55.312848 0
M  V30 43 H 37.442503 31.768179 58.624484 0
M  V30 44 H 41.509338 36.206972 64.491062 0
M  V30 45 H 40.267404 35.035030 64.647547 0
M  V30 46 H 40.592303 27.025354 55.712232 0
M  V30 47 H 37.882140 29.799837 58.534522 0
M  V30 48 H 38.049092 29.766619 53.943963 0
M  V30 49 H 36.518974 29.699314 54.751238 0
M  V30 50 H 38.556540 37.921016 64.102322 0
M  V30 51 H 37.344233 29.394895 56.766279 0
M  V30 52 H 42.439107 28.820835 58.184156 0
M  V30 53 H 41.748074 27.262647 57.750755 0
M  V30 54 H 42.189010 28.421430 56.496186 0
M  V30 55 H 39.542843 32.798214 63.045677 0
M  V30 56 H 38.667405 31.393410 63.449063 0
M  V30 57 H 40.737202 28.218218 60.868565 0
M  V30 58 H 39.434908 27.605402 61.853512 0
M  V30 59 H 40.805044 29.760227 59.422870 0
M  V30 60 H 38.267395 35.221435 62.653502 0
M  V30 61 H 38.071895 36.849567 62.067177 0
M  V30 62 H 40.535543 31.263339 61.111757 0
M  V30 63 H 40.360535 37.479330 62.863387 0
M  V30 64 H 41.831871 31.575378 63.063388 0
M  V30 65 H 40.722453 30.712944 64.092190 0
M  V30 66 H 41.692703 27.536170 63.053493 0
M  V30 67 H 40.484355 28.435484 63.922237 0
M  V30 68 H 41.933950 33.380688 61.444030 0
M  V30 69 H 40.309770 26.953298 52.712668 0
M  V30 70 H 38.738656 27.429369 52.150806 0
M  V30 71 H 39.783340 28.639087 52.880001 0
M  V30 72 H 38.068921 28.585142 60.253502 0
M  V30 73 H 37.296239 30.021438 60.728291 0
M  V30 74 H 38.910952 32.028169 58.074379 0
M  V30 END ATOM
M  V30 BEGIN BOND
M  V30 1 1 9 3
M  V30 2 1 11 5
M  V30 3 2 12 1
M  V30 4 1 12 3
M  V30 5 1 13 1
M  V30 6 1 14 10
M  V30 7 1 15 9
M  V30 8 1 18 1
M  V30 9 1 18 15
M  V30 10 1 18 16
M  V30 11 1 19 13
M  V30 12 1 20 2
M  V30 13 1 21 6
M  V30 14 2 22 13
M  V30 15 1 22 14
M  V30 16 1 23 7
M  V30 17 1 24 6
M  V30 18 1 24 20
M  V30 19 1 25 2
M  V30 20 1 25 8
M  V30 21 1 25 10
M  V30 22 1 26 11
M  V30 23 1 26 17
M  V30 24 1 26 23
M  V30 25 1 27 4
M  V30 26 1 27 24
M  V30 27 1 28 4
M  V30 28 1 28 21
M  V30 29 2 29 5
M  V30 30 1 25 30 CFG=3
M  V30 31 1 31 7
M  V30 32 1 31 8
M  V30 33 1 31 29
M  V30 34 1 32 3
M  V30 35 1 33 6
M  V30 36 1 33 14
M  V30 37 1 3 34 CFG=3
M  V30 38 1 35 5
M  V30 39 1 6 36 CFG=1
M  V30 40 1 37 7
M  V30 41 1 38 7
M  V30 42 1 39 8
M  V30 43 1 40 8
M  V30 44 1 41 9
M  V30 45 1 42 9
M  V30 46 1 43 10
M  V30 47 1 44 11
M  V30 48 1 45 11
M  V30 49 1 46 12
M  V30 50 1 14 47 CFG=3
M  V30 51 1 48 15
M  V30 52 1 49 15
M  V30 53 1 50 17
M  V30 54 1 18 51 CFG=1
M  V30 55 1 52 19
M  V30 56 1 53 19
M  V30 57 1 54 19
M  V30 58 1 55 20
M  V30 59 1 56 20
M  V30 60 1 57 21
M  V30 61 1 58 21
M  V30 62 1 59 22
M  V30 63 1 60 23
M  V30 64 1 61 23
M  V30 65 1 24 62 CFG=3
M  V30 66 1 26 63 CFG=3
M  V30 67 1 64 27
M  V30 68 1 65 27
M  V30 69 1 66 28
M  V30 70 1 67 28
M  V30 71 1 68 29
M  V30 72 1 69 32
M  V30 73 1 70 32
M  V30 74 1 71 32
M  V30 75 1 72 33
M  V30 76 1 73 33
M  V30 77 1 74 10
M  V30 END BOND
M  V30 END CTAB
M  END
>  <i_epik_Tot_Q>  (1) 
0

>  <i_epik_Tot_abs_Q>  (1) 
2

>  <i_i_glide_confnum>  (1) 
8

>  <i_i_glide_lignum>  (1) 
258

>  <i_i_glide_posenum>  (1) 
254

>  <i_i_glide_rotatable_bonds>  (1) 
5

>  <i_lp_mmshare_version>  (1) 
72125

>  <i_m_source_file_index>  (1) 
94

>  <i_f3d_flags>  (1) 
0

>  <num_sample>  (1) 
100

>  <b_lp_Chiralities_Consistent>  (1) 
1

>  <r_epik_Charging_Adjusted_Penalty>  (1) 
0.80501984278308969

>  <r_epik_Ionization_Penalty>  (1) 
0.072421558423421364

>  <r_epik_Ionization_Penalty_Charging>  (1) 
0.072408791886815996

>  <r_epik_Ionization_Penalty_Neutral>  (1) 
1.2766536605372598e-05

>  <r_epik_State_Penalty>  (1) 
0.73261105089627365

>  <r_glide_ring_energy>  (1) 
1.2305908303779962

>  <r_i_docking_score>  (1) 
-4.5219443413966394

>  <r_i_glide_ecoul>  (1) 
-0.31629809559377464

>  <r_i_glide_eff_state_penalty>  (1) 
0.73261105089627365

>  <r_i_glide_einternal>  (1) 
12.09128228272775

>  <r_i_glide_emodel>  (1) 
-24.419027161294736

>  <r_i_glide_emodel_strain>  (1) 
2.6648978480739629

>  <r_i_glide_energy>  (1) 
-26.547668824411911

>  <r_i_glide_erotb>  (1) 
0.31140238833871409

>  <r_i_glide_esite>  (1) 
-0.043048074656632219

>  <r_i_glide_evdw>  (1) 
-26.231370728818135

>  <r_i_glide_gscore>  (1) 
-5.2545553922929127

>  <r_i_glide_gscore_strain>  (1) 
0

>  <r_i_glide_hbond>  (1) 
-0.27667142828021368

>  <r_i_glide_ligand_efficiency>  (1) 
-0.13702861640595876

>  <r_i_glide_ligand_efficiency_ln>  (1) 
-1.0056570081518696

>  <r_i_glide_ligand_efficiency_sa>  (1) 
-0.4395239913139421

>  <r_i_glide_lipo>  (1) 
-3.0136756669603764

>  <r_i_glide_metal>  (1) 
-0

>  <r_i_glide_rewards>  (1) 
-0.87354935995443239

>  <r_lp_Energy>  (1) 
40.875704999999996

>  <s_epik_Chemistry_Notes>  (1) 
This compound has an imine and may undergo hydrolysis.

>  <s_epik_cmdline>  (1) 
J2VwaWtfcHl0aG9uJywgJy1waHQnLCAnMS4wJywgJy1waCcsICc3LjQnLCAnLXRuJywgJzgnLCAnLW1hJywgJzUwMCcsICctaW1hZScsICc8aW5maWxlLm1hZT4nLCAnLW9tYWUnLCAnPG91dGZpbGUubWFlPic=

>  <s_epik_input>  (1) 
Q2xbQ0BIXTFbQ0gyXVtDSDJdW0NAQEhdKFtDSDNdKVtDSF09QzEvQyhbQ0gzXSk9W0NIXVxbQ0BASF0oW0NIMl0yKVtOSF1bQ0BAXShbU0hdKShTW0NIMl1bQ0BIXShbQ0BASF0yMylbQ0gyXU9bQ0gyXVtDSDJdMylbQ0gyXU4oW0NIMl1bQ0gyXTQpW0NIXT1bQ0hdW0NIMl1bQ0BASF00W09IXQ==

>  <s_glide_docking_method>  (1) 
confgen

>  <s_i_glide_gridfile>  (1) 
gpcr_5ht2c_6bqh_protein_autoprepared_prepared

>  <s_lp_Force_Field>  (1) 
S-OPLS

>  <s_lp_Variant>  (1) 
DiffSBDD_93_num_sample_100-10

>  <s_m_source_file>  (1) 
generated__ligand_DiffSBDD_2026-05-06_prepared.sdf

>  <GenAI_Model>  (1) 
DiffSBDD

>  <Protein>  (1) 
GPCR_5HT2C

$$$$
DiffSBDD_90_num_sample_100
     RDKit          3D

  0  0  0  0  0  0  0  0  0  0999 V3000
M  V30 BEGIN CTAB
M  V30 COUNTS 84 87 0 0 1
M  V30 BEGIN ATOM
M  V30 1 C 38.288750 31.486587 55.018614 0
M  V30 2 O 34.686125 33.221390 60.350645 0
M  V30 3 F 39.327646 25.621532 59.053501 0
M  V30 4 C 38.709077 27.286383 53.306702 0 CFG=1
M  V30 5 C 37.464282 35.630171 61.303193 0 CFG=2
M  V30 6 C 38.719064 33.526878 61.425474 0 CFG=1
M  V30 7 C 40.225677 30.006572 52.302618 0
M  V30 8 C 38.393695 32.949554 58.984669 0
M  V30 9 C 39.133731 27.826928 51.913783 0
M  V30 10 N 35.598689 34.335488 60.173606 0
M  V30 11 C 38.596565 27.812596 58.777416 0
M  V30 12 C 39.495627 26.723903 50.943315 0
M  V30 13 C 38.809131 35.022090 61.755004 0
M  V30 14 C 37.245318 33.160032 61.642686 0
M  V30 15 O 37.175784 36.821425 63.362916 0
M  V30 16 N 39.109805 30.754269 56.004812 0
M  V30 17 C 39.202974 33.251071 60.013054 0
M  V30 18 F 40.751630 27.240704 59.361220 0
M  V30 19 C 38.948060 26.119467 56.398037 0 CFG=1
M  V30 20 N 39.274928 29.326385 55.863443 0
M  V30 21 C 37.428037 27.463874 57.853464 0
M  V30 22 C 38.774633 31.162387 57.365480 0
M  V30 23 O 40.277667 28.667005 51.853374 0
M  V30 24 C 37.965767 28.442868 51.218430 0
M  V30 25 C 38.427269 33.002847 55.179922 0
M  V30 26 C 40.177135 26.547048 57.209412 0
M  V30 27 C 38.866559 32.672511 57.598213 0 CFG=1
M  V30 28 C 36.427220 34.449209 61.380900 0 CFG=1
M  V30 29 C 39.828151 26.551264 54.080183 0
M  V30 30 O 36.667290 37.876550 61.468739 0 CHG=-1
M  V30 31 C 38.069527 28.517843 55.599445 0 CFG=1
M  V30 32 C 38.066208 33.461071 56.579625 0
M  V30 33 O 37.614543 36.093712 59.976537 0
M  V30 34 C 37.847705 28.307244 54.105867 0
M  V30 35 C 37.867465 27.207426 56.408949 0 CFG=1
M  V30 36 C 39.259613 25.522694 55.040161 0
M  V30 37 C 39.732799 26.809124 58.633807 0
M  V30 38 C 37.067259 36.882434 62.119900 0
M  V30 39 H 38.600868 31.239913 54.011780 0
M  V30 40 H 37.240591 31.203750 55.119819 0
M  V30 41 H 34.872247 32.699012 59.580270 0
M  V30 42 H 37.993794 26.501055 53.055063 0
M  V30 43 H 39.352628 32.945183 62.096124 0
M  V30 44 H 41.051136 30.559303 51.853471 0
M  V30 45 H 39.331936 30.522088 51.987957 0
M  V30 46 H 40.313164 30.054371 53.385467 0
M  V30 47 H 37.331665 32.893123 59.132559 0
M  V30 48 H 34.976802 35.121825 60.036672 0
M  V30 49 H 38.267488 27.853986 59.816121 0
M  V30 50 H 38.967255 28.799441 58.550990 0
M  V30 51 H 38.667479 26.397170 50.316311 0
M  V30 52 H 40.267408 27.051196 50.253460 0
M  V30 53 H 39.867393 25.854666 51.453898 0
M  V30 54 H 38.956227 35.132873 62.829467 0
M  V30 55 H 39.665614 35.502890 61.280627 0
M  V30 56 H 37.108780 32.821440 62.657141 0
M  V30 57 H 36.925996 32.282637 61.081566 0
M  V30 58 H 40.266598 33.305817 59.853522 0
M  V30 59 H 38.510551 25.266724 56.919889 0
M  V30 60 H 39.755759 28.977149 56.689459 0
M  V30 61 H 36.974941 26.540556 58.216350 0
M  V30 62 H 36.667316 28.242566 57.898314 0
M  V30 63 H 39.467221 30.688676 58.052181 0
M  V30 64 H 37.771701 30.802710 57.604127 0
M  V30 65 H 37.217126 27.681239 51.094070 0
M  V30 66 H 37.467438 29.221416 51.752633 0
M  V30 67 H 38.285526 28.821391 50.253547 0
M  V30 68 H 39.467397 33.275183 55.053504 0
M  V30 69 H 37.831258 33.530728 54.437245 0
M  V30 70 H 40.894718 25.736587 57.228935 0
M  V30 71 H 40.697832 27.408441 56.799780 0
M  V30 72 H 39.875348 33.019334 57.492277 0
M  V30 73 H 35.753622 34.607851 62.224719 0
M  V30 74 H 40.513964 26.034009 53.414540 0
M  V30 75 H 40.452579 27.221429 54.653470 0
M  V30 76 H 37.238327 29.151695 55.908402 0
M  V30 77 H 37.028342 33.305415 56.779674 0
M  V30 78 H 38.246699 34.527302 56.676295 0
M  V30 79 H 37.193307 36.949458 60.013349 0
M  V30 80 H 36.797089 28.060641 53.946124 0
M  V30 81 H 37.963975 29.292359 53.684379 0
M  V30 82 H 37.029959 26.709440 55.931020 0
M  V30 83 H 38.372360 25.032416 54.635903 0
M  V30 84 H 39.977331 24.727716 55.193519 0
M  V30 END ATOM
M  V30 BEGIN BOND
M  V30 1 1 9 4
M  V30 2 1 10 2
M  V30 3 1 12 9
M  V30 4 1 13 5
M  V30 5 1 13 6
M  V30 6 1 14 6
M  V30 7 1 16 1
M  V30 8 1 17 6
M  V30 9 2 17 8
M  V30 10 1 20 16
M  V30 11 1 21 11
M  V30 12 1 22 16
M  V30 13 1 23 7
M  V30 14 1 23 9
M  V30 15 1 24 9
M  V30 16 1 25 1
M  V30 17 1 26 19
M  V30 18 1 27 8
M  V30 19 1 27 22
M  V30 20 1 28 5
M  V30 21 1 28 10
M  V30 22 1 28 14
M  V30 23 1 29 4
M  V30 24 1 31 20
M  V30 25 1 32 25
M  V30 26 1 32 27
M  V30 27 1 5 33 CFG=3
M  V30 28 1 34 4
M  V30 29 1 34 31
M  V30 30 1 35 19
M  V30 31 1 35 21
M  V30 32 1 35 31
M  V30 33 1 36 19
M  V30 34 1 36 29
M  V30 35 1 37 3
M  V30 36 1 37 11
M  V30 37 1 37 18
M  V30 38 1 37 26
M  V30 39 1 38 5
M  V30 40 2 38 15
M  V30 41 1 38 30
M  V30 42 1 39 1
M  V30 43 1 40 1
M  V30 44 1 41 2
M  V30 45 1 4 42 CFG=3
M  V30 46 1 6 43 CFG=1
M  V30 47 1 44 7
M  V30 48 1 45 7
M  V30 49 1 46 7
M  V30 50 1 47 8
M  V30 51 1 48 10
M  V30 52 1 49 11
M  V30 53 1 50 11
M  V30 54 1 51 12
M  V30 55 1 52 12
M  V30 56 1 53 12
M  V30 57 1 54 13
M  V30 58 1 55 13
M  V30 59 1 56 14
M  V30 60 1 57 14
M  V30 61 1 58 17
M  V30 62 1 19 59 CFG=1
M  V30 63 1 60 20
M  V30 64 1 61 21
M  V30 65 1 62 21
M  V30 66 1 63 22
M  V30 67 1 64 22
M  V30 68 1 65 24
M  V30 69 1 66 24
M  V30 70 1 67 24
M  V30 71 1 68 25
M  V30 72 1 69 25
M  V30 73 1 70 26
M  V30 74 1 71 26
M  V30 75 1 27 72 CFG=1
M  V30 76 1 28 73 CFG=1
M  V30 77 1 74 29
M  V30 78 1 75 29
M  V30 79 1 31 76 CFG=1
M  V30 80 1 77 32
M  V30 81 1 78 32
M  V30 82 1 79 33
M  V30 83 1 80 34
M  V30 84 1 81 34
M  V30 85 1 35 82 CFG=3
M  V30 86 1 83 36
M  V30 87 1 84 36
M  V30 END BOND
M  V30 END CTAB
M  END
>  <i_epik_Tot_Q>  (1) 
-1

>  <i_epik_Tot_abs_Q>  (1) 
1

>  <i_i_glide_confnum>  (1) 
61

>  <i_i_glide_lignum>  (1) 
232

>  <i_i_glide_posenum>  (1) 
97

>  <i_i_glide_rotatable_bonds>  (1) 
10

>  <i_lp_mmshare_version>  (1) 
72125

>  <i_m_source_file_index>  (1) 
91

>  <i_f3d_flags>  (1) 
0

>  <num_sample>  (1) 
100

>  <b_lp_Chiralities_Consistent>  (1) 
1

>  <r_epik_Charging_Adjusted_Penalty>  (1) 
0.43821527866000726

>  <r_epik_Ionization_Penalty>  (1) 
0.52002734918543769

>  <r_epik_Ionization_Penalty_Charging>  (1) 
0.00012691742049533285

>  <r_epik_Ionization_Penalty_Neutral>  (1) 
0.51990043176494238

>  <r_epik_State_Penalty>  (1) 
0.43808836123951195

>  <r_glide_ring_energy>  (1) 
0.16952212376526404

>  <r_i_docking_score>  (1) 
-4.5065847296953025

>  <r_i_glide_ecoul>  (1) 
-0.05706210918026966

>  <r_i_glide_eff_state_penalty>  (1) 
0.43808836123951195

>  <r_i_glide_einternal>  (1) 
22.896884160907955

>  <r_i_glide_emodel>  (1) 
-5.8460066907158055

>  <r_i_glide_emodel_strain>  (1) 
6.5200506836838059

>  <r_i_glide_energy>  (1) 
-20.212686262373442

>  <r_i_glide_erotb>  (1) 
0.42146348941000378

>  <r_i_glide_esite>  (1) 
-0.011560247058218821

>  <r_i_glide_evdw>  (1) 
-20.155624153193173

>  <r_i_glide_gscore>  (1) 
-4.9446730909348142

>  <r_i_glide_gscore_strain>  (1) 
0.63001267092095148

>  <r_i_glide_hbond>  (1) 
0

>  <r_i_glide_ligand_efficiency>  (1) 
-0.11859433499198165

>  <r_i_glide_ligand_efficiency_ln>  (1) 
-0.97175223801366262

>  <r_i_glide_ligand_efficiency_sa>  (1) 
-0.39871123762872013

>  <r_i_glide_lipo>  (1) 
-4.0745431335712521

>  <r_i_glide_metal>  (1) 
-0

>  <r_i_glide_rewards>  (1) 
-0.89370534659960066

>  <r_lp_Energy>  (1) 
49.927557999999998

>  <s_epik_Chemistry_Notes>  (1) 
This compound has a N-S or N-O group and may undergo hydrolysis at high or low pH.

>  <s_epik_cmdline>  (1) 
J2VwaWtfcHl0aG9uJywgJy1waHQnLCAnMS4wJywgJy1waCcsICc3LjQnLCAnLXRuJywgJzgnLCAnLW1hJywgJzUwMCcsICctaW1hZScsICc8aW5maWxlLm1hZT4nLCAnLW9tYWUnLCAnPG91dGZpbGUubWFlPic=

>  <s_epik_input>  (1) 
RkMoRikoW0NIMl0xKVtDSDJdW0NIMl1bQ0BIXShbQ0BASF0xMilbQ0BIXShbQ0gyXVtDQEhdKFtDSDJdW0NIMl0yKUMoW0NIM10pKFtDSDNdKU9bQ0gzXSlbTkhdTjNbQ0gyXVtDSDJdW0NIMl1bQ0BIXShbQ0gyXTMpL1tDSF09W0NIXS9bQ0BASF0oW0NIMl1bQ0BdNChbT0hdKUMoPU8pW09IXSlbQ0gyXVtDQEBIXTRbTkhdW09IXQ==

>  <s_glide_docking_method>  (1) 
confgen

>  <s_i_glide_gridfile>  (1) 
gpcr_5ht2c_6bqh_protein_autoprepared_prepared

>  <s_lp_Force_Field>  (1) 
S-OPLS

>  <s_lp_Variant>  (1) 
DiffSBDD_90_num_sample_100-4

>  <s_m_source_file>  (1) 
generated__ligand_DiffSBDD_2026-05-06_prepared.sdf

>  <GenAI_Model>  (1) 
DiffSBDD

>  <Protein>  (1) 
GPCR_5HT2C

$$$$
DiffSBDD_93_num_sample_100
     RDKit          3D

  0  0  0  0  0  0  0  0  0  0999 V3000
M  V30 BEGIN CTAB
M  V30 COUNTS 74 77 0 0 1
M  V30 BEGIN ATOM
M  V30 1 C 39.435341 30.271935 58.043168 0
M  V30 2 S 38.071196 36.040651 61.227556 0
M  V30 3 C 39.219536 30.928500 55.583237 0 CFG=2
M  V30 4 O 35.067404 31.706361 61.336102 0
M  V30 5 C 42.348930 31.775453 63.627310 0
M  V30 6 C 36.573795 33.244052 59.543980 0 CFG=1
M  V30 7 C 41.215755 34.544449 64.443733 0
M  V30 8 C 39.480321 34.071809 62.733780 0
M  V30 9 C 39.116541 29.440403 55.228248 0
M  V30 10 N 39.867404 34.305574 60.197304 0 CHG=1
M  V30 11 C 42.750861 31.918774 65.100131 0
M  V30 12 C 39.238175 31.213698 57.082835 0
M  V30 13 C 39.467234 30.599819 59.537352 0
M  V30 14 C 39.181850 33.252025 59.402154 0 CFG=1
M  V30 15 C 40.035135 28.623491 56.131053 0
M  V30 16 Cl 38.156173 27.849244 57.853614 0
M  V30 17 O 43.120685 33.023257 67.177051 0
M  V30 18 C 39.640520 28.808360 57.606601 0 CFG=2
M  V30 19 C 39.640230 29.443972 60.514640 0
M  V30 20 C 36.476418 35.165822 61.287507 0
M  V30 21 C 36.491485 31.728241 59.457521 0
M  V30 22 C 39.349831 31.875850 60.092676 0
M  V30 23 C 41.396239 33.926109 65.812105 0
M  V30 24 C 36.392433 33.661014 61.008045 0 CFG=1
M  V30 25 C 39.524254 34.964116 61.464097 0 CFG=1
M  V30 26 C 42.753912 33.258780 65.831937 0 CFG=2
M  V30 27 C 34.998308 33.127987 61.380715 0
M  V30 28 C 35.224996 31.221417 60.003404 0
M  V30 29 C 41.446204 32.528722 62.944675 0
M  V30 30 S 40.970952 36.018600 61.603658 0 CHG=-1
M  V30 31 N 40.725051 33.639587 63.400072 0
M  V30 32 C 38.144420 31.763489 54.872503 0
M  V30 33 C 37.817419 33.742584 58.858830 0
M  V30 34 H 40.186236 31.278750 55.218112 0
M  V30 35 H 42.807580 30.946542 63.110396 0
M  V30 36 H 35.743376 33.653021 58.964432 0
M  V30 37 H 42.148508 34.987769 64.089703 0
M  V30 38 H 40.559397 35.406361 64.561007 0
M  V30 39 H 38.796988 33.233623 62.680768 0
M  V30 40 H 39.067329 34.757918 63.453438 0
M  V30 41 H 38.087463 29.095927 55.337115 0
M  V30 42 H 39.379468 29.286481 54.180983 0
M  V30 43 H 39.996326 35.088039 59.573465 0
M  V30 44 H 43.758977 31.506423 65.167194 0
M  V30 45 H 42.118654 31.218447 65.649427 0
M  V30 46 H 39.089969 32.206651 57.329739 0
M  V30 47 H 39.868469 33.343522 58.582565 0
M  V30 48 H 39.995910 27.569135 55.855728 0
M  V30 49 H 41.067353 28.923599 55.965221 0
M  V30 50 H 43.982654 32.635994 67.194216 0
M  V30 51 H 40.413052 28.350636 58.223315 0
M  V30 52 H 39.460666 29.757432 61.544404 0
M  V30 53 H 38.946283 28.629847 60.317087 0
M  V30 54 H 40.658199 29.058633 60.464345 0
M  V30 55 H 36.057180 35.372591 62.271202 0
M  V30 56 H 35.867422 35.672498 60.544772 0
M  V30 57 H 37.143787 31.241518 60.160786 0
M  V30 58 H 36.697609 31.327141 58.467532 0
M  V30 59 H 39.375546 31.932331 61.163584 0
M  V30 60 H 40.585041 33.243458 66.071899 0
M  V30 61 H 41.386735 34.730555 66.549779 0
M  V30 62 H 37.100548 33.140902 61.638442 0
M  V30 63 H 43.506264 33.922589 65.409626 0
M  V30 64 H 34.667618 33.474140 62.353504 0
M  V30 65 H 34.238418 33.491105 60.685485 0
M  V30 66 H 35.467393 30.150179 60.021007 0
M  V30 67 H 34.401118 31.472712 59.328354 0
M  V30 68 H 41.215080 32.279160 61.927634 0
M  V30 69 H 38.259165 32.826177 55.094301 0
M  V30 70 H 38.216735 31.647662 53.792291 0
M  V30 71 H 37.137526 31.468835 55.174170 0
M  V30 72 H 37.686267 33.500755 57.806360 0
M  V30 73 H 37.786456 34.823447 58.828318 0
M  V30 74 H 40.787316 33.947650 60.399826 0
M  V30 END ATOM
M  V30 BEGIN BOND
M  V30 1 1 9 3
M  V30 2 1 11 5
M  V30 3 2 12 1
M  V30 4 1 12 3
M  V30 5 1 13 1
M  V30 6 1 14 10
M  V30 7 1 15 9
M  V30 8 1 18 1
M  V30 9 1 18 15
M  V30 10 1 18 16
M  V30 11 1 19 13
M  V30 12 1 20 2
M  V30 13 1 21 6
M  V30 14 2 22 13
M  V30 15 1 22 14
M  V30 16 1 23 7
M  V30 17 1 24 6
M  V30 18 1 24 20
M  V30 19 1 25 2
M  V30 20 1 25 8
M  V30 21 1 25 10
M  V30 22 1 26 11
M  V30 23 1 26 17
M  V30 24 1 26 23
M  V30 25 1 27 4
M  V30 26 1 27 24
M  V30 27 1 28 4
M  V30 28 1 28 21
M  V30 29 2 29 5
M  V30 30 1 25 30 CFG=1
M  V30 31 1 31 7
M  V30 32 1 31 8
M  V30 33 1 31 29
M  V30 34 1 32 3
M  V30 35 1 33 6
M  V30 36 1 33 14
M  V30 37 1 3 34 CFG=3
M  V30 38 1 35 5
M  V30 39 1 6 36 CFG=3
M  V30 40 1 37 7
M  V30 41 1 38 7
M  V30 42 1 39 8
M  V30 43 1 40 8
M  V30 44 1 41 9
M  V30 45 1 42 9
M  V30 46 1 43 10
M  V30 47 1 44 11
M  V30 48 1 45 11
M  V30 49 1 46 12
M  V30 50 1 14 47 CFG=3
M  V30 51 1 48 15
M  V30 52 1 49 15
M  V30 53 1 50 17
M  V30 54 1 18 51 CFG=1
M  V30 55 1 52 19
M  V30 56 1 53 19
M  V30 57 1 54 19
M  V30 58 1 55 20
M  V30 59 1 56 20
M  V30 60 1 57 21
M  V30 61 1 58 21
M  V30 62 1 59 22
M  V30 63 1 60 23
M  V30 64 1 61 23
M  V30 65 1 24 62 CFG=1
M  V30 66 1 26 63 CFG=3
M  V30 67 1 64 27
M  V30 68 1 65 27
M  V30 69 1 66 28
M  V30 70 1 67 28
M  V30 71 1 68 29
M  V30 72 1 69 32
M  V30 73 1 70 32
M  V30 74 1 71 32
M  V30 75 1 72 33
M  V30 76 1 73 33
M  V30 77 1 74 10
M  V30 END BOND
M  V30 END CTAB
M  END
>  <i_epik_Tot_Q>  (1) 
0

>  <i_epik_Tot_abs_Q>  (1) 
2

>  <i_i_glide_confnum>  (1) 
52

>  <i_i_glide_lignum>  (1) 
258

>  <i_i_glide_posenum>  (1) 
102

>  <i_i_glide_rotatable_bonds>  (1) 
5

>  <i_lp_mmshare_version>  (1) 
72125

>  <i_m_source_file_index>  (1) 
94

>  <i_f3d_flags>  (1) 
0

>  <num_sample>  (1) 
100

>  <b_lp_Chiralities_Consistent>  (1) 
1

>  <r_epik_Charging_Adjusted_Penalty>  (1) 
0.80501984278308969

>  <r_epik_Ionization_Penalty>  (1) 
0.072421558423421364

>  <r_epik_Ionization_Penalty_Charging>  (1) 
0.072408791886815996

>  <r_epik_Ionization_Penalty_Neutral>  (1) 
1.2766536605372598e-05

>  <r_epik_State_Penalty>  (1) 
0.73261105089627365

>  <r_glide_ring_energy>  (1) 
0

>  <r_i_docking_score>  (1) 
-4.492855033673341

>  <r_i_glide_ecoul>  (1) 
-1.1161350018330314

>  <r_i_glide_eff_state_penalty>  (1) 
0.73261105089627365

>  <r_i_glide_einternal>  (1) 
9.6447645089307663

>  <r_i_glide_emodel>  (1) 
-26.021658024691568

>  <r_i_glide_emodel_strain>  (1) 
3.9662489815938926

>  <r_i_glide_energy>  (1) 
-28.264829429600439

>  <r_i_glide_erotb>  (1) 
0.31140238833871409

>  <r_i_glide_esite>  (1) 
0

>  <r_i_glide_evdw>  (1) 
-27.14869442776741

>  <r_i_glide_gscore>  (1) 
-5.2254660845696144

>  <r_i_glide_gscore_strain>  (1) 
0

>  <r_i_glide_hbond>  (1) 
-0.13934506276212197

>  <r_i_glide_ligand_efficiency>  (1) 
-0.13614712223252548

>  <r_i_glide_ligand_efficiency_ln>  (1) 
-0.99918769673058272

>  <r_i_glide_ligand_efficiency_sa>  (1) 
-0.43669656849096355

>  <r_i_glide_lipo>  (1) 
-2.9064543770342639

>  <r_i_glide_metal>  (1) 
-0

>  <r_i_glide_rewards>  (1) 
-0.96621406144861688

>  <r_lp_Energy>  (1) 
40.875704999999996

>  <s_epik_Chemistry_Notes>  (1) 
This compound has an imine and may undergo hydrolysis.

>  <s_epik_cmdline>  (1) 
J2VwaWtfcHl0aG9uJywgJy1waHQnLCAnMS4wJywgJy1waCcsICc3LjQnLCAnLXRuJywgJzgnLCAnLW1hJywgJzUwMCcsICctaW1hZScsICc8aW5maWxlLm1hZT4nLCAnLW9tYWUnLCAnPG91dGZpbGUubWFlPic=

>  <s_epik_input>  (1) 
Q2xbQ0BIXTFbQ0gyXVtDSDJdW0NAQEhdKFtDSDNdKVtDSF09QzEvQyhbQ0gzXSk9W0NIXVxbQ0BASF0oW0NIMl0yKVtOSF1bQ0BAXShbU0hdKShTW0NIMl1bQ0BIXShbQ0BASF0yMylbQ0gyXU9bQ0gyXVtDSDJdMylbQ0gyXU4oW0NIMl1bQ0gyXTQpW0NIXT1bQ0hdW0NIMl1bQ0BASF00W09IXQ==

>  <s_glide_docking_method>  (1) 
confgen

>  <s_i_glide_gridfile>  (1) 
gpcr_5ht2c_6bqh_protein_autoprepared_prepared

>  <s_lp_Force_Field>  (1) 
S-OPLS

>  <s_lp_Variant>  (1) 
DiffSBDD_93_num_sample_100-10

>  <s_m_source_file>  (1) 
generated__ligand_DiffSBDD_2026-05-06_prepared.sdf

>  <GenAI_Model>  (1) 
DiffSBDD

>  <Protein>  (1) 
GPCR_5HT2C

$$$$
DiffSBDD_60_num_sample_100
     RDKit          3D

  0  0  0  0  0  0  0  0  0  0999 V3000
M  V30 BEGIN CTAB
M  V30 COUNTS 75 77 0 0 1
M  V30 BEGIN ATOM
M  V30 1 C 37.867436 26.119313 54.459055 0
M  V30 2 C 39.062300 37.167507 63.896781 0
M  V30 3 C 38.407337 36.800420 62.705264 0
M  V30 4 C 39.628264 29.569075 58.684109 0
M  V30 5 N 38.269639 28.067687 53.804341 0
M  V30 6 C 37.742401 24.969466 57.240588 0
M  V30 7 C 40.371539 31.432907 62.918150 0
M  V30 8 C 40.057079 28.265059 60.889476 0
M  V30 9 C 39.935888 29.620041 60.194329 0 CFG=2
M  V30 10 C 38.300013 29.488889 55.856241 0
M  V30 11 C 39.569031 32.432145 62.040376 0 CFG=1
M  V30 12 O 39.972238 26.977425 57.568012 0
M  V30 13 C 37.735492 32.356920 60.179482 0 CFG=1
M  V30 14 C 36.478125 31.704028 60.770715 0
M  V30 15 C 38.380338 28.758404 58.267598 0 CFG=1
M  V30 16 N 37.648414 29.467014 57.180809 0 CHG=1
M  V30 17 C 40.394656 33.703584 61.689454 0
M  V30 18 C 38.148989 28.182702 55.156555 0
M  V30 19 C 37.667119 26.501486 57.078486 0 CFG=1
M  V30 20 C 38.652783 27.232479 58.019377 0 CFG=1
M  V30 21 O 37.344832 37.529489 62.254681 0
M  V30 22 C 38.845970 35.678513 61.982749 0
M  V30 23 C 37.884061 26.932378 55.640262 0
M  V30 24 C 38.217057 33.324249 58.060653 0
M  V30 25 C 38.390153 33.000751 56.575500 0
M  V30 26 C 40.159824 36.421422 64.357236 0
M  V30 27 C 39.064914 31.778092 60.725801 0 CFG=2
M  V30 28 O 38.923642 30.365876 60.857376 0
M  V30 29 N 38.104002 26.821436 53.352257 0
M  V30 30 C 40.830099 31.963145 64.280406 0
M  V30 31 C 39.940819 34.923417 62.451524 0
M  V30 32 C 40.604376 35.304443 63.633596 0
M  V30 33 O 37.708072 32.197307 58.763023 0
M  V30 34 H 37.695417 25.056231 54.374680 0
M  V30 35 H 38.724046 38.021429 64.457763 0
M  V30 36 H 39.467428 30.583949 58.335767 0
M  V30 37 H 40.520638 29.254797 58.145013 0
M  V30 38 H 36.968184 24.474625 56.652062 0
M  V30 39 H 37.586589 24.670817 58.276631 0
M  V30 40 H 38.706682 24.570907 56.923692 0
M  V30 41 H 41.241374 31.063753 62.377441 0
M  V30 42 H 39.746843 30.562287 63.123204 0
M  V30 43 H 40.762603 27.621458 60.367651 0
M  V30 44 H 39.092345 27.767400 60.941672 0
M  V30 45 H 40.412601 28.383748 61.913632 0
M  V30 46 H 40.902281 30.108525 60.321411 0
M  V30 47 H 37.817047 30.268434 55.267255 0
M  V30 48 H 39.352002 29.762988 55.937841 0
M  V30 49 H 38.687513 32.716224 62.617123 0
M  V30 50 H 40.072938 26.049191 57.417550 0
M  V30 51 H 37.677631 33.417268 60.418646 0
M  V30 52 H 36.458614 31.814569 61.853242 0
M  V30 53 H 36.423813 30.641671 60.535762 0
M  V30 54 H 35.577731 32.173318 60.374515 0
M  V30 55 H 37.670108 28.821377 59.092436 0
M  V30 56 H 36.734983 29.052763 57.064452 0
M  V30 57 H 41.464634 33.539382 61.829463 0
M  V30 58 H 40.269700 33.972446 60.641227 0
M  V30 59 H 36.667441 26.780377 57.405253 0
M  V30 60 H 38.589919 26.746434 58.992325 0
M  V30 61 H 38.341466 35.392609 61.073247 0
M  V30 62 H 39.183944 33.620855 58.467950 0
M  V30 63 H 37.533763 34.166455 58.181236 0
M  V30 64 H 38.667165 33.894171 56.015594 0
M  V30 65 H 37.467701 32.619668 56.142790 0
M  V30 66 H 39.171781 32.257427 56.426611 0
M  V30 67 H 40.664418 36.708033 65.269250 0
M  V30 68 H 39.827017 31.991775 59.983953 0
M  V30 69 H 38.467681 28.832974 53.174381 0
M  V30 70 H 41.140855 31.140771 64.924799 0
M  V30 71 H 40.034127 32.502653 64.793267 0
M  V30 72 H 41.691403 32.619221 64.176343 0
M  V30 73 H 41.447086 34.736409 63.990613 0
M  V30 74 H 36.990962 37.210131 61.439430 0
M  V30 75 H 37.503199 30.427292 57.478210 0
M  V30 END ATOM
M  V30 BEGIN BOND
M  V30 1 2 3 2
M  V30 2 1 9 4
M  V30 3 1 9 8
M  V30 4 1 11 7
M  V30 5 1 14 13
M  V30 6 1 15 4
M  V30 7 1 16 10
M  V30 8 1 16 15
M  V30 9 1 17 11
M  V30 10 1 18 5
M  V30 11 1 18 10
M  V30 12 1 19 6
M  V30 13 1 20 12
M  V30 14 1 20 15
M  V30 15 1 20 19
M  V30 16 1 21 3
M  V30 17 1 22 3
M  V30 18 1 23 1
M  V30 19 2 23 18
M  V30 20 1 23 19
M  V30 21 1 25 24
M  V30 22 1 26 2
M  V30 23 1 27 11
M  V30 24 1 27 13
M  V30 25 1 28 9
M  V30 26 1 28 27
M  V30 27 2 29 1
M  V30 28 1 29 5
M  V30 29 1 30 7
M  V30 30 1 31 17
M  V30 31 2 31 22
M  V30 32 2 32 26
M  V30 33 1 32 31
M  V30 34 1 33 13
M  V30 35 1 33 24
M  V30 36 1 34 1
M  V30 37 1 35 2
M  V30 38 1 36 4
M  V30 39 1 37 4
M  V30 40 1 38 6
M  V30 41 1 39 6
M  V30 42 1 40 6
M  V30 43 1 41 7
M  V30 44 1 42 7
M  V30 45 1 43 8
M  V30 46 1 44 8
M  V30 47 1 45 8
M  V30 48 1 9 46 CFG=3
M  V30 49 1 47 10
M  V30 50 1 48 10
M  V30 51 1 11 49 CFG=1
M  V30 52 1 50 12
M  V30 53 1 13 51 CFG=3
M  V30 54 1 52 14
M  V30 55 1 53 14
M  V30 56 1 54 14
M  V30 57 1 15 55 CFG=1
M  V30 58 1 56 16
M  V30 59 1 57 17
M  V30 60 1 58 17
M  V30 61 1 19 59 CFG=1
M  V30 62 1 20 60 CFG=1
M  V30 63 1 61 22
M  V30 64 1 62 24
M  V30 65 1 63 24
M  V30 66 1 64 25
M  V30 67 1 65 25
M  V30 68 1 66 25
M  V30 69 1 67 26
M  V30 70 1 27 68 CFG=3
M  V30 71 1 69 5
M  V30 72 1 70 30
M  V30 73 1 71 30
M  V30 74 1 72 30
M  V30 75 1 73 32
M  V30 76 1 74 21
M  V30 77 1 75 16
M  V30 END BOND
M  V30 END CTAB
M  END
>  <i_epik_Tot_Q>  (1) 
1

>  <i_epik_Tot_abs_Q>  (1) 
1

>  <i_i_glide_confnum>  (1) 
8

>  <i_i_glide_lignum>  (1) 
153

>  <i_i_glide_posenum>  (1) 
144

>  <i_i_glide_rotatable_bonds>  (1) 
13

>  <i_lp_mmshare_version>  (1) 
72125

>  <i_m_source_file_index>  (1) 
61

>  <i_f3d_flags>  (1) 
0

>  <num_sample>  (1) 
100

>  <b_lp_Chiralities_Consistent>  (1) 
1

>  <r_epik_Charging_Adjusted_Penalty>  (1) 
1.0909141645048002

>  <r_epik_Ionization_Penalty>  (1) 
0.35907651910540517

>  <r_epik_Ionization_Penalty_Charging>  (1) 
0.3574178230480502

>  <r_epik_Ionization_Penalty_Neutral>  (1) 
0.0016586960573549945

>  <r_epik_State_Penalty>  (1) 
0.73349634145674991

>  <r_glide_ring_energy>  (1) 
0

>  <r_i_docking_score>  (1) 
-4.4816437645808431

>  <r_i_glide_ecoul>  (1) 
0.7153900753840472

>  <r_i_glide_eff_state_penalty>  (1) 
0.73349634145674991

>  <r_i_glide_einternal>  (1) 
9.2734502760103457

>  <r_i_glide_emodel>  (1) 
-51.272513243203448

>  <r_i_glide_emodel_strain>  (1) 
0

>  <r_i_glide_energy>  (1) 
-38.650928514889046

>  <r_i_glide_erotb>  (1) 
0.85380530184711001

>  <r_i_glide_esite>  (1) 
-0.051791112720026303

>  <r_i_glide_evdw>  (1) 
-39.366318590273096

>  <r_i_glide_gscore>  (1) 
-5.2151401060375928

>  <r_i_glide_gscore_strain>  (1) 
0

>  <r_i_glide_hbond>  (1) 
0

>  <r_i_glide_ligand_efficiency>  (1) 
-0.1358073868054801

>  <r_i_glide_ligand_efficiency_ln>  (1) 
-0.99669436853325588

>  <r_i_glide_ligand_efficiency_sa>  (1) 
-0.43560685544559968

>  <r_i_glide_lipo>  (1) 
-3.6906185439833075

>  <r_i_glide_metal>  (1) 
-0

>  <r_i_glide_rewards>  (1) 
-0.46552833297532181

>  <r_lp_Energy>  (1) 
28.272465

>  <r_lp_tautomer_probability>  (1) 
0.49999999999868239

>  <s_epik_cmdline>  (1) 
J2VwaWtfcHl0aG9uJywgJy1waHQnLCAnMS4wJywgJy1waCcsICc3LjQnLCAnLXRuJywgJzgnLCAnLW1hJywgJzUwMCcsICctaW1hZScsICc8aW5maWxlLm1hZT4nLCAnLW9tYWUnLCAnPG91dGZpbGUubWFlPic=

>  <s_epik_input>  (1) 
bjFbbkhdW2NIXWMoYzEyKVtDQEBIXShbQ0gzXSlbQ0BASF0oW09IXSlbQ0BIXShbTkhdW0NIMl0yKVtDSDJdW0NASF0oW0NIM10pT1tDQEBIXShbQ0BIXShbQ0gzXSlPW0NIMl1bQ0gzXSlbQ0BASF0oW0NIMl1bQ0gzXSlbQ0gyXUMoPVtDSF0zKVtDSDJdW0NIXT1bQ0hdQzM9Tw==

>  <s_glide_docking_method>  (1) 
confgen

>  <s_i_glide_gridfile>  (1) 
gpcr_5ht2c_6bqh_protein_autoprepared_prepared

>  <s_lp_Force_Field>  (1) 
S-OPLS

>  <s_lp_Variant>  (1) 
DiffSBDD_60_num_sample_100-2

>  <s_m_source_file>  (1) 
generated__ligand_DiffSBDD_2026-05-06_prepared.sdf

>  <GenAI_Model>  (1) 
DiffSBDD

>  <Protein>  (1) 
GPCR_5HT2C

$$$$
DiffSBDD_79_num_sample_100
     RDKit          3D

  0  0  0  0  0  0  0  0  0  0999 V3000
M  V30 BEGIN CTAB
M  V30 COUNTS 85 87 0 0 1
M  V30 BEGIN ATOM
M  V30 1 C 38.667416 26.841854 59.277840 0
M  V30 2 C 38.516910 31.132090 60.973719 0
M  V30 3 C 39.859434 29.125158 52.181516 0
M  V30 4 C 39.639584 37.384637 62.918117 0
M  V30 5 C 39.426680 27.438044 57.116351 0
M  V30 6 C 38.749632 26.982083 52.381482 0
M  V30 7 C 39.327945 27.962955 58.567558 0
M  V30 8 C 38.923414 31.599733 55.826394 0
M  V30 9 F 37.735789 26.421689 53.053499 0
M  V30 10 C 38.971970 37.217046 64.292905 0
M  V30 11 C 38.364905 29.710530 60.400515 0
M  V30 12 C 37.725575 30.158841 54.145625 0
M  V30 13 F 38.667362 26.821426 51.062434 0
M  V30 14 C 38.799549 28.439159 52.631529 0
M  V30 15 C 39.950105 31.073109 53.680485 0
M  V30 16 C 37.358327 33.200257 61.524067 0
M  V30 17 C 40.550056 35.203310 62.190086 0
M  V30 18 N 39.595819 36.174764 62.091592 0
M  V30 19 C 40.507827 28.649790 59.241443 0
M  V30 20 C 38.893645 30.949086 54.487001 0
M  V30 21 C 38.526843 36.113476 61.070605 0
M  V30 22 C 37.240727 32.301621 59.001500 0 CFG=2
M  V30 23 C 39.152779 29.414330 59.106979 0
M  V30 24 C 41.777356 28.821414 58.407545 0
M  V30 25 O 37.508627 31.092198 58.328080 0
M  V30 26 O 40.579573 34.218276 61.453496 0
M  V30 27 C 38.215301 33.461470 58.647764 0
M  V30 28 C 40.978951 28.247229 60.646593 0
M  V30 29 C 41.624269 35.370342 63.273266 0
M  V30 30 N 37.393075 32.034691 60.596536 0 CFG=1 CHG=1
M  V30 31 F 39.867418 26.421439 52.821342 0
M  V30 32 C 37.687079 29.061061 53.354209 0
M  V30 33 C 37.106184 35.762345 61.601713 0
M  V30 34 C 40.055117 30.570736 52.294042 0
M  V30 35 C 36.469876 34.412207 61.175672 0
M  V30 36 C 39.117864 30.423331 56.760819 0
M  V30 37 C 38.855186 30.633203 58.213508 0 CFG=2
M  V30 38 H 39.409920 26.063814 59.451478 0
M  V30 39 H 38.267415 27.221419 60.214243 0
M  V30 40 H 37.864493 26.418546 58.676904 0
M  V30 41 H 39.486828 31.568838 60.730448 0
M  V30 42 H 38.521811 31.040935 62.061473 0
M  V30 43 H 40.635465 28.590346 51.652614 0
M  V30 44 H 40.662984 37.725340 63.053506 0
M  V30 45 H 39.175885 38.190021 62.354582 0
M  V30 46 H 39.896059 26.452471 57.109027 0
M  V30 47 H 38.428344 27.328439 56.689353 0
M  V30 48 H 39.997858 28.031972 56.416149 0
M  V30 49 H 39.711423 32.346940 55.923433 0
M  V30 50 H 37.958251 32.086871 55.976469 0
M  V30 51 H 39.279378 38.021299 64.960300 0
M  V30 52 H 37.885335 37.233599 64.221443 0
M  V30 53 H 39.251892 36.286906 64.780055 0
M  V30 54 H 38.667435 29.047259 61.201484 0
M  V30 55 H 37.311638 29.490516 60.225495 0
M  V30 56 H 36.801198 30.422328 54.644979 0
M  V30 57 H 40.795664 31.621427 54.031531 0
M  V30 58 H 37.070343 32.821442 62.504371 0
M  V30 59 H 38.372416 33.534454 61.656681 0
M  V30 60 H 38.820564 35.471056 60.253166 0
M  V30 61 H 38.454761 37.093957 60.607410 0
M  V30 62 H 36.214111 32.585623 58.783911 0
M  V30 63 H 42.473530 28.001011 58.582003 0
M  V30 64 H 41.619254 28.821351 57.343214 0
M  V30 65 H 42.285976 29.738129 58.664479 0
M  V30 66 H 37.731875 34.421646 58.773866 0
M  V30 67 H 39.137374 33.433916 59.227180 0
M  V30 68 H 38.466295 33.441978 57.594080 0
M  V30 69 H 41.867397 27.621960 60.607921 0
M  V30 70 H 41.211192 29.134692 61.232650 0
M  V30 71 H 40.249094 27.658390 61.196000 0
M  V30 72 H 42.267556 36.223577 63.063497 0
M  V30 73 H 41.197256 35.479017 64.267675 0
M  V30 74 H 42.260481 34.485485 63.305455 0
M  V30 75 H 36.733947 28.557236 53.290748 0
M  V30 76 H 36.439717 36.551346 61.252633 0
M  V30 77 H 37.077872 35.852552 62.678025 0
M  V30 78 H 39.467412 31.142588 51.587982 0
M  V30 79 H 41.063835 30.781948 51.939416 0
M  V30 80 H 36.180360 34.462707 60.131668 0
M  V30 81 H 35.516190 34.298018 61.692692 0
M  V30 82 H 38.434013 29.629355 56.476058 0
M  V30 83 H 40.135394 30.095917 56.604077 0
M  V30 84 H 39.467402 31.434867 58.531654 0
M  V30 85 H 36.570295 31.505160 60.841991 0
M  V30 END ATOM
M  V30 BEGIN BOND
M  V30 1 1 7 1
M  V30 2 1 7 5
M  V30 3 1 9 6
M  V30 4 1 10 4
M  V30 5 1 11 2
M  V30 6 1 13 6
M  V30 7 2 14 3
M  V30 8 1 14 6
M  V30 9 1 18 4
M  V30 10 1 18 17
M  V30 11 1 19 7
M  V30 12 1 20 8
M  V30 13 1 20 12
M  V30 14 2 20 15
M  V30 15 1 21 18
M  V30 16 1 23 7
M  V30 17 1 23 11
M  V30 18 1 23 19
M  V30 19 1 24 19
M  V30 20 1 25 22
M  V30 21 2 26 17
M  V30 22 1 27 22
M  V30 23 1 28 19
M  V30 24 1 29 17
M  V30 25 1 30 2
M  V30 26 1 30 16
M  V30 27 1 30 22
M  V30 28 1 31 6
M  V30 29 2 32 12
M  V30 30 1 32 14
M  V30 31 1 33 21
M  V30 32 1 34 3
M  V30 33 1 34 15
M  V30 34 1 35 16
M  V30 35 1 35 33
M  V30 36 1 36 8
M  V30 37 1 37 23
M  V30 38 1 37 25
M  V30 39 1 37 36
M  V30 40 1 38 1
M  V30 41 1 39 1
M  V30 42 1 40 1
M  V30 43 1 41 2
M  V30 44 1 42 2
M  V30 45 1 43 3
M  V30 46 1 44 4
M  V30 47 1 45 4
M  V30 48 1 46 5
M  V30 49 1 47 5
M  V30 50 1 48 5
M  V30 51 1 49 8
M  V30 52 1 50 8
M  V30 53 1 51 10
M  V30 54 1 52 10
M  V30 55 1 53 10
M  V30 56 1 54 11
M  V30 57 1 55 11
M  V30 58 1 56 12
M  V30 59 1 57 15
M  V30 60 1 58 16
M  V30 61 1 59 16
M  V30 62 1 60 21
M  V30 63 1 61 21
M  V30 64 1 22 62 CFG=1
M  V30 65 1 63 24
M  V30 66 1 64 24
M  V30 67 1 65 24
M  V30 68 1 66 27
M  V30 69 1 67 27
M  V30 70 1 68 27
M  V30 71 1 69 28
M  V30 72 1 70 28
M  V30 73 1 71 28
M  V30 74 1 72 29
M  V30 75 1 73 29
M  V30 76 1 74 29
M  V30 77 1 75 32
M  V30 78 1 76 33
M  V30 79 1 77 33
M  V30 80 1 78 34
M  V30 81 1 79 34
M  V30 82 1 80 35
M  V30 83 1 81 35
M  V30 84 1 82 36
M  V30 85 1 83 36
M  V30 86 1 37 84 CFG=1
M  V30 87 1 30 85 CFG=1
M  V30 END BOND
M  V30 END CTAB
M  END
>  <i_epik_Tot_Q>  (1) 
1

>  <i_epik_Tot_abs_Q>  (1) 
1

>  <i_i_glide_confnum>  (1) 
418

>  <i_i_glide_lignum>  (1) 
203

>  <i_i_glide_posenum>  (1) 
158

>  <i_i_glide_rotatable_bonds>  (1) 
11

>  <i_lp_mmshare_version>  (1) 
72125

>  <i_m_source_file_index>  (1) 
80

>  <i_f3d_flags>  (1) 
0

>  <num_sample>  (1) 
100

>  <b_lp_Chiralities_Consistent>  (1) 
1

>  <r_epik_Charging_Adjusted_Penalty>  (1) 
1.4563538393833728

>  <r_epik_Ionization_Penalty>  (1) 
0.72817750760685918

>  <r_epik_Ionization_Penalty_Charging>  (1) 
0.72817691969168641

>  <r_epik_Ionization_Penalty_Neutral>  (1) 
5.8791517278497126e-07

>  <r_epik_State_Penalty>  (1) 
0.72817691969168641

>  <r_glide_ring_energy>  (1) 
0

>  <r_i_docking_score>  (1) 
-4.479090314573396

>  <r_i_glide_ecoul>  (1) 
0.76286770342832433

>  <r_i_glide_eff_state_penalty>  (1) 
0.72817691969168641

>  <r_i_glide_einternal>  (1) 
20.815793607970079

>  <r_i_glide_emodel>  (1) 
-10.788364886979494

>  <r_i_glide_emodel_strain>  (1) 
11.300049891059871

>  <r_i_glide_energy>  (1) 
-21.412856350412856

>  <r_i_glide_erotb>  (1) 
0.59581955881290138

>  <r_i_glide_esite>  (1) 
-0.11463379740317606

>  <r_i_glide_evdw>  (1) 
-22.175724053841179

>  <r_i_glide_gscore>  (1) 
-5.2072672342650828

>  <r_i_glide_gscore_strain>  (1) 
1.8250124727649677

>  <r_i_glide_hbond>  (1) 
0

>  <r_i_glide_ligand_efficiency>  (1) 
-0.12105649498847017

>  <r_i_glide_ligand_efficiency_ln>  (1) 
-0.9714096844558161

>  <r_i_glide_ligand_efficiency_sa>  (1) 
-0.40338709788424915

>  <r_i_glide_lipo>  (1) 
-4.5414228479370964

>  <r_i_glide_metal>  (1) 
-0

>  <r_i_glide_rewards>  (1) 
-1.9776865733248694

>  <r_lp_Energy>  (1) 
66.61177099999999

>  <s_epik_Chemistry_Notes>  (1) 
This compound contains an acetal/aminal-like group ( X-CH(R)-Y where X, Y are N, S, or O) that may be acid/base labile, releasing an aldehyde.

>  <s_epik_cmdline>  (1) 
J2VwaWtfcHl0aG9uJywgJy1waHQnLCAnMS4wJywgJy1waCcsICc3LjQnLCAnLXRuJywgJzgnLCAnLW1hJywgJzUwMCcsICctaW1hZScsICc8aW5maWxlLm1hZT4nLCAnLW9tYWUnLCAnPG91dGZpbGUubWFlPic=

>  <s_epik_input>  (1) 
W0NIM11bQ0gyXU4oQyg9TylbQ0gzXSlbQ0gyXVtDSDJdW0NIMl1bQ0gyXU4oW0NIMl1bQ0gyXUMxMkMoW0NIM10pKFtDSDNdKUMxKFtDSDNdKVtDSDNdKVtDQEBIXShbQ0gzXSlPW0NASF0yW0NIMl1bQ0gyXUMoW0NIXT1bQ0hdMyk9W0NIXVtDSDJdW0NIXT1DM0MoRikoRilG

>  <s_glide_docking_method>  (1) 
confgen

>  <s_i_glide_gridfile>  (1) 
gpcr_5ht2c_6bqh_protein_autoprepared_prepared

>  <s_lp_Force_Field>  (1) 
S-OPLS

>  <s_lp_Variant>  (1) 
DiffSBDD_79_num_sample_100-5

>  <s_m_source_file>  (1) 
generated__ligand_DiffSBDD_2026-05-06_prepared.sdf

>  <GenAI_Model>  (1) 
DiffSBDD

>  <Protein>  (1) 
GPCR_5HT2C

$$$$
DiffSBDD_60_num_sample_100
     RDKit          3D

  0  0  0  0  0  0  0  0  0  0999 V3000
M  V30 BEGIN CTAB
M  V30 COUNTS 74 76 0 0 1
M  V30 BEGIN ATOM
M  V30 1 C 39.256075 27.006918 53.062331 0
M  V30 2 C 41.119275 35.621295 64.974437 0
M  V30 3 C 41.465796 34.284390 65.238644 0
M  V30 4 C 38.528265 30.204877 58.040718 0
M  V30 5 N 38.667660 29.060732 52.342285 0
M  V30 6 C 39.179812 25.730333 55.751024 0
M  V30 7 C 40.229532 30.172101 62.258949 0
M  V30 8 C 36.263395 29.918368 59.205444 0
M  V30 9 C 37.777404 29.705607 59.291404 0 CFG=2
M  V30 10 C 37.725382 30.062723 54.369522 0
M  V30 11 C 39.659844 31.599410 61.971610 0 CFG=1
M  V30 12 O 40.346924 28.424391 56.435111 0
M  V30 13 C 37.589809 32.569839 60.569486 0 CFG=1
M  V30 14 C 37.992056 34.041203 60.745241 0
M  V30 15 C 38.180909 29.457895 56.735421 0 CFG=1
M  V30 16 N 38.413190 30.380888 55.615611 0
M  V30 17 C 40.814126 32.643469 61.824879 0
M  V30 18 C 38.358190 28.922876 53.635144 0
M  V30 19 C 38.515376 27.107864 55.548006 0 CFG=1
M  V30 20 C 38.979866 28.126159 56.617971 0 CFG=1
M  V30 21 O 41.895936 33.922390 66.482445 0
M  V30 22 C 41.366907 33.318491 64.220530 0
M  V30 23 C 38.708192 27.630478 54.143581 0
M  V30 24 C 35.347443 32.971846 61.452606 0
M  V30 25 C 34.630257 33.035456 60.094747 0
M  V30 26 C 40.683618 35.995893 63.688716 0
M  V30 27 C 38.768000 31.554203 60.676336 0 CFG=2
M  V30 28 O 38.265110 30.220207 60.532198 0
M  V30 29 N 39.206880 27.880492 52.023998 0
M  V30 30 C 41.151625 29.988956 63.469087 0
M  V30 31 C 40.922997 33.688490 62.932277 0
M  V30 32 C 40.589884 35.033987 62.668312 0
M  V30 33 O 36.548661 32.194860 61.473631 0
M  V30 34 H 39.674090 26.022450 52.953379 0
M  V30 35 H 41.192706 36.364496 65.755232 0
M  V30 36 H 38.302071 31.263866 57.911948 0
M  V30 37 H 39.601697 30.143155 58.213636 0
M  V30 38 H 38.775710 24.989788 55.060147 0
M  V30 39 H 39.009133 25.353717 56.759845 0
M  V30 40 H 40.258903 25.778610 55.597301 0
M  V30 41 H 40.743046 29.799108 61.372140 0
M  V30 42 H 39.399544 29.487193 62.436045 0
M  V30 43 H 35.770886 29.093907 58.690624 0
M  V30 44 H 36.024864 30.821742 58.653502 0
M  V30 45 H 35.828264 30.021264 60.197277 0
M  V30 46 H 37.940221 28.632535 59.387015 0
M  V30 47 H 37.748922 30.952208 53.742090 0
M  V30 48 H 36.671021 29.860553 54.556973 0
M  V30 49 H 39.022009 31.878221 62.810737 0
M  V30 50 H 40.387928 29.015187 55.696064 0
M  V30 51 H 37.206327 32.488656 59.555855 0
M  V30 52 H 38.855867 34.291800 60.130791 0
M  V30 53 H 38.211576 34.257579 61.788820 0
M  V30 54 H 37.192707 34.714146 60.435388 0
M  V30 55 H 37.116901 29.223628 56.766693 0
M  V30 56 H 38.122887 31.313566 55.898247 0
M  V30 57 H 41.779092 32.149809 61.713836 0
M  V30 58 H 40.691137 33.193903 60.895259 0
M  V30 59 H 37.451222 26.950130 55.712209 0
M  V30 60 H 38.901742 27.617859 57.579114 0
M  V30 61 H 41.632841 32.300598 64.428914 0
M  V30 62 H 35.535920 33.976236 61.833142 0
M  V30 63 H 34.666119 32.516107 62.168944 0
M  V30 64 H 33.703457 33.603121 60.182238 0
M  V30 65 H 34.367044 32.041507 59.735613 0
M  V30 66 H 35.229327 33.526033 59.328933 0
M  V30 67 H 40.425242 37.025223 63.485238 0
M  V30 68 H 39.449923 31.740032 59.851128 0
M  V30 69 H 39.539575 27.687704 51.089934 0
M  V30 70 H 41.382858 28.932548 63.607795 0
M  V30 71 H 40.674841 30.330745 64.388024 0
M  V30 72 H 42.104612 30.500574 63.339867 0
M  V30 73 H 40.261257 35.328326 61.683815 0
M  V30 74 H 41.913498 34.638782 67.097925 0
M  V30 END ATOM
M  V30 BEGIN BOND
M  V30 1 2 3 2
M  V30 2 1 9 4
M  V30 3 1 9 8
M  V30 4 1 11 7
M  V30 5 1 14 13
M  V30 6 1 15 4
M  V30 7 1 16 10
M  V30 8 1 16 15
M  V30 9 1 17 11
M  V30 10 2 18 5
M  V30 11 1 18 10
M  V30 12 1 19 6
M  V30 13 1 20 12
M  V30 14 1 20 15
M  V30 15 1 20 19
M  V30 16 1 21 3
M  V30 17 1 22 3
M  V30 18 2 23 1
M  V30 19 1 23 18
M  V30 20 1 23 19
M  V30 21 1 25 24
M  V30 22 1 26 2
M  V30 23 1 27 11
M  V30 24 1 27 13
M  V30 25 1 28 9
M  V30 26 1 28 27
M  V30 27 1 29 1
M  V30 28 1 29 5
M  V30 29 1 30 7
M  V30 30 1 31 17
M  V30 31 2 31 22
M  V30 32 2 32 26
M  V30 33 1 32 31
M  V30 34 1 33 13
M  V30 35 1 33 24
M  V30 36 1 34 1
M  V30 37 1 35 2
M  V30 38 1 36 4
M  V30 39 1 37 4
M  V30 40 1 38 6
M  V30 41 1 39 6
M  V30 42 1 40 6
M  V30 43 1 41 7
M  V30 44 1 42 7
M  V30 45 1 43 8
M  V30 46 1 44 8
M  V30 47 1 45 8
M  V30 48 1 9 46 CFG=1
M  V30 49 1 47 10
M  V30 50 1 48 10
M  V30 51 1 11 49 CFG=1
M  V30 52 1 50 12
M  V30 53 1 13 51 CFG=3
M  V30 54 1 52 14
M  V30 55 1 53 14
M  V30 56 1 54 14
M  V30 57 1 15 55 CFG=1
M  V30 58 1 56 16
M  V30 59 1 57 17
M  V30 60 1 58 17
M  V30 61 1 19 59 CFG=1
M  V30 62 1 20 60 CFG=1
M  V30 63 1 61 22
M  V30 64 1 62 24
M  V30 65 1 63 24
M  V30 66 1 64 25
M  V30 67 1 65 25
M  V30 68 1 66 25
M  V30 69 1 67 26
M  V30 70 1 27 68 CFG=3
M  V30 71 1 69 29
M  V30 72 1 70 30
M  V30 73 1 71 30
M  V30 74 1 72 30
M  V30 75 1 73 32
M  V30 76 1 74 21
M  V30 END BOND
M  V30 END CTAB
M  END
>  <i_epik_Tot_Q>  (1) 
0

>  <i_epik_Tot_abs_Q>  (1) 
0

>  <i_i_glide_confnum>  (1) 
2061

>  <i_i_glide_lignum>  (1) 
155

>  <i_i_glide_posenum>  (1) 
199

>  <i_i_glide_rotatable_bonds>  (1) 
13

>  <i_lp_mmshare_version>  (1) 
72125

>  <i_m_source_file_index>  (1) 
61

>  <i_f3d_flags>  (1) 
0

>  <num_sample>  (1) 
100

>  <b_lp_Chiralities_Consistent>  (1) 
1

>  <r_epik_Charging_Adjusted_Penalty>  (1) 
1.0946962456901577

>  <r_epik_Ionization_Penalty>  (1) 
0.79333375819973251

>  <r_epik_Ionization_Penalty_Charging>  (1) 
0

>  <r_epik_Ionization_Penalty_Neutral>  (1) 
0.79333375819973251

>  <r_epik_State_Penalty>  (1) 
1.0946962456901577

>  <r_glide_ring_energy>  (1) 
0

>  <r_i_docking_score>  (1) 
-4.4766816327608554

>  <r_i_glide_ecoul>  (1) 
-2.6463344862012663

>  <r_i_glide_eff_state_penalty>  (1) 
1.0946962456901577

>  <r_i_glide_einternal>  (1) 
14.692121608372737

>  <r_i_glide_emodel>  (1) 
-59.188218469138647

>  <r_i_glide_emodel_strain>  (1) 
0.93085881120683212

>  <r_i_glide_energy>  (1) 
-49.769384860194094

>  <r_i_glide_erotb>  (1) 
0.85721886193159891

>  <r_i_glide_esite>  (1) 
0

>  <r_i_glide_evdw>  (1) 
-47.123050373992825

>  <r_i_glide_gscore>  (1) 
-5.5713778784510133

>  <r_i_glide_gscore_strain>  (1) 
0

>  <r_i_glide_hbond>  (1) 
-0.17897389707065414

>  <r_i_glide_ligand_efficiency>  (1) 
-0.13565701917457137

>  <r_i_glide_ligand_efficiency_ln>  (1) 
-0.9955908161090341

>  <r_i_glide_ligand_efficiency_sa>  (1) 
-0.4351245461073398

>  <r_i_glide_lipo>  (1) 
-3.1000830052876518

>  <r_i_glide_metal>  (1) 
-0

>  <r_i_glide_rewards>  (1) 
-0.39643714639447336

>  <r_lp_Energy>  (1) 
28.843152999999997

>  <r_lp_tautomer_probability>  (1) 
0.49999999999868239

>  <s_epik_cmdline>  (1) 
J2VwaWtfcHl0aG9uJywgJy1waHQnLCAnMS4wJywgJy1waCcsICc3LjQnLCAnLXRuJywgJzgnLCAnLW1hJywgJzUwMCcsICctaW1hZScsICc8aW5maWxlLm1hZT4nLCAnLW9tYWUnLCAnPG91dGZpbGUubWFlPic=

>  <s_epik_input>  (1) 
bjFbbkhdW2NIXWMoYzEyKVtDQEBIXShbQ0gzXSlbQ0BASF0oW09IXSlbQ0BIXShbTkhdW0NIMl0yKVtDSDJdW0NASF0oW0NIM10pT1tDQEBIXShbQ0BIXShbQ0gzXSlPW0NIMl1bQ0gzXSlbQ0BASF0oW0NIMl1bQ0gzXSlbQ0gyXUMoPVtDSF0zKVtDSDJdW0NIXT1bQ0hdQzM9Tw==

>  <s_glide_docking_method>  (1) 
confgen

>  <s_i_glide_gridfile>  (1) 
gpcr_5ht2c_6bqh_protein_autoprepared_prepared

>  <s_lp_Force_Field>  (1) 
S-OPLS

>  <s_lp_Variant>  (1) 
DiffSBDD_60_num_sample_100-4

>  <s_m_source_file>  (1) 
generated__ligand_DiffSBDD_2026-05-06_prepared.sdf

>  <GenAI_Model>  (1) 
DiffSBDD

>  <Protein>  (1) 
GPCR_5HT2C

$$$$
DiffSBDD_81_num_sample_100
     RDKit          3D

  0  0  0  0  0  0  0  0  0  0999 V3000
M  V30 BEGIN CTAB
M  V30 COUNTS 55 56 0 0 1
M  V30 BEGIN ATOM
M  V30 1 N 42.248563 27.477592 58.653503 0 CHG=1
M  V30 2 C 37.067409 26.835461 53.891365 0
M  V30 3 C 40.179988 28.303605 57.501439 0
M  V30 4 C 37.883751 28.821473 58.589524 0
M  V30 5 S 38.412649 30.925787 60.355333 0
M  V30 6 C 36.080598 30.421665 59.299481 0
M  V30 7 C 38.267129 29.202107 56.088402 0
M  V30 8 C 37.332766 30.018872 59.345273 0
M  V30 9 C 38.958448 28.012020 52.961281 0 CFG=2
M  V30 10 O 41.067409 29.156136 59.479063 0 CHG=-1
M  V30 11 O 37.095865 33.021068 61.455189 0
M  V30 12 C 38.445618 27.842679 51.525615 0
M  V30 13 C 38.915109 29.200605 57.496859 0 CFG=2
M  V30 14 C 35.645467 31.619873 60.091742 0
M  V30 15 C 39.524940 28.140867 50.470640 0
M  V30 16 O 38.463283 27.030444 53.862145 0
M  V30 17 O 40.475412 29.113055 50.880507 0
M  V30 18 C 40.884313 28.032413 58.843136 0 CFG=2
M  V30 19 C 36.994254 32.029218 60.737911 0
M  V30 20 C 39.231729 29.653932 54.965590 0
M  V30 21 C 38.808469 29.483961 53.484970 0 CFG=1
M  V30 22 C 39.683252 30.514194 52.707965 0
M  V30 23 C 43.222757 28.233048 57.833027 0
M  V30 24 C 39.922734 30.372296 51.193182 0
M  V30 25 H 42.639969 27.426446 59.586663 0
M  V30 26 H 36.817495 26.298634 54.807040 0
M  V30 27 H 36.524348 27.778788 53.885925 0
M  V30 28 H 36.741671 26.224600 53.053624 0
M  V30 29 H 39.966208 27.354153 57.009284 0
M  V30 30 H 40.900133 28.819223 56.883330 0
M  V30 31 H 38.309702 28.164290 59.343598 0
M  V30 32 H 37.062559 28.255166 58.150788 0
M  V30 33 H 35.346092 29.912340 58.692739 0
M  V30 34 H 37.899993 28.199162 55.905248 0
M  V30 35 H 37.388929 29.850625 56.086354 0
M  V30 36 H 39.989159 27.705740 52.916729 0
M  V30 37 H 37.565136 28.467735 51.397807 0
M  V30 38 H 38.118920 26.821446 51.349183 0
M  V30 39 H 39.262871 30.215391 57.694661 0
M  V30 40 H 35.254793 32.408444 59.449403 0
M  V30 41 H 34.913466 31.357179 60.853575 0
M  V30 42 H 39.067400 28.443367 49.530806 0
M  V30 43 H 40.080260 27.227414 50.256185 0
M  V30 44 H 40.331429 27.221402 59.314388 0
M  V30 45 H 39.449635 30.704151 55.168956 0
M  V30 46 H 40.184383 29.142120 55.032763 0
M  V30 47 H 37.764867 29.782238 53.401327 0
M  V30 48 H 39.300186 31.517375 52.903488 0
M  V30 49 H 40.667414 30.514341 53.160920 0
M  V30 50 H 44.185280 27.723781 57.853465 0
M  V30 51 H 42.928350 28.304449 56.790062 0
M  V30 52 H 43.364274 29.241053 58.218343 0
M  V30 53 H 39.067403 30.591313 50.568859 0
M  V30 54 H 40.666136 31.117229 50.908090 0
M  V30 55 H 42.172683 26.546081 58.271919 0
M  V30 END ATOM
M  V30 BEGIN BOND
M  V30 1 1 8 4
M  V30 2 1 8 5
M  V30 3 2 8 6
M  V30 4 1 12 9
M  V30 5 1 13 3
M  V30 6 1 13 4
M  V30 7 1 13 7
M  V30 8 1 14 6
M  V30 9 1 15 12
M  V30 10 1 16 2
M  V30 11 1 16 9
M  V30 12 1 17 15
M  V30 13 1 18 1
M  V30 14 1 18 3
M  V30 15 1 18 10
M  V30 16 1 19 5
M  V30 17 2 19 11
M  V30 18 1 19 14
M  V30 19 1 20 7
M  V30 20 1 21 9
M  V30 21 1 21 20
M  V30 22 1 22 21
M  V30 23 1 23 1
M  V30 24 1 24 17
M  V30 25 1 24 22
M  V30 26 1 25 1
M  V30 27 1 26 2
M  V30 28 1 27 2
M  V30 29 1 28 2
M  V30 30 1 29 3
M  V30 31 1 30 3
M  V30 32 1 31 4
M  V30 33 1 32 4
M  V30 34 1 33 6
M  V30 35 1 34 7
M  V30 36 1 35 7
M  V30 37 1 9 36 CFG=3
M  V30 38 1 37 12
M  V30 39 1 38 12
M  V30 40 1 13 39 CFG=1
M  V30 41 1 40 14
M  V30 42 1 41 14
M  V30 43 1 42 15
M  V30 44 1 43 15
M  V30 45 1 18 44 CFG=1
M  V30 46 1 45 20
M  V30 47 1 46 20
M  V30 48 1 21 47 CFG=1
M  V30 49 1 48 22
M  V30 50 1 49 22
M  V30 51 1 50 23
M  V30 52 1 51 23
M  V30 53 1 52 23
M  V30 54 1 53 24
M  V30 55 1 54 24
M  V30 56 1 55 1
M  V30 END BOND
M  V30 END CTAB
M  END
>  <i_epik_Tot_Q>  (1) 
0

>  <i_epik_Tot_abs_Q>  (1) 
2

>  <i_i_glide_confnum>  (1) 
337

>  <i_i_glide_lignum>  (1) 
214

>  <i_i_glide_posenum>  (1) 
118

>  <i_i_glide_rotatable_bonds>  (1) 
9

>  <i_lp_mmshare_version>  (1) 
72125

>  <i_m_source_file_index>  (1) 
82

>  <i_f3d_flags>  (1) 
0

>  <num_sample>  (1) 
100

>  <b_lp_Chiralities_Consistent>  (1) 
1

>  <r_epik_Charging_Adjusted_Penalty>  (1) 
2.6824970044638059

>  <r_epik_Ionization_Penalty>  (1) 
1.3267145025925604

>  <r_epik_Ionization_Penalty_Charging>  (1) 
1.3267145025735321

>  <r_epik_Ionization_Penalty_Neutral>  (1) 
1.9028324776712985e-11

>  <r_epik_State_Penalty>  (1) 
1.3557825018902738

>  <r_glide_ring_energy>  (1) 
0

>  <r_i_docking_score>  (1) 
-4.4747144945040196

>  <r_i_glide_ecoul>  (1) 
-4.9997162565770621

>  <r_i_glide_eff_state_penalty>  (1) 
1.3557825018902738

>  <r_i_glide_einternal>  (1) 
11.157330277897584

>  <r_i_glide_emodel>  (1) 
-43.376481547171011

>  <r_i_glide_emodel_strain>  (1) 
3.5353344807927769

>  <r_i_glide_energy>  (1) 
-37.244917288480899

>  <r_i_glide_erotb>  (1) 
0.89870139130029003

>  <r_i_glide_esite>  (1) 
-0.031877735616783129

>  <r_i_glide_evdw>  (1) 
-32.245201031903839

>  <r_i_glide_gscore>  (1) 
-5.8304969963942934

>  <r_i_glide_gscore_strain>  (1) 
0

>  <r_i_glide_hbond>  (1) 
-0.0019826154786098476

>  <r_i_glide_ligand_efficiency>  (1) 
-0.18644643727100083

>  <r_i_glide_ligand_efficiency_ln>  (1) 
-1.0710045098034002

>  <r_i_glide_ligand_efficiency_sa>  (1) 
-0.5378045880788962

>  <r_i_glide_lipo>  (1) 
-2.6045423493432676

>  <r_i_glide_metal>  (1) 
-0

>  <r_i_glide_rewards>  (1) 
-1.7285781971741701

>  <r_lp_Energy>  (1) 
7.9027319999999994

>  <s_epik_Chemistry_Notes>  (1) 
This compound contains an acetal/aminal-like group ( X-CH(R)-Y where X, Y are N, S, or O) that may be acid/base labile, releasing an aldehyde.

>  <s_epik_cmdline>  (1) 
J2VwaWtfcHl0aG9uJywgJy1waHQnLCAnMS4wJywgJy1waCcsICc3LjQnLCAnLXRuJywgJzgnLCAnLW1hJywgJzUwMCcsICctaW1hZScsICc8aW5maWxlLm1hZT4nLCAnLW9tYWUnLCAnPG91dGZpbGUubWFlPic=

>  <s_epik_input>  (1) 
UzFDKD1PKVtDSDJdW0NIXT1DMVtDSDJdW0NAQEhdKFtDSDJdW0NASF0oW09IXSlbTkhdW0NIM10pW0NIMl1bQ0gyXVtDQEhdMltDSDJdW0NIMl1PW0NIMl1bQ0gyXVtDQEBIXTJPW0NIM10=

>  <s_glide_docking_method>  (1) 
confgen

>  <s_i_glide_gridfile>  (1) 
gpcr_5ht2c_6bqh_protein_autoprepared_prepared

>  <s_lp_Force_Field>  (1) 
S-OPLS

>  <s_lp_Variant>  (1) 
DiffSBDD_81_num_sample_100-2

>  <s_m_source_file>  (1) 
generated__ligand_DiffSBDD_2026-05-06_prepared.sdf

>  <GenAI_Model>  (1) 
DiffSBDD

>  <Protein>  (1) 
GPCR_5HT2C

$$$$
DiffSBDD_88_num_sample_100
     RDKit          3D

  0  0  0  0  0  0  0  0  0  0999 V3000
M  V30 BEGIN CTAB
M  V30 COUNTS 72 75 0 0 1
M  V30 BEGIN ATOM
M  V30 1 C 37.542642 28.770813 57.599774 0
M  V30 2 C 37.415722 31.136103 54.804940 0
M  V30 3 C 38.421758 33.817995 61.923771 0 CFG=1
M  V30 4 C 37.957652 31.166268 58.521012 0
M  V30 5 C 38.804115 28.197827 56.937198 0
M  V30 6 C 37.636331 32.514918 62.196324 0
M  V30 7 O 42.668724 32.817678 61.453502 0
M  V30 8 C 36.136962 35.108698 59.252967 0 CFG=1
M  V30 9 C 39.744475 26.812149 55.150200 0
M  V30 10 C 37.837799 29.649021 58.834420 0
M  V30 11 O 42.230936 31.313313 63.033155 0 CHG=-1
M  V30 12 N 38.106369 32.078959 59.702660 0 CFG=1 CHG=1
M  V30 13 C 38.052619 33.565724 59.407182 0 CFG=1
M  V30 14 C 39.958188 33.682563 62.033470 0 CFG=1
M  V30 15 C 39.882362 31.321775 55.053576 0
M  V30 16 C 37.405256 31.623486 60.944592 0
M  V30 17 C 36.955935 36.406336 59.386259 0
M  V30 18 C 40.467347 34.278958 63.384345 0
M  V30 19 C 40.446126 32.226382 61.814470 0
M  V30 20 N 40.543785 26.022378 54.907590 0
M  V30 21 C 41.900765 32.109121 62.127857 0
M  V30 22 C 38.667329 36.736672 61.167213 0
M  V30 23 O 37.478575 27.143267 55.165998 0
M  V30 24 C 38.892479 28.984990 54.442497 0 CFG=1
M  V30 25 C 38.671451 31.874582 55.115858 0
M  V30 26 C 36.915576 34.036557 58.459679 0
M  V30 27 C 37.646725 29.804420 54.078710 0
M  V30 28 C 37.784394 34.417875 60.670284 0 CFG=1
M  V30 29 C 40.142719 29.890866 54.639107 0
M  V30 30 C 36.240851 34.491264 60.650706 0
M  V30 31 C 38.704342 27.801857 55.441690 0 CFG=1
M  V30 32 C 37.888580 35.916370 60.444081 0
M  V30 33 H 36.920719 29.317132 56.903122 0
M  V30 34 H 36.916677 27.926695 57.886363 0
M  V30 35 H 37.005045 30.982874 55.779835 0
M  V30 36 H 36.726327 31.770688 54.253827 0
M  V30 37 H 38.267708 34.591302 62.651743 0
M  V30 38 H 38.791942 31.344409 57.842673 0
M  V30 39 H 37.067024 31.426656 57.975331 0
M  V30 40 H 39.076328 27.313440 57.513369 0
M  V30 41 H 39.637075 28.883862 57.078441 0
M  V30 42 H 36.668147 32.791825 62.587582 0
M  V30 43 H 38.073840 31.933076 62.998895 0
M  V30 44 H 35.116641 35.264679 58.898355 0
M  V30 45 H 37.002138 29.483939 59.511719 0
M  V30 46 H 38.730316 29.293371 59.349463 0
M  V30 47 H 39.019211 33.844390 58.988415 0
M  V30 48 H 40.397243 34.305129 61.253727 0
M  V30 49 H 40.747256 31.915403 55.294919 0
M  V30 50 H 36.341073 31.509233 60.738212 0
M  V30 51 H 37.760728 30.632076 61.216861 0
M  V30 52 H 36.350543 37.232511 59.754318 0
M  V30 53 H 37.466310 36.704683 58.473724 0
M  V30 54 H 40.276838 33.603751 64.217830 0
M  V30 55 H 41.539999 34.464577 63.361521 0
M  V30 56 H 40.025678 35.239680 63.644805 0
M  V30 57 H 39.952467 31.462681 62.405717 0
M  V30 58 H 40.352644 31.937994 60.774593 0
M  V30 59 H 38.667837 37.801510 60.982866 0
M  V30 60 H 39.305910 36.363967 61.946824 0
M  V30 61 H 37.640757 26.449358 54.544623 0
M  V30 62 H 39.101566 28.456057 53.509326 0
M  V30 63 H 38.563870 32.907763 55.416702 0
M  V30 64 H 36.207439 33.246866 58.255608 0
M  V30 65 H 37.314497 34.405539 57.513025 0
M  V30 66 H 37.863414 30.040973 53.053232 0
M  V30 67 H 36.730506 29.222527 54.057132 0
M  V30 68 H 40.849874 29.442900 55.332250 0
M  V30 69 H 40.665023 30.020725 53.688661 0
M  V30 70 H 35.689974 33.556816 60.693625 0
M  V30 71 H 35.867953 35.117086 61.461451 0
M  V30 72 H 39.070029 31.957876 59.977506 0
M  V30 END ATOM
M  V30 BEGIN BOND
M  V30 1 1 5 1
M  V30 2 1 6 3
M  V30 3 1 10 1
M  V30 4 1 10 4
M  V30 5 1 12 4
M  V30 6 1 13 12
M  V30 7 1 14 3
M  V30 8 1 16 6
M  V30 9 1 16 12
M  V30 10 1 17 8
M  V30 11 1 18 14
M  V30 12 1 19 14
M  V30 13 3 20 9
M  V30 14 2 21 7
M  V30 15 1 21 11
M  V30 16 1 21 19
M  V30 17 1 25 2
M  V30 18 2 25 15
M  V30 19 1 26 8
M  V30 20 1 26 13
M  V30 21 1 27 2
M  V30 22 1 27 24
M  V30 23 1 28 3
M  V30 24 1 28 13
M  V30 25 1 29 15
M  V30 26 1 29 24
M  V30 27 1 30 8
M  V30 28 1 30 28
M  V30 29 1 31 5
M  V30 30 1 31 9 CFG=3
M  V30 31 1 31 23
M  V30 32 1 31 24
M  V30 33 1 32 17
M  V30 34 2 32 22
M  V30 35 1 28 32 CFG=3
M  V30 36 1 33 1
M  V30 37 1 34 1
M  V30 38 1 35 2
M  V30 39 1 36 2
M  V30 40 1 3 37 CFG=1
M  V30 41 1 38 4
M  V30 42 1 39 4
M  V30 43 1 40 5
M  V30 44 1 41 5
M  V30 45 1 42 6
M  V30 46 1 43 6
M  V30 47 1 8 44 CFG=3
M  V30 48 1 45 10
M  V30 49 1 46 10
M  V30 50 1 13 47 CFG=3
M  V30 51 1 14 48 CFG=3
M  V30 52 1 49 15
M  V30 53 1 50 16
M  V30 54 1 51 16
M  V30 55 1 52 17
M  V30 56 1 53 17
M  V30 57 1 54 18
M  V30 58 1 55 18
M  V30 59 1 56 18
M  V30 60 1 57 19
M  V30 61 1 58 19
M  V30 62 1 59 22
M  V30 63 1 60 22
M  V30 64 1 61 23
M  V30 65 1 24 62 CFG=3
M  V30 66 1 63 25
M  V30 67 1 64 26
M  V30 68 1 65 26
M  V30 69 1 66 27
M  V30 70 1 67 27
M  V30 71 1 68 29
M  V30 72 1 69 29
M  V30 73 1 70 30
M  V30 74 1 71 30
M  V30 75 1 12 72 CFG=1
M  V30 END BOND
M  V30 END CTAB
M  END
>  <i_epik_Tot_Q>  (1) 
0

>  <i_epik_Tot_abs_Q>  (1) 
2

>  <i_i_glide_confnum>  (1) 
402

>  <i_i_glide_lignum>  (1) 
226

>  <i_i_glide_posenum>  (1) 
50

>  <i_i_glide_rotatable_bonds>  (1) 
10

>  <i_lp_mmshare_version>  (1) 
72125

>  <i_m_source_file_index>  (1) 
89

>  <i_f3d_flags>  (1) 
0

>  <num_sample>  (1) 
100

>  <b_lp_Chiralities_Consistent>  (1) 
1

>  <r_epik_Charging_Adjusted_Penalty>  (1) 
0.0020242395650179774

>  <r_epik_Ionization_Penalty>  (1) 
0.0021859291232044671

>  <r_epik_Ionization_Penalty_Charging>  (1) 
0.0020242395650179774

>  <r_epik_Ionization_Penalty_Neutral>  (1) 
0.00016168955818648959

>  <r_epik_State_Penalty>  (1) 
-0

>  <r_glide_ring_energy>  (1) 
1.8266832637363128

>  <r_i_docking_score>  (1) 
-4.470801172231881

>  <r_i_glide_ecoul>  (1) 
-1.0268492970833267

>  <r_i_glide_eff_state_penalty>  (1) 
-0

>  <r_i_glide_einternal>  (1) 
13.746947730310511

>  <r_i_glide_emodel>  (1) 
-15.247017130729095

>  <r_i_glide_emodel_strain>  (1) 
2.9479691634174259

>  <r_i_glide_energy>  (1) 
-16.916626601972578

>  <r_i_glide_erotb>  (1) 
0.71992511853168706

>  <r_i_glide_esite>  (1) 
-0.028764873808305832

>  <r_i_glide_evdw>  (1) 
-15.88977730488925

>  <r_i_glide_gscore>  (1) 
-4.470801172231881

>  <r_i_glide_gscore_strain>  (1) 
0

>  <r_i_glide_hbond>  (1) 
-0.018041986133349952

>  <r_i_glide_ligand_efficiency>  (1) 
-0.13971253663224628

>  <r_i_glide_ligand_efficiency_ln>  (1) 
-1.0011342518998891

>  <r_i_glide_ligand_efficiency_sa>  (1) 
-0.44355965524634677

>  <r_i_glide_lipo>  (1) 
-2.3263844248085253

>  <r_i_glide_metal>  (1) 
-0

>  <r_i_glide_rewards>  (1) 
-1.8690187462064258

>  <r_lp_Energy>  (1) 
68.419443999999999

>  <r_lp_tautomer_probability>  (1) 
1

>  <s_epik_cmdline>  (1) 
J2VwaWtfcHl0aG9uJywgJy1waHQnLCAnMS4wJywgJy1waCcsICc3LjQnLCAnLXRuJywgJzgnLCAnLW1hJywgJzUwMCcsICctaW1hZScsICc8aW5maWxlLm1hZT4nLCAnLW9tYWUnLCAnPG91dGZpbGUubWFlPic=

>  <s_epik_input>  (1) 
W0NIMl0xW0NIXT1bQ0hdW0NIMl1bQ0gyXVtDQEBIXTFbQ0BdKEMjTikoW09IXSlbQ0gyXVtDSDJdW0NIMl1bQ0gyXU4oW0NASF0oW0NAXTIzNClbQ0gyXVtDQEBIXShbQ0gyXTMpW0NIMl1DND1bQ0gyXSlbQ0gyXVtDSDJdW0NASF0yW0NAQEhdKFtDSDNdKVtDSDJdQyg9TylbT0hd

>  <s_glide_docking_method>  (1) 
confgen

>  <s_i_glide_gridfile>  (1) 
gpcr_5ht2c_6bqh_protein_autoprepared_prepared

>  <s_lp_Force_Field>  (1) 
S-OPLS

>  <s_lp_Variant>  (1) 
DiffSBDD_88_num_sample_100-1

>  <s_m_source_file>  (1) 
generated__ligand_DiffSBDD_2026-05-06_prepared.sdf

>  <GenAI_Model>  (1) 
DiffSBDD

>  <Protein>  (1) 
GPCR_5HT2C

$$$$
DiffSBDD_90_num_sample_100
     RDKit          3D

  0  0  0  0  0  0  0  0  0  0999 V3000
M  V30 BEGIN CTAB
M  V30 COUNTS 85 88 0 0 1
M  V30 BEGIN ATOM
M  V30 1 C 36.370161 30.238918 59.186171 0
M  V30 2 O 41.431351 34.383440 64.749086 0
M  V30 3 F 38.667748 32.271584 52.903087 0
M  V30 4 C 38.734884 26.962299 56.104378 0 CFG=1
M  V30 5 C 39.679262 36.054873 62.911988 0 CFG=2
M  V30 6 C 40.097791 34.131193 61.491532 0 CFG=1
M  V30 7 C 40.178395 24.962527 57.677184 0
M  V30 8 C 39.070051 31.958699 60.730048 0
M  V30 9 C 38.092623 25.696850 56.736014 0
M  V30 10 N 41.895251 35.621331 64.150042 0
M  V30 11 C 39.019341 32.339805 55.187175 0
M  V30 12 C 36.670497 25.934504 57.237803 0
M  V30 13 C 39.160316 34.646707 62.577693 0
M  V30 14 C 41.467463 34.663967 61.896606 0
M  V30 15 O 39.753471 38.206819 61.856914 0
M  V30 16 N 37.629460 30.634178 58.488707 0 CFG=1 CHG=1
M  V30 17 C 40.025932 32.624939 61.394002 0
M  V30 18 F 37.053504 32.523149 54.253552 0
M  V30 19 C 39.145690 29.565763 54.182136 0 CFG=1
M  V30 20 N 37.768167 30.073105 57.112332 0
M  V30 21 C 40.202724 31.430465 55.396966 0
M  V30 22 C 37.879222 32.097724 58.534773 0
M  V30 23 O 38.828591 25.330639 57.892344 0
M  V30 24 C 38.038249 24.500663 55.770327 0
M  V30 25 C 36.222285 30.889630 60.589865 0
M  V30 26 C 37.869230 30.364335 53.999080 0
M  V30 27 C 37.920095 32.619669 59.967970 0 CFG=1
M  V30 28 C 41.222133 35.842866 62.860017 0 CFG=1
M  V30 29 C 37.982816 27.409394 54.840451 0
M  V30 30 O 38.274608 36.735912 61.079492 0 CHG=-1
M  V30 31 C 39.111463 29.541037 56.864462 0 CFG=1
M  V30 32 C 36.554475 32.378500 60.611547 0
M  V30 33 O 39.281611 36.531775 64.184728 0
M  V30 34 C 39.080401 28.034645 57.193819 0
M  V30 35 C 39.822361 29.930518 55.518832 0 CFG=1
M  V30 36 C 38.918643 28.095236 53.856788 0
M  V30 37 C 38.163055 31.869116 54.049510 0
M  V30 38 C 39.194777 37.088612 61.854788 0
M  V30 39 H 36.384483 29.163046 59.298550 0
M  V30 40 H 35.482698 30.423667 58.587585 0
M  V30 41 H 41.333343 33.819977 63.997160 0
M  V30 42 H 39.696283 26.647219 55.707604 0
M  V30 43 H 39.850093 34.587013 60.533519 0
M  V30 44 H 40.666795 24.822339 58.631004 0
M  V30 45 H 40.261687 24.040979 57.101993 0
M  V30 46 H 40.756097 25.739359 57.196185 0
M  V30 47 H 39.096221 30.880770 60.720887 0
M  V30 48 H 42.893529 35.488207 64.081173 0
M  V30 49 H 39.337372 33.370848 55.053915 0
M  V30 50 H 38.395266 32.371304 56.063294 0
M  V30 51 H 36.000354 26.020971 56.386145 0
M  V30 52 H 36.324236 25.091594 57.833061 0
M  V30 53 H 36.580732 26.828040 57.849320 0
M  V30 54 H 38.122525 34.619379 62.251787 0
M  V30 55 H 39.262977 33.985233 63.436140 0
M  V30 56 H 42.001654 35.039992 61.031659 0
M  V30 57 H 42.089615 33.879375 62.330453 0
M  V30 58 H 40.800830 32.069614 61.902448 0
M  V30 59 H 39.828941 29.895597 53.396762 0
M  V30 60 H 37.600856 30.914427 56.575507 0
M  V30 61 H 40.919289 31.558317 54.587071 0
M  V30 62 H 40.658072 31.867168 56.253355 0
M  V30 63 H 37.122842 32.637968 57.961932 0
M  V30 64 H 38.850207 32.318005 58.096758 0
M  V30 65 H 37.260080 24.589196 55.012648 0
M  V30 66 H 38.980998 24.349350 55.248872 0
M  V30 67 H 37.794919 23.621578 56.348932 0
M  V30 68 H 36.895355 30.421322 61.300207 0
M  V30 69 H 35.214779 30.763777 60.982841 0
M  V30 70 H 37.468382 30.020717 53.053822 0
M  V30 71 H 37.103532 30.119508 54.730243 0
M  V30 72 H 38.049653 33.698255 59.914571 0
M  V30 73 H 41.695396 36.734082 62.445909 0
M  V30 74 H 37.601939 26.550772 54.295297 0
M  V30 75 H 37.095236 27.993983 55.053908 0
M  V30 76 H 39.752580 29.988298 57.626090 0
M  V30 77 H 36.538386 32.760279 61.633741 0
M  V30 78 H 35.787411 32.929802 60.067149 0
M  V30 79 H 39.882582 37.231238 64.405150 0
M  V30 80 H 40.078482 27.802561 57.561094 0
M  V30 81 H 38.458789 27.889460 58.076778 0
M  V30 82 H 40.762013 29.379087 55.529053 0
M  V30 83 H 39.862889 27.559473 53.764375 0
M  V30 84 H 38.478290 28.026768 52.861391 0
M  V30 85 H 38.380235 30.210207 59.011297 0
M  V30 END ATOM
M  V30 BEGIN BOND
M  V30 1 1 9 4
M  V30 2 1 10 2
M  V30 3 1 12 9
M  V30 4 1 13 5
M  V30 5 1 13 6
M  V30 6 1 14 6
M  V30 7 1 16 1
M  V30 8 1 17 6
M  V30 9 2 17 8
M  V30 10 1 20 16
M  V30 11 1 21 11
M  V30 12 1 22 16
M  V30 13 1 23 7
M  V30 14 1 23 9
M  V30 15 1 24 9
M  V30 16 1 25 1
M  V30 17 1 26 19
M  V30 18 1 27 8
M  V30 19 1 27 22
M  V30 20 1 28 5
M  V30 21 1 28 10
M  V30 22 1 28 14
M  V30 23 1 29 4
M  V30 24 1 31 20
M  V30 25 1 32 25
M  V30 26 1 32 27
M  V30 27 1 5 33 CFG=1
M  V30 28 1 34 4
M  V30 29 1 34 31
M  V30 30 1 35 19
M  V30 31 1 35 21
M  V30 32 1 35 31
M  V30 33 1 36 19
M  V30 34 1 36 29
M  V30 35 1 37 3
M  V30 36 1 37 11
M  V30 37 1 37 18
M  V30 38 1 37 26
M  V30 39 1 38 5
M  V30 40 2 38 15
M  V30 41 1 38 30
M  V30 42 1 39 1
M  V30 43 1 40 1
M  V30 44 1 41 2
M  V30 45 1 4 42 CFG=3
M  V30 46 1 6 43 CFG=3
M  V30 47 1 44 7
M  V30 48 1 45 7
M  V30 49 1 46 7
M  V30 50 1 47 8
M  V30 51 1 48 10
M  V30 52 1 49 11
M  V30 53 1 50 11
M  V30 54 1 51 12
M  V30 55 1 52 12
M  V30 56 1 53 12
M  V30 57 1 54 13
M  V30 58 1 55 13
M  V30 59 1 56 14
M  V30 60 1 57 14
M  V30 61 1 58 17
M  V30 62 1 19 59 CFG=3
M  V30 63 1 60 20
M  V30 64 1 61 21
M  V30 65 1 62 21
M  V30 66 1 63 22
M  V30 67 1 64 22
M  V30 68 1 65 24
M  V30 69 1 66 24
M  V30 70 1 67 24
M  V30 71 1 68 25
M  V30 72 1 69 25
M  V30 73 1 70 26
M  V30 74 1 71 26
M  V30 75 1 27 72 CFG=3
M  V30 76 1 28 73 CFG=3
M  V30 77 1 74 29
M  V30 78 1 75 29
M  V30 79 1 31 76 CFG=1
M  V30 80 1 77 32
M  V30 81 1 78 32
M  V30 82 1 79 33
M  V30 83 1 80 34
M  V30 84 1 81 34
M  V30 85 1 35 82 CFG=3
M  V30 86 1 83 36
M  V30 87 1 84 36
M  V30 88 1 16 85 CFG=1
M  V30 END BOND
M  V30 END CTAB
M  END
>  <i_epik_Tot_Q>  (1) 
0

>  <i_epik_Tot_abs_Q>  (1) 
2

>  <i_i_glide_confnum>  (1) 
155

>  <i_i_glide_lignum>  (1) 
241

>  <i_i_glide_posenum>  (1) 
300

>  <i_i_glide_rotatable_bonds>  (1) 
10

>  <i_lp_mmshare_version>  (1) 
72125

>  <i_m_source_file_index>  (1) 
91

>  <i_f3d_flags>  (1) 
0

>  <num_sample>  (1) 
100

>  <b_lp_Chiralities_Consistent>  (1) 
1

>  <r_epik_Charging_Adjusted_Penalty>  (1) 
1.5083745474312953

>  <r_epik_Ionization_Penalty>  (1) 
0.65750586125956467

>  <r_epik_Ionization_Penalty_Charging>  (1) 
0.6544614066189578

>  <r_epik_Ionization_Penalty_Neutral>  (1) 
0.0030444546406068235

>  <r_epik_State_Penalty>  (1) 
0.8539131408123376

>  <r_glide_ring_energy>  (1) 
0.5227007341330594

>  <r_i_docking_score>  (1) 
-4.4599194266908011

>  <r_i_glide_ecoul>  (1) 
-1.1113522698835157

>  <r_i_glide_eff_state_penalty>  (1) 
0.8539131408123376

>  <r_i_glide_einternal>  (1) 
20.146883845074278

>  <r_i_glide_emodel>  (1) 
-8.3025232343181123

>  <r_i_glide_emodel_strain>  (1) 
1.2382794091817004

>  <r_i_glide_energy>  (1) 
-14.508764388170444

>  <r_i_glide_erotb>  (1) 
0.42002339013477186

>  <r_i_glide_esite>  (1) 
-0.12915324211863885

>  <r_i_glide_evdw>  (1) 
-13.39741211828693

>  <r_i_glide_gscore>  (1) 
-5.3138325675031384

>  <r_i_glide_gscore_strain>  (1) 
0

>  <r_i_glide_hbond>  (1) 
-0.017113779011785457

>  <r_i_glide_ligand_efficiency>  (1) 
-0.1173663007023895

>  <r_i_glide_ligand_efficiency_ln>  (1) 
-0.96168982593175867

>  <r_i_glide_ligand_efficiency_sa>  (1) 
-0.39458261654840548

>  <r_i_glide_lipo>  (1) 
-3.5551696846481744

>  <r_i_glide_metal>  (1) 
-0

>  <r_i_glide_rewards>  (1) 
-1.1958458054624386

>  <r_lp_Energy>  (1) 
49.266497000000001

>  <s_epik_Chemistry_Notes>  (1) 
This compound has a N-S or N-O group and may undergo hydrolysis at high or low pH.

>  <s_epik_cmdline>  (1) 
J2VwaWtfcHl0aG9uJywgJy1waHQnLCAnMS4wJywgJy1waCcsICc3LjQnLCAnLXRuJywgJzgnLCAnLW1hJywgJzUwMCcsICctaW1hZScsICc8aW5maWxlLm1hZT4nLCAnLW9tYWUnLCAnPG91dGZpbGUubWFlPic=

>  <s_epik_input>  (1) 
RkMoRikoW0NIMl0xKVtDSDJdW0NIMl1bQ0BIXShbQ0BASF0xMilbQ0BIXShbQ0gyXVtDQEhdKFtDSDJdW0NIMl0yKUMoW0NIM10pKFtDSDNdKU9bQ0gzXSlbTkhdTjNbQ0gyXVtDSDJdW0NIMl1bQ0BIXShbQ0gyXTMpL1tDSF09W0NIXVxbQ0BASF0oW0NIMl1bQ0BdNChbT0hdKUMoPU8pW09IXSlbQ0gyXVtDQEBIXTRbTkhdW09IXQ==

>  <s_glide_docking_method>  (1) 
confgen

>  <s_i_glide_gridfile>  (1) 
gpcr_5ht2c_6bqh_protein_autoprepared_prepared

>  <s_lp_Force_Field>  (1) 
S-OPLS

>  <s_lp_Variant>  (1) 
DiffSBDD_90_num_sample_100-13

>  <s_m_source_file>  (1) 
generated__ligand_DiffSBDD_2026-05-06_prepared.sdf

>  <GenAI_Model>  (1) 
DiffSBDD

>  <Protein>  (1) 
GPCR_5HT2C

$$$$
DiffSBDD_44_num_sample_100
     RDKit          3D

  0  0  0  0  0  0  0  0  0  0999 V3000
M  V30 BEGIN CTAB
M  V30 COUNTS 58 59 0 0 1
M  V30 BEGIN ATOM
M  V30 1 C 37.875412 30.103621 54.699914 0
M  V30 2 O 40.269216 29.189374 57.892163 0 CHG=-1
M  V30 3 C 36.863767 32.448982 61.080267 0
M  V30 4 C 38.400347 27.995785 55.781101 0 CFG=1
M  V30 5 N 38.319581 29.091425 56.799998 0 CFG=2 CHG=1
M  V30 6 C 38.107222 34.022480 59.655859 0
M  V30 7 N 39.336645 30.792888 61.392416 0
M  V30 8 C 38.023019 32.862183 60.640690 0
M  V30 9 O 39.818935 32.945883 62.198886 0
M  V30 10 C 38.418208 28.703896 54.408554 0 CFG=1
M  V30 11 C 37.655647 27.959302 53.299802 0
M  V30 12 C 38.475511 29.947952 59.185775 0 CFG=1
M  V30 13 C 39.101879 29.802537 60.606276 0
M  V30 14 C 38.418623 30.393449 56.097045 0
M  V30 15 C 41.225355 33.137108 62.227679 0
M  V30 16 C 34.749141 33.282278 60.132483 0
M  V30 17 C 39.011421 28.933627 58.119281 0 CFG=2
M  V30 18 C 39.341906 32.222501 61.070930 0 CFG=1
M  V30 19 F 34.669624 34.816003 58.412265 0
M  V30 20 C 35.550601 34.014508 59.018709 0 CFG=1
M  V30 21 C 35.562484 32.381368 61.040639 0
M  V30 22 C 36.934067 29.801834 59.251755 0
M  V30 23 C 39.420077 28.379185 61.026150 0
M  V30 24 C 39.554526 26.972978 55.933500 0
M  V30 25 C 36.789152 34.836995 59.462452 0
M  V30 26 H 36.783547 30.095095 54.721187 0
M  V30 27 H 38.192017 30.846889 53.967815 0
M  V30 28 H 37.470563 27.438546 55.887457 0
M  V30 29 H 38.874686 34.707150 60.016889 0
M  V30 30 H 38.457456 33.639271 58.694311 0
M  V30 31 H 39.454104 28.823525 54.092304 0
M  V30 32 H 36.625701 27.769601 53.589247 0
M  V30 33 H 37.640697 28.536078 52.375985 0
M  V30 34 H 38.113570 26.996029 53.078298 0
M  V30 35 H 38.700471 30.952496 58.828790 0
M  V30 36 H 37.847596 31.173809 56.600704 0
M  V30 37 H 39.454000 30.727177 56.027646 0
M  V30 38 H 41.521902 33.535022 63.199570 0
M  V30 39 H 41.764447 32.202076 62.067146 0
M  V30 40 H 41.529281 33.858038 61.467058 0
M  V30 41 H 33.964158 32.684260 59.668278 0
M  V30 42 H 34.267833 34.019193 60.760118 0
M  V30 43 H 38.697530 27.943019 58.448884 0
M  V30 44 H 40.036959 32.387073 60.250191 0
M  V30 45 H 35.888774 33.316433 58.257167 0
M  V30 46 H 35.018129 31.665133 61.636567 0
M  V30 47 H 36.453168 30.521398 58.592541 0
M  V30 48 H 36.589983 28.822367 58.926329 0
M  V30 49 H 36.532345 29.964376 60.250552 0
M  V30 50 H 39.505792 28.293862 62.110091 0
M  V30 51 H 38.645009 27.693685 60.700741 0
M  V30 52 H 40.361306 28.055799 60.579417 0
M  V30 53 H 39.539897 26.239514 55.126842 0
M  V30 54 H 40.533515 27.453433 55.905731 0
M  V30 55 H 39.485066 26.415834 56.867383 0
M  V30 56 H 36.558473 35.395888 60.370484 0
M  V30 57 H 36.988021 35.584969 58.693233 0
M  V30 58 H 37.345387 29.069465 57.061696 0
M  V30 END ATOM
M  V30 BEGIN BOND
M  V30 1 1 5 4
M  V30 2 2 8 3
M  V30 3 1 8 6
M  V30 4 1 10 1
M  V30 5 1 10 4
M  V30 6 1 11 10
M  V30 7 2 13 7
M  V30 8 1 13 12
M  V30 9 1 14 1
M  V30 10 1 14 5
M  V30 11 1 15 9
M  V30 12 1 17 2
M  V30 13 1 17 5
M  V30 14 1 17 12
M  V30 15 1 18 7
M  V30 16 1 18 8
M  V30 17 1 18 9
M  V30 18 1 20 16
M  V30 19 1 20 19
M  V30 20 2 21 3
M  V30 21 1 21 16
M  V30 22 1 22 12
M  V30 23 1 23 13
M  V30 24 1 24 4
M  V30 25 1 25 6
M  V30 26 1 25 20
M  V30 27 1 26 1
M  V30 28 1 27 1
M  V30 29 1 4 28 CFG=3
M  V30 30 1 29 6
M  V30 31 1 30 6
M  V30 32 1 10 31 CFG=3
M  V30 33 1 32 11
M  V30 34 1 33 11
M  V30 35 1 34 11
M  V30 36 1 12 35 CFG=3
M  V30 37 1 36 14
M  V30 38 1 37 14
M  V30 39 1 38 15
M  V30 40 1 39 15
M  V30 41 1 40 15
M  V30 42 1 41 16
M  V30 43 1 42 16
M  V30 44 1 17 43 CFG=1
M  V30 45 1 18 44 CFG=3
M  V30 46 1 20 45 CFG=3
M  V30 47 1 46 21
M  V30 48 1 47 22
M  V30 49 1 48 22
M  V30 50 1 49 22
M  V30 51 1 50 23
M  V30 52 1 51 23
M  V30 53 1 52 23
M  V30 54 1 53 24
M  V30 55 1 54 24
M  V30 56 1 55 24
M  V30 57 1 56 25
M  V30 58 1 57 25
M  V30 59 1 5 58 CFG=1
M  V30 END BOND
M  V30 END CTAB
M  END
>  <i_epik_Tot_Q>  (1) 
0

>  <i_epik_Tot_abs_Q>  (1) 
2

>  <i_i_glide_confnum>  (1) 
33

>  <i_i_glide_lignum>  (1) 
115

>  <i_i_glide_posenum>  (1) 
94

>  <i_i_glide_rotatable_bonds>  (1) 
6

>  <i_lp_mmshare_version>  (1) 
72125

>  <i_m_source_file_index>  (1) 
45

>  <i_f3d_flags>  (1) 
0

>  <num_sample>  (1) 
100

>  <b_lp_Chiralities_Consistent>  (1) 
1

>  <r_epik_Charging_Adjusted_Penalty>  (1) 
0.41733257654759531

>  <r_epik_Ionization_Penalty>  (1) 
0.0069177268181324029

>  <r_epik_Ionization_Penalty_Charging>  (1) 
0.0066527375949913311

>  <r_epik_Ionization_Penalty_Neutral>  (1) 
0.00026498922314107146

>  <r_epik_State_Penalty>  (1) 
0.41067983895260396

>  <r_glide_ring_energy>  (1) 
0

>  <r_i_docking_score>  (1) 
-4.4497925049971814

>  <r_i_glide_ecoul>  (1) 
-1.0275833864815778

>  <r_i_glide_eff_state_penalty>  (1) 
0.41067983895260396

>  <r_i_glide_einternal>  (1) 
7.6039810424216938

>  <r_i_glide_emodel>  (1) 
-37.175256711879761

>  <r_i_glide_emodel_strain>  (1) 
2.2223463803294479

>  <r_i_glide_energy>  (1) 
-32.36090466334764

>  <r_i_glide_erotb>  (1) 
0.61440649929112812

>  <r_i_glide_esite>  (1) 
-0.0174374917537835

>  <r_i_glide_evdw>  (1) 
-31.333321276866062

>  <r_i_glide_gscore>  (1) 
-4.8604723439497857

>  <r_i_glide_gscore_strain>  (1) 
0

>  <r_i_glide_hbond>  (1) 
0

>  <r_i_glide_ligand_efficiency>  (1) 
-0.17799170019988725

>  <r_i_glide_ligand_efficiency_ln>  (1) 
-1.054734173205061

>  <r_i_glide_ligand_efficiency_sa>  (1) 
-0.52045088863913691

>  <r_i_glide_lipo>  (1) 
-1.5448232469878638

>  <r_i_glide_metal>  (1) 
-0

>  <r_i_glide_rewards>  (1) 
-2.1918145326837268

>  <r_lp_Energy>  (1) 
18.158839

>  <r_lp_tautomer_probability>  (1) 
0.49999399997599986

>  <s_epik_Chemistry_Notes>  (1) 
This compound has an imine and may undergo hydrolysis. This compound contains an acetal/aminal-like group ( X-CH(R)-Y where X, Y are N, S, or O) that may be acid/base labile, releasing an aldehyde.

>  <s_epik_cmdline>  (1) 
J2VwaWtfcHl0aG9uJywgJy1waHQnLCAnMS4wJywgJy1waCcsICc3LjQnLCAnLXRuJywgJzgnLCAnLW1hJywgJzUwMCcsICctaW1hZScsICc8aW5maWxlLm1hZT4nLCAnLW9tYWUnLCAnPG91dGZpbGUubWFlPic=

>  <s_epik_input>  (1) 
W0NIM11bQ0BIXTFbQ0gyXVtDSDJdTihbQ0BASF0xW0NIM10pW0NAQEhdKFtPSF0pW0NAQEhdKFtDSDNdKS9DKFtDSDNdKT1OXFtDQEBIXShPW0NIM10pQzI9Qz1bQ0hdW0NIMl1bQ0BASF0oRilbQ0gyXVtDSDJdMg==

>  <s_glide_docking_method>  (1) 
confgen

>  <s_i_glide_gridfile>  (1) 
gpcr_5ht2c_6bqh_protein_autoprepared_prepared

>  <s_lp_Force_Field>  (1) 
S-OPLS

>  <s_lp_Variant>  (1) 
DiffSBDD_44_num_sample_100-8

>  <s_m_source_file>  (1) 
generated__ligand_DiffSBDD_2026-05-06_prepared.sdf

>  <GenAI_Model>  (1) 
DiffSBDD

>  <Protein>  (1) 
GPCR_5HT2C

$$$$
DiffSBDD_66_num_sample_100
     RDKit          3D

  0  0  0  0  0  0  0  0  0  0999 V3000
M  V30 BEGIN CTAB
M  V30 COUNTS 112 116 0 0 1
M  V30 BEGIN ATOM
M  V30 1 C 37.953084 29.807609 56.236925 0
M  V30 2 C 42.269509 32.007452 63.659951 0
M  V30 3 C 35.392200 34.289010 59.096431 0
M  V30 4 C 39.067421 35.863934 67.238019 0
M  V30 5 C 43.255389 26.646723 64.600370 0
M  V30 6 C 43.067410 24.106864 63.829076 0
M  V30 7 C 37.674015 34.346857 59.938675 0
M  V30 8 S 41.284691 35.113829 63.821071 0
M  V30 9 C 41.192785 32.473211 62.767797 0 CFG=1
M  V30 10 C 38.334103 28.796046 57.236461 0
M  V30 11 C 39.067278 31.498937 58.404998 0
M  V30 12 C 38.816854 30.390264 59.131697 0
M  V30 13 C 41.612755 27.757160 66.329547 0
M  V30 14 C 36.869023 30.791680 54.639264 0
M  V30 15 C 43.107666 32.581309 67.142190 0 CFG=2
M  V30 16 C 39.415471 31.518766 56.981676 0
M  V30 17 C 38.594104 30.517904 60.625012 0
M  V30 18 O 42.012649 28.121424 68.685061 0
M  V30 19 C 38.421339 32.836635 61.853959 0 CFG=1
M  V30 20 N 37.067361 29.621392 55.298515 0 CHG=1
M  V30 21 C 36.694975 34.816542 59.053743 0
M  V30 22 C 37.357633 33.340884 60.879874 0
M  V30 23 C 42.365853 27.868075 64.998803 0
M  V30 24 C 38.005798 33.125799 54.844792 0
M  V30 25 C 38.728944 29.051652 58.511777 0
M  V30 26 C 42.529602 34.017365 66.810011 0
M  V30 27 C 42.549070 25.266753 64.668692 0 CFG=1
M  V30 28 C 42.373612 31.752697 68.232628 0
M  V30 29 C 39.331772 31.702917 61.307563 0 CFG=1
M  V30 30 C 40.388567 31.234410 62.314363 0 CFG=2
M  V30 31 C 41.268535 36.861499 67.053556 0
M  V30 32 C 41.060116 31.124462 67.807164 0
M  V30 33 N 38.396532 31.039409 56.164276 0
M  V30 34 C 36.049083 32.812373 60.923704 0
M  V30 35 C 37.743885 31.707012 55.171429 0
M  V30 36 C 44.544142 32.752542 67.683341 0
M  V30 37 O 42.617423 24.820823 66.006978 0
M  V30 38 C 43.238215 31.761959 65.851590 0
M  V30 39 C 40.991612 34.301138 66.912332 0
M  V30 40 C 40.412977 35.719154 66.507590 0
M  V30 41 C 40.332306 33.611669 63.380641 0 CFG=2
M  V30 42 N 42.144182 32.054260 64.936617 0 CHG=1
M  V30 43 C 40.887752 29.828184 67.461477 0
M  V30 44 C 40.178880 36.016951 64.979621 0
M  V30 45 C 35.068516 33.285872 60.031042 0
M  V30 46 C 39.847627 30.338324 63.447690 0
M  V30 47 C 40.667420 26.831334 66.525492 0
M  V30 48 C 41.988239 28.761990 67.426989 0 CFG=2
M  V30 49 C 39.291034 34.014665 62.343973 0
M  V30 50 H 43.193055 31.618137 63.260519 0
M  V30 51 H 34.640664 34.654192 58.413036 0
M  V30 52 H 38.398267 35.026938 67.053497 0
M  V30 53 H 38.555757 36.782051 66.943073 0
M  V30 54 H 39.193665 35.908005 68.320871 0
M  V30 55 H 43.593649 26.813062 63.576865 0
M  V30 56 H 44.161870 26.638568 65.207144 0
M  V30 57 H 43.768609 24.416330 63.053550 0
M  V30 58 H 42.267662 23.576609 63.353782 0
M  V30 59 H 43.467426 23.303091 64.440680 0
M  V30 60 H 38.667610 34.759394 59.891134 0
M  V30 61 H 38.221742 27.765654 56.931451 0
M  V30 62 H 39.087099 32.456226 58.883328 0
M  V30 63 H 36.147119 30.894117 53.853933 0
M  V30 64 H 39.695638 32.532536 56.695266 0
M  V30 65 H 40.267283 30.870768 56.790004 0
M  V30 66 H 37.522597 30.557592 60.806617 0
M  V30 67 H 38.914244 29.567560 61.040019 0
M  V30 68 H 41.146694 27.776007 68.862417 0
M  V30 69 H 37.873990 32.428429 62.698110 0
M  V30 70 H 36.946331 35.582796 58.339477 0
M  V30 71 H 42.960487 28.778177 64.970624 0
M  V30 72 H 41.613077 27.991250 64.220781 0
M  V30 73 H 37.467338 33.428863 53.948790 0
M  V30 74 H 39.068063 33.221391 54.677396 0
M  V30 75 H 37.719988 33.773799 55.671836 0
M  V30 76 H 38.905544 28.197717 59.149506 0
M  V30 77 H 43.043377 34.695263 67.453493 0
M  V30 78 H 42.905931 34.335806 65.839606 0
M  V30 79 H 41.526315 25.389237 64.321416 0
M  V30 80 H 43.023177 30.962340 68.607063 0
M  V30 81 H 42.174126 32.382601 69.100192 0
M  V30 82 H 39.983878 32.191301 60.594113 0
M  V30 83 H 41.070282 30.595433 61.750411 0
M  V30 84 H 42.268117 36.821537 66.636374 0
M  V30 85 H 41.318078 36.837600 68.140253 0
M  V30 86 H 40.849535 37.835642 66.803775 0
M  V30 87 H 40.211397 31.781473 67.792304 0
M  V30 88 H 35.798427 32.046114 61.640039 0
M  V30 89 H 45.158582 33.354198 67.018273 0
M  V30 90 H 45.053859 31.793746 67.794732 0
M  V30 91 H 44.548178 33.221344 68.669109 0
M  V30 92 H 43.525035 24.720018 66.250497 0
M  V30 93 H 44.169343 32.007037 65.349263 0
M  V30 94 H 43.252513 30.696094 66.022719 0
M  V30 95 H 40.423619 33.541901 66.382962 0
M  V30 96 H 40.746699 34.142495 67.962796 0
M  V30 97 H 39.867382 33.220960 64.275459 0
M  V30 98 H 39.896252 29.493537 67.182924 0
M  V30 99 H 39.131123 36.021413 64.681960 0
M  V30 100 H 40.304878 37.078105 64.792010 0
M  V30 101 H 34.068483 32.881481 60.060551 0
M  V30 102 H 39.067316 30.820224 64.019757 0
M  V30 103 H 40.607326 30.030366 64.159195 0
M  V30 104 H 39.467286 29.403928 63.053249 0
M  V30 105 H 40.169878 26.750353 67.453476 0
M  V30 106 H 40.385112 26.144150 65.755713 0
M  V30 107 H 42.990903 29.145111 67.274812 0
M  V30 108 H 38.667655 34.831297 62.700450 0
M  V30 109 H 39.860312 34.440169 61.518836 0
M  V30 110 H 36.566740 28.759037 55.130619 0
M  V30 111 H 41.698345 32.894457 61.895689 0
M  V30 112 H 41.279886 32.400884 65.341271 0
M  V30 END ATOM
M  V30 BEGIN BOND
M  V30 1 1 9 2
M  V30 2 1 10 1
M  V30 3 2 12 11
M  V30 4 1 16 11
M  V30 5 1 17 12
M  V30 6 2 20 1
M  V30 7 1 20 14
M  V30 8 2 21 3
M  V30 9 1 21 7
M  V30 10 2 22 7
M  V30 11 1 22 19
M  V30 12 1 23 5
M  V30 13 1 23 13
M  V30 14 2 25 10
M  V30 15 1 25 12
M  V30 16 1 26 15
M  V30 17 1 27 5
M  V30 18 1 27 6
M  V30 19 1 15 28 CFG=1
M  V30 20 1 29 17
M  V30 21 1 29 19
M  V30 22 1 30 9
M  V30 23 1 30 29
M  V30 24 1 32 28
M  V30 25 1 33 1
M  V30 26 1 33 16
M  V30 27 1 34 22
M  V30 28 2 35 14
M  V30 29 1 35 24
M  V30 30 1 35 33
M  V30 31 1 36 15
M  V30 32 1 37 27
M  V30 33 1 38 15
M  V30 34 1 39 26
M  V30 35 1 40 4
M  V30 36 1 40 31
M  V30 37 1 40 39
M  V30 38 1 41 8
M  V30 39 1 41 9
M  V30 40 2 42 2
M  V30 41 1 42 38
M  V30 42 2 43 32
M  V30 43 1 44 8
M  V30 44 1 44 40
M  V30 45 1 45 3
M  V30 46 2 45 34
M  V30 47 1 46 30
M  V30 48 2 47 13
M  V30 49 1 48 13
M  V30 50 1 48 18
M  V30 51 1 48 43
M  V30 52 1 49 19
M  V30 53 1 49 41
M  V30 54 1 50 2
M  V30 55 1 51 3
M  V30 56 1 52 4
M  V30 57 1 53 4
M  V30 58 1 54 4
M  V30 59 1 55 5
M  V30 60 1 56 5
M  V30 61 1 57 6
M  V30 62 1 58 6
M  V30 63 1 59 6
M  V30 64 1 60 7
M  V30 65 1 61 10
M  V30 66 1 62 11
M  V30 67 1 63 14
M  V30 68 1 64 16
M  V30 69 1 65 16
M  V30 70 1 66 17
M  V30 71 1 67 17
M  V30 72 1 68 18
M  V30 73 1 19 69 CFG=1
M  V30 74 1 70 21
M  V30 75 1 71 23
M  V30 76 1 72 23
M  V30 77 1 73 24
M  V30 78 1 74 24
M  V30 79 1 75 24
M  V30 80 1 76 25
M  V30 81 1 77 26
M  V30 82 1 78 26
M  V30 83 1 27 79 CFG=3
M  V30 84 1 80 28
M  V30 85 1 81 28
M  V30 86 1 29 82 CFG=3
M  V30 87 1 30 83 CFG=3
M  V30 88 1 84 31
M  V30 89 1 85 31
M  V30 90 1 86 31
M  V30 91 1 87 32
M  V30 92 1 88 34
M  V30 93 1 89 36
M  V30 94 1 90 36
M  V30 95 1 91 36
M  V30 96 1 92 37
M  V30 97 1 93 38
M  V30 98 1 94 38
M  V30 99 1 95 39
M  V30 100 1 96 39
M  V30 101 1 41 97 CFG=1
M  V30 102 1 98 43
M  V30 103 1 99 44
M  V30 104 1 100 44
M  V30 105 1 101 45
M  V30 106 1 102 46
M  V30 107 1 103 46
M  V30 108 1 104 46
M  V30 109 1 105 47
M  V30 110 1 106 47
M  V30 111 1 48 107 CFG=3
M  V30 112 1 108 49
M  V30 113 1 109 49
M  V30 114 1 110 20
M  V30 115 1 9 111 CFG=3
M  V30 116 1 112 42
M  V30 END BOND
M  V30 END CTAB
M  END
>  <i_epik_Tot_Q>  (1) 
2

>  <i_epik_Tot_abs_Q>  (1) 
2

>  <i_i_glide_confnum>  (1) 
200

>  <i_i_glide_lignum>  (1) 
167

>  <i_i_glide_posenum>  (1) 
255

>  <i_i_glide_rotatable_bonds>  (1) 
12

>  <i_lp_mmshare_version>  (1) 
72125

>  <i_m_source_file_index>  (1) 
67

>  <i_f3d_flags>  (1) 
0

>  <num_sample>  (1) 
100

>  <b_lp_Chiralities_Consistent>  (1) 
1

>  <r_epik_Charging_Adjusted_Penalty>  (1) 
0.52025287817150057

>  <r_epik_Ionization_Penalty>  (1) 
3.4472135568412994

>  <r_epik_Ionization_Penalty_Charging>  (1) 
0.14055655438482481

>  <r_epik_Ionization_Penalty_Neutral>  (1) 
3.3066570024564745

>  <r_epik_State_Penalty>  (1) 
0.37969632378667578

>  <r_glide_ring_energy>  (1) 
0

>  <r_i_docking_score>  (1) 
-4.4457209091673331

>  <r_i_glide_ecoul>  (1) 
-0.18715846644466971

>  <r_i_glide_eff_state_penalty>  (1) 
0.37969632378667578

>  <r_i_glide_einternal>  (1) 
16.128310766419776

>  <r_i_glide_emodel>  (1) 
-15.109730152360363

>  <r_i_glide_emodel_strain>  (1) 
7.4873703480575244

>  <r_i_glide_energy>  (1) 
-23.56312225967244

>  <r_i_glide_erotb>  (1) 
0.28524200512041686

>  <r_i_glide_esite>  (1) 
-0.16840989634494719

>  <r_i_glide_evdw>  (1) 
-23.375963793227772

>  <r_i_glide_gscore>  (1) 
-4.8254172329540088

>  <r_i_glide_gscore_strain>  (1) 
0.87184258701438111

>  <r_i_glide_hbond>  (1) 
-0.31197270036345381

>  <r_i_glide_ligand_efficiency>  (1) 
-0.090728998146272111

>  <r_i_glide_ligand_efficiency_ln>  (1) 
-0.9088070775789554

>  <r_i_glide_ligand_efficiency_sa>  (1) 
-0.33200514098131717

>  <r_i_glide_lipo>  (1) 
-3.8350746808376561

>  <r_i_glide_metal>  (1) 
-0

>  <r_i_glide_rewards>  (1) 
-0.47017258791466099

>  <r_lp_Energy>  (1) 
69.89814299999999

>  <s_epik_Chemistry_Notes>  (1) 
This compound has an imine and may undergo hydrolysis.

>  <s_epik_cmdline>  (1) 
J2VwaWtfcHl0aG9uJywgJy1waHQnLCAnMS4wJywgJy1waCcsICc3LjQnLCAnLXRuJywgJzgnLCAnLW1hJywgJzUwMCcsICctaW1hZScsICc8aW5maWxlLm1hZT4nLCAnLW9tYWUnLCAnPG91dGZpbGUubWFlPic=

>  <s_epik_input>  (1) 
bjFbY0hdYyhbQ0gzXSluKGMxMilbQ0gyXVtDSF09QyhbQ0hdPVtDSF0yKVtDSDJdW0NASF0oW0NAQEhdM1tDSDNdKVtDQEhdKGM0W2NIXVtjSF1bY0hdW2NIXVtjSF00KVtDSDJdW0NAQEhdKFtDQEhdMzUpU1tDSDJdQyhbQ0gzXSkoW0NIM10pW0NIMl1bQ0gyXVtDQF0oW0NIM10pKFtDSDJdXE49W0NIXVw1KVtDSDJdL1tDSF09W0NIXVxbQ0BASF0oW09IXSlDKD1bQ0gyXSlbQ0gyXVtDSDJdW0NAQEhdKFtDSDNdKVtPSF0=

>  <s_glide_docking_method>  (1) 
confgen

>  <s_i_glide_gridfile>  (1) 
gpcr_5ht2c_6bqh_protein_autoprepared_prepared

>  <s_lp_Force_Field>  (1) 
S-OPLS

>  <s_lp_Variant>  (1) 
DiffSBDD_66_num_sample_100-4

>  <s_m_source_file>  (1) 
generated__ligand_DiffSBDD_2026-05-06_prepared.sdf

>  <GenAI_Model>  (1) 
DiffSBDD

>  <Protein>  (1) 
GPCR_5HT2C

$$$$
DiffSBDD_45_num_sample_100
     RDKit          3D

  0  0  0  0  0  0  0  0  0  0999 V3000
M  V30 BEGIN CTAB
M  V30 COUNTS 30 30 0 0 1
M  V30 BEGIN ATOM
M  V30 1 O 43.432654 27.221429 57.853501 0
M  V30 2 C 42.422842 28.089846 58.319024 0
M  V30 3 C 41.144782 27.955657 57.489148 0
M  V30 4 C 40.168613 29.645401 50.967363 0
M  V30 5 C 38.514293 28.616711 52.994289 0
M  V30 6 S 37.467403 27.988783 54.253501 0
M  V30 7 C 39.497251 28.421427 50.776624 0
M  V30 8 C 40.010881 30.354065 52.174185 0
M  V30 9 C 39.398556 26.051617 55.580116 0
M  V30 10 C 38.668642 27.906872 51.790477 0
M  V30 11 C 39.184994 29.837709 53.190373 0
M  V30 12 C 39.068975 26.535597 56.999935 0
M  V30 13 S 37.923950 26.021430 54.537022 0
M  V30 14 C 40.311291 26.722461 57.878760 0
M  V30 15 H 43.067413 26.358466 57.680295 0
M  V30 16 H 42.220855 27.889556 59.371335 0
M  V30 17 H 42.806127 29.107944 58.253499 0
M  V30 18 H 40.532277 28.844564 57.644551 0
M  V30 19 H 41.402937 27.952445 56.430736 0
M  V30 20 H 40.802938 30.041379 50.187550 0
M  V30 21 H 39.615163 27.880878 49.853501 0
M  V30 22 H 40.524118 31.292789 52.319843 0
M  V30 23 H 40.133564 26.693108 55.095907 0
M  V30 24 H 39.826017 25.049009 55.614737 0
M  V30 25 H 38.149593 26.971254 51.641948 0
M  V30 26 H 39.061547 30.381384 54.115898 0
M  V30 27 H 38.404510 25.809723 57.470176 0
M  V30 28 H 38.512364 27.472614 56.964061 0
M  V30 29 H 40.919849 25.820387 57.853502 0
M  V30 30 H 39.989196 26.833968 58.914909 0
M  V30 END ATOM
M  V30 BEGIN BOND
M  V30 1 1 2 1
M  V30 2 1 3 2
M  V30 3 1 6 5
M  V30 4 2 7 4
M  V30 5 1 8 4
M  V30 6 2 10 5
M  V30 7 1 10 7
M  V30 8 1 11 5
M  V30 9 2 11 8
M  V30 10 1 12 9
M  V30 11 1 13 6
M  V30 12 1 13 9
M  V30 13 1 14 3
M  V30 14 1 14 12
M  V30 15 1 15 1
M  V30 16 1 16 2
M  V30 17 1 17 2
M  V30 18 1 18 3
M  V30 19 1 19 3
M  V30 20 1 20 4
M  V30 21 1 21 7
M  V30 22 1 22 8
M  V30 23 1 23 9
M  V30 24 1 24 9
M  V30 25 1 25 10
M  V30 26 1 26 11
M  V30 27 1 27 12
M  V30 28 1 28 12
M  V30 29 1 29 14
M  V30 30 1 30 14
M  V30 END BOND
M  V30 END CTAB
M  END
>  <i_epik_Tot_Q>  (1) 
0

>  <i_epik_Tot_abs_Q>  (1) 
0

>  <i_i_glide_confnum>  (1) 
119

>  <i_i_glide_lignum>  (1) 
124

>  <i_i_glide_posenum>  (1) 
73

>  <i_i_glide_rotatable_bonds>  (1) 
8

>  <i_lp_mmshare_version>  (1) 
72125

>  <i_m_source_file_index>  (1) 
46

>  <i_f3d_flags>  (1) 
0

>  <num_sample>  (1) 
100

>  <b_lp_Chiralities_Consistent>  (1) 
1

>  <r_epik_Charging_Adjusted_Penalty>  (1) 
0

>  <r_epik_Ionization_Penalty>  (1) 
2.3568832338971596e-07

>  <r_epik_Ionization_Penalty_Charging>  (1) 
0

>  <r_epik_Ionization_Penalty_Neutral>  (1) 
2.3568832338971596e-07

>  <r_epik_State_Penalty>  (1) 
-0

>  <r_glide_ring_energy>  (1) 
0

>  <r_i_docking_score>  (1) 
-4.4333609926325774

>  <r_i_glide_ecoul>  (1) 
-3.6403571686321565

>  <r_i_glide_eff_state_penalty>  (1) 
-0

>  <r_i_glide_einternal>  (1) 
3.2141519837006021

>  <r_i_glide_emodel>  (1) 
-40.232890302851835

>  <r_i_glide_emodel_strain>  (1) 
0.3243307109559348

>  <r_i_glide_energy>  (1) 
-32.228897219753122

>  <r_i_glide_erotb>  (1) 
3.9203098885211913

>  <r_i_glide_esite>  (1) 
0

>  <r_i_glide_evdw>  (1) 
-28.588540051120969

>  <r_i_glide_gscore>  (1) 
-4.4333609926325774

>  <r_i_glide_gscore_strain>  (1) 
0

>  <r_i_glide_hbond>  (1) 
-0.32000000000000001

>  <r_i_glide_ligand_efficiency>  (1) 
-0.31666864233089836

>  <r_i_glide_ligand_efficiency_ln>  (1) 
-1.2182718190651032

>  <r_i_glide_ligand_efficiency_sa>  (1) 
-0.76321647862068764

>  <r_i_glide_lipo>  (1) 
-3.6827270099616993

>  <r_i_glide_metal>  (1) 
-0

>  <r_i_glide_rewards>  (1) 
-2.3754632933411979

>  <r_lp_Energy>  (1) 
5.2512449999999999

>  <r_lp_tautomer_probability>  (1) 
1

>  <s_epik_cmdline>  (1) 
J2VwaWtfcHl0aG9uJywgJy1waHQnLCAnMS4wJywgJy1waCcsICc3LjQnLCAnLXRuJywgJzgnLCAnLW1hJywgJzUwMCcsICctaW1hZScsICc8aW5maWxlLm1hZT4nLCAnLW9tYWUnLCAnPG91dGZpbGUubWFlPic=

>  <s_epik_input>  (1) 
W09IXVtDSDJdW0NIMl1bQ0gyXVtDSDJdW0NIMl1TU2MxW2NIXVtjSF1bY0hdW2NIXVtjSF0x

>  <s_glide_docking_method>  (1) 
confgen

>  <s_i_glide_gridfile>  (1) 
gpcr_5ht2c_6bqh_protein_autoprepared_prepared

>  <s_lp_Force_Field>  (1) 
S-OPLS

>  <s_lp_Variant>  (1) 
DiffSBDD_45_num_sample_100-1

>  <s_m_source_file>  (1) 
generated__ligand_DiffSBDD_2026-05-06_prepared.sdf

>  <GenAI_Model>  (1) 
DiffSBDD

>  <Protein>  (1) 
GPCR_5HT2C

$$$$
DiffSBDD_98_num_sample_100
     RDKit          3D

  0  0  0  0  0  0  0  0  0  0999 V3000
M  V30 BEGIN CTAB
M  V30 COUNTS 63 64 0 0 1
M  V30 BEGIN ATOM
M  V30 1 C 35.435412 31.823409 60.103097 0
M  V30 2 C 37.392596 27.098921 53.889943 0
M  V30 3 C 38.155271 35.146527 61.220501 0
M  V30 4 O 39.425672 33.134021 55.720480 0
M  V30 5 C 39.284344 31.807967 56.165724 0
M  V30 6 O 36.725059 35.039110 61.373048 0
M  V30 7 C 38.643677 33.858000 60.506696 0 CFG=2
M  V30 8 C 39.091336 27.765762 52.171473 0
M  V30 9 N 38.486257 29.540253 55.582502 0
M  V30 10 C 38.267388 33.929310 55.822837 0
M  V30 11 C 36.282543 34.061502 60.447687 0 CFG=2
M  V30 12 C 39.183160 28.810308 54.510555 0
M  V30 13 C 36.140785 34.733143 59.054723 0
M  V30 14 C 38.272510 28.250975 53.390544 0 CFG=2
M  V30 15 O 38.450162 27.767361 57.028256 0
M  V30 16 C 35.061241 33.190855 60.742048 0
M  V30 17 C 37.298336 29.416375 59.028436 0
M  V30 18 C 37.381071 33.035457 60.637200 0 CFG=1
M  V30 19 C 38.262878 30.978958 55.349301 0
M  V30 20 C 39.881989 33.236678 61.169708 0
M  V30 21 N 37.601509 29.781300 57.650601 0
M  V30 22 C 37.708831 30.560705 59.976396 0
M  V30 23 C 39.745226 28.883855 51.345397 0
M  V30 24 C 36.947161 31.879418 59.742354 0 CFG=1
M  V30 25 C 38.191358 28.944459 56.773919 0
M  V30 26 H 34.837255 31.622690 59.213177 0
M  V30 27 H 35.228784 31.026039 60.817363 0
M  V30 28 H 37.991596 26.289450 54.308343 0
M  V30 29 H 36.696745 27.432036 54.653319 0
M  V30 30 H 36.797996 26.685874 53.076780 0
M  V30 31 H 38.412384 36.032020 60.638511 0
M  V30 32 H 38.602936 35.264678 62.208132 0
M  V30 33 H 39.065440 31.823597 57.232864 0
M  V30 34 H 40.267396 31.351265 56.057670 0
M  V30 35 H 38.853358 34.054604 59.455010 0
M  V30 36 H 39.852593 27.055503 52.496216 0
M  V30 37 H 38.437376 27.209189 51.498293 0
M  V30 38 H 38.526716 34.918894 55.456888 0
M  V30 39 H 37.467528 33.552682 55.189913 0
M  V30 40 H 37.919064 34.005356 56.851935 0
M  V30 41 H 39.882410 29.518966 54.073973 0
M  V30 42 H 39.805424 28.012226 54.919649 0
M  V30 43 H 35.856066 34.023666 58.277559 0
M  V30 44 H 35.361378 35.493567 59.078251 0
M  V30 45 H 37.048839 35.234117 58.722134 0
M  V30 46 H 37.608968 29.046935 53.049997 0
M  V30 47 H 34.137464 33.605150 60.336835 0
M  V30 48 H 34.927087 33.079458 61.818600 0
M  V30 49 H 36.229248 29.221081 59.115475 0
M  V30 50 H 37.842442 28.516997 59.325705 0
M  V30 51 H 37.345166 32.676969 61.670299 0
M  V30 52 H 38.394716 31.200089 54.289277 0
M  V30 53 H 37.231151 31.259636 55.565636 0
M  V30 54 H 39.688739 32.972374 62.209765 0
M  V30 55 H 40.206666 32.335145 60.653525 0
M  V30 56 H 40.714758 33.938899 61.158618 0
M  V30 57 H 37.388413 30.726446 57.358609 0
M  V30 58 H 37.583579 30.250614 61.012295 0
M  V30 59 H 38.776565 30.739519 59.850977 0
M  V30 60 H 40.238959 28.467971 50.466711 0
M  V30 61 H 39.004700 29.602503 50.994820 0
M  V30 62 H 40.500170 29.428710 51.910016 0
M  V30 63 H 37.066455 32.178426 58.700897 0
M  V30 END ATOM
M  V30 BEGIN BOND
M  V30 1 1 5 4
M  V30 2 1 6 3
M  V30 3 1 7 3
M  V30 4 1 10 4
M  V30 5 1 11 6
M  V30 6 1 12 9
M  V30 7 1 11 13 CFG=3
M  V30 8 1 14 2
M  V30 9 1 14 8
M  V30 10 1 14 12
M  V30 11 1 16 1
M  V30 12 1 16 11
M  V30 13 1 18 7
M  V30 14 1 18 11
M  V30 15 1 19 5
M  V30 16 1 19 9
M  V30 17 1 20 7
M  V30 18 1 21 17
M  V30 19 1 22 17
M  V30 20 1 23 8
M  V30 21 1 24 1
M  V30 22 1 24 18
M  V30 23 1 24 22
M  V30 24 1 25 9
M  V30 25 2 25 15
M  V30 26 1 25 21
M  V30 27 1 26 1
M  V30 28 1 27 1
M  V30 29 1 28 2
M  V30 30 1 29 2
M  V30 31 1 30 2
M  V30 32 1 31 3
M  V30 33 1 32 3
M  V30 34 1 33 5
M  V30 35 1 34 5
M  V30 36 1 7 35 CFG=3
M  V30 37 1 36 8
M  V30 38 1 37 8
M  V30 39 1 38 10
M  V30 40 1 39 10
M  V30 41 1 40 10
M  V30 42 1 41 12
M  V30 43 1 42 12
M  V30 44 1 43 13
M  V30 45 1 44 13
M  V30 46 1 45 13
M  V30 47 1 14 46 CFG=3
M  V30 48 1 47 16
M  V30 49 1 48 16
M  V30 50 1 49 17
M  V30 51 1 50 17
M  V30 52 1 18 51 CFG=1
M  V30 53 1 52 19
M  V30 54 1 53 19
M  V30 55 1 54 20
M  V30 56 1 55 20
M  V30 57 1 56 20
M  V30 58 1 57 21
M  V30 59 1 58 22
M  V30 60 1 59 22
M  V30 61 1 60 23
M  V30 62 1 61 23
M  V30 63 1 62 23
M  V30 64 1 24 63 CFG=3
M  V30 END BOND
M  V30 END CTAB
M  END
>  <i_epik_Tot_Q>  (1) 
0

>  <i_epik_Tot_abs_Q>  (1) 
0

>  <i_i_glide_confnum>  (1) 
699

>  <i_i_glide_lignum>  (1) 
270

>  <i_i_glide_posenum>  (1) 
345

>  <i_i_glide_rotatable_bonds>  (1) 
11

>  <i_lp_mmshare_version>  (1) 
72125

>  <i_m_source_file_index>  (1) 
99

>  <i_f3d_flags>  (1) 
0

>  <num_sample>  (1) 
100

>  <b_lp_Chiralities_Consistent>  (1) 
1

>  <r_epik_Charging_Adjusted_Penalty>  (1) 
0

>  <r_epik_Ionization_Penalty>  (1) 
2.6949826091905801e-05

>  <r_epik_Ionization_Penalty_Charging>  (1) 
0

>  <r_epik_Ionization_Penalty_Neutral>  (1) 
2.6949826091905801e-05

>  <r_epik_State_Penalty>  (1) 
-0

>  <r_glide_ring_energy>  (1) 
0

>  <r_i_docking_score>  (1) 
-4.432927201782447

>  <r_i_glide_ecoul>  (1) 
-1.8144256063316617

>  <r_i_glide_eff_state_penalty>  (1) 
-0

>  <r_i_glide_einternal>  (1) 
8.2203397550098849

>  <r_i_glide_emodel>  (1) 
-43.785999871647114

>  <r_i_glide_emodel_strain>  (1) 
0.061659314696541401

>  <r_i_glide_energy>  (1) 
-37.277039331389304

>  <r_i_glide_erotb>  (1) 
1.3682856871848257

>  <r_i_glide_esite>  (1) 
-0.07594436058882803

>  <r_i_glide_evdw>  (1) 
-35.462613725057643

>  <r_i_glide_gscore>  (1) 
-4.432927201782447

>  <r_i_glide_gscore_strain>  (1) 
0

>  <r_i_glide_hbond>  (1) 
-0.015603131533483803

>  <r_i_glide_ligand_efficiency>  (1) 
-0.17731708807129787

>  <r_i_glide_ligand_efficiency_ln>  (1) 
-1.0507365909308157

>  <r_i_glide_ligand_efficiency_sa>  (1) 
-0.51847831080872808

>  <r_i_glide_lipo>  (1) 
-2.1561450536115259

>  <r_i_glide_metal>  (1) 
-0

>  <r_i_glide_rewards>  (1) 
-1.5082258160308035

>  <r_lp_Energy>  (1) 
41.975189

>  <r_lp_tautomer_probability>  (1) 
1

>  <s_epik_cmdline>  (1) 
J2VwaWtfcHl0aG9uJywgJy1waHQnLCAnMS4wJywgJy1waCcsICc3LjQnLCAnLXRuJywgJzgnLCAnLW1hJywgJzUwMCcsICctaW1hZScsICc8aW5maWxlLm1hZT4nLCAnLW9tYWUnLCAnPG91dGZpbGUubWFlPic=

>  <s_epik_input>  (1) 
TzFbQ0gyXVtDQEBIXShbQ0gzXSlbQ0BASF0oW0NAXTEyW0NIM10pW0NASF0oW0NIMl1bQ0gyXTIpW0NIMl1bQ0gyXVtOSF1DKD1PKU4oW0NIMl1bQ0BIXShbQ0gzXSlbQ0gyXVtDSDNdKVtDSDJdW0NIMl1PW0NIM10=

>  <s_glide_docking_method>  (1) 
confgen

>  <s_i_glide_gridfile>  (1) 
gpcr_5ht2c_6bqh_protein_autoprepared_prepared

>  <s_lp_Force_Field>  (1) 
S-OPLS

>  <s_lp_Variant>  (1) 
DiffSBDD_98_num_sample_100-1

>  <s_m_source_file>  (1) 
generated__ligand_DiffSBDD_2026-05-06_prepared.sdf

>  <GenAI_Model>  (1) 
DiffSBDD

>  <Protein>  (1) 
GPCR_5HT2C

$$$$
DiffSBDD_82_num_sample_100
     RDKit          3D

  0  0  0  0  0  0  0  0  0  0999 V3000
M  V30 BEGIN CTAB
M  V30 COUNTS 57 59 0 0 1
M  V30 BEGIN ATOM
M  V30 1 C 37.512356 29.806173 59.103952 0 CFG=1
M  V30 2 N 38.580167 27.498354 56.106488 0
M  V30 3 F 36.528412 30.027709 58.253238 0
M  V30 4 C 37.567269 32.406337 59.357671 0
M  V30 5 N 38.491355 28.991229 58.438063 0
M  V30 6 C 40.269693 25.682992 55.727885 0
M  V30 7 C 36.300901 32.763582 61.594063 0
M  V30 8 C 39.274949 34.122371 61.853014 0
M  V30 9 N 40.257811 28.787836 60.112025 0
M  V30 10 O 36.980151 36.034117 62.253020 0
M  V30 11 C 38.778358 27.735540 53.584751 0 CFG=2
M  V30 12 C 38.390637 28.817266 52.596296 0
M  V30 13 C 37.739258 23.626427 57.807147 0
M  V30 14 S 40.667563 35.174654 61.855210 0 CHG=-1
M  V30 15 C 37.115659 33.401999 60.455943 0 CFG=1
M  V30 16 C 41.053168 30.275157 61.928431 0
M  V30 17 C 39.622626 28.491673 58.857380 0
M  V30 18 C 39.129005 28.229012 54.980259 0 CFG=1
M  V30 19 C 38.149325 28.972286 54.087627 0 CFG=2
M  V30 20 C 38.132403 31.029375 59.719834 0
M  V30 21 O 39.097365 33.129661 62.549460 0
M  V30 22 C 39.452441 26.520191 56.722288 0 CFG=2
M  V30 23 C 39.135451 30.868370 60.517598 0
M  V30 24 O 37.388899 36.670799 60.156257 0 CHG=-1
M  V30 25 O 38.721184 25.628663 57.496414 0
M  V30 26 C 37.811979 24.792121 56.862835 0 CFG=2
M  V30 27 S 40.640565 27.322349 57.889549 0
M  V30 28 C 38.172568 34.507992 60.833834 0 CFG=1
M  V30 29 O 36.553932 25.385475 56.720276 0
M  V30 30 C 37.452149 35.856412 61.107082 0
M  V30 31 C 40.030289 29.980814 60.847028 0
M  V30 32 H 37.035129 29.221334 59.884433 0
M  V30 33 H 38.285773 28.163297 56.821561 0
M  V30 34 H 36.739341 32.274815 58.670780 0
M  V30 35 H 38.323368 32.879707 58.730153 0
M  V30 36 H 39.675455 25.335361 54.884543 0
M  V30 37 H 40.667225 24.820504 56.252863 0
M  V30 38 H 41.067161 26.284864 55.314397 0
M  V30 39 H 36.888808 32.069053 62.193217 0
M  V30 40 H 35.448688 32.208133 61.198939 0
M  V30 41 H 35.913731 33.543092 62.253011 0
M  V30 42 H 41.070117 28.260820 60.399450 0
M  V30 43 H 38.172314 26.830394 53.541709 0
M  V30 44 H 39.193822 29.403723 52.155714 0
M  V30 45 H 37.538567 28.620408 51.947718 0
M  V30 46 H 37.467122 24.010919 58.784443 0
M  V30 47 H 38.743801 23.215353 57.853652 0
M  V30 48 H 37.042027 22.872979 57.452813 0
M  V30 49 H 36.348166 33.969747 59.922337 0
M  V30 50 H 41.602116 31.193382 61.708698 0
M  V30 51 H 41.743102 29.447497 62.090562 0
M  V30 52 H 40.531511 30.433877 62.874063 0
M  V30 53 H 40.097674 28.713234 55.094361 0
M  V30 54 H 37.105836 28.935212 54.395021 0
M  V30 55 H 38.103473 24.429990 55.880697 0
M  V30 56 H 38.712337 34.704069 59.907707 0
M  V30 57 H 36.680708 26.178023 56.217310 0
M  V30 END ATOM
M  V30 BEGIN BOND
M  V30 1 1 3 1
M  V30 2 1 5 1
M  V30 3 1 12 11
M  V30 4 1 14 8
M  V30 5 1 15 4
M  V30 6 1 15 7
M  V30 7 2 17 5
M  V30 8 1 17 9
M  V30 9 1 18 2
M  V30 10 1 18 11
M  V30 11 1 19 11
M  V30 12 1 19 12
M  V30 13 1 19 18
M  V30 14 1 20 1
M  V30 15 1 20 4
M  V30 16 2 21 8
M  V30 17 1 22 2
M  V30 18 1 22 6
M  V30 19 2 23 20
M  V30 20 1 22 25 CFG=1
M  V30 21 1 26 13
M  V30 22 1 26 25
M  V30 23 1 27 17
M  V30 24 1 27 22
M  V30 25 1 28 8
M  V30 26 1 28 15
M  V30 27 1 29 26
M  V30 28 2 30 10
M  V30 29 1 30 24
M  V30 30 1 30 28
M  V30 31 1 31 9
M  V30 32 1 31 16
M  V30 33 2 31 23
M  V30 34 1 1 32 CFG=1
M  V30 35 1 33 2
M  V30 36 1 34 4
M  V30 37 1 35 4
M  V30 38 1 36 6
M  V30 39 1 37 6
M  V30 40 1 38 6
M  V30 41 1 39 7
M  V30 42 1 40 7
M  V30 43 1 41 7
M  V30 44 1 42 9
M  V30 45 1 11 43 CFG=3
M  V30 46 1 44 12
M  V30 47 1 45 12
M  V30 48 1 46 13
M  V30 49 1 47 13
M  V30 50 1 48 13
M  V30 51 1 15 49 CFG=3
M  V30 52 1 50 16
M  V30 53 1 51 16
M  V30 54 1 52 16
M  V30 55 1 18 53 CFG=1
M  V30 56 1 19 54 CFG=1
M  V30 57 1 26 55 CFG=3
M  V30 58 1 28 56 CFG=3
M  V30 59 1 57 29
M  V30 END BOND
M  V30 END CTAB
M  END
>  <i_epik_Tot_Q>  (1) 
-2

>  <i_epik_Tot_abs_Q>  (1) 
2

>  <i_i_glide_confnum>  (1) 
943

>  <i_i_glide_lignum>  (1) 
215

>  <i_i_glide_posenum>  (1) 
8

>  <i_i_glide_rotatable_bonds>  (1) 
12

>  <i_lp_mmshare_version>  (1) 
72125

>  <i_m_source_file_index>  (1) 
83

>  <i_f3d_flags>  (1) 
0

>  <num_sample>  (1) 
100

>  <b_lp_Chiralities_Consistent>  (1) 
1

>  <r_epik_Charging_Adjusted_Penalty>  (1) 
0.00013622687110547772

>  <r_epik_Ionization_Penalty>  (1) 
0.0015792256383976989

>  <r_epik_Ionization_Penalty_Charging>  (1) 
0.00013622687110547772

>  <r_epik_Ionization_Penalty_Neutral>  (1) 
0.0014429987672922213

>  <r_epik_State_Penalty>  (1) 
-0

>  <r_glide_ring_energy>  (1) 
0

>  <r_i_docking_score>  (1) 
-4.4325202712856191

>  <r_i_glide_ecoul>  (1) 
0.38681740823378341

>  <r_i_glide_eff_state_penalty>  (1) 
-0

>  <r_i_glide_einternal>  (1) 
13.054075058644553

>  <r_i_glide_emodel>  (1) 
-35.828502764044877

>  <r_i_glide_emodel_strain>  (1) 
8.313846039048812

>  <r_i_glide_energy>  (1) 
-38.420866023881864

>  <r_i_glide_erotb>  (1) 
0.72716710484865599

>  <r_i_glide_esite>  (1) 
-0.10000000000000001

>  <r_i_glide_evdw>  (1) 
-38.807683432115645

>  <r_i_glide_gscore>  (1) 
-4.4325202712856191

>  <r_i_glide_gscore_strain>  (1) 
1.078461509762203

>  <r_i_glide_hbond>  (1) 
0

>  <r_i_glide_ligand_efficiency>  (1) 
-0.14298452488018126

>  <r_i_glide_ligand_efficiency_ln>  (1) 
-0.99966916160740305

>  <r_i_glide_ligand_efficiency_sa>  (1) 
-0.44916882004997727

>  <r_i_glide_lipo>  (1) 
-2.1220987345203879

>  <r_i_glide_metal>  (1) 
-0

>  <r_i_glide_rewards>  (1) 
-2.1336885910053747

>  <r_lp_Energy>  (1) 
24.444061999999999

>  <r_lp_tautomer_probability>  (1) 
1

>  <s_epik_Chemistry_Notes>  (1) 
This compound has an imine and may undergo hydrolysis. This compound contains an acetal/aminal-like group ( X-CH(R)-Y where X, Y are N, S, or O) that may be acid/base labile, releasing an aldehyde.

>  <s_epik_cmdline>  (1) 
J2VwaWtfcHl0aG9uJywgJy1waHQnLCAnMS4wJywgJy1waCcsICc3LjQnLCAnLXRuJywgJzgnLCAnLW1hJywgJzUwMCcsICctaW1hZScsICc8aW5maWxlLm1hZT4nLCAnLW9tYWUnLCAnPG91dGZpbGUubWFlPic=

>  <s_epik_input>  (1) 
W0NASF0xMltDQEhdKFtDSDJdMSlbQ0BIXTJbTkhdW0NAXShbQ0gzXSkoT1tDQEBIXShbQ0gzXSlbT0hdKVNDKD1OW0NAQEhdM0YpW05IXUMoW0NIM10pPUM9QzNbQ0gyXVtDQEBIXShbQ0gzXSlbQ0BIXShDKD1PKVtTSF0pQyg9TylbT0hd

>  <s_glide_docking_method>  (1) 
confgen

>  <s_i_glide_gridfile>  (1) 
gpcr_5ht2c_6bqh_protein_autoprepared_prepared

>  <s_lp_Force_Field>  (1) 
S-OPLS

>  <s_lp_Variant>  (1) 
DiffSBDD_82_num_sample_100-1

>  <s_m_source_file>  (1) 
generated__ligand_DiffSBDD_2026-05-06_prepared.sdf

>  <GenAI_Model>  (1) 
DiffSBDD

>  <Protein>  (1) 
GPCR_5HT2C

$$$$
DiffSBDD_79_num_sample_100
     RDKit          3D

  0  0  0  0  0  0  0  0  0  0999 V3000
M  V30 BEGIN CTAB
M  V30 COUNTS 85 87 0 0 1
M  V30 BEGIN ATOM
M  V30 1 C 39.467223 34.338537 62.969560 0
M  V30 2 C 37.969749 32.391841 58.140806 0
M  V30 3 C 42.363092 29.402959 66.781584 0
M  V30 4 C 38.454219 26.664013 53.895515 0
M  V30 5 C 39.924162 35.551632 60.930539 0
M  V30 6 C 44.465282 28.136953 66.519729 0
M  V30 7 C 39.122887 34.375592 61.476666 0
M  V30 8 C 40.403034 30.223395 62.726711 0
M  V30 9 F 45.096011 28.617389 67.591569 0
M  V30 10 C 38.359034 26.740840 55.431008 0
M  V30 11 C 38.914004 33.248617 58.999186 0
M  V30 12 C 42.724458 30.295602 63.847524 0
M  V30 13 F 43.866559 26.998965 66.873483 0
M  V30 14 C 43.438387 29.147003 66.020595 0
M  V30 15 C 40.647507 30.286301 65.182926 0
M  V30 16 C 38.121425 30.359115 56.725171 0
M  V30 17 C 39.174173 27.880136 51.882594 0
M  V30 18 N 38.667392 27.919181 53.144906 0
M  V30 19 C 37.680827 34.078804 61.060321 0
M  V30 20 C 41.257443 30.271048 63.987264 0
M  V30 21 C 38.269974 29.182703 53.798745 0
M  V30 22 C 38.176158 30.265747 59.403023 0 CFG=2
M  V30 23 C 38.814450 33.169573 60.534275 0
M  V30 24 C 36.947230 35.159175 60.252560 0
M  V30 25 O 39.257823 30.654815 60.165485 0
M  V30 26 O 39.467316 26.829550 51.321927 0
M  V30 27 C 38.337359 28.760116 59.134896 0
M  V30 28 C 36.614360 33.354127 61.853535 0
M  V30 29 C 39.378154 29.205405 51.153611 0
M  V30 30 N 38.467061 31.011356 58.018644 0 CFG=2 CHG=1
M  V30 31 F 45.372327 27.851560 65.584435 0
M  V30 32 C 43.663990 29.811242 64.720245 0
M  V30 33 C 39.422913 29.868994 54.558330 0
M  V30 34 C 41.327612 30.419849 66.488970 0
M  V30 35 C 38.946519 30.943017 55.552705 0
M  V30 36 C 40.448595 31.509521 61.868417 0
M  V30 37 C 39.117139 31.723408 61.092453 0 CFG=1
M  V30 38 H 39.078710 33.434375 63.436760 0
M  V30 39 H 39.072930 35.219443 63.498754 0
M  V30 40 H 40.546100 34.358147 63.126749 0
M  V30 41 H 37.904717 32.845364 57.150259 0
M  V30 42 H 36.955917 32.410618 58.541525 0
M  V30 43 H 42.254613 28.881299 67.722607 0
M  V30 44 H 37.573970 26.159145 53.494411 0
M  V30 45 H 39.307748 26.020930 53.691273 0
M  V30 46 H 39.535849 36.491323 61.326138 0
M  V30 47 H 40.976138 35.472543 61.209329 0
M  V30 48 H 39.890815 35.600890 59.853577 0
M  V30 49 H 40.705712 29.362949 62.128744 0
M  V30 50 H 39.375885 30.014453 63.025458 0
M  V30 51 H 38.305081 25.734741 55.846214 0
M  V30 52 H 39.239287 27.208300 55.870669 0
M  V30 53 H 37.467517 27.259445 55.774149 0
M  V30 54 H 39.930932 33.221481 58.668087 0
M  V30 55 H 38.609091 34.231092 58.710874 0
M  V30 56 H 43.103860 30.684402 62.917226 0
M  V30 57 H 39.566754 30.261419 65.220445 0
M  V30 58 H 38.359595 29.302056 56.751143 0
M  V30 59 H 37.056548 30.418953 56.525692 0
M  V30 60 H 37.422766 28.994643 54.455277 0
M  V30 61 H 37.868979 29.890765 53.082005 0
M  V30 62 H 37.205793 30.507650 59.840809 0
M  V30 63 H 36.312272 35.760094 60.903187 0
M  V30 64 H 37.623766 35.859854 59.766522 0
M  V30 65 H 36.315389 34.708152 59.486611 0
M  V30 66 H 37.516436 28.387501 58.522994 0
M  V30 67 H 39.299201 28.539823 58.668926 0
M  V30 68 H 38.298650 28.226020 60.084855 0
M  V30 69 H 35.897189 34.048925 62.293706 0
M  V30 70 H 36.060527 32.674449 61.205501 0
M  V30 71 H 37.063926 32.778928 62.653541 0
M  V30 72 H 39.963339 29.925125 51.721922 0
M  V30 73 H 39.896647 29.032328 50.209344 0
M  V30 74 H 38.408758 29.621686 50.915846 0
M  V30 75 H 44.690564 29.868226 64.387029 0
M  V30 76 H 40.112367 30.330469 53.853144 0
M  V30 77 H 40.018465 29.132644 55.093627 0
M  V30 78 H 41.769042 31.414716 66.560850 0
M  V30 79 H 40.569291 30.363556 67.270796 0
M  V30 80 H 38.374834 31.712700 55.031416 0
M  V30 81 H 39.837463 31.445741 55.934781 0
M  V30 82 H 41.286464 31.465327 61.171548 0
M  V30 83 H 40.708815 32.317794 62.529440 0
M  V30 84 H 38.307805 31.426585 61.749399 0
M  V30 85 H 39.469383 31.094066 57.953081 0
M  V30 END ATOM
M  V30 BEGIN BOND
M  V30 1 1 7 1
M  V30 2 1 7 5
M  V30 3 1 9 6
M  V30 4 1 10 4
M  V30 5 1 11 2
M  V30 6 1 13 6
M  V30 7 2 14 3
M  V30 8 1 14 6
M  V30 9 1 18 4
M  V30 10 1 18 17
M  V30 11 1 19 7
M  V30 12 1 20 8
M  V30 13 1 20 12
M  V30 14 2 20 15
M  V30 15 1 21 18
M  V30 16 1 23 7
M  V30 17 1 23 11
M  V30 18 1 23 19
M  V30 19 1 24 19
M  V30 20 1 25 22
M  V30 21 2 26 17
M  V30 22 1 27 22
M  V30 23 1 28 19
M  V30 24 1 29 17
M  V30 25 1 30 2
M  V30 26 1 30 16
M  V30 27 1 30 22
M  V30 28 1 31 6
M  V30 29 2 32 12
M  V30 30 1 32 14
M  V30 31 1 33 21
M  V30 32 1 34 3
M  V30 33 1 34 15
M  V30 34 1 35 16
M  V30 35 1 35 33
M  V30 36 1 36 8
M  V30 37 1 37 23
M  V30 38 1 37 25
M  V30 39 1 37 36
M  V30 40 1 38 1
M  V30 41 1 39 1
M  V30 42 1 40 1
M  V30 43 1 41 2
M  V30 44 1 42 2
M  V30 45 1 43 3
M  V30 46 1 44 4
M  V30 47 1 45 4
M  V30 48 1 46 5
M  V30 49 1 47 5
M  V30 50 1 48 5
M  V30 51 1 49 8
M  V30 52 1 50 8
M  V30 53 1 51 10
M  V30 54 1 52 10
M  V30 55 1 53 10
M  V30 56 1 54 11
M  V30 57 1 55 11
M  V30 58 1 56 12
M  V30 59 1 57 15
M  V30 60 1 58 16
M  V30 61 1 59 16
M  V30 62 1 60 21
M  V30 63 1 61 21
M  V30 64 1 22 62 CFG=1
M  V30 65 1 63 24
M  V30 66 1 64 24
M  V30 67 1 65 24
M  V30 68 1 66 27
M  V30 69 1 67 27
M  V30 70 1 68 27
M  V30 71 1 69 28
M  V30 72 1 70 28
M  V30 73 1 71 28
M  V30 74 1 72 29
M  V30 75 1 73 29
M  V30 76 1 74 29
M  V30 77 1 75 32
M  V30 78 1 76 33
M  V30 79 1 77 33
M  V30 80 1 78 34
M  V30 81 1 79 34
M  V30 82 1 80 35
M  V30 83 1 81 35
M  V30 84 1 82 36
M  V30 85 1 83 36
M  V30 86 1 37 84 CFG=1
M  V30 87 1 30 85 CFG=3
M  V30 END BOND
M  V30 END CTAB
M  END
>  <i_epik_Tot_Q>  (1) 
1

>  <i_epik_Tot_abs_Q>  (1) 
1

>  <i_i_glide_confnum>  (1) 
364

>  <i_i_glide_lignum>  (1) 
202

>  <i_i_glide_posenum>  (1) 
197

>  <i_i_glide_rotatable_bonds>  (1) 
11

>  <i_lp_mmshare_version>  (1) 
72125

>  <i_m_source_file_index>  (1) 
80

>  <i_f3d_flags>  (1) 
0

>  <num_sample>  (1) 
100

>  <b_lp_Chiralities_Consistent>  (1) 
1

>  <r_epik_Charging_Adjusted_Penalty>  (1) 
1.4563538393833728

>  <r_epik_Ionization_Penalty>  (1) 
0.72817750760685918

>  <r_epik_Ionization_Penalty_Charging>  (1) 
0.72817691969168641

>  <r_epik_Ionization_Penalty_Neutral>  (1) 
5.8791517278497126e-07

>  <r_epik_State_Penalty>  (1) 
0.72817691969168641

>  <r_glide_ring_energy>  (1) 
0

>  <r_i_docking_score>  (1) 
-4.4317346047857145

>  <r_i_glide_ecoul>  (1) 
-0.60647642575929339

>  <r_i_glide_eff_state_penalty>  (1) 
0.72817691969168641

>  <r_i_glide_einternal>  (1) 
10.844599729412678

>  <r_i_glide_emodel>  (1) 
-30.923542125223641

>  <r_i_glide_emodel_strain>  (1) 
7.279645314917758

>  <r_i_glide_energy>  (1) 
-38.317843286595277

>  <r_i_glide_erotb>  (1) 
0.59581955881290138

>  <r_i_glide_esite>  (1) 
-0.064275131376740555

>  <r_i_glide_evdw>  (1) 
-37.711366860835987

>  <r_i_glide_gscore>  (1) 
-5.1599115244774012

>  <r_i_glide_gscore_strain>  (1) 
0.8199113287294395

>  <r_i_glide_hbond>  (1) 
0

>  <r_i_glide_ligand_efficiency>  (1) 
-0.11977661094015445

>  <r_i_glide_ligand_efficiency_ln>  (1) 
-0.9611393411782182

>  <r_i_glide_ligand_efficiency_sa>  (1) 
-0.39912224029087845

>  <r_i_glide_lipo>  (1) 
-3.3084479723001885

>  <r_i_glide_metal>  (1) 
-0

>  <r_i_glide_rewards>  (1) 
-1.2263795014371204

>  <r_lp_Energy>  (1) 
65.383792999999997

>  <s_epik_Chemistry_Notes>  (1) 
This compound contains an acetal/aminal-like group ( X-CH(R)-Y where X, Y are N, S, or O) that may be acid/base labile, releasing an aldehyde.

>  <s_epik_cmdline>  (1) 
J2VwaWtfcHl0aG9uJywgJy1waHQnLCAnMS4wJywgJy1waCcsICc3LjQnLCAnLXRuJywgJzgnLCAnLW1hJywgJzUwMCcsICctaW1hZScsICc8aW5maWxlLm1hZT4nLCAnLW9tYWUnLCAnPG91dGZpbGUubWFlPic=

>  <s_epik_input>  (1) 
W0NIM11bQ0gyXU4oQyg9TylbQ0gzXSlbQ0gyXVtDSDJdW0NIMl1bQ0gyXU4oW0NIMl1bQ0gyXUMxMkMoW0NIM10pKFtDSDNdKUMxKFtDSDNdKVtDSDNdKVtDQEBIXShbQ0gzXSlPW0NASF0yW0NIMl1bQ0gyXUMoW0NIXT1bQ0hdMyk9W0NIXVtDSDJdW0NIXT1DM0MoRikoRilG

>  <s_glide_docking_method>  (1) 
confgen

>  <s_i_glide_gridfile>  (1) 
gpcr_5ht2c_6bqh_protein_autoprepared_prepared

>  <s_lp_Force_Field>  (1) 
S-OPLS

>  <s_lp_Variant>  (1) 
DiffSBDD_79_num_sample_100-4

>  <s_m_source_file>  (1) 
generated__ligand_DiffSBDD_2026-05-06_prepared.sdf

>  <GenAI_Model>  (1) 
DiffSBDD

>  <Protein>  (1) 
GPCR_5HT2C

$$$$
DiffSBDD_18_num_sample_100
     RDKit          3D

  0  0  0  0  0  0  0  0  0  0999 V3000
M  V30 BEGIN CTAB
M  V30 COUNTS 71 73 0 0 1
M  V30 BEGIN ATOM
M  V30 1 O 39.386875 31.702570 61.509559 0
M  V30 2 C 38.677839 27.735786 52.568186 0
M  V30 3 C 40.849789 28.552929 58.082344 0
M  V30 4 C 39.140750 28.045374 51.363140 0
M  V30 5 O 39.974887 28.190059 61.564569 0
M  V30 6 C 38.524915 28.643801 54.851980 0 CFG=2
M  V30 7 C 42.331604 28.808764 66.818690 0
M  V30 8 N 38.929573 28.669802 53.422003 0 CHG=1
M  V30 9 N 37.455120 29.622698 55.032621 0
M  V30 10 C 40.183228 30.870597 63.665845 0
M  V30 11 C 43.538647 30.241568 65.180384 0
M  V30 12 O 42.662922 27.633770 66.973921 0
M  V30 13 O 40.293202 29.919072 50.481457 0
M  V30 14 C 42.311084 32.155717 67.471911 0
M  V30 15 C 39.870067 26.608169 56.821914 0
M  V30 16 C 39.699259 29.220947 51.459285 0
M  V30 17 C 44.773958 31.763564 67.655089 0
M  V30 18 C 42.537695 30.488157 64.309293 0
M  V30 19 C 39.972519 28.599647 60.408745 0
M  V30 20 N 41.057289 29.282800 66.831517 0
M  V30 21 C 39.698735 28.109682 57.139270 0 CFG=2
M  V30 22 C 40.546956 31.450436 62.301303 0 CFG=2
M  V30 23 C 39.654793 28.995853 55.857123 0 CFG=2
M  V30 24 C 39.305555 30.462037 56.151311 0
M  V30 25 O 45.467253 31.621503 68.683990 0 CHG=-1
M  V30 26 C 39.692920 29.923691 52.848647 0
M  V30 27 C 40.465783 29.916675 65.891495 0
M  V30 28 C 39.036894 29.758930 60.003621 0
M  V30 29 C 38.525455 30.615454 61.179032 0
M  V30 30 C 41.199952 32.838612 62.430632 0
M  V30 31 C 41.071313 30.432956 64.589867 0
M  V30 32 C 43.379134 29.875115 66.620456 0 CFG=1
M  V30 33 C 43.399887 31.069655 67.639159 0 CFG=2
M  V30 34 N 40.766975 28.061954 59.456801 0
M  V30 35 N 37.867393 30.572105 55.990391 0
M  V30 36 O 45.095482 32.421567 66.641198 0
M  V30 37 H 38.148199 26.832163 52.852357 0
M  V30 38 H 41.791787 28.182889 57.674374 0
M  V30 39 H 40.998067 29.621409 58.119132 0
M  V30 40 H 39.044263 27.407092 50.495702 0
M  V30 41 H 38.106709 27.656752 55.043691 0
M  V30 42 H 37.235159 30.101034 54.162211 0
M  V30 43 H 39.128663 30.821417 63.889426 0
M  V30 44 H 44.558447 30.328591 64.832579 0
M  V30 45 H 40.667308 30.022773 53.323036 0
M  V30 46 H 42.541613 33.042689 68.063907 0
M  V30 47 H 42.215581 32.477460 66.435359 0
M  V30 48 H 41.339028 31.806502 67.816273 0
M  V30 49 H 40.759607 26.428856 56.216745 0
M  V30 50 H 39.980011 26.024344 57.736500 0
M  V30 51 H 39.017284 26.188317 56.291283 0
M  V30 52 H 42.836229 30.759823 63.310746 0
M  V30 53 H 38.744082 28.228843 57.649284 0
M  V30 54 H 41.210063 30.770950 61.768510 0
M  V30 55 H 40.643493 28.941020 55.408864 0
M  V30 56 H 39.781772 31.111909 55.416410 0
M  V30 57 H 39.596704 30.829813 57.130081 0
M  V30 58 H 39.067621 30.811774 52.929593 0
M  V30 59 H 39.392569 30.111639 65.969586 0
M  V30 60 H 39.467542 30.439910 59.280194 0
M  V30 61 H 38.169133 29.304811 59.526307 0
M  V30 62 H 37.584798 31.070540 60.867134 0
M  V30 63 H 38.267127 30.021184 62.051992 0
M  V30 64 H 42.114099 32.831739 63.020889 0
M  V30 65 H 41.456400 33.241199 61.452358 0
M  V30 66 H 40.518226 33.545174 62.903928 0
M  V30 67 H 44.305495 29.332090 66.822976 0
M  V30 68 H 43.265678 30.647800 68.636319 0
M  V30 69 H 41.376229 27.298579 59.714692 0
M  V30 70 H 37.560348 31.513122 55.743067 0
M  V30 71 H 40.586573 30.744107 50.838674 0
M  V30 END ATOM
M  V30 BEGIN BOND
M  V30 1 1 4 2
M  V30 2 2 8 2
M  V30 3 1 8 6
M  V30 4 1 9 6
M  V30 5 2 12 7
M  V30 6 2 16 4
M  V30 7 1 16 13
M  V30 8 2 18 11
M  V30 9 2 19 5
M  V30 10 1 20 7
M  V30 11 1 21 3
M  V30 12 1 21 15
M  V30 13 1 22 1
M  V30 14 1 22 10
M  V30 15 1 23 6
M  V30 16 1 23 21
M  V30 17 1 24 23
M  V30 18 1 25 17
M  V30 19 1 26 8
M  V30 20 1 26 16
M  V30 21 2 27 20
M  V30 22 1 28 19
M  V30 23 1 29 1
M  V30 24 1 29 28
M  V30 25 1 30 22
M  V30 26 2 31 10
M  V30 27 1 31 18
M  V30 28 1 31 27
M  V30 29 1 32 7
M  V30 30 1 32 11
M  V30 31 1 33 14
M  V30 32 1 33 17
M  V30 33 1 33 32
M  V30 34 1 34 3
M  V30 35 1 34 19
M  V30 36 1 35 9
M  V30 37 1 35 24
M  V30 38 2 36 17
M  V30 39 1 37 2
M  V30 40 1 38 3
M  V30 41 1 39 3
M  V30 42 1 40 4
M  V30 43 1 6 41 CFG=1
M  V30 44 1 42 9
M  V30 45 1 43 10
M  V30 46 1 44 11
M  V30 47 1 45 26
M  V30 48 1 46 14
M  V30 49 1 47 14
M  V30 50 1 48 14
M  V30 51 1 49 15
M  V30 52 1 50 15
M  V30 53 1 51 15
M  V30 54 1 52 18
M  V30 55 1 21 53 CFG=1
M  V30 56 1 22 54 CFG=3
M  V30 57 1 23 55 CFG=3
M  V30 58 1 56 24
M  V30 59 1 57 24
M  V30 60 1 58 26
M  V30 61 1 59 27
M  V30 62 1 60 28
M  V30 63 1 61 28
M  V30 64 1 62 29
M  V30 65 1 63 29
M  V30 66 1 64 30
M  V30 67 1 65 30
M  V30 68 1 66 30
M  V30 69 1 32 67 CFG=1
M  V30 70 1 33 68 CFG=1
M  V30 71 1 69 34
M  V30 72 1 70 35
M  V30 73 1 71 13
M  V30 END BOND
M  V30 END CTAB
M  END
>  <i_epik_Tot_Q>  (1) 
0

>  <i_epik_Tot_abs_Q>  (1) 
2

>  <i_i_glide_confnum>  (1) 
685

>  <i_i_glide_lignum>  (1) 
47

>  <i_i_glide_posenum>  (1) 
140

>  <i_i_glide_rotatable_bonds>  (1) 
13

>  <i_lp_mmshare_version>  (1) 
72125

>  <i_m_source_file_index>  (1) 
19

>  <i_f3d_flags>  (1) 
0

>  <num_sample>  (1) 
100

>  <b_lp_Chiralities_Consistent>  (1) 
1

>  <r_epik_Charging_Adjusted_Penalty>  (1) 
0.76693695219889413

>  <r_epik_Ionization_Penalty>  (1) 
0.76778133156762796

>  <r_epik_Ionization_Penalty_Charging>  (1) 
0.00011398914501928687

>  <r_epik_Ionization_Penalty_Neutral>  (1) 
0.7676673424226087

>  <r_epik_State_Penalty>  (1) 
0.76682296305387487

>  <r_glide_ring_energy>  (1) 
1.845819541117304

>  <r_i_docking_score>  (1) 
-4.4064224855618184

>  <r_i_glide_ecoul>  (1) 
0.12958961766396848

>  <r_i_glide_eff_state_penalty>  (1) 
0.76682296305387487

>  <r_i_glide_einternal>  (1) 
9.1223809224050996

>  <r_i_glide_emodel>  (1) 
-63.69131755564166

>  <r_i_glide_emodel_strain>  (1) 
0.9895887895835358

>  <r_i_glide_energy>  (1) 
-51.831748763180116

>  <r_i_glide_erotb>  (1) 
0.89312676016186854

>  <r_i_glide_esite>  (1) 
-0.089270276850830096

>  <r_i_glide_evdw>  (1) 
-51.961338380844083

>  <r_i_glide_gscore>  (1) 
-5.1732454486156936

>  <r_i_glide_gscore_strain>  (1) 
0

>  <r_i_glide_hbond>  (1) 
0

>  <r_i_glide_ligand_efficiency>  (1) 
-0.1224006245989394

>  <r_i_glide_ligand_efficiency_ln>  (1) 
-0.96136233857169495

>  <r_i_glide_ligand_efficiency_sa>  (1) 
-0.40415795764496004

>  <r_i_glide_lipo>  (1) 
-2.8598056817800304

>  <r_i_glide_metal>  (1) 
-0

>  <r_i_glide_rewards>  (1) 
-0.53866777375409214

>  <r_lp_Energy>  (1) 
29.432984999999999

>  <r_lp_tautomer_probability>  (1) 
0.99929914239148299

>  <s_epik_Chemistry_Notes>  (1) 
This compound has an imine and may undergo hydrolysis. This compound contains an acetal/aminal-like group ( X-CH(R)-Y where X, Y are N, S, or O) that may be acid/base labile, releasing an aldehyde.

>  <s_epik_cmdline>  (1) 
J2VwaWtfcHl0aG9uJywgJy1waHQnLCAnMS4wJywgJy1waCcsICc3LjQnLCAnLXRuJywgJzgnLCAnLW1hJywgJzUwMCcsICctaW1hZScsICc8aW5maWxlLm1hZT4nLCAnLW9tYWUnLCAnPG91dGZpbGUubWFlPic=

>  <s_epik_input>  (1) 
W09IXUMoPU8pW0NASF0oW0NIM10pW0NAQEhdMVtDSF09W0NIXS9DKFtDSF09TkMxPU8pPVtDSF1cW0NASF0oW0NIM10pT1tDSDJdW0NIMl1DKD1PKVtOSF1bQ0gyXVtDQEhdKFtDSDNdKVtDQEBIXTJbQ0gyXVtOSF1bTkhdW0NASF0ybjNbY0hdW2NIXWMoW09IXSlbY0hdMw==

>  <s_glide_docking_method>  (1) 
confgen

>  <s_i_glide_gridfile>  (1) 
gpcr_5ht2c_6bqh_protein_autoprepared_prepared

>  <s_lp_Force_Field>  (1) 
S-OPLS

>  <s_lp_Variant>  (1) 
DiffSBDD_18_num_sample_100-7

>  <s_m_source_file>  (1) 
generated__ligand_DiffSBDD_2026-05-06_prepared.sdf

>  <GenAI_Model>  (1) 
DiffSBDD

>  <Protein>  (1) 
GPCR_5HT2C

$$$$
DiffSBDD_29_num_sample_100
     RDKit          3D

  0  0  0  0  0  0  0  0  0  0999 V3000
M  V30 BEGIN CTAB
M  V30 COUNTS 86 90 0 0 1
M  V30 BEGIN ATOM
M  V30 1 F 41.081617 35.925494 61.844687 0
M  V30 2 C 35.792802 30.913950 60.126841 0
M  V30 3 C 39.323233 34.054641 60.496975 0
M  V30 4 C 39.295396 26.960006 57.317106 0 CFG=2
M  V30 5 C 39.867403 26.790941 52.474281 0
M  V30 6 C 40.777203 27.379777 57.492557 0
M  V30 7 C 39.193610 37.100843 62.405861 0
M  V30 8 N 37.139476 31.416579 59.798824 0 CFG=1 CHG=1
M  V30 9 C 37.539167 25.800082 55.549456 0 CFG=1
M  V30 10 C 38.724983 29.394920 51.716974 0
M  V30 11 C 39.547012 30.706116 60.443751 0
M  V30 12 C 39.116348 29.058619 53.132674 0 CFG=1
M  V30 13 C 39.750316 36.103973 61.807765 0
M  V30 14 C 38.800266 29.537381 59.847006 0 CFG=2
M  V30 15 C 34.871235 33.281467 59.688136 0
M  V30 16 C 36.454833 23.395455 55.812290 0
M  V30 17 C 38.906415 26.545571 55.838278 0 CFG=1
M  V30 18 C 38.545098 29.378879 58.338672 0 CFG=1
M  V30 19 C 37.466593 35.628288 61.277206 0
M  V30 20 N 36.135647 33.516305 59.054207 0
M  V30 21 N 38.910353 35.277214 61.170460 0
M  V30 22 F 39.867390 38.021435 63.095940 0
M  V30 23 S 38.051911 29.152395 54.625017 0
M  V30 24 C 37.184216 32.905263 59.870872 0 CFG=2
M  V30 25 C 34.667300 31.785701 59.589799 0
M  V30 26 C 36.333754 25.143682 57.584992 0
M  V30 27 O 39.467367 30.060904 57.538174 0
M  V30 28 C 39.197650 27.712507 54.863178 0 CFG=2
M  V30 29 C 38.254227 27.933006 57.928752 0
M  V30 30 C 39.481908 28.535280 50.684162 0
M  V30 31 C 39.467402 27.033222 51.004016 0
M  V30 32 C 38.450614 33.574025 59.340858 0
M  V30 33 O 37.516148 25.270472 54.253509 0
M  V30 34 C 38.987510 27.564754 53.353247 0 CFG=2
M  V30 35 C 38.076354 30.619159 60.657448 0 CFG=2
M  V30 36 C 37.192086 24.598705 56.459119 0
M  V30 37 O 39.302708 25.816893 58.148211 0
M  V30 38 S 37.468095 37.221449 62.307042 0
M  V30 39 H 35.694657 29.890927 59.762910 0
M  V30 40 H 35.672453 30.879376 61.209866 0
M  V30 41 H 39.506097 33.276775 61.236902 0
M  V30 42 H 40.267414 34.304521 60.047422 0
M  V30 43 H 40.021925 25.774917 52.796767 0
M  V30 44 H 40.827290 27.221299 52.653491 0
M  V30 45 H 41.069806 28.268808 56.944976 0
M  V30 46 H 41.020555 27.562192 58.539986 0
M  V30 47 H 41.448191 26.593246 57.145421 0
M  V30 48 H 36.715064 26.505690 55.557431 0
M  V30 49 H 37.658550 29.221427 51.576311 0
M  V30 50 H 39.067401 30.410055 51.510545 0
M  V30 51 H 39.867393 31.526468 59.853503 0
M  V30 52 H 40.187629 30.489874 61.295681 0
M  V30 53 H 40.081465 29.505074 53.367904 0
M  V30 54 H 38.987137 28.597162 60.365559 0
M  V30 55 H 34.079299 33.819760 59.166259 0
M  V30 56 H 34.881413 33.623549 60.724125 0
M  V30 57 H 35.493163 23.682179 55.389550 0
M  V30 58 H 37.049262 22.924087 55.028026 0
M  V30 59 H 36.267407 22.617185 56.551559 0
M  V30 60 H 39.651470 25.786354 55.591038 0
M  V30 61 H 37.612933 29.868848 58.072480 0
M  V30 62 H 36.994080 35.817014 60.310905 0
M  V30 63 H 36.899703 34.896410 61.846680 0
M  V30 64 H 36.091407 33.085927 58.126351 0
M  V30 65 H 37.036376 33.142879 60.919935 0
M  V30 66 H 34.267363 31.438062 58.653498 0
M  V30 67 H 33.867402 31.621559 60.243757 0
M  V30 68 H 35.299822 25.221447 57.260095 0
M  V30 69 H 36.431593 24.493726 58.440468 0
M  V30 70 H 36.597795 26.124254 57.914080 0
M  V30 71 H 40.306477 29.641347 57.641330 0
M  V30 72 H 40.195620 28.098679 55.053450 0
M  V30 73 H 37.410640 27.982029 57.245761 0
M  V30 74 H 37.867407 27.476404 58.831052 0
M  V30 75 H 39.078934 28.708547 49.688029 0
M  V30 76 H 40.519598 28.869055 50.651227 0
M  V30 77 H 38.475822 26.630005 50.808437 0
M  V30 78 H 40.144652 26.541503 50.311098 0
M  V30 79 H 38.219660 34.421404 58.706438 0
M  V30 80 H 38.982916 32.925911 58.648494 0
M  V30 81 H 36.662189 24.898160 54.091701 0
M  V30 82 H 37.961986 27.276480 53.103214 0
M  V30 83 H 37.750496 30.428604 61.678669 0
M  V30 84 H 38.115118 24.171239 56.845357 0
M  V30 85 H 39.948379 25.207388 57.822237 0
M  V30 86 H 37.321822 31.190230 58.829617 0
M  V30 END ATOM
M  V30 BEGIN BOND
M  V30 1 1 6 4
M  V30 2 1 8 2
M  V30 3 1 12 10
M  V30 4 1 13 1
M  V30 5 2 13 7
M  V30 6 1 14 11
M  V30 7 1 17 4
M  V30 8 1 17 9
M  V30 9 1 18 14
M  V30 10 1 20 15
M  V30 11 1 21 3
M  V30 12 1 21 13
M  V30 13 1 21 19
M  V30 14 1 22 7
M  V30 15 1 23 12
M  V30 16 1 24 8
M  V30 17 1 24 20
M  V30 18 1 25 2
M  V30 19 1 25 15
M  V30 20 1 27 18
M  V30 21 1 28 17
M  V30 22 1 28 23
M  V30 23 1 29 4
M  V30 24 1 29 18
M  V30 25 1 30 10
M  V30 26 1 31 5
M  V30 27 1 31 30
M  V30 28 1 32 3
M  V30 29 1 32 24
M  V30 30 1 33 9
M  V30 31 1 34 5
M  V30 32 1 34 12
M  V30 33 1 34 28
M  V30 34 1 35 8
M  V30 35 1 35 11
M  V30 36 1 35 14
M  V30 37 1 36 9
M  V30 38 1 36 16
M  V30 39 1 36 26
M  V30 40 1 4 37 CFG=1
M  V30 41 1 38 7
M  V30 42 1 38 19
M  V30 43 1 39 2
M  V30 44 1 40 2
M  V30 45 1 41 3
M  V30 46 1 42 3
M  V30 47 1 43 5
M  V30 48 1 44 5
M  V30 49 1 45 6
M  V30 50 1 46 6
M  V30 51 1 47 6
M  V30 52 1 9 48 CFG=3
M  V30 53 1 49 10
M  V30 54 1 50 10
M  V30 55 1 51 11
M  V30 56 1 52 11
M  V30 57 1 12 53 CFG=1
M  V30 58 1 14 54 CFG=1
M  V30 59 1 55 15
M  V30 60 1 56 15
M  V30 61 1 57 16
M  V30 62 1 58 16
M  V30 63 1 59 16
M  V30 64 1 17 60 CFG=3
M  V30 65 1 18 61 CFG=1
M  V30 66 1 62 19
M  V30 67 1 63 19
M  V30 68 1 64 20
M  V30 69 1 24 65 CFG=1
M  V30 70 1 66 25
M  V30 71 1 67 25
M  V30 72 1 68 26
M  V30 73 1 69 26
M  V30 74 1 70 26
M  V30 75 1 71 27
M  V30 76 1 28 72 CFG=3
M  V30 77 1 73 29
M  V30 78 1 74 29
M  V30 79 1 75 30
M  V30 80 1 76 30
M  V30 81 1 77 31
M  V30 82 1 78 31
M  V30 83 1 79 32
M  V30 84 1 80 32
M  V30 85 1 81 33
M  V30 86 1 34 82 CFG=1
M  V30 87 1 35 83 CFG=1
M  V30 88 1 84 36
M  V30 89 1 85 37
M  V30 90 1 8 86 CFG=3
M  V30 END BOND
M  V30 END CTAB
M  END
>  <i_epik_Tot_Q>  (1) 
1

>  <i_epik_Tot_abs_Q>  (1) 
1

>  <i_i_glide_confnum>  (1) 
1910

>  <i_i_glide_lignum>  (1) 
77

>  <i_i_glide_posenum>  (1) 
46

>  <i_i_glide_rotatable_bonds>  (1) 
14

>  <i_lp_mmshare_version>  (1) 
72125

>  <i_m_source_file_index>  (1) 
30

>  <i_f3d_flags>  (1) 
0

>  <num_sample>  (1) 
100

>  <b_lp_Chiralities_Consistent>  (1) 
1

>  <r_epik_Charging_Adjusted_Penalty>  (1) 
1.7477768688038313

>  <r_epik_Ionization_Penalty>  (1) 
0.56833185219894722

>  <r_epik_Ionization_Penalty_Charging>  (1) 
0.56833130032608237

>  <r_epik_Ionization_Penalty_Neutral>  (1) 
5.5187286482775955e-07

>  <r_epik_State_Penalty>  (1) 
1.179445568477749

>  <r_glide_ring_energy>  (1) 
2.2046325848136337

>  <r_i_docking_score>  (1) 
-4.4050879982567528

>  <r_i_glide_ecoul>  (1) 
-1.1881005866587673

>  <r_i_glide_eff_state_penalty>  (1) 
1.179445568477749

>  <r_i_glide_einternal>  (1) 
19.2399051505157

>  <r_i_glide_emodel>  (1) 
-3.231623187903514

>  <r_i_glide_emodel_strain>  (1) 
11.265312102072897

>  <r_i_glide_energy>  (1) 
-18.441562616560148

>  <r_i_glide_erotb>  (1) 
0.46833353265868582

>  <r_i_glide_esite>  (1) 
-0.13617225532456176

>  <r_i_glide_evdw>  (1) 
-17.253462029901382

>  <r_i_glide_gscore>  (1) 
-5.5845335667345015

>  <r_i_glide_gscore_strain>  (1) 
1.8163280255182244

>  <r_i_glide_hbond>  (1) 
-0.16

>  <r_i_glide_ligand_efficiency>  (1) 
-0.11592336837517771

>  <r_i_glide_ligand_efficiency_ln>  (1) 
-0.94986655698417255

>  <r_i_glide_ligand_efficiency_sa>  (1) 
-0.38973151355064423

>  <r_i_glide_lipo>  (1) 
-5.0767645870814855

>  <r_i_glide_metal>  (1) 
-0

>  <r_i_glide_rewards>  (1) 
-1.4553700930114792

>  <r_lp_Energy>  (1) 
42.636096999999999

>  <s_epik_Chemistry_Notes>  (1) 
This compound has an imine and may undergo hydrolysis. This compound contains an acetal/aminal-like group ( X-CH(R)-Y where X, Y are N, S, or O) that may be acid/base labile, releasing an aldehyde.

>  <s_epik_cmdline>  (1) 
J2VwaWtfcHl0aG9uJywgJy1waHQnLCAnMS4wJywgJy1waCcsICc3LjQnLCAnLXRuJywgJzgnLCAnLW1hJywgJzUwMCcsICctaW1hZScsICc8aW5maWxlLm1hZT4nLCAnLW9tYWUnLCAnPG91dGZpbGUubWFlPic=

>  <s_epik_input>  (1) 
RkMxPUMoRilOKFtDSDJdUzEpW0NIMl1bQ0gyXVtDQEhdMltOSF1bQ0gyXVtDSDJdW0NIMl1OMltDQEBIXTNbQ0gyXVtDQEBIXTNbQ0BASF0oW09IXSlbQ0gyXVtDQEBdKFtDSDNdKShbT0hdKVtDQEBIXShbQ0BASF0oW09IXSlbQ0hdKFtDSDNdKVtDSDNdKVtDQEhdKFM0KVtDQEBIXShbQ0BASF00NSlbQ0gyXVtDSDJdW0NIMl1bQ0gyXTU=

>  <s_glide_docking_method>  (1) 
confgen

>  <s_i_glide_gridfile>  (1) 
gpcr_5ht2c_6bqh_protein_autoprepared_prepared

>  <s_lp_Force_Field>  (1) 
S-OPLS

>  <s_lp_Variant>  (1) 
DiffSBDD_29_num_sample_100-7

>  <s_m_source_file>  (1) 
generated__ligand_DiffSBDD_2026-05-06_prepared.sdf

>  <GenAI_Model>  (1) 
DiffSBDD

>  <Protein>  (1) 
GPCR_5HT2C

$$$$
DiffSBDD_95_num_sample_100
     RDKit          3D

  0  0  0  0  0  0  0  0  0  0999 V3000
M  V30 BEGIN CTAB
M  V30 COUNTS 51 50 0 0 1
M  V30 BEGIN ATOM
M  V30 1 C 38.047353 30.652699 54.514141 0
M  V30 2 C 39.214787 30.141025 53.638919 0
M  V30 3 C 41.091128 27.666242 56.979330 0
M  V30 4 O 39.469403 26.844500 53.531802 0 CHG=-1
M  V30 5 C 39.650529 27.180560 57.229705 0
M  V30 6 C 41.783311 28.296390 58.198102 0
M  V30 7 C 38.845371 28.986829 52.656187 0 CFG=1
M  V30 8 C 39.105048 31.637844 56.684227 0
M  V30 9 O 37.444794 27.618300 54.029162 0
M  V30 10 C 38.184828 31.514812 57.925980 0
M  V30 11 O 38.855077 28.750545 59.421817 0
M  V30 12 N 38.703579 28.290423 57.211276 0
M  V30 13 C 39.872684 28.786042 51.481034 0
M  V30 14 C 38.381795 31.901377 55.350369 0
M  V30 15 C 39.465147 27.682766 50.497870 0
M  V30 16 C 38.393385 29.000813 58.307416 0
M  V30 17 C 36.357056 30.243461 59.241464 0
M  V30 18 C 40.132946 30.069102 50.663429 0
M  V30 19 C 38.562668 27.702715 53.475198 0
M  V30 20 C 37.421372 30.176529 58.113023 0 CFG=1
M  V30 21 O 36.834115 30.823709 60.444018 0
M  V30 22 H 37.663188 29.866891 55.156622 0
M  V30 23 H 37.223945 30.916284 53.854870 0
M  V30 24 H 39.581620 30.999411 53.081848 0
M  V30 25 H 40.042536 29.832507 54.277700 0
M  V30 26 H 41.691041 26.821248 56.653504 0
M  V30 27 H 41.097507 28.369437 56.146083 0
M  V30 28 H 39.583924 26.600674 58.152176 0
M  V30 29 H 39.359977 26.504034 56.424496 0
M  V30 30 H 42.823974 28.532409 57.975240 0
M  V30 31 H 41.296502 29.221230 58.502437 0
M  V30 32 H 41.775185 27.621435 59.054015 0
M  V30 33 H 37.893210 29.221539 52.182461 0
M  V30 34 H 39.741638 32.505157 56.858900 0
M  V30 35 H 39.794964 30.798251 56.599874 0
M  V30 36 H 37.467998 32.336981 57.908317 0
M  V30 37 H 38.798709 31.685344 58.810803 0
M  V30 38 H 38.284242 28.538788 56.324086 0
M  V30 39 H 40.842494 28.475735 51.853501 0
M  V30 40 H 37.467450 32.456190 55.554109 0
M  V30 41 H 38.985098 32.574885 54.741647 0
M  V30 42 H 38.667451 28.030199 49.853612 0
M  V30 43 H 40.304412 27.433025 49.854351 0
M  V30 44 H 39.142993 26.758554 50.974905 0
M  V30 45 H 35.969355 29.247337 59.454738 0
M  V30 46 H 35.493635 30.822694 58.923946 0
M  V30 47 H 39.204919 30.508601 50.298521 0
M  V30 48 H 40.665606 30.827065 51.235376 0
M  V30 49 H 40.753534 29.857426 49.792002 0
M  V30 50 H 36.855344 29.982528 57.202392 0
M  V30 51 H 37.156960 31.688118 60.238503 0
M  V30 END ATOM
M  V30 BEGIN BOND
M  V30 1 1 2 1
M  V30 2 1 5 3
M  V30 3 1 6 3
M  V30 4 1 7 2
M  V30 5 1 10 8
M  V30 6 1 12 5
M  V30 7 1 13 7
M  V30 8 1 14 1
M  V30 9 1 14 8
M  V30 10 1 15 13
M  V30 11 2 16 11
M  V30 12 1 16 12
M  V30 13 1 18 13
M  V30 14 1 19 4
M  V30 15 1 19 7
M  V30 16 2 19 9
M  V30 17 1 20 10
M  V30 18 1 20 16
M  V30 19 1 20 17
M  V30 20 1 21 17
M  V30 21 1 22 1
M  V30 22 1 23 1
M  V30 23 1 24 2
M  V30 24 1 25 2
M  V30 25 1 26 3
M  V30 26 1 27 3
M  V30 27 1 28 5
M  V30 28 1 29 5
M  V30 29 1 30 6
M  V30 30 1 31 6
M  V30 31 1 32 6
M  V30 32 1 7 33 CFG=3
M  V30 33 1 34 8
M  V30 34 1 35 8
M  V30 35 1 36 10
M  V30 36 1 37 10
M  V30 37 1 38 12
M  V30 38 1 39 13
M  V30 39 1 40 14
M  V30 40 1 41 14
M  V30 41 1 42 15
M  V30 42 1 43 15
M  V30 43 1 44 15
M  V30 44 1 45 17
M  V30 45 1 46 17
M  V30 46 1 47 18
M  V30 47 1 48 18
M  V30 48 1 49 18
M  V30 49 1 20 50 CFG=3
M  V30 50 1 51 21
M  V30 END BOND
M  V30 END CTAB
M  END
>  <i_epik_Tot_Q>  (1) 
-1

>  <i_epik_Tot_abs_Q>  (1) 
1

>  <i_i_glide_confnum>  (1) 
1712

>  <i_i_glide_lignum>  (1) 
266

>  <i_i_glide_posenum>  (1) 
173

>  <i_i_glide_rotatable_bonds>  (1) 
14

>  <i_lp_mmshare_version>  (1) 
72125

>  <i_m_source_file_index>  (1) 
96

>  <i_f3d_flags>  (1) 
0

>  <num_sample>  (1) 
100

>  <b_lp_Chiralities_Consistent>  (1) 
1

>  <r_epik_Charging_Adjusted_Penalty>  (1) 
0.001438735801478555

>  <r_epik_Ionization_Penalty>  (1) 
0.0014388430371294766

>  <r_epik_Ionization_Penalty_Charging>  (1) 
0.001438735801478555

>  <r_epik_Ionization_Penalty_Neutral>  (1) 
1.0723565092155607e-07

>  <r_epik_State_Penalty>  (1) 
-0

>  <r_glide_ring_energy>  (1) 
0

>  <r_i_docking_score>  (1) 
-4.4008274530725382

>  <r_i_glide_ecoul>  (1) 
-2.8238974282916693

>  <r_i_glide_eff_state_penalty>  (1) 
-0

>  <r_i_glide_einternal>  (1) 
9.5378096863039126

>  <r_i_glide_emodel>  (1) 
-39.884577742187702

>  <r_i_glide_emodel_strain>  (1) 
0.41889379898894319

>  <r_i_glide_energy>  (1) 
-35.188054961366134

>  <r_i_glide_erotb>  (1) 
2.0366524636838417

>  <r_i_glide_esite>  (1) 
0

>  <r_i_glide_evdw>  (1) 
-32.364157533074462

>  <r_i_glide_gscore>  (1) 
-4.4008274530725382

>  <r_i_glide_gscore_strain>  (1) 
0

>  <r_i_glide_hbond>  (1) 
0

>  <r_i_glide_ligand_efficiency>  (1) 
-0.20956321205107326

>  <r_i_glide_ligand_efficiency_ln>  (1) 
-1.088095695062993

>  <r_i_glide_ligand_efficiency_sa>  (1) 
-0.57816901220778949

>  <r_i_glide_lipo>  (1) 
-2.1419360138248513

>  <r_i_glide_metal>  (1) 
-0

>  <r_i_glide_rewards>  (1) 
-2.2537514120340556

>  <r_lp_Energy>  (1) 
10.841768999999999

>  <r_lp_tautomer_probability>  (1) 
1

>  <s_epik_cmdline>  (1) 
J2VwaWtfcHl0aG9uJywgJy1waHQnLCAnMS4wJywgJy1waCcsICc3LjQnLCAnLXRuJywgJzgnLCAnLW1hJywgJzUwMCcsICctaW1hZScsICc8aW5maWxlLm1hZT4nLCAnLW9tYWUnLCAnPG91dGZpbGUubWFlPic=

>  <s_epik_input>  (1) 
W09IXUMoPU8pW0NASF0oW0NIXShbQ0gzXSlbQ0gzXSlbQ0gyXVtDSDJdW0NIMl1bQ0gyXVtDSDJdW0NASF0oW0NIMl1bT0hdKUMoPU8pW05IXVtDSDJdW0NIMl1bQ0gzXQ==

>  <s_glide_docking_method>  (1) 
confgen

>  <s_i_glide_gridfile>  (1) 
gpcr_5ht2c_6bqh_protein_autoprepared_prepared

>  <s_lp_Force_Field>  (1) 
S-OPLS

>  <s_lp_Variant>  (1) 
DiffSBDD_95_num_sample_100-1

>  <s_m_source_file>  (1) 
generated__ligand_DiffSBDD_2026-05-06_prepared.sdf

>  <GenAI_Model>  (1) 
DiffSBDD

>  <Protein>  (1) 
GPCR_5HT2C

$$$$
DiffSBDD_18_num_sample_100
     RDKit          3D

  0  0  0  0  0  0  0  0  0  0999 V3000
M  V30 BEGIN CTAB
M  V30 COUNTS 71 73 0 0 1
M  V30 BEGIN ATOM
M  V30 1 O 39.263704 31.776002 61.538911 0
M  V30 2 C 38.677470 27.753660 52.609031 0
M  V30 3 C 40.814590 28.557271 58.137492 0
M  V30 4 C 39.134990 28.067598 51.403359 0
M  V30 5 O 39.913234 28.235416 61.618339 0
M  V30 6 C 38.517552 28.666024 54.889230 0 CFG=2
M  V30 7 C 42.449673 28.807499 66.653491 0
M  V30 8 N 38.928027 28.687769 53.463587 0 CHG=1
M  V30 9 N 37.463072 29.661278 55.063927 0
M  V30 10 C 40.141145 30.927574 63.655996 0
M  V30 11 C 43.552147 30.386590 65.078668 0
M  V30 12 O 42.843069 27.643867 66.735683 0
M  V30 13 O 40.281487 29.947440 50.528544 0
M  V30 14 C 42.278811 32.118147 67.478760 0
M  V30 15 C 39.745396 26.630703 56.906667 0
M  V30 16 C 39.692769 29.243258 51.502716 0
M  V30 17 C 44.761456 31.802149 67.631237 0
M  V30 18 C 42.524318 30.630101 64.238155 0
M  V30 19 C 39.924298 28.636042 60.459544 0
M  V30 20 N 41.153234 29.215646 66.716235 0
M  V30 21 C 39.650893 28.145205 57.193680 0 CFG=2
M  V30 22 C 40.446814 31.583233 62.312604 0 CFG=2
M  V30 23 C 39.650248 29.006869 55.894666 0 CFG=2
M  V30 24 C 39.334220 30.487215 56.162480 0
M  V30 25 O 45.467378 31.620959 68.646726 0 CHG=-1
M  V30 26 C 39.691670 29.939615 52.893528 0
M  V30 27 C 40.513916 29.876874 65.825830 0
M  V30 28 C 39.008997 29.804385 60.039304 0
M  V30 29 C 38.457880 30.647561 61.205413 0
M  V30 30 C 40.993502 33.010329 62.492487 0
M  V30 31 C 41.067921 30.488540 64.540743 0
M  V30 32 C 43.436513 29.933962 66.498380 0 CFG=1
M  V30 33 C 43.410395 31.067139 67.583123 0 CFG=2
M  V30 34 N 40.715417 28.078290 59.516449 0
M  V30 35 N 37.898292 30.627029 55.996645 0
M  V30 36 O 45.055253 32.525802 66.653060 0
M  V30 37 H 38.153650 26.847348 52.892951 0
M  V30 38 H 41.748278 28.162848 57.732461 0
M  V30 39 H 40.988994 29.621491 58.170815 0
M  V30 40 H 39.033712 27.432776 50.533974 0
M  V30 41 H 38.081879 27.686386 55.074539 0
M  V30 42 H 37.234456 30.118347 54.184580 0
M  V30 43 H 39.095825 30.819282 63.896805 0
M  V30 44 H 44.560304 30.545141 64.721698 0
M  V30 45 H 40.666329 30.023188 53.367363 0
M  V30 46 H 42.467135 32.971803 68.130272 0
M  V30 47 H 42.174883 32.505952 66.465667 0
M  V30 48 H 41.319579 31.708729 67.791454 0
M  V30 49 H 40.624458 26.389708 56.307046 0
M  V30 50 H 39.820267 26.063516 57.834406 0
M  V30 51 H 38.870236 26.245348 56.385188 0
M  V30 52 H 42.790668 30.971937 63.251728 0
M  V30 53 H 38.697274 28.319627 57.688911 0
M  V30 54 H 41.148679 30.971746 61.746493 0
M  V30 55 H 40.641396 28.918258 55.452850 0
M  V30 56 H 39.823558 31.116687 55.417403 0
M  V30 57 H 39.630729 30.861348 57.138186 0
M  V30 58 H 39.071764 30.831804 52.983503 0
M  V30 59 H 39.434244 30.020914 65.936341 0
M  V30 60 H 39.467360 30.484124 59.332363 0
M  V30 61 H 38.154643 29.355306 59.534924 0
M  V30 62 H 37.501157 31.060999 60.884611 0
M  V30 63 H 38.220193 30.039920 62.076747 0
M  V30 64 H 41.934725 33.035605 63.039039 0
M  V30 65 H 41.168987 33.480635 61.525639 0
M  V30 66 H 40.283370 33.636071 63.036649 0
M  V30 67 H 44.393754 29.431576 66.654790 0
M  V30 68 H 43.297001 30.583492 68.554998 0
M  V30 69 H 41.310507 27.306861 59.784226 0
M  V30 70 H 37.612668 31.567478 55.723786 0
M  V30 71 H 40.205714 29.453657 49.726038 0
M  V30 END ATOM
M  V30 BEGIN BOND
M  V30 1 1 4 2
M  V30 2 2 8 2
M  V30 3 1 8 6
M  V30 4 1 9 6
M  V30 5 2 12 7
M  V30 6 2 16 4
M  V30 7 1 16 13
M  V30 8 2 18 11
M  V30 9 2 19 5
M  V30 10 1 20 7
M  V30 11 1 21 3
M  V30 12 1 21 15
M  V30 13 1 22 1
M  V30 14 1 22 10
M  V30 15 1 23 6
M  V30 16 1 23 21
M  V30 17 1 24 23
M  V30 18 1 25 17
M  V30 19 1 26 8
M  V30 20 1 26 16
M  V30 21 2 27 20
M  V30 22 1 28 19
M  V30 23 1 29 1
M  V30 24 1 29 28
M  V30 25 1 30 22
M  V30 26 2 31 10
M  V30 27 1 31 18
M  V30 28 1 31 27
M  V30 29 1 32 7
M  V30 30 1 32 11
M  V30 31 1 33 14
M  V30 32 1 33 17
M  V30 33 1 33 32
M  V30 34 1 34 3
M  V30 35 1 34 19
M  V30 36 1 35 9
M  V30 37 1 35 24
M  V30 38 2 36 17
M  V30 39 1 37 2
M  V30 40 1 38 3
M  V30 41 1 39 3
M  V30 42 1 40 4
M  V30 43 1 6 41 CFG=1
M  V30 44 1 42 9
M  V30 45 1 43 10
M  V30 46 1 44 11
M  V30 47 1 45 26
M  V30 48 1 46 14
M  V30 49 1 47 14
M  V30 50 1 48 14
M  V30 51 1 49 15
M  V30 52 1 50 15
M  V30 53 1 51 15
M  V30 54 1 52 18
M  V30 55 1 21 53 CFG=1
M  V30 56 1 22 54 CFG=3
M  V30 57 1 23 55 CFG=3
M  V30 58 1 56 24
M  V30 59 1 57 24
M  V30 60 1 58 26
M  V30 61 1 59 27
M  V30 62 1 60 28
M  V30 63 1 61 28
M  V30 64 1 62 29
M  V30 65 1 63 29
M  V30 66 1 64 30
M  V30 67 1 65 30
M  V30 68 1 66 30
M  V30 69 1 32 67 CFG=1
M  V30 70 1 33 68 CFG=1
M  V30 71 1 69 34
M  V30 72 1 70 35
M  V30 73 1 71 13
M  V30 END BOND
M  V30 END CTAB
M  END
>  <i_epik_Tot_Q>  (1) 
0

>  <i_epik_Tot_abs_Q>  (1) 
2

>  <i_i_glide_confnum>  (1) 
685

>  <i_i_glide_lignum>  (1) 
47

>  <i_i_glide_posenum>  (1) 
198

>  <i_i_glide_rotatable_bonds>  (1) 
13

>  <i_lp_mmshare_version>  (1) 
72125

>  <i_m_source_file_index>  (1) 
19

>  <i_f3d_flags>  (1) 
0

>  <num_sample>  (1) 
100

>  <b_lp_Chiralities_Consistent>  (1) 
1

>  <r_epik_Charging_Adjusted_Penalty>  (1) 
0.76693695219889413

>  <r_epik_Ionization_Penalty>  (1) 
0.76778133156762796

>  <r_epik_Ionization_Penalty_Charging>  (1) 
0.00011398914501928687

>  <r_epik_Ionization_Penalty_Neutral>  (1) 
0.7676673424226087

>  <r_epik_State_Penalty>  (1) 
0.76682296305387487

>  <r_glide_ring_energy>  (1) 
1.845819541117304

>  <r_i_docking_score>  (1) 
-4.3829474286478805

>  <r_i_glide_ecoul>  (1) 
0.59853802503529041

>  <r_i_glide_eff_state_penalty>  (1) 
0.76682296305387487

>  <r_i_glide_einternal>  (1) 
6.7616250336665509

>  <r_i_glide_emodel>  (1) 
-64.316913236297651

>  <r_i_glide_emodel_strain>  (1) 
0.84009712238557199

>  <r_i_glide_energy>  (1) 
-51.206479185583682

>  <r_i_glide_erotb>  (1) 
0.89312676016186854

>  <r_i_glide_esite>  (1) 
-0.092972936758219382

>  <r_i_glide_evdw>  (1) 
-51.805017210618971

>  <r_i_glide_gscore>  (1) 
-5.1497703917017557

>  <r_i_glide_gscore_strain>  (1) 
0

>  <r_i_glide_hbond>  (1) 
0

>  <r_i_glide_ligand_efficiency>  (1) 
-0.12174853968466334

>  <r_i_glide_ligand_efficiency_ln>  (1) 
-0.95624071537581801

>  <r_i_glide_ligand_efficiency_sa>  (1) 
-0.40200482069791882

>  <r_i_glide_lipo>  (1) 
-2.901925301923868

>  <r_i_glide_metal>  (1) 
-0

>  <r_i_glide_rewards>  (1) 
-0.5475287564058815

>  <r_lp_Energy>  (1) 
29.432984999999999

>  <r_lp_tautomer_probability>  (1) 
0.99929914239148299

>  <s_epik_Chemistry_Notes>  (1) 
This compound has an imine and may undergo hydrolysis. This compound contains an acetal/aminal-like group ( X-CH(R)-Y where X, Y are N, S, or O) that may be acid/base labile, releasing an aldehyde.

>  <s_epik_cmdline>  (1) 
J2VwaWtfcHl0aG9uJywgJy1waHQnLCAnMS4wJywgJy1waCcsICc3LjQnLCAnLXRuJywgJzgnLCAnLW1hJywgJzUwMCcsICctaW1hZScsICc8aW5maWxlLm1hZT4nLCAnLW9tYWUnLCAnPG91dGZpbGUubWFlPic=

>  <s_epik_input>  (1) 
W09IXUMoPU8pW0NASF0oW0NIM10pW0NAQEhdMVtDSF09W0NIXS9DKFtDSF09TkMxPU8pPVtDSF1cW0NASF0oW0NIM10pT1tDSDJdW0NIMl1DKD1PKVtOSF1bQ0gyXVtDQEhdKFtDSDNdKVtDQEBIXTJbQ0gyXVtOSF1bTkhdW0NASF0ybjNbY0hdW2NIXWMoW09IXSlbY0hdMw==

>  <s_glide_docking_method>  (1) 
confgen

>  <s_i_glide_gridfile>  (1) 
gpcr_5ht2c_6bqh_protein_autoprepared_prepared

>  <s_lp_Force_Field>  (1) 
S-OPLS

>  <s_lp_Variant>  (1) 
DiffSBDD_18_num_sample_100-7

>  <s_m_source_file>  (1) 
generated__ligand_DiffSBDD_2026-05-06_prepared.sdf

>  <GenAI_Model>  (1) 
DiffSBDD

>  <Protein>  (1) 
GPCR_5HT2C

$$$$
DiffSBDD_93_num_sample_100
     RDKit          3D

  0  0  0  0  0  0  0  0  0  0999 V3000
M  V30 BEGIN CTAB
M  V30 COUNTS 74 77 0 0 1
M  V30 BEGIN ATOM
M  V30 1 C 41.274922 29.517212 63.664308 0
M  V30 2 S 37.090418 33.638860 59.513392 0
M  V30 3 C 42.375563 27.658009 65.010332 0 CFG=2
M  V30 4 O 39.691619 37.151193 62.334941 0
M  V30 5 C 38.641309 31.803101 55.726677 0
M  V30 6 C 39.662624 34.315813 61.689946 0 CFG=1
M  V30 7 C 39.013822 29.698810 57.824039 0
M  V30 8 C 37.164429 30.812111 59.063775 0
M  V30 9 C 43.358410 28.716942 65.528396 0
M  V30 10 N 38.048958 31.744090 61.273332 0 CHG=1
M  V30 11 C 39.458618 30.646919 55.179831 0
M  V30 12 C 41.515230 28.199762 63.883247 0
M  V30 13 C 40.453980 29.913782 62.491637 0
M  V30 14 C 39.495566 31.769784 61.004915 0 CFG=2
M  V30 15 C 42.620535 30.012458 65.840586 0
M  V30 16 Cl 40.667583 31.707322 65.310674 0
M  V30 17 O 37.465461 29.406395 54.668435 0
M  V30 18 C 41.872600 30.581738 64.617942 0 CFG=2
M  V30 19 C 39.804853 28.841606 61.617033 0
M  V30 20 C 37.167281 34.675132 60.992699 0
M  V30 21 C 40.943201 35.119587 61.996284 0
M  V30 22 C 40.288461 31.229273 62.196567 0
M  V30 23 C 38.569311 28.738031 56.714166 0
M  V30 24 C 38.560559 35.303384 61.208299 0 CFG=1
M  V30 25 C 37.084111 31.930507 60.163990 0 CFG=1
M  V30 26 C 38.736448 29.288512 55.281334 0 CFG=2
M  V30 27 C 38.443062 36.488927 62.193580 0
M  V30 28 C 40.676766 36.312746 62.920676 0
M  V30 29 C 38.066527 31.845161 56.948097 0
M  V30 30 S 35.558467 31.621615 61.053575 0 CHG=-1
M  V30 31 N 38.140822 30.863246 57.948164 0
M  V30 32 C 41.514776 27.007233 66.103039 0
M  V30 33 C 39.999313 33.183504 60.675704 0
M  V30 34 H 42.984008 26.865654 64.572599 0
M  V30 35 H 38.492519 32.635288 55.053908 0
M  V30 36 H 39.332672 33.874235 62.631488 0
M  V30 37 H 40.043443 30.021168 57.676230 0
M  V30 38 H 39.029217 29.142919 58.758688 0
M  V30 39 H 36.185525 30.772396 58.594701 0
M  V30 40 H 37.227560 29.845225 59.563495 0
M  V30 41 H 43.890283 28.357014 66.409088 0
M  V30 42 H 44.119394 28.911394 64.770322 0
M  V30 43 H 37.833303 32.430277 61.978462 0
M  V30 44 H 40.450737 30.628805 55.613832 0
M  V30 45 H 39.624325 30.861872 54.123070 0
M  V30 46 H 41.102347 27.462033 63.217290 0
M  V30 47 H 39.714517 31.129519 60.154858 0
M  V30 48 H 41.911552 29.814590 66.646046 0
M  V30 49 H 43.313278 30.760332 66.230257 0
M  V30 50 H 36.979389 30.061775 55.153579 0
M  V30 51 H 42.573621 31.179722 64.035229 0
M  V30 52 H 40.558963 28.326113 61.021591 0
M  V30 53 H 39.295505 28.106531 62.242454 0
M  V30 54 H 39.039514 29.215536 60.947443 0
M  V30 55 H 36.439435 35.470863 60.834421 0
M  V30 56 H 36.812730 34.119799 61.853909 0
M  V30 57 H 41.379388 35.491589 61.067902 0
M  V30 58 H 41.687690 34.469914 62.456856 0
M  V30 59 H 40.747944 31.974393 62.820370 0
M  V30 60 H 37.541909 28.419578 56.894023 0
M  V30 61 H 39.170777 27.832289 56.801629 0
M  V30 62 H 38.876081 35.725838 60.253507 0
M  V30 63 H 39.299719 28.558405 54.699094 0
M  V30 64 H 37.718093 37.218104 61.829570 0
M  V30 65 H 38.087828 36.158366 63.170745 0
M  V30 66 H 41.596516 36.879957 63.052540 0
M  V30 67 H 40.359201 35.985977 63.911864 0
M  V30 68 H 37.466814 32.685954 57.224259 0
M  V30 69 H 40.934427 26.180876 65.691300 0
M  V30 70 H 42.134484 26.603242 66.903724 0
M  V30 71 H 40.809774 27.714913 66.543633 0
M  V30 72 H 39.760636 33.475318 59.654753 0
M  V30 73 H 41.067166 33.046053 60.653502 0
M  V30 74 H 37.841821 30.835873 61.659142 0
M  V30 END ATOM
M  V30 BEGIN BOND
M  V30 1 1 9 3
M  V30 2 1 11 5
M  V30 3 2 12 1
M  V30 4 1 12 3
M  V30 5 1 13 1
M  V30 6 1 14 10
M  V30 7 1 15 9
M  V30 8 1 18 1
M  V30 9 1 18 15
M  V30 10 1 18 16
M  V30 11 1 19 13
M  V30 12 1 20 2
M  V30 13 1 21 6
M  V30 14 2 22 13
M  V30 15 1 22 14
M  V30 16 1 23 7
M  V30 17 1 24 6
M  V30 18 1 24 20
M  V30 19 1 25 2
M  V30 20 1 25 8
M  V30 21 1 25 10
M  V30 22 1 26 11
M  V30 23 1 26 17
M  V30 24 1 26 23
M  V30 25 1 27 4
M  V30 26 1 27 24
M  V30 27 1 28 4
M  V30 28 1 28 21
M  V30 29 2 29 5
M  V30 30 1 25 30 CFG=1
M  V30 31 1 31 7
M  V30 32 1 31 8
M  V30 33 1 31 29
M  V30 34 1 32 3
M  V30 35 1 33 6
M  V30 36 1 33 14
M  V30 37 1 3 34 CFG=3
M  V30 38 1 35 5
M  V30 39 1 6 36 CFG=1
M  V30 40 1 37 7
M  V30 41 1 38 7
M  V30 42 1 39 8
M  V30 43 1 40 8
M  V30 44 1 41 9
M  V30 45 1 42 9
M  V30 46 1 43 10
M  V30 47 1 44 11
M  V30 48 1 45 11
M  V30 49 1 46 12
M  V30 50 1 14 47 CFG=3
M  V30 51 1 48 15
M  V30 52 1 49 15
M  V30 53 1 50 17
M  V30 54 1 18 51 CFG=3
M  V30 55 1 52 19
M  V30 56 1 53 19
M  V30 57 1 54 19
M  V30 58 1 55 20
M  V30 59 1 56 20
M  V30 60 1 57 21
M  V30 61 1 58 21
M  V30 62 1 59 22
M  V30 63 1 60 23
M  V30 64 1 61 23
M  V30 65 1 24 62 CFG=3
M  V30 66 1 26 63 CFG=3
M  V30 67 1 64 27
M  V30 68 1 65 27
M  V30 69 1 66 28
M  V30 70 1 67 28
M  V30 71 1 68 29
M  V30 72 1 69 32
M  V30 73 1 70 32
M  V30 74 1 71 32
M  V30 75 1 72 33
M  V30 76 1 73 33
M  V30 77 1 74 10
M  V30 END BOND
M  V30 END CTAB
M  END
>  <i_epik_Tot_Q>  (1) 
0

>  <i_epik_Tot_abs_Q>  (1) 
2

>  <i_i_glide_confnum>  (1) 
30

>  <i_i_glide_lignum>  (1) 
259

>  <i_i_glide_posenum>  (1) 
279

>  <i_i_glide_rotatable_bonds>  (1) 
5

>  <i_lp_mmshare_version>  (1) 
72125

>  <i_m_source_file_index>  (1) 
94

>  <i_f3d_flags>  (1) 
0

>  <num_sample>  (1) 
100

>  <b_lp_Chiralities_Consistent>  (1) 
1

>  <r_epik_Charging_Adjusted_Penalty>  (1) 
0.80501984278308969

>  <r_epik_Ionization_Penalty>  (1) 
0.072421558423421364

>  <r_epik_Ionization_Penalty_Charging>  (1) 
0.072408791886815996

>  <r_epik_Ionization_Penalty_Neutral>  (1) 
1.2766536605372598e-05

>  <r_epik_State_Penalty>  (1) 
0.73261105089627365

>  <r_glide_ring_energy>  (1) 
1.2305908303780047

>  <r_i_docking_score>  (1) 
-4.3802648433498641

>  <r_i_glide_ecoul>  (1) 
-0.95482224261030513

>  <r_i_glide_eff_state_penalty>  (1) 
0.73261105089627365

>  <r_i_glide_einternal>  (1) 
13.19886929178093

>  <r_i_glide_emodel>  (1) 
-31.602682026513179

>  <r_i_glide_emodel_strain>  (1) 
1.346304371718162

>  <r_i_glide_energy>  (1) 
-39.210202676083462

>  <r_i_glide_erotb>  (1) 
0.31140238833871409

>  <r_i_glide_esite>  (1) 
-0.076186610101816973

>  <r_i_glide_evdw>  (1) 
-38.255380433473157

>  <r_i_glide_gscore>  (1) 
-5.1128758942461374

>  <r_i_glide_gscore_strain>  (1) 
0

>  <r_i_glide_hbond>  (1) 
-0.092850141857807988

>  <r_i_glide_ligand_efficiency>  (1) 
-0.13273529828332922

>  <r_i_glide_ligand_efficiency_ln>  (1) 
-0.97414822136344759

>  <r_i_glide_ligand_efficiency_sa>  (1) 
-0.42575302604601456

>  <r_i_glide_lipo>  (1) 
-2.7519592897995686

>  <r_i_glide_metal>  (1) 
-0

>  <r_i_glide_rewards>  (1) 
-0.44728988276045545

>  <r_lp_Energy>  (1) 
34.184450999999996

>  <s_epik_Chemistry_Notes>  (1) 
This compound has an imine and may undergo hydrolysis.

>  <s_epik_cmdline>  (1) 
J2VwaWtfcHl0aG9uJywgJy1waHQnLCAnMS4wJywgJy1waCcsICc3LjQnLCAnLXRuJywgJzgnLCAnLW1hJywgJzUwMCcsICctaW1hZScsICc8aW5maWxlLm1hZT4nLCAnLW9tYWUnLCAnPG91dGZpbGUubWFlPic=

>  <s_epik_input>  (1) 
Q2xbQ0BIXTFbQ0gyXVtDSDJdW0NAQEhdKFtDSDNdKVtDSF09QzEvQyhbQ0gzXSk9W0NIXS9bQ0BASF0oW0NIMl0yKVtOSF1bQ0BAXShbU0hdKShTW0NIMl1bQ0BIXShbQ0BASF0yMylbQ0gyXU9bQ0gyXVtDSDJdMylbQ0gyXU4oW0NIMl1bQ0gyXTQpW0NIXT1bQ0hdW0NIMl1bQ0BASF00W09IXQ==

>  <s_glide_docking_method>  (1) 
confgen

>  <s_i_glide_gridfile>  (1) 
gpcr_5ht2c_6bqh_protein_autoprepared_prepared

>  <s_lp_Force_Field>  (1) 
S-OPLS

>  <s_lp_Variant>  (1) 
DiffSBDD_93_num_sample_100-11

>  <s_m_source_file>  (1) 
generated__ligand_DiffSBDD_2026-05-06_prepared.sdf

>  <GenAI_Model>  (1) 
DiffSBDD

>  <Protein>  (1) 
GPCR_5HT2C

$$$$
DiffSBDD_93_num_sample_100
     RDKit          3D

  0  0  0  0  0  0  0  0  0  0999 V3000
M  V30 BEGIN CTAB
M  V30 COUNTS 74 77 0 0 1
M  V30 BEGIN ATOM
M  V30 1 C 41.625557 30.670474 66.117091 0
M  V30 2 S 39.065615 32.531690 59.734218 0
M  V30 3 C 41.678948 31.894357 68.354785 0 CFG=2
M  V30 4 O 39.548636 37.245827 61.853626 0
M  V30 5 C 40.314251 28.696522 57.146696 0
M  V30 6 C 40.169353 34.443425 62.300450 0 CFG=1
M  V30 7 C 37.748390 29.114716 58.625603 0
M  V30 8 C 39.137057 29.825246 60.553059 0
M  V30 9 C 42.685586 30.832863 68.814883 0
M  V30 10 N 39.016757 31.642796 62.270491 0 CHG=1
M  V30 11 C 39.125846 28.567403 56.202978 0
M  V30 12 C 41.420073 31.795676 66.859410 0
M  V30 13 C 41.384385 30.681992 64.643688 0
M  V30 14 C 40.468005 31.840217 62.558145 0 CFG=2
M  V30 15 C 42.226745 29.460914 68.338310 0
M  V30 16 Cl 41.081964 27.973755 66.443231 0
M  V30 17 O 38.980844 30.951709 55.904444 0
M  V30 18 C 42.124657 29.384199 66.803432 0 CFG=1
M  V30 19 C 41.887610 29.523877 63.780093 0
M  V30 20 C 38.321710 34.002878 60.482518 0
M  V30 21 C 41.096862 35.576610 62.737633 0
M  V30 22 C 40.730515 31.722202 64.054798 0
M  V30 23 C 37.373339 30.020995 57.457983 0
M  V30 24 C 39.363055 34.961754 61.069093 0 CFG=1
M  V30 25 C 38.571352 31.248925 60.907776 0 CFG=1
M  V30 26 C 38.201301 29.803493 56.177084 0 CFG=2
M  V30 27 C 38.621043 36.257251 61.459163 0
M  V30 28 C 40.319257 36.861936 62.971287 0
M  V30 29 C 40.243307 29.079002 58.442098 0
M  V30 30 S 36.769500 31.221380 61.053540 0 CHG=-1
M  V30 31 N 39.079432 29.389205 59.153184 0
M  V30 32 C 42.150000 33.304366 68.740491 0
M  V30 33 C 41.045497 33.186286 62.080760 0
M  V30 34 H 40.721963 31.728310 68.844008 0
M  V30 35 H 41.281714 28.472267 56.720287 0
M  V30 36 H 39.473411 34.256137 63.117242 0
M  V30 37 H 37.682711 28.066475 58.334822 0
M  V30 38 H 37.000059 29.221197 59.406739 0
M  V30 39 H 38.667470 29.065192 61.172877 0
M  V30 40 H 40.183428 29.756634 60.830344 0
M  V30 41 H 43.676272 31.048540 68.410371 0
M  V30 42 H 42.783004 30.841343 69.900909 0
M  V30 43 H 38.523871 32.490149 62.506010 0
M  V30 44 H 38.578920 27.646118 56.401611 0
M  V30 45 H 39.539793 28.441325 55.201272 0
M  V30 46 H 41.080964 32.700281 66.395583 0
M  V30 47 H 41.048318 31.088890 62.040824 0
M  V30 48 H 42.899508 28.684568 68.703873 0
M  V30 49 H 41.253041 29.251828 68.783491 0
M  V30 50 H 39.495291 31.135240 56.675842 0
M  V30 51 H 43.116360 29.162989 66.407011 0
M  V30 52 H 42.422488 28.748343 64.318602 0
M  V30 53 H 41.062021 29.046206 63.251723 0
M  V30 54 H 42.607742 29.895470 63.053224 0
M  V30 55 H 37.778456 34.501019 59.678332 0
M  V30 56 H 37.571267 33.761774 61.233033 0
M  V30 57 H 41.855471 35.754778 61.973242 0
M  V30 58 H 41.633471 35.314532 63.650544 0
M  V30 59 H 40.361773 32.537096 64.645997 0
M  V30 60 H 37.408387 31.062597 57.778784 0
M  V30 61 H 36.326761 29.825672 57.231364 0
M  V30 62 H 40.065939 35.208346 60.270959 0
M  V30 63 H 37.507601 29.696688 55.341649 0
M  V30 64 H 38.059200 36.650797 60.611130 0
M  V30 65 H 37.902502 36.077720 62.260897 0
M  V30 66 H 41.067044 37.621944 63.053455 0
M  V30 67 H 39.723412 36.829092 63.884258 0
M  V30 68 H 41.139988 29.164709 59.038099 0
M  V30 69 H 41.440948 34.062551 68.407873 0
M  V30 70 H 42.246669 33.404025 69.821228 0
M  V30 71 H 43.118788 33.537863 68.297648 0
M  V30 72 H 41.361780 33.119081 61.053126 0
M  V30 73 H 42.001546 33.309537 62.594288 0
M  V30 74 H 38.682255 30.912767 62.884322 0
M  V30 END ATOM
M  V30 BEGIN BOND
M  V30 1 1 9 3
M  V30 2 1 11 5
M  V30 3 2 12 1
M  V30 4 1 12 3
M  V30 5 1 13 1
M  V30 6 1 14 10
M  V30 7 1 15 9
M  V30 8 1 18 1
M  V30 9 1 18 15
M  V30 10 1 18 16
M  V30 11 1 19 13
M  V30 12 1 20 2
M  V30 13 1 21 6
M  V30 14 2 22 13
M  V30 15 1 22 14
M  V30 16 1 23 7
M  V30 17 1 24 6
M  V30 18 1 24 20
M  V30 19 1 25 2
M  V30 20 1 25 8
M  V30 21 1 25 10
M  V30 22 1 26 11
M  V30 23 1 26 17
M  V30 24 1 26 23
M  V30 25 1 27 4
M  V30 26 1 27 24
M  V30 27 1 28 4
M  V30 28 1 28 21
M  V30 29 2 29 5
M  V30 30 1 25 30 CFG=1
M  V30 31 1 31 7
M  V30 32 1 31 8
M  V30 33 1 31 29
M  V30 34 1 32 3
M  V30 35 1 33 6
M  V30 36 1 33 14
M  V30 37 1 3 34 CFG=1
M  V30 38 1 35 5
M  V30 39 1 6 36 CFG=1
M  V30 40 1 37 7
M  V30 41 1 38 7
M  V30 42 1 39 8
M  V30 43 1 40 8
M  V30 44 1 41 9
M  V30 45 1 42 9
M  V30 46 1 43 10
M  V30 47 1 44 11
M  V30 48 1 45 11
M  V30 49 1 46 12
M  V30 50 1 14 47 CFG=3
M  V30 51 1 48 15
M  V30 52 1 49 15
M  V30 53 1 50 17
M  V30 54 1 18 51 CFG=3
M  V30 55 1 52 19
M  V30 56 1 53 19
M  V30 57 1 54 19
M  V30 58 1 55 20
M  V30 59 1 56 20
M  V30 60 1 57 21
M  V30 61 1 58 21
M  V30 62 1 59 22
M  V30 63 1 60 23
M  V30 64 1 61 23
M  V30 65 1 24 62 CFG=3
M  V30 66 1 26 63 CFG=3
M  V30 67 1 64 27
M  V30 68 1 65 27
M  V30 69 1 66 28
M  V30 70 1 67 28
M  V30 71 1 68 29
M  V30 72 1 69 32
M  V30 73 1 70 32
M  V30 74 1 71 32
M  V30 75 1 72 33
M  V30 76 1 73 33
M  V30 77 1 74 10
M  V30 END BOND
M  V30 END CTAB
M  END
>  <i_epik_Tot_Q>  (1) 
0

>  <i_epik_Tot_abs_Q>  (1) 
2

>  <i_i_glide_confnum>  (1) 
85

>  <i_i_glide_lignum>  (1) 
263

>  <i_i_glide_posenum>  (1) 
249

>  <i_i_glide_rotatable_bonds>  (1) 
5

>  <i_lp_mmshare_version>  (1) 
72125

>  <i_m_source_file_index>  (1) 
94

>  <i_f3d_flags>  (1) 
0

>  <num_sample>  (1) 
100

>  <b_lp_Chiralities_Consistent>  (1) 
1

>  <r_epik_Charging_Adjusted_Penalty>  (1) 
0.80501984278308969

>  <r_epik_Ionization_Penalty>  (1) 
0.072421558423421364

>  <r_epik_Ionization_Penalty_Charging>  (1) 
0.072408791886815996

>  <r_epik_Ionization_Penalty_Neutral>  (1) 
1.2766536605372598e-05

>  <r_epik_State_Penalty>  (1) 
0.73261105089627365

>  <r_glide_ring_energy>  (1) 
0

>  <r_i_docking_score>  (1) 
-4.3794143697902168

>  <r_i_glide_ecoul>  (1) 
-1.3728324298090011

>  <r_i_glide_eff_state_penalty>  (1) 
0.73261105089627365

>  <r_i_glide_einternal>  (1) 
5.7516944905470879

>  <r_i_glide_emodel>  (1) 
-34.492236415274746

>  <r_i_glide_emodel_strain>  (1) 
0.30745193166676188

>  <r_i_glide_energy>  (1) 
-32.934765680775762

>  <r_i_glide_erotb>  (1) 
0.31140238833871409

>  <r_i_glide_esite>  (1) 
0

>  <r_i_glide_evdw>  (1) 
-31.56193325096676

>  <r_i_glide_gscore>  (1) 
-5.1120254206864901

>  <r_i_glide_gscore_strain>  (1) 
0

>  <r_i_glide_hbond>  (1) 
-0.14551958014937266

>  <r_i_glide_ligand_efficiency>  (1) 
-0.13270952635727928

>  <r_i_glide_ligand_efficiency_ln>  (1) 
-0.9739590804472984

>  <r_i_glide_ligand_efficiency_sa>  (1) 
-0.42567036170845934

>  <r_i_glide_lipo>  (1) 
-3.0855194986799206

>  <r_i_glide_metal>  (1) 
-0

>  <r_i_glide_rewards>  (1) 
-0.4083672031762236

>  <r_lp_Energy>  (1) 
38.618955

>  <s_epik_Chemistry_Notes>  (1) 
This compound has an imine and may undergo hydrolysis.

>  <s_epik_cmdline>  (1) 
J2VwaWtfcHl0aG9uJywgJy1waHQnLCAnMS4wJywgJy1waCcsICc3LjQnLCAnLXRuJywgJzgnLCAnLW1hJywgJzUwMCcsICctaW1hZScsICc8aW5maWxlLm1hZT4nLCAnLW9tYWUnLCAnPG91dGZpbGUubWFlPic=

>  <s_epik_input>  (1) 
Q2xbQ0BIXTFbQ0gyXVtDSDJdW0NAQEhdKFtDSDNdKVtDSF09QzEvQyhbQ0gzXSk9W0NIXS9bQ0BASF0oW0NIMl0yKVtOSF1bQ0BAXShbU0hdKShTW0NIMl1bQ0BIXShbQ0BASF0yMylbQ0gyXU9bQ0gyXVtDSDJdMylbQ0gyXU4oW0NIMl1bQ0gyXTQpW0NIXT1bQ0hdW0NIMl1bQ0BASF00W09IXQ==

>  <s_glide_docking_method>  (1) 
confgen

>  <s_i_glide_gridfile>  (1) 
gpcr_5ht2c_6bqh_protein_autoprepared_prepared

>  <s_lp_Force_Field>  (1) 
S-OPLS

>  <s_lp_Variant>  (1) 
DiffSBDD_93_num_sample_100-15

>  <s_m_source_file>  (1) 
generated__ligand_DiffSBDD_2026-05-06_prepared.sdf

>  <GenAI_Model>  (1) 
DiffSBDD

>  <Protein>  (1) 
GPCR_5HT2C

$$$$
DiffSBDD_44_num_sample_100
     RDKit          3D

  0  0  0  0  0  0  0  0  0  0999 V3000
M  V30 BEGIN CTAB
M  V30 COUNTS 58 59 0 0 1
M  V30 BEGIN ATOM
M  V30 1 C 40.033236 29.302567 55.754174 0
M  V30 2 O 37.847366 29.411927 59.171296 0 CHG=-1
M  V30 3 C 41.067761 33.431784 63.281616 0
M  V30 4 C 38.085563 30.660816 56.164973 0 CFG=1
M  V30 5 N 38.800482 30.515600 57.447514 0 CFG=2 CHG=1
M  V30 6 C 40.901154 31.542704 64.857734 0
M  V30 7 N 38.772262 31.445236 62.253539 0
M  V30 8 C 40.726403 32.183582 63.482371 0
M  V30 9 O 40.599146 29.942502 62.634759 0
M  V30 10 C 39.137191 30.361857 55.100810 0 CFG=1
M  V30 11 C 39.891813 31.620267 54.714760 0
M  V30 12 C 38.772334 31.472893 59.760798 0 CFG=1
M  V30 13 C 38.115026 31.539948 61.158292 0
M  V30 14 C 39.789505 29.414827 57.272260 0
M  V30 15 C 40.374324 28.981287 61.616435 0
M  V30 16 C 42.030647 34.833340 65.069966 0
M  V30 17 C 37.989977 30.630966 58.708021 0 CFG=2
M  V30 18 C 40.222947 31.290194 62.353441 0 CFG=1
M  V30 19 F 42.700195 33.911233 67.095158 0
M  V30 20 C 42.339333 33.531635 65.872365 0 CFG=1
M  V30 21 C 41.531714 34.594985 63.655135 0
M  V30 22 C 39.029725 32.914318 59.265502 0
M  V30 23 C 36.610291 31.737410 61.152187 0
M  V30 24 C 37.006650 29.621380 56.023021 0
M  V30 25 C 41.165402 32.530907 66.034041 0
M  V30 26 H 41.067499 29.422328 55.453732 0
M  V30 27 H 39.736897 28.307893 55.417698 0
M  V30 28 H 37.655881 31.659232 56.067952 0
M  V30 29 H 40.000072 30.968430 65.080556 0
M  V30 30 H 41.719859 30.823883 64.799366 0
M  V30 31 H 38.684006 29.963998 54.190049 0
M  V30 32 H 40.348910 32.083208 55.587337 0
M  V30 33 H 40.672639 31.375225 53.995796 0
M  V30 34 H 39.215699 32.345679 54.260997 0
M  V30 35 H 39.724565 30.964892 59.853213 0
M  V30 36 H 40.682284 29.622452 57.853604 0
M  V30 37 H 39.417920 28.447142 57.609912 0
M  V30 38 H 40.735376 28.012390 61.957611 0
M  V30 39 H 39.313263 28.871666 61.395160 0
M  V30 40 H 40.914823 29.227651 60.702866 0
M  V30 41 H 42.933685 35.442001 65.011267 0
M  V30 42 H 41.287999 35.435338 65.594657 0
M  V30 43 H 37.118614 31.234706 58.447811 0
M  V30 44 H 40.759742 31.630705 61.468414 0
M  V30 45 H 43.205288 33.016322 65.457004 0
M  V30 46 H 41.599797 35.423993 62.965649 0
M  V30 47 H 39.696941 33.451634 59.939482 0
M  V30 48 H 39.468779 32.943721 58.270519 0
M  V30 49 H 38.102510 33.484919 59.205409 0
M  V30 50 H 36.311098 32.453225 60.386630 0
M  V30 51 H 36.104574 30.791546 60.960354 0
M  V30 52 H 36.274335 32.120669 62.112503 0
M  V30 53 H 36.466655 29.742739 55.083292 0
M  V30 54 H 37.467437 28.628421 56.045041 0
M  V30 55 H 36.285463 29.694098 56.836070 0
M  V30 56 H 40.267525 33.102365 66.250128 0
M  V30 57 H 41.344211 31.926048 66.924075 0
M  V30 58 H 39.359972 31.352866 57.463538 0
M  V30 END ATOM
M  V30 BEGIN BOND
M  V30 1 1 5 4
M  V30 2 2 8 3
M  V30 3 1 8 6
M  V30 4 1 10 1
M  V30 5 1 10 4
M  V30 6 1 11 10
M  V30 7 2 13 7
M  V30 8 1 13 12
M  V30 9 1 14 1
M  V30 10 1 14 5
M  V30 11 1 15 9
M  V30 12 1 17 2
M  V30 13 1 17 5
M  V30 14 1 17 12
M  V30 15 1 18 7
M  V30 16 1 18 8
M  V30 17 1 18 9
M  V30 18 1 20 16
M  V30 19 1 20 19
M  V30 20 2 21 3
M  V30 21 1 21 16
M  V30 22 1 22 12
M  V30 23 1 23 13
M  V30 24 1 24 4
M  V30 25 1 25 6
M  V30 26 1 25 20
M  V30 27 1 26 1
M  V30 28 1 27 1
M  V30 29 1 4 28 CFG=3
M  V30 30 1 29 6
M  V30 31 1 30 6
M  V30 32 1 10 31 CFG=3
M  V30 33 1 32 11
M  V30 34 1 33 11
M  V30 35 1 34 11
M  V30 36 1 12 35 CFG=1
M  V30 37 1 36 14
M  V30 38 1 37 14
M  V30 39 1 38 15
M  V30 40 1 39 15
M  V30 41 1 40 15
M  V30 42 1 41 16
M  V30 43 1 42 16
M  V30 44 1 17 43 CFG=3
M  V30 45 1 18 44 CFG=3
M  V30 46 1 20 45 CFG=3
M  V30 47 1 46 21
M  V30 48 1 47 22
M  V30 49 1 48 22
M  V30 50 1 49 22
M  V30 51 1 50 23
M  V30 52 1 51 23
M  V30 53 1 52 23
M  V30 54 1 53 24
M  V30 55 1 54 24
M  V30 56 1 55 24
M  V30 57 1 56 25
M  V30 58 1 57 25
M  V30 59 1 5 58 CFG=1
M  V30 END BOND
M  V30 END CTAB
M  END
>  <i_epik_Tot_Q>  (1) 
0

>  <i_epik_Tot_abs_Q>  (1) 
2

>  <i_i_glide_confnum>  (1) 
4

>  <i_i_glide_lignum>  (1) 
115

>  <i_i_glide_posenum>  (1) 
110

>  <i_i_glide_rotatable_bonds>  (1) 
6

>  <i_lp_mmshare_version>  (1) 
72125

>  <i_m_source_file_index>  (1) 
45

>  <i_f3d_flags>  (1) 
0

>  <num_sample>  (1) 
100

>  <b_lp_Chiralities_Consistent>  (1) 
1

>  <r_epik_Charging_Adjusted_Penalty>  (1) 
0.41733257654759531

>  <r_epik_Ionization_Penalty>  (1) 
0.0069177268181324029

>  <r_epik_Ionization_Penalty_Charging>  (1) 
0.0066527375949913311

>  <r_epik_Ionization_Penalty_Neutral>  (1) 
0.00026498922314107146

>  <r_epik_State_Penalty>  (1) 
0.41067983895260396

>  <r_glide_ring_energy>  (1) 
0

>  <r_i_docking_score>  (1) 
-4.3519494929355105

>  <r_i_glide_ecoul>  (1) 
-0.99948777681931489

>  <r_i_glide_eff_state_penalty>  (1) 
0.41067983895260396

>  <r_i_glide_einternal>  (1) 
6.668074116951388

>  <r_i_glide_emodel>  (1) 
-35.291870774772242

>  <r_i_glide_emodel_strain>  (1) 
0.30544962715256929

>  <r_i_glide_energy>  (1) 
-28.310855118260282

>  <r_i_glide_erotb>  (1) 
0.61440649929112812

>  <r_i_glide_esite>  (1) 
-0.083044888969251926

>  <r_i_glide_evdw>  (1) 
-27.311367341440967

>  <r_i_glide_gscore>  (1) 
-4.7626293318881148

>  <r_i_glide_gscore_strain>  (1) 
0

>  <r_i_glide_hbond>  (1) 
0

>  <r_i_glide_ligand_efficiency>  (1) 
-0.17407797971742042

>  <r_i_glide_ligand_efficiency_ln>  (1) 
-1.0315424472279808

>  <r_i_glide_ligand_efficiency_sa>  (1) 
-0.50900710052599685

>  <r_i_glide_lipo>  (1) 
-1.9199723282280952

>  <r_i_glide_metal>  (1) 
-0

>  <r_i_glide_rewards>  (1) 
-1.8585270803869491

>  <r_lp_Energy>  (1) 
18.158839

>  <r_lp_tautomer_probability>  (1) 
0.49999399997599986

>  <s_epik_Chemistry_Notes>  (1) 
This compound has an imine and may undergo hydrolysis. This compound contains an acetal/aminal-like group ( X-CH(R)-Y where X, Y are N, S, or O) that may be acid/base labile, releasing an aldehyde.

>  <s_epik_cmdline>  (1) 
J2VwaWtfcHl0aG9uJywgJy1waHQnLCAnMS4wJywgJy1waCcsICc3LjQnLCAnLXRuJywgJzgnLCAnLW1hJywgJzUwMCcsICctaW1hZScsICc8aW5maWxlLm1hZT4nLCAnLW9tYWUnLCAnPG91dGZpbGUubWFlPic=

>  <s_epik_input>  (1) 
W0NIM11bQ0BIXTFbQ0gyXVtDSDJdTihbQ0BASF0xW0NIM10pW0NAQEhdKFtPSF0pW0NAQEhdKFtDSDNdKS9DKFtDSDNdKT1OXFtDQEBIXShPW0NIM10pQzI9Qz1bQ0hdW0NIMl1bQ0BASF0oRilbQ0gyXVtDSDJdMg==

>  <s_glide_docking_method>  (1) 
confgen

>  <s_i_glide_gridfile>  (1) 
gpcr_5ht2c_6bqh_protein_autoprepared_prepared

>  <s_lp_Force_Field>  (1) 
S-OPLS

>  <s_lp_Variant>  (1) 
DiffSBDD_44_num_sample_100-8

>  <s_m_source_file>  (1) 
generated__ligand_DiffSBDD_2026-05-06_prepared.sdf

>  <GenAI_Model>  (1) 
DiffSBDD

>  <Protein>  (1) 
GPCR_5HT2C

$$$$
DiffSBDD_44_num_sample_100
     RDKit          3D

  0  0  0  0  0  0  0  0  0  0999 V3000
M  V30 BEGIN CTAB
M  V30 COUNTS 58 59 0 0 1
M  V30 BEGIN ATOM
M  V30 1 C 38.814899 31.332055 55.242542 0
M  V30 2 O 38.753401 30.815420 59.389767 0 CHG=-1
M  V30 3 C 40.484289 30.702694 62.117608 0
M  V30 4 C 37.477673 29.971755 56.770363 0 CFG=1
M  V30 5 N 37.867404 31.271186 57.392277 0 CFG=2 CHG=1
M  V30 6 C 40.780569 32.387461 63.891144 0
M  V30 7 N 38.486290 33.221420 61.719949 0
M  V30 8 C 40.396025 31.957503 62.475921 0
M  V30 9 O 40.635576 34.254008 61.740949 0
M  V30 10 C 38.222202 29.930490 55.415267 0 CFG=1
M  V30 11 C 37.322507 29.514968 54.253676 0
M  V30 12 C 37.871113 32.968400 59.300059 0 CFG=1
M  V30 13 C 37.578688 33.181731 60.815480 0
M  V30 14 C 39.060647 31.756485 56.680920 0
M  V30 15 C 40.273090 35.346566 60.910021 0
M  V30 16 C 41.176035 28.918962 63.670915 0
M  V30 17 C 37.743945 31.466147 58.869602 0 CFG=2
M  V30 18 C 39.919178 33.041799 61.511490 0 CFG=2
M  V30 19 F 41.406669 29.332109 65.950128 0
M  V30 20 C 40.916580 29.906404 64.851444 0 CFG=1
M  V30 21 C 40.708034 29.432820 62.320854 0
M  V30 22 C 36.992045 33.907348 58.440752 0
M  V30 23 C 36.110285 33.347014 61.171001 0
M  V30 24 C 37.755564 28.706408 57.606034 0
M  V30 25 C 41.559297 31.319388 64.723685 0
M  V30 26 H 38.093202 32.006457 54.777256 0
M  V30 27 H 39.723352 31.337537 54.638906 0
M  V30 28 H 36.403945 30.021429 56.600273 0
M  V30 29 H 41.395126 33.286228 63.843921 0
M  V30 30 H 39.867401 32.668220 64.414063 0
M  V30 31 H 39.056816 29.230287 55.481734 0
M  V30 32 H 36.431383 30.143140 54.253487 0
M  V30 33 H 37.836681 29.621454 53.298181 0
M  V30 34 H 37.008332 28.475950 54.349824 0
M  V30 35 H 38.875901 33.314707 59.073508 0
M  V30 36 H 39.245678 32.824208 56.788060 0
M  V30 37 H 39.911237 31.203870 57.053505 0
M  V30 38 H 40.988845 36.157671 61.046390 0
M  V30 39 H 40.267402 35.067448 59.857012 0
M  V30 40 H 39.286241 35.730983 61.168609 0
M  V30 41 H 40.667403 27.976185 63.872233 0
M  V30 42 H 42.238996 28.686231 63.597391 0
M  V30 43 H 36.713165 31.178105 59.083910 0
M  V30 44 H 40.181821 32.698727 60.514353 0
M  V30 45 H 39.844783 30.007183 65.029126 0
M  V30 46 H 40.574676 28.703578 61.534767 0
M  V30 47 H 37.064962 34.940863 58.781926 0
M  V30 48 H 37.296257 33.910229 57.395585 0
M  V30 49 H 35.940367 33.621424 58.461766 0
M  V30 50 H 35.531565 32.485090 60.839403 0
M  V30 51 H 35.994343 33.451059 62.248956 0
M  V30 52 H 35.694468 34.250037 60.725646 0
M  V30 53 H 37.467407 27.806559 57.063527 0
M  V30 54 H 38.813585 28.614284 57.853243 0
M  V30 55 H 37.193822 28.720741 58.539495 0
M  V30 56 H 42.570284 31.214018 64.328138 0
M  V30 57 H 41.684554 31.729633 65.726366 0
M  V30 58 H 37.112218 31.861463 57.053516 0
M  V30 END ATOM
M  V30 BEGIN BOND
M  V30 1 1 5 4
M  V30 2 2 8 3
M  V30 3 1 8 6
M  V30 4 1 10 1
M  V30 5 1 10 4
M  V30 6 1 11 10
M  V30 7 2 13 7
M  V30 8 1 13 12
M  V30 9 1 14 1
M  V30 10 1 14 5
M  V30 11 1 15 9
M  V30 12 1 17 2
M  V30 13 1 17 5
M  V30 14 1 17 12
M  V30 15 1 18 7
M  V30 16 1 18 8
M  V30 17 1 18 9
M  V30 18 1 20 16
M  V30 19 1 20 19
M  V30 20 2 21 3
M  V30 21 1 21 16
M  V30 22 1 22 12
M  V30 23 1 23 13
M  V30 24 1 24 4
M  V30 25 1 25 6
M  V30 26 1 25 20
M  V30 27 1 26 1
M  V30 28 1 27 1
M  V30 29 1 4 28 CFG=3
M  V30 30 1 29 6
M  V30 31 1 30 6
M  V30 32 1 10 31 CFG=1
M  V30 33 1 32 11
M  V30 34 1 33 11
M  V30 35 1 34 11
M  V30 36 1 12 35 CFG=1
M  V30 37 1 36 14
M  V30 38 1 37 14
M  V30 39 1 38 15
M  V30 40 1 39 15
M  V30 41 1 40 15
M  V30 42 1 41 16
M  V30 43 1 42 16
M  V30 44 1 17 43 CFG=1
M  V30 45 1 18 44 CFG=3
M  V30 46 1 20 45 CFG=1
M  V30 47 1 46 21
M  V30 48 1 47 22
M  V30 49 1 48 22
M  V30 50 1 49 22
M  V30 51 1 50 23
M  V30 52 1 51 23
M  V30 53 1 52 23
M  V30 54 1 53 24
M  V30 55 1 54 24
M  V30 56 1 55 24
M  V30 57 1 56 25
M  V30 58 1 57 25
M  V30 59 1 5 58 CFG=3
M  V30 END BOND
M  V30 END CTAB
M  END
>  <i_epik_Tot_Q>  (1) 
0

>  <i_epik_Tot_abs_Q>  (1) 
2

>  <i_i_glide_confnum>  (1) 
9

>  <i_i_glide_lignum>  (1) 
111

>  <i_i_glide_posenum>  (1) 
193

>  <i_i_glide_rotatable_bonds>  (1) 
6

>  <i_lp_mmshare_version>  (1) 
72125

>  <i_m_source_file_index>  (1) 
45

>  <i_f3d_flags>  (1) 
0

>  <num_sample>  (1) 
100

>  <b_lp_Chiralities_Consistent>  (1) 
1

>  <r_epik_Charging_Adjusted_Penalty>  (1) 
0.41733257654759531

>  <r_epik_Ionization_Penalty>  (1) 
0.0069177268181324029

>  <r_epik_Ionization_Penalty_Charging>  (1) 
0.0066527375949913311

>  <r_epik_Ionization_Penalty_Neutral>  (1) 
0.00026498922314107146

>  <r_epik_State_Penalty>  (1) 
0.41067983895260396

>  <r_glide_ring_energy>  (1) 
0

>  <r_i_docking_score>  (1) 
-4.3397817841185331

>  <r_i_glide_ecoul>  (1) 
-5.0428366956465256

>  <r_i_glide_eff_state_penalty>  (1) 
0.41067983895260396

>  <r_i_glide_einternal>  (1) 
5.1682532554336245

>  <r_i_glide_emodel>  (1) 
-44.238687636977566

>  <r_i_glide_emodel_strain>  (1) 
0.79220031605562724

>  <r_i_glide_energy>  (1) 
-35.68271867497868

>  <r_i_glide_erotb>  (1) 
0.61440649929112812

>  <r_i_glide_esite>  (1) 
-0.17107520272063781

>  <r_i_glide_evdw>  (1) 
-30.639881979332152

>  <r_i_glide_gscore>  (1) 
-4.7504616230711374

>  <r_i_glide_gscore_strain>  (1) 
0

>  <r_i_glide_hbond>  (1) 
-0.16045652023768378

>  <r_i_glide_ligand_efficiency>  (1) 
-0.17359127136474131

>  <r_i_glide_ligand_efficiency_ln>  (1) 
-1.0286583356015484

>  <r_i_glide_ligand_efficiency_sa>  (1) 
-0.50758395666942679

>  <r_i_glide_lipo>  (1) 
-0.91541981311429788

>  <r_i_glide_metal>  (1) 
-0

>  <r_i_glide_rewards>  (1) 
-1.8294969829760592

>  <r_lp_Energy>  (1) 
15.952547999999998

>  <r_lp_tautomer_probability>  (1) 
0.49999399997599986

>  <s_epik_Chemistry_Notes>  (1) 
This compound has an imine and may undergo hydrolysis. This compound contains an acetal/aminal-like group ( X-CH(R)-Y where X, Y are N, S, or O) that may be acid/base labile, releasing an aldehyde.

>  <s_epik_cmdline>  (1) 
J2VwaWtfcHl0aG9uJywgJy1waHQnLCAnMS4wJywgJy1waCcsICc3LjQnLCAnLXRuJywgJzgnLCAnLW1hJywgJzUwMCcsICctaW1hZScsICc8aW5maWxlLm1hZT4nLCAnLW9tYWUnLCAnPG91dGZpbGUubWFlPic=

>  <s_epik_input>  (1) 
W0NIM11bQ0BIXTFbQ0gyXVtDSDJdTihbQ0BASF0xW0NIM10pW0NAQEhdKFtPSF0pW0NAQEhdKFtDSDNdKS9DKFtDSDNdKT1OXFtDQEBIXShPW0NIM10pQzI9Qz1bQ0hdW0NIMl1bQ0BASF0oRilbQ0gyXVtDSDJdMg==

>  <s_glide_docking_method>  (1) 
confgen

>  <s_i_glide_gridfile>  (1) 
gpcr_5ht2c_6bqh_protein_autoprepared_prepared

>  <s_lp_Force_Field>  (1) 
S-OPLS

>  <s_lp_Variant>  (1) 
DiffSBDD_44_num_sample_100-4

>  <s_m_source_file>  (1) 
generated__ligand_DiffSBDD_2026-05-06_prepared.sdf

>  <GenAI_Model>  (1) 
DiffSBDD

>  <Protein>  (1) 
GPCR_5HT2C

$$$$
DiffSBDD_31_num_sample_100
     RDKit          3D

  0  0  0  0  0  0  0  0  0  0999 V3000
M  V30 BEGIN CTAB
M  V30 COUNTS 22 22 0 0 1
M  V30 BEGIN ATOM
M  V30 1 O 39.867405 29.180483 56.816827 0
M  V30 2 C 38.483117 30.540709 55.411040 0 CFG=1
M  V30 3 C 39.921834 30.619846 53.224133 0
M  V30 4 O 39.107642 31.642637 56.049144 0
M  V30 5 C 39.665668 29.908434 50.676445 0 CFG=2
M  V30 6 O 38.725966 28.174337 55.190503 0 CHG=-1
M  V30 7 C 39.932653 30.947236 51.740561 0 CFG=2
M  V30 8 C 38.529688 30.746521 53.878188 0
M  V30 9 C 39.078371 29.181264 55.844688 0
M  V30 10 S 39.466754 28.138577 51.061908 0
M  V30 11 C 41.032875 30.521463 50.779613 0
M  V30 12 H 37.440464 30.550456 55.731996 0
M  V30 13 H 40.648997 31.242014 53.738066 0
M  V30 14 H 40.266922 29.610459 53.351253 0
M  V30 15 H 38.584012 32.408939 55.876900 0
M  V30 16 H 39.067610 30.249419 49.852411 0
M  V30 17 H 39.505542 31.926043 51.535243 0
M  V30 18 H 37.867718 30.009238 53.422923 0
M  V30 19 H 38.110585 31.727468 53.652116 0
M  V30 20 H 38.284157 28.216755 51.680457 0
M  V30 21 H 41.313341 31.218951 49.994037 0
M  V30 22 H 41.816031 29.822679 51.053534 0
M  V30 END ATOM
M  V30 BEGIN BOND
M  V30 1 1 4 2
M  V30 2 1 7 3
M  V30 3 1 7 5
M  V30 4 1 8 2
M  V30 5 1 8 3
M  V30 6 2 9 1
M  V30 7 1 9 2
M  V30 8 1 9 6
M  V30 9 1 10 5
M  V30 10 1 11 5
M  V30 11 1 11 7
M  V30 12 1 2 12 CFG=1
M  V30 13 1 13 3
M  V30 14 1 14 3
M  V30 15 1 15 4
M  V30 16 1 5 16 CFG=3
M  V30 17 1 7 17 CFG=1
M  V30 18 1 18 8
M  V30 19 1 19 8
M  V30 20 1 20 10
M  V30 21 1 21 11
M  V30 22 1 22 11
M  V30 END BOND
M  V30 END CTAB
M  END
>  <i_epik_Tot_Q>  (1) 
-1

>  <i_epik_Tot_abs_Q>  (1) 
1

>  <i_i_glide_confnum>  (1) 
2

>  <i_i_glide_lignum>  (1) 
85

>  <i_i_glide_posenum>  (1) 
107

>  <i_i_glide_rotatable_bonds>  (1) 
6

>  <i_lp_mmshare_version>  (1) 
72125

>  <i_m_source_file_index>  (1) 
32

>  <i_f3d_flags>  (1) 
0

>  <num_sample>  (1) 
100

>  <b_lp_Chiralities_Consistent>  (1) 
1

>  <r_epik_Charging_Adjusted_Penalty>  (1) 
0.00018608046313999227

>  <r_epik_Ionization_Penalty>  (1) 
0.0019748008794804291

>  <r_epik_Ionization_Penalty_Charging>  (1) 
0.00018608046313999227

>  <r_epik_Ionization_Penalty_Neutral>  (1) 
0.0017887204163404367

>  <r_epik_State_Penalty>  (1) 
-0

>  <r_glide_ring_energy>  (1) 
0

>  <r_i_docking_score>  (1) 
-4.3288046794994983

>  <r_i_glide_ecoul>  (1) 
-0.87366034094118894

>  <r_i_glide_eff_state_penalty>  (1) 
-0

>  <r_i_glide_einternal>  (1) 
0.50059593585501716

>  <r_i_glide_emodel>  (1) 
-25.807171274625389

>  <r_i_glide_emodel_strain>  (1) 
0.00043720100681898799

>  <r_i_glide_energy>  (1) 
-19.825772129989282

>  <r_i_glide_erotb>  (1) 
1.524023084200782

>  <r_i_glide_esite>  (1) 
0

>  <r_i_glide_evdw>  (1) 
-18.952111789048093

>  <r_i_glide_gscore>  (1) 
-4.3288046794994983

>  <r_i_glide_gscore_strain>  (1) 
0

>  <r_i_glide_hbond>  (1) 
0

>  <r_i_glide_ligand_efficiency>  (1) 
-0.39352769813631805

>  <r_i_glide_ligand_efficiency_ln>  (1) 
-1.2739664798245733

>  <r_i_glide_ligand_efficiency_sa>  (1) 
-0.87519776574274288

>  <r_i_glide_lipo>  (1) 
-1.4805264954909334

>  <r_i_glide_metal>  (1) 
-0

>  <r_i_glide_rewards>  (1) 
-3.2936466276157637

>  <r_lp_Energy>  (1) 
14.639012999999998

>  <r_lp_tautomer_probability>  (1) 
1

>  <s_epik_cmdline>  (1) 
J2VwaWtfcHl0aG9uJywgJy1waHQnLCAnMS4wJywgJy1waCcsICc3LjQnLCAnLXRuJywgJzgnLCAnLW1hJywgJzUwMCcsICctaW1hZScsICc8aW5maWxlLm1hZT4nLCAnLW9tYWUnLCAnPG91dGZpbGUubWFlPic=

>  <s_epik_input>  (1) 
Tz1DKFtPSF0pW0NAQEhdKFtPSF0pW0NIMl1bQ0gyXVtDQEBIXShbQ0gyXTEpW0NAQEhdMVtTSF0=

>  <s_glide_docking_method>  (1) 
confgen

>  <s_i_glide_gridfile>  (1) 
gpcr_5ht2c_6bqh_protein_autoprepared_prepared

>  <s_lp_Force_Field>  (1) 
S-OPLS

>  <s_lp_Variant>  (1) 
DiffSBDD_31_num_sample_100-1

>  <s_m_source_file>  (1) 
generated__ligand_DiffSBDD_2026-05-06_prepared.sdf

>  <GenAI_Model>  (1) 
DiffSBDD

>  <Protein>  (1) 
GPCR_5HT2C

$$$$
DiffSBDD_8_num_sample_100
     RDKit          3D

  0  0  0  0  0  0  0  0  0  0999 V3000
M  V30 BEGIN CTAB
M  V30 COUNTS 55 55 0 0 1
M  V30 BEGIN ATOM
M  V30 1 C 40.018733 29.753620 60.341122 0
M  V30 2 C 39.280529 27.470875 57.809386 0
M  V30 3 C 40.761571 29.050185 59.187644 0
M  V30 4 C 39.609562 30.720288 53.098099 0
M  V30 5 C 38.700986 28.514051 53.624302 0 CFG=2
M  V30 6 C 39.018279 28.347223 52.123262 0
M  V30 7 N 37.528595 27.697563 54.013747 0 CHG=1
M  V30 8 C 38.489540 30.015710 53.880847 0 CFG=1
M  V30 9 S 39.867416 29.826030 51.548184 0
M  V30 10 C 38.558352 30.104163 60.031848 0
M  V30 11 C 38.436698 30.428972 55.367181 0
M  V30 12 C 36.856371 24.665820 56.741008 0
M  V30 13 C 38.255734 31.950141 55.550428 0
M  V30 14 N 37.867399 32.303327 56.924776 0 CHG=1
M  V30 15 C 37.791035 25.857645 56.517968 0 CFG=2
M  V30 16 C 38.557924 25.728302 55.183825 0
M  V30 17 C 40.307362 27.609418 58.933091 0
M  V30 18 C 38.746624 26.035481 57.707379 0
M  V30 19 C 37.760566 26.237763 53.971980 0
M  V30 20 H 40.548884 30.671132 60.598903 0
M  V30 21 H 40.057430 29.133401 61.237787 0
M  V30 22 H 38.445785 28.151105 57.971341 0
M  V30 23 H 39.745762 27.775282 56.872873 0
M  V30 24 H 40.699001 29.621434 58.264021 0
M  V30 25 H 41.820987 29.017207 59.439082 0
M  V30 26 H 40.544101 30.702425 53.660908 0
M  V30 27 H 39.366921 31.758628 52.887409 0
M  V30 28 H 39.562062 28.205015 54.213610 0
M  V30 29 H 39.635513 27.470636 51.923416 0
M  V30 30 H 38.105775 28.248611 51.533317 0
M  V30 31 H 36.773159 27.911480 53.378280 0
M  V30 32 H 37.531310 30.291380 53.453505 0
M  V30 33 H 38.121811 30.686438 60.843820 0
M  V30 34 H 37.949423 29.209038 59.908794 0
M  V30 35 H 38.478400 30.694791 59.121898 0
M  V30 36 H 37.602906 29.912672 55.845001 0
M  V30 37 H 39.339002 30.099309 55.884406 0
M  V30 38 H 37.411962 23.735471 56.861168 0
M  V30 39 H 36.268295 24.825012 57.644337 0
M  V30 40 H 36.161089 24.536021 55.912004 0
M  V30 41 H 39.178823 32.475012 55.302084 0
M  V30 42 H 37.479957 32.328154 54.882020 0
M  V30 43 H 37.907051 33.305348 57.041516 0
M  V30 44 H 36.882555 32.022836 57.053729 0
M  V30 45 H 37.157761 26.743360 56.492005 0
M  V30 46 H 39.517545 26.240913 55.231753 0
M  V30 47 H 38.822214 24.681744 55.026141 0
M  V30 48 H 41.175943 27.010577 58.653520 0
M  V30 49 H 39.908000 27.187914 59.853574 0
M  V30 50 H 39.569554 25.322327 57.635269 0
M  V30 51 H 38.230431 25.802580 58.640109 0
M  V30 52 H 38.293190 26.021432 53.053541 0
M  V30 53 H 36.814083 25.704805 53.899718 0
M  V30 54 H 38.454429 31.848791 57.605926 0
M  V30 55 H 37.245037 27.943064 54.950968 0
M  V30 END ATOM
M  V30 BEGIN BOND
M  V30 1 1 3 1
M  V30 2 1 6 5
M  V30 3 1 7 5
M  V30 4 1 8 4
M  V30 5 1 8 5
M  V30 6 1 9 4
M  V30 7 1 9 6
M  V30 8 1 10 1
M  V30 9 1 11 8
M  V30 10 1 13 11
M  V30 11 1 14 13
M  V30 12 1 15 12
M  V30 13 1 16 15
M  V30 14 1 17 2
M  V30 15 1 17 3
M  V30 16 1 18 2
M  V30 17 1 18 15
M  V30 18 1 19 7
M  V30 19 1 19 16
M  V30 20 1 20 1
M  V30 21 1 21 1
M  V30 22 1 22 2
M  V30 23 1 23 2
M  V30 24 1 24 3
M  V30 25 1 25 3
M  V30 26 1 26 4
M  V30 27 1 27 4
M  V30 28 1 5 28 CFG=1
M  V30 29 1 29 6
M  V30 30 1 30 6
M  V30 31 1 31 7
M  V30 32 1 8 32 CFG=3
M  V30 33 1 33 10
M  V30 34 1 34 10
M  V30 35 1 35 10
M  V30 36 1 36 11
M  V30 37 1 37 11
M  V30 38 1 38 12
M  V30 39 1 39 12
M  V30 40 1 40 12
M  V30 41 1 41 13
M  V30 42 1 42 13
M  V30 43 1 43 14
M  V30 44 1 44 14
M  V30 45 1 15 45 CFG=3
M  V30 46 1 46 16
M  V30 47 1 47 16
M  V30 48 1 48 17
M  V30 49 1 49 17
M  V30 50 1 50 18
M  V30 51 1 51 18
M  V30 52 1 52 19
M  V30 53 1 53 19
M  V30 54 1 54 14
M  V30 55 1 55 7
M  V30 END BOND
M  V30 END CTAB
M  END
>  <i_epik_Tot_Q>  (1) 
2

>  <i_epik_Tot_abs_Q>  (1) 
2

>  <i_i_glide_confnum>  (1) 
286

>  <i_i_glide_lignum>  (1) 
27

>  <i_i_glide_posenum>  (1) 
250

>  <i_i_glide_rotatable_bonds>  (1) 
11

>  <i_lp_mmshare_version>  (1) 
72125

>  <i_m_source_file_index>  (1) 
9

>  <i_f3d_flags>  (1) 
0

>  <num_sample>  (1) 
100

>  <b_lp_Chiralities_Consistent>  (1) 
1

>  <r_epik_Charging_Adjusted_Penalty>  (1) 
0.011852467883577517

>  <r_epik_Ionization_Penalty>  (1) 
0.0071594001399835584

>  <r_epik_Ionization_Penalty_Charging>  (1) 
0.0071594001399835584

>  <r_epik_Ionization_Penalty_Neutral>  (1) 
0

>  <r_epik_State_Penalty>  (1) 
0.0046930677435939585

>  <r_glide_ring_energy>  (1) 
0

>  <r_i_docking_score>  (1) 
-4.3271251096912424

>  <r_i_glide_ecoul>  (1) 
-5.9619291185771122

>  <r_i_glide_eff_state_penalty>  (1) 
0.0046930677435939585

>  <r_i_glide_einternal>  (1) 
8.4107877369338144

>  <r_i_glide_emodel>  (1) 
-43.062427728604803

>  <r_i_glide_emodel_strain>  (1) 
0.0010297516322630429

>  <r_i_glide_energy>  (1) 
-32.816742803472586

>  <r_i_glide_erotb>  (1) 
3.9335954406400124

>  <r_i_glide_esite>  (1) 
-0.10000000000000001

>  <r_i_glide_evdw>  (1) 
-26.854813684895472

>  <r_i_glide_gscore>  (1) 
-4.3318181774348368

>  <r_i_glide_gscore_strain>  (1) 
0

>  <r_i_glide_hbond>  (1) 
-0.20000000000000001

>  <r_i_glide_ligand_efficiency>  (1) 
-0.22774342682585486

>  <r_i_glide_ligand_efficiency_ln>  (1) 
-1.0970191534324796

>  <r_i_glide_ligand_efficiency_sa>  (1) 
-0.60771093562769685

>  <r_i_glide_lipo>  (1) 
-3.8275582428809161

>  <r_i_glide_metal>  (1) 
-0

>  <r_i_glide_rewards>  (1) 
-1.9008253231625931

>  <r_lp_Energy>  (1) 
22.085882999999999

>  <s_epik_cmdline>  (1) 
J2VwaWtfcHl0aG9uJywgJy1waHQnLCAnMS4wJywgJy1waCcsICc3LjQnLCAnLXRuJywgJzgnLCAnLW1hJywgJzUwMCcsICctaW1hZScsICc8aW5maWxlLm1hZT4nLCAnLW9tYWUnLCAnPG91dGZpbGUubWFlPic=

>  <s_epik_input>  (1) 
W0NIM11bQ0gyXVtDSDJdW0NIMl1bQ0gyXVtDSDJdW0NASF0oW0NIM10pW0NIMl1bQ0gyXVtOSF1bQ0BIXTFbQ0gyXVNbQ0gyXVtDQEBIXTFbQ0gyXVtDSDJdW05IMl0=

>  <s_glide_docking_method>  (1) 
confgen

>  <s_i_glide_gridfile>  (1) 
gpcr_5ht2c_6bqh_protein_autoprepared_prepared

>  <s_lp_Force_Field>  (1) 
S-OPLS

>  <s_lp_Variant>  (1) 
DiffSBDD_8_num_sample_100-1

>  <s_m_source_file>  (1) 
generated__ligand_DiffSBDD_2026-05-06_prepared.sdf

>  <GenAI_Model>  (1) 
DiffSBDD

>  <Protein>  (1) 
GPCR_5HT2C

$$$$
DiffSBDD_99_num_sample_100
     RDKit          3D

  0  0  0  0  0  0  0  0  0  0999 V3000
M  V30 BEGIN CTAB
M  V30 COUNTS 90 93 0 0 1
M  V30 BEGIN ATOM
M  V30 1 C 41.287358 28.514544 66.102407 0
M  V30 2 C 41.427846 30.785223 64.992404 0 CFG=1
M  V30 3 C 39.979794 25.806735 54.825898 0
M  V30 4 C 37.610145 29.255605 55.440164 0
M  V30 5 O 37.909166 24.429764 56.434644 0 CHG=-1
M  V30 6 O 42.693440 27.514006 69.239570 0
M  V30 7 O 43.124394 29.398597 63.856067 0
M  V30 8 C 38.355252 30.788089 60.098286 0
M  V30 9 O 41.067270 31.741340 67.953426 0
M  V30 10 C 41.776895 30.583750 67.545646 0 CFG=1
M  V30 11 C 36.717192 29.651499 58.487373 0
M  V30 12 C 42.120980 28.195894 68.389704 0
M  V30 13 C 39.205575 30.290796 57.040263 0
M  V30 14 C 41.782199 27.679606 67.041195 0
M  V30 15 O 39.867341 26.421453 53.556480 0
M  V30 16 C 38.524078 25.428257 56.871573 0
M  V30 17 C 41.522404 33.007713 67.500795 0
M  V30 18 C 39.789868 31.777734 62.003995 0 CFG=2
M  V30 19 C 37.477007 30.952069 58.830481 0 CFG=2
M  V30 20 C 41.863477 33.117840 66.005125 0
M  V30 21 C 39.557930 27.853720 56.336602 0 CFG=2
M  V30 22 C 42.014597 26.197194 66.808807 0
M  V30 23 C 40.045879 33.021683 62.894970 0 CFG=2
M  V30 24 C 40.719518 27.701961 57.359646 0
M  V30 25 C 38.272089 31.395063 57.576720 0
M  V30 26 C 39.214628 34.552274 61.056094 0
M  V30 27 C 37.627202 28.542190 57.919144 0
M  V30 28 O 38.779403 25.655129 58.073651 0
M  V30 29 C 40.339370 34.277500 62.057533 0
M  V30 30 C 41.709691 29.626486 68.735083 0
M  V30 31 C 40.992222 32.277227 65.047244 0 CFG=1
M  V30 32 C 38.986514 33.341923 60.143129 0
M  V30 33 O 41.172739 32.877911 63.764475 0
M  V30 34 C 41.104291 31.275895 61.382554 0
M  V30 35 C 38.678515 32.055249 60.946124 0 CFG=1
M  V30 36 C 42.910634 30.611981 64.546477 0
M  V30 37 C 38.487542 28.959732 56.693269 0 CFG=2
M  V30 38 C 41.069450 30.013673 66.292595 0 CFG=2
M  V30 39 C 39.005592 26.467718 55.825117 0 CFG=1
M  V30 40 H 41.032347 28.118308 65.129167 0
M  V30 41 H 40.817513 30.336048 64.211347 0
M  V30 42 H 41.009797 25.879185 55.169629 0
M  V30 43 H 39.767858 24.746978 54.691072 0
M  V30 44 H 38.219794 29.628904 54.617072 0
M  V30 45 H 37.069406 28.397298 55.053461 0
M  V30 46 H 36.849507 30.011017 55.631675 0
M  V30 47 H 43.024143 28.679696 64.461708 0
M  V30 48 H 39.257206 30.267594 59.803269 0
M  V30 49 H 37.863625 30.089571 60.774399 0
M  V30 50 H 42.827754 30.813552 67.374394 0
M  V30 51 H 36.190114 29.281422 59.366219 0
M  V30 52 H 35.932001 29.873965 57.769949 0
M  V30 53 H 39.963933 30.112355 57.793399 0
M  V30 54 H 39.744616 30.665828 56.169388 0
M  V30 55 H 39.817764 27.355727 53.683655 0
M  V30 56 H 40.733135 33.720903 67.739466 0
M  V30 57 H 42.387924 33.304867 68.094116 0
M  V30 58 H 39.416653 30.982373 62.648760 0
M  V30 59 H 36.722097 31.708439 59.049435 0
M  V30 60 H 41.772668 34.170399 65.733220 0
M  V30 61 H 42.917938 32.891467 65.857016 0
M  V30 62 H 40.063557 28.272187 55.466436 0
M  V30 63 H 41.428503 25.608734 67.515554 0
M  V30 64 H 41.716618 25.907474 65.800636 0
M  V30 65 H 43.067431 25.944532 66.937766 0
M  V30 66 H 39.137509 33.221936 63.453451 0
M  V30 67 H 40.370647 27.613180 58.387001 0
M  V30 68 H 41.325597 26.821108 57.160089 0
M  V30 69 H 41.408136 28.543012 57.323303 0
M  V30 70 H 37.575163 31.705666 56.799404 0
M  V30 71 H 38.867098 32.282636 57.764658 0
M  V30 72 H 38.293300 34.788549 61.590456 0
M  V30 73 H 39.459024 35.429092 60.455724 0
M  V30 74 H 38.273666 28.207810 58.728788 0
M  V30 75 H 37.017686 27.678002 57.665281 0
M  V30 76 H 40.461290 35.137506 62.716373 0
M  V30 77 H 41.286108 34.166709 61.528185 0
M  V30 78 H 40.686832 29.580925 69.111654 0
M  V30 79 H 42.329044 29.996931 69.552439 0
M  V30 80 H 39.948321 32.359605 65.354417 0
M  V30 81 H 38.155897 33.579132 59.478599 0
M  V30 82 H 39.865669 33.207461 59.515916 0
M  V30 83 H 41.500836 31.976959 60.653435 0
M  V30 84 H 41.867427 31.161611 62.140424 0
M  V30 85 H 41.012295 30.297008 60.917306 0
M  V30 86 H 37.766108 32.275914 61.502412 0
M  V30 87 H 43.614215 30.669290 65.374570 0
M  V30 88 H 43.198860 31.410197 63.866475 0
M  V30 89 H 39.992724 30.109423 66.445179 0
M  V30 90 H 38.098204 26.632368 55.253502 0
M  V30 END ATOM
M  V30 BEGIN BOND
M  V30 1 1 10 9
M  V30 2 2 12 6
M  V30 3 2 14 1
M  V30 4 1 14 12
M  V30 5 1 15 3
M  V30 6 1 16 5
M  V30 7 1 17 9
M  V30 8 1 19 8
M  V30 9 1 19 11
M  V30 10 1 20 17
M  V30 11 1 22 14
M  V30 12 1 23 18
M  V30 13 1 24 21
M  V30 14 1 25 13
M  V30 15 1 25 19
M  V30 16 1 27 11
M  V30 17 2 28 16
M  V30 18 1 29 23
M  V30 19 1 29 26
M  V30 20 1 30 10
M  V30 21 1 30 12
M  V30 22 1 31 2
M  V30 23 1 31 20
M  V30 24 1 32 26
M  V30 25 1 33 23
M  V30 26 1 33 31
M  V30 27 1 34 18
M  V30 28 1 35 8
M  V30 29 1 35 18
M  V30 30 1 35 32
M  V30 31 1 36 2
M  V30 32 1 36 7
M  V30 33 1 37 4 CFG=3
M  V30 34 1 37 13
M  V30 35 1 37 21
M  V30 36 1 37 27
M  V30 37 1 38 1
M  V30 38 1 38 2
M  V30 39 1 38 10
M  V30 40 1 39 3
M  V30 41 1 39 16
M  V30 42 1 39 21
M  V30 43 1 40 1
M  V30 44 1 2 41 CFG=3
M  V30 45 1 42 3
M  V30 46 1 43 3
M  V30 47 1 44 4
M  V30 48 1 45 4
M  V30 49 1 46 4
M  V30 50 1 47 7
M  V30 51 1 48 8
M  V30 52 1 49 8
M  V30 53 1 10 50 CFG=3
M  V30 54 1 51 11
M  V30 55 1 52 11
M  V30 56 1 53 13
M  V30 57 1 54 13
M  V30 58 1 55 15
M  V30 59 1 56 17
M  V30 60 1 57 17
M  V30 61 1 18 58 CFG=1
M  V30 62 1 19 59 CFG=1
M  V30 63 1 60 20
M  V30 64 1 61 20
M  V30 65 1 21 62 CFG=3
M  V30 66 1 63 22
M  V30 67 1 64 22
M  V30 68 1 65 22
M  V30 69 1 23 66 CFG=1
M  V30 70 1 67 24
M  V30 71 1 68 24
M  V30 72 1 69 24
M  V30 73 1 70 25
M  V30 74 1 71 25
M  V30 75 1 72 26
M  V30 76 1 73 26
M  V30 77 1 74 27
M  V30 78 1 75 27
M  V30 79 1 76 29
M  V30 80 1 77 29
M  V30 81 1 78 30
M  V30 82 1 79 30
M  V30 83 1 31 80 CFG=1
M  V30 84 1 81 32
M  V30 85 1 82 32
M  V30 86 1 83 34
M  V30 87 1 84 34
M  V30 88 1 85 34
M  V30 89 1 35 86 CFG=1
M  V30 90 1 87 36
M  V30 91 1 88 36
M  V30 92 1 38 89 CFG=1
M  V30 93 1 39 90 CFG=3
M  V30 END BOND
M  V30 END CTAB
M  END
>  <i_epik_Tot_Q>  (1) 
-1

>  <i_epik_Tot_abs_Q>  (1) 
1

>  <i_i_glide_confnum>  (1) 
934

>  <i_i_glide_lignum>  (1) 
271

>  <i_i_glide_posenum>  (1) 
207

>  <i_i_glide_rotatable_bonds>  (1) 
11

>  <i_lp_mmshare_version>  (1) 
72125

>  <i_m_source_file_index>  (1) 
100

>  <i_f3d_flags>  (1) 
0

>  <num_sample>  (1) 
100

>  <b_lp_Chiralities_Consistent>  (1) 
1

>  <r_epik_Charging_Adjusted_Penalty>  (1) 
0.00057086010642688853

>  <r_epik_Ionization_Penalty>  (1) 
0.00057120619039141747

>  <r_epik_Ionization_Penalty_Charging>  (1) 
0.00057086010642688853

>  <r_epik_Ionization_Penalty_Neutral>  (1) 
3.4608396452890624e-07

>  <r_epik_State_Penalty>  (1) 
-0

>  <r_glide_ring_energy>  (1) 
1.9990264318667856

>  <r_i_docking_score>  (1) 
-4.3163544900872246

>  <r_i_glide_ecoul>  (1) 
-1.7320862679387947

>  <r_i_glide_eff_state_penalty>  (1) 
-0

>  <r_i_glide_einternal>  (1) 
7.085640822908406

>  <r_i_glide_emodel>  (1) 
-31.361326596514125

>  <r_i_glide_emodel_strain>  (1) 
10.802082698314287

>  <r_i_glide_energy>  (1) 
-43.030758597910896

>  <r_i_glide_erotb>  (1) 
0.55239913660624596

>  <r_i_glide_esite>  (1) 
-0.024802146270648268

>  <r_i_glide_evdw>  (1) 
-41.298672329972099

>  <r_i_glide_gscore>  (1) 
-4.3163544900872246

>  <r_i_glide_gscore_strain>  (1) 
1.7005206745785717

>  <r_i_glide_hbond>  (1) 
0

>  <r_i_glide_ligand_efficiency>  (1) 
-0.11067575615608269

>  <r_i_glide_ligand_efficiency_ln>  (1) 
-0.92554892968326608

>  <r_i_glide_ligand_efficiency_sa>  (1) 
-0.37532489074075326

>  <r_i_glide_lipo>  (1) 
-3.236369646522256

>  <r_i_glide_metal>  (1) 
-0

>  <r_i_glide_rewards>  (1) 
-0.98335595178971302

>  <r_lp_Energy>  (1) 
48.540740999999997

>  <r_lp_tautomer_probability>  (1) 
1

>  <s_epik_cmdline>  (1) 
J2VwaWtfcHl0aG9uJywgJy1waHQnLCAnMS4wJywgJy1waCcsICc3LjQnLCAnLXRuJywgJzgnLCAnLW1hJywgJzUwMCcsICctaW1hZScsICc8aW5maWxlLm1hZT4nLCAnLW9tYWUnLCAnPG91dGZpbGUubWFlPic=

>  <s_epik_input>  (1) 
Tz1DKFtDSDJdMSlDKFtDSDNdKT1bQ0hdW0NAQEhdKFtDQEhdMTIpW0NASF0oW0NIMl1bT0hdKVtDQEBIXShbQ0gyXVtDSDJdTzIpT1tDQEhdKFtDQEBIXTNbQ0gzXSlbQ0gyXVtDSDJdW0NIMl1bQ0BIXTNbQ0gyXVtDQEhdKFtDSDJdW0NIMl00KVtDSDJdW0NIMl1bQ0BAXTQoW0NIM10pW0NAQEhdKFtDSDNdKVtDQEBIXShbQ0gyXVtPSF0pQyg9TylbT0hd

>  <s_glide_docking_method>  (1) 
confgen

>  <s_i_glide_gridfile>  (1) 
gpcr_5ht2c_6bqh_protein_autoprepared_prepared

>  <s_lp_Force_Field>  (1) 
S-OPLS

>  <s_lp_Variant>  (1) 
DiffSBDD_99_num_sample_100-1

>  <s_m_source_file>  (1) 
generated__ligand_DiffSBDD_2026-05-06_prepared.sdf

>  <GenAI_Model>  (1) 
DiffSBDD

>  <Protein>  (1) 
GPCR_5HT2C

$$$$
DiffSBDD_96_num_sample_100
     RDKit          3D

  0  0  0  0  0  0  0  0  0  0999 V3000
M  V30 BEGIN CTAB
M  V30 COUNTS 29 28 0 0 1
M  V30 BEGIN ATOM
M  V30 1 C 39.176499 26.488431 54.033262 0
M  V30 2 C 39.170229 26.139944 58.210593 0
M  V30 3 N 39.867640 29.781334 51.035511 0 CHG=1
M  V30 4 C 39.819716 28.316787 51.272114 0
M  V30 5 C 38.499330 27.747512 53.464352 0
M  V30 6 C 38.503439 27.836663 51.921847 0
M  V30 7 C 39.869929 30.573429 52.286098 0
M  V30 8 S 38.550211 25.518589 56.619756 0
M  V30 9 C 40.980910 30.179735 50.147106 0
M  V30 10 O 40.268003 27.465513 55.949496 0
M  V30 11 C 39.465431 26.634567 55.527898 0
M  V30 12 H 40.123615 26.298668 53.527572 0
M  V30 13 H 38.537597 25.622326 53.865813 0
M  V30 14 H 38.688045 25.621404 59.037315 0
M  V30 15 H 38.959410 27.204124 58.319673 0
M  V30 16 H 40.247396 25.986603 58.284757 0
M  V30 17 H 40.687361 28.021420 51.853354 0
M  V30 18 H 39.910821 27.817836 50.305901 0
M  V30 19 H 37.462316 27.751322 53.804343 0
M  V30 20 H 38.950671 28.631578 53.908404 0
M  V30 21 H 38.255758 26.854347 51.522098 0
M  V30 22 H 37.694704 28.485721 51.593692 0
M  V30 23 H 40.667430 30.269068 52.955371 0
M  V30 24 H 39.996263 31.625456 52.062578 0
M  V30 25 H 38.950407 30.472321 52.850993 0
M  V30 26 H 41.941510 30.021193 50.637158 0
M  V30 27 H 40.962640 29.621942 49.210674 0
M  V30 28 H 40.906690 31.235410 49.889450 0
M  V30 29 H 39.026236 30.018295 50.526693 0
M  V30 END ATOM
M  V30 BEGIN BOND
M  V30 1 1 4 3
M  V30 2 1 5 1
M  V30 3 1 6 4
M  V30 4 1 6 5
M  V30 5 1 7 3
M  V30 6 1 8 2
M  V30 7 1 9 3
M  V30 8 1 11 1
M  V30 9 1 11 8
M  V30 10 2 11 10
M  V30 11 1 12 1
M  V30 12 1 13 1
M  V30 13 1 14 2
M  V30 14 1 15 2
M  V30 15 1 16 2
M  V30 16 1 17 4
M  V30 17 1 18 4
M  V30 18 1 19 5
M  V30 19 1 20 5
M  V30 20 1 21 6
M  V30 21 1 22 6
M  V30 22 1 23 7
M  V30 23 1 24 7
M  V30 24 1 25 7
M  V30 25 1 26 9
M  V30 26 1 27 9
M  V30 27 1 28 9
M  V30 28 1 29 3
M  V30 END BOND
M  V30 END CTAB
M  END
>  <i_epik_Tot_Q>  (1) 
1

>  <i_epik_Tot_abs_Q>  (1) 
1

>  <i_i_glide_confnum>  (1) 
72

>  <i_i_glide_lignum>  (1) 
267

>  <i_i_glide_posenum>  (1) 
155

>  <i_i_glide_rotatable_bonds>  (1) 
6

>  <i_lp_mmshare_version>  (1) 
72125

>  <i_m_source_file_index>  (1) 
97

>  <i_f3d_flags>  (1) 
0

>  <num_sample>  (1) 
100

>  <b_lp_Chiralities_Consistent>  (1) 
1

>  <r_epik_Charging_Adjusted_Penalty>  (1) 
0.0098875649971034846

>  <r_epik_Ionization_Penalty>  (1) 
0.0049437824985517501

>  <r_epik_Ionization_Penalty_Charging>  (1) 
0.0049437824985517501

>  <r_epik_Ionization_Penalty_Neutral>  (1) 
0

>  <r_epik_State_Penalty>  (1) 
0.0049437824985517353

>  <r_glide_ring_energy>  (1) 
0

>  <r_i_docking_score>  (1) 
-4.2945861177149229

>  <r_i_glide_ecoul>  (1) 
-0.65130963355244809

>  <r_i_glide_eff_state_penalty>  (1) 
0.0049437824985517353

>  <r_i_glide_einternal>  (1) 
5.0398009764904739

>  <r_i_glide_emodel>  (1) 
-32.179363224361047

>  <r_i_glide_emodel_strain>  (1) 
0.053581262356980019

>  <r_i_glide_energy>  (1) 
-24.647384573778528

>  <r_i_glide_erotb>  (1) 
2.0117858138389204

>  <r_i_glide_esite>  (1) 
0

>  <r_i_glide_evdw>  (1) 
-23.99607494022608

>  <r_i_glide_gscore>  (1) 
-4.299529900213475

>  <r_i_glide_gscore_strain>  (1) 
0

>  <r_i_glide_hbond>  (1) 
0

>  <r_i_glide_ligand_efficiency>  (1) 
-0.39041691979226573

>  <r_i_glide_ligand_efficiency_ln>  (1) 
-1.2638959629200324

>  <r_i_glide_ligand_efficiency_sa>  (1) 
-0.86827945663939643

>  <r_i_glide_lipo>  (1) 
-2.4230127690991123

>  <r_i_glide_metal>  (1) 
-0

>  <r_i_glide_rewards>  (1) 
-2.5908027529091116

>  <r_lp_Energy>  (1) 
14.365169999999999

>  <s_epik_cmdline>  (1) 
J2VwaWtfcHl0aG9uJywgJy1waHQnLCAnMS4wJywgJy1waCcsICc3LjQnLCAnLXRuJywgJzgnLCAnLW1hJywgJzUwMCcsICctaW1hZScsICc8aW5maWxlLm1hZT4nLCAnLW9tYWUnLCAnPG91dGZpbGUubWFlPic=

>  <s_epik_input>  (1) 
W0NIM11TQyg9TylbQ0gyXVtDSDJdW0NIMl1bQ0gyXU4oW0NIM10pW0NIM10=

>  <s_glide_docking_method>  (1) 
confgen

>  <s_i_glide_gridfile>  (1) 
gpcr_5ht2c_6bqh_protein_autoprepared_prepared

>  <s_lp_Force_Field>  (1) 
S-OPLS

>  <s_lp_Variant>  (1) 
DiffSBDD_96_num_sample_100-1

>  <s_m_source_file>  (1) 
generated__ligand_DiffSBDD_2026-05-06_prepared.sdf

>  <GenAI_Model>  (1) 
DiffSBDD

>  <Protein>  (1) 
GPCR_5HT2C

$$$$
DiffSBDD_31_num_sample_100
     RDKit          3D

  0  0  0  0  0  0  0  0  0  0999 V3000
M  V30 BEGIN CTAB
M  V30 COUNTS 22 22 0 0 1
M  V30 BEGIN ATOM
M  V30 1 O 39.867373 29.462966 56.932204 0
M  V30 2 C 37.852883 29.499289 55.664423 0 CFG=1
M  V30 3 C 39.073093 29.068195 53.414719 0
M  V30 4 O 36.970033 30.421453 55.053467 0
M  V30 5 C 39.999528 28.341915 51.010087 0 CFG=2
M  V30 6 O 39.067452 31.449055 56.316315 0 CHG=-1
M  V30 7 C 39.467426 28.009533 52.395888 0 CFG=2
M  V30 8 C 38.312134 28.466450 54.612138 0
M  V30 9 C 39.031316 30.198832 56.362492 0
M  V30 10 S 40.267367 30.071930 50.516178 0
M  V30 11 C 38.602011 27.809913 51.187080 0
M  V30 12 H 37.310249 28.989743 56.458477 0
M  V30 13 H 38.450278 29.817070 52.929137 0
M  V30 14 H 39.960385 29.606130 53.749746 0
M  V30 15 H 36.702924 31.052926 55.718559 0
M  V30 16 H 40.667400 27.644091 50.518987 0
M  V30 17 H 39.871887 27.103978 52.843220 0
M  V30 18 H 38.937007 27.714489 55.096096 0
M  V30 19 H 37.437747 27.928694 54.243672 0
M  V30 20 H 39.618627 30.019367 49.348171 0
M  V30 21 H 38.410107 26.792002 50.861496 0
M  V30 22 H 37.782534 28.500800 51.053539 0
M  V30 END ATOM
M  V30 BEGIN BOND
M  V30 1 1 4 2
M  V30 2 1 7 3
M  V30 3 1 7 5
M  V30 4 1 8 2
M  V30 5 1 8 3
M  V30 6 2 9 1
M  V30 7 1 9 2
M  V30 8 1 9 6
M  V30 9 1 10 5
M  V30 10 1 11 5
M  V30 11 1 11 7
M  V30 12 1 2 12 CFG=1
M  V30 13 1 13 3
M  V30 14 1 14 3
M  V30 15 1 15 4
M  V30 16 1 5 16 CFG=3
M  V30 17 1 7 17 CFG=1
M  V30 18 1 18 8
M  V30 19 1 19 8
M  V30 20 1 20 10
M  V30 21 1 21 11
M  V30 22 1 22 11
M  V30 END BOND
M  V30 END CTAB
M  END
>  <i_epik_Tot_Q>  (1) 
-1

>  <i_epik_Tot_abs_Q>  (1) 
1

>  <i_i_glide_confnum>  (1) 
1

>  <i_i_glide_lignum>  (1) 
85

>  <i_i_glide_posenum>  (1) 
247

>  <i_i_glide_rotatable_bonds>  (1) 
6

>  <i_lp_mmshare_version>  (1) 
72125

>  <i_m_source_file_index>  (1) 
32

>  <i_f3d_flags>  (1) 
0

>  <num_sample>  (1) 
100

>  <b_lp_Chiralities_Consistent>  (1) 
1

>  <r_epik_Charging_Adjusted_Penalty>  (1) 
0.00018608046313999227

>  <r_epik_Ionization_Penalty>  (1) 
0.0019748008794804291

>  <r_epik_Ionization_Penalty_Charging>  (1) 
0.00018608046313999227

>  <r_epik_Ionization_Penalty_Neutral>  (1) 
0.0017887204163404367

>  <r_epik_State_Penalty>  (1) 
-0

>  <r_glide_ring_energy>  (1) 
0

>  <r_i_docking_score>  (1) 
-4.254544179989864

>  <r_i_glide_ecoul>  (1) 
-2.5949542201917568

>  <r_i_glide_eff_state_penalty>  (1) 
-0

>  <r_i_glide_einternal>  (1) 
2.1281399289090377

>  <r_i_glide_emodel>  (1) 
-26.273005907448912

>  <r_i_glide_emodel_strain>  (1) 
0.010246784352320404

>  <r_i_glide_energy>  (1) 
-21.222100398414838

>  <r_i_glide_erotb>  (1) 
1.524023084200782

>  <r_i_glide_esite>  (1) 
-0.0039945038097333307

>  <r_i_glide_evdw>  (1) 
-18.627146178223082

>  <r_i_glide_gscore>  (1) 
-4.254544179989864

>  <r_i_glide_gscore_strain>  (1) 
0

>  <r_i_glide_hbond>  (1) 
-0.23304830727209552

>  <r_i_glide_ligand_efficiency>  (1) 
-0.38677674363544218

>  <r_i_glide_ligand_efficiency_ln>  (1) 
-1.252111627468139

>  <r_i_glide_ligand_efficiency_sa>  (1) 
-0.8601837773404557

>  <r_i_glide_lipo>  (1) 
-1.3835352586694694

>  <r_i_glide_metal>  (1) 
-0

>  <r_i_glide_rewards>  (1) 
-2.8373887524994297

>  <r_lp_Energy>  (1) 
14.639012999999998

>  <r_lp_tautomer_probability>  (1) 
1

>  <s_epik_cmdline>  (1) 
J2VwaWtfcHl0aG9uJywgJy1waHQnLCAnMS4wJywgJy1waCcsICc3LjQnLCAnLXRuJywgJzgnLCAnLW1hJywgJzUwMCcsICctaW1hZScsICc8aW5maWxlLm1hZT4nLCAnLW9tYWUnLCAnPG91dGZpbGUubWFlPic=

>  <s_epik_input>  (1) 
Tz1DKFtPSF0pW0NAQEhdKFtPSF0pW0NIMl1bQ0gyXVtDQEBIXShbQ0gyXTEpW0NAQEhdMVtTSF0=

>  <s_glide_docking_method>  (1) 
confgen

>  <s_i_glide_gridfile>  (1) 
gpcr_5ht2c_6bqh_protein_autoprepared_prepared

>  <s_lp_Force_Field>  (1) 
S-OPLS

>  <s_lp_Variant>  (1) 
DiffSBDD_31_num_sample_100-1

>  <s_m_source_file>  (1) 
generated__ligand_DiffSBDD_2026-05-06_prepared.sdf

>  <GenAI_Model>  (1) 
DiffSBDD

>  <Protein>  (1) 
GPCR_5HT2C

$$$$
DiffSBDD_81_num_sample_100
     RDKit          3D

  0  0  0  0  0  0  0  0  0  0999 V3000
M  V30 BEGIN CTAB
M  V30 COUNTS 56 57 0 0 1
M  V30 BEGIN ATOM
M  V30 1 N 37.515230 25.303206 56.924489 0 CHG=1
M  V30 2 C 38.629896 33.384419 56.028204 0
M  V30 3 C 38.130129 27.552529 55.968265 0
M  V30 4 C 37.702884 29.837629 54.845736 0
M  V30 5 S 37.849821 28.021431 52.732318 0
M  V30 6 C 39.467405 30.038677 53.056666 0
M  V30 7 C 39.221594 29.693013 56.932433 0
M  V30 8 C 38.434433 29.409044 53.584116 0
M  V30 9 C 38.334984 32.463818 58.246806 0 CFG=2
M  V30 10 O 39.081681 26.487403 57.972462 0
M  V30 11 O 39.467385 27.468104 50.653496 0
M  V30 12 C 37.759720 33.685626 59.006815 0
M  V30 13 C 38.026449 29.082868 56.160929 0 CFG=2
M  V30 14 C 40.072944 29.536145 51.775700 0
M  V30 15 C 36.284378 33.633404 59.425089 0
M  V30 16 O 37.935348 32.495167 56.883032 0
M  V30 17 O 36.134261 32.987876 60.679277 0
M  V30 18 C 37.902215 26.699790 57.228135 0 CFG=2
M  V30 19 C 39.221993 28.260824 51.552003 0
M  V30 20 C 38.931270 29.936278 58.433124 0
M  V30 21 C 37.916017 31.064801 58.779813 0 CFG=1
M  V30 22 C 37.609910 31.049683 60.293143 0
M  V30 23 C 38.300129 24.603882 55.882160 0
M  V30 24 C 36.203839 31.575550 60.630976 0
M  V30 25 H 37.579023 24.776329 57.783592 0
M  V30 26 H 38.314040 33.209866 55.000416 0
M  V30 27 H 38.397130 34.421436 56.253525 0
M  V30 28 H 39.706718 33.221414 56.080738 0
M  V30 29 H 39.071396 27.293349 55.480159 0
M  V30 30 H 37.342654 27.262653 55.276026 0
M  V30 31 H 36.645061 29.707514 54.636487 0
M  V30 32 H 37.815001 30.911030 54.974675 0
M  V30 33 H 39.885470 30.924396 53.513934 0
M  V30 34 H 40.085607 29.035264 56.837230 0
M  V30 35 H 39.547825 30.624157 56.471415 0
M  V30 36 H 39.421370 32.542626 58.292114 0
M  V30 37 H 39.589182 27.286848 57.970876 0
M  V30 38 H 37.867392 34.563693 58.382576 0
M  V30 39 H 38.366148 33.885069 59.890759 0
M  V30 40 H 37.138359 29.251965 56.768607 0
M  V30 41 H 39.939736 30.251115 50.963419 0
M  V30 42 H 41.116646 29.259483 51.853496 0
M  V30 43 H 35.642271 33.215268 58.653629 0
M  V30 44 H 35.936611 34.656384 59.571103 0
M  V30 45 H 37.129812 27.144764 57.853498 0
M  V30 46 H 38.568253 29.002062 58.858767 0
M  V30 47 H 39.867394 30.123125 58.953398 0
M  V30 48 H 36.978339 30.810431 58.287477 0
M  V30 49 H 37.646908 30.021457 60.649327 0
M  V30 50 H 38.376879 31.579538 60.859303 0
M  V30 51 H 37.867379 23.621433 55.716442 0
M  V30 52 H 38.273937 25.119811 54.922283 0
M  V30 53 H 39.340819 24.477822 56.183874 0
M  V30 54 H 35.451522 31.175931 59.950465 0
M  V30 55 H 35.925156 31.222615 61.620784 0
M  V30 56 H 36.551035 25.313812 56.624775 0
M  V30 END ATOM
M  V30 BEGIN BOND
M  V30 1 1 8 4
M  V30 2 1 8 5
M  V30 3 2 8 6
M  V30 4 1 12 9
M  V30 5 1 13 3
M  V30 6 1 13 4
M  V30 7 1 13 7
M  V30 8 1 14 6
M  V30 9 1 15 12
M  V30 10 1 16 2
M  V30 11 1 16 9
M  V30 12 1 17 15
M  V30 13 1 18 1
M  V30 14 1 18 3
M  V30 15 1 18 10
M  V30 16 1 19 5
M  V30 17 2 19 11
M  V30 18 1 19 14
M  V30 19 1 20 7
M  V30 20 1 21 9
M  V30 21 1 21 20
M  V30 22 1 22 21
M  V30 23 1 23 1
M  V30 24 1 24 17
M  V30 25 1 24 22
M  V30 26 1 25 1
M  V30 27 1 26 2
M  V30 28 1 27 2
M  V30 29 1 28 2
M  V30 30 1 29 3
M  V30 31 1 30 3
M  V30 32 1 31 4
M  V30 33 1 32 4
M  V30 34 1 33 6
M  V30 35 1 34 7
M  V30 36 1 35 7
M  V30 37 1 9 36 CFG=3
M  V30 38 1 37 10
M  V30 39 1 38 12
M  V30 40 1 39 12
M  V30 41 1 13 40 CFG=1
M  V30 42 1 41 14
M  V30 43 1 42 14
M  V30 44 1 43 15
M  V30 45 1 44 15
M  V30 46 1 18 45 CFG=1
M  V30 47 1 46 20
M  V30 48 1 47 20
M  V30 49 1 21 48 CFG=3
M  V30 50 1 49 22
M  V30 51 1 50 22
M  V30 52 1 51 23
M  V30 53 1 52 23
M  V30 54 1 53 23
M  V30 55 1 54 24
M  V30 56 1 55 24
M  V30 57 1 56 1
M  V30 END BOND
M  V30 END CTAB
M  END
>  <i_epik_Tot_Q>  (1) 
1

>  <i_epik_Tot_abs_Q>  (1) 
1

>  <i_i_glide_confnum>  (1) 
1028

>  <i_i_glide_lignum>  (1) 
213

>  <i_i_glide_posenum>  (1) 
249

>  <i_i_glide_rotatable_bonds>  (1) 
10

>  <i_lp_mmshare_version>  (1) 
72125

>  <i_m_source_file_index>  (1) 
82

>  <i_f3d_flags>  (1) 
0

>  <num_sample>  (1) 
100

>  <b_lp_Chiralities_Consistent>  (1) 
1

>  <r_epik_Charging_Adjusted_Penalty>  (1) 
0.12825581378160511

>  <r_epik_Ionization_Penalty>  (1) 
0.099187303221023815

>  <r_epik_Ionization_Penalty_Charging>  (1) 
0.032441492902706343

>  <r_epik_Ionization_Penalty_Neutral>  (1) 
0.066745810318317472

>  <r_epik_State_Penalty>  (1) 
0.095814320878898754

>  <r_glide_ring_energy>  (1) 
0.093239952567165579

>  <r_i_docking_score>  (1) 
-4.2463206870019441

>  <r_i_glide_ecoul>  (1) 
2.0616714035162751

>  <r_i_glide_eff_state_penalty>  (1) 
0.095814320878898754

>  <r_i_glide_einternal>  (1) 
9.0925611618693196

>  <r_i_glide_emodel>  (1) 
-43.316783574412753

>  <r_i_glide_emodel_strain>  (1) 
0.12720341943513347

>  <r_i_glide_energy>  (1) 
-36.561454813832768

>  <r_i_glide_erotb>  (1) 
0.89420468902182859

>  <r_i_glide_esite>  (1) 
0

>  <r_i_glide_evdw>  (1) 
-38.623126217349039

>  <r_i_glide_gscore>  (1) 
-4.3421350078808425

>  <r_i_glide_gscore_strain>  (1) 
0

>  <r_i_glide_hbond>  (1) 
0

>  <r_i_glide_ligand_efficiency>  (1) 
-0.176930028625081

>  <r_i_glide_ligand_efficiency_ln>  (1) 
-1.0163393913592333

>  <r_i_glide_ligand_efficiency_sa>  (1) 
-0.51035451551800104

>  <r_i_glide_lipo>  (1) 
-1.6368539478840669

>  <r_i_glide_metal>  (1) 
-0

>  <r_i_glide_rewards>  (1) 
-1.9775801486785938

>  <r_lp_Energy>  (1) 
15.540376999999999

>  <s_epik_Chemistry_Notes>  (1) 
This compound contains an acetal/aminal-like group ( X-CH(R)-Y where X, Y are N, S, or O) that may be acid/base labile, releasing an aldehyde.

>  <s_epik_cmdline>  (1) 
J2VwaWtfcHl0aG9uJywgJy1waHQnLCAnMS4wJywgJy1waCcsICc3LjQnLCAnLXRuJywgJzgnLCAnLW1hJywgJzUwMCcsICctaW1hZScsICc8aW5maWxlLm1hZT4nLCAnLW9tYWUnLCAnPG91dGZpbGUubWFlPic=

>  <s_epik_input>  (1) 
UzFDKD1PKVtDSDJdW0NIXT1DMVtDSDJdW0NAQEhdKFtDSDJdW0NASF0oW09IXSlbTkhdW0NIM10pW0NIMl1bQ0gyXVtDQEhdMltDSDJdW0NIMl1PW0NIMl1bQ0gyXVtDQEBIXTJPW0NIM10=

>  <s_glide_docking_method>  (1) 
confgen

>  <s_i_glide_gridfile>  (1) 
gpcr_5ht2c_6bqh_protein_autoprepared_prepared

>  <s_lp_Force_Field>  (1) 
S-OPLS

>  <s_lp_Variant>  (1) 
DiffSBDD_81_num_sample_100-1

>  <s_m_source_file>  (1) 
generated__ligand_DiffSBDD_2026-05-06_prepared.sdf

>  <GenAI_Model>  (1) 
DiffSBDD

>  <Protein>  (1) 
GPCR_5HT2C

$$$$
DiffSBDD_29_num_sample_100
     RDKit          3D

  0  0  0  0  0  0  0  0  0  0999 V3000
M  V30 BEGIN CTAB
M  V30 COUNTS 86 90 0 0 1
M  V30 BEGIN ATOM
M  V30 1 F 39.763913 35.485755 62.862658 0
M  V30 2 C 36.158010 30.641477 59.780753 0
M  V30 3 C 39.617142 33.205440 61.051103 0
M  V30 4 C 38.788537 30.145549 55.012134 0 CFG=2
M  V30 5 C 40.895053 30.483523 51.314972 0
M  V30 6 C 37.265712 29.947199 54.916067 0
M  V30 7 C 38.206150 36.494767 61.503636 0
M  V30 8 N 37.553302 30.900721 60.247671 0 CFG=1 CHG=1
M  V30 9 C 39.797395 27.550576 55.277530 0 CFG=1
M  V30 10 C 39.072545 28.651350 49.957894 0
M  V30 11 C 39.835703 29.866124 59.622456 0
M  V30 12 C 39.982077 28.045136 50.883180 0 CFG=2
M  V30 13 C 38.946249 35.473210 61.795682 0
M  V30 14 C 38.780055 29.667147 58.559196 0 CFG=2
M  V30 15 C 35.293261 32.247332 61.454070 0
M  V30 16 C 37.356455 26.578891 55.455137 0
M  V30 17 C 39.618684 28.930118 54.467621 0 CFG=1
M  V30 18 C 38.447692 30.766888 57.539814 0 CFG=1
M  V30 19 C 37.876520 34.602901 59.845079 0
M  V30 20 N 36.667448 32.530391 61.853445 0
M  V30 21 N 38.828928 34.425749 60.967442 0
M  V30 22 F 38.181092 37.621396 62.215349 0
M  V30 23 S 39.122464 27.221536 52.206135 0
M  V30 24 C 37.656811 31.483222 61.616247 0 CFG=2
M  V30 25 C 35.256966 31.849707 59.991092 0
M  V30 26 C 39.269898 25.188836 56.242586 0
M  V30 27 O 38.463439 32.087950 58.047273 0
M  V30 28 C 39.467440 28.827280 52.913678 0 CFG=2
M  V30 29 C 39.368720 30.740523 56.332292 0
M  V30 30 C 39.908989 29.655250 49.164082 0
M  V30 31 C 40.152552 30.877330 50.038646 0
M  V30 32 C 39.036428 32.101859 61.976833 0
M  V30 33 O 40.261566 27.782792 56.587142 0
M  V30 34 C 40.611083 29.054198 51.830106 0 CFG=2
M  V30 35 C 38.392721 29.702265 60.012925 0 CFG=2
M  V30 36 C 38.836290 26.304625 55.271002 0
M  V30 37 O 39.020993 31.241091 54.141142 0
M  V30 38 S 37.197419 36.370193 60.100872 0
M  V30 39 H 36.101535 30.366849 58.733754 0
M  V30 40 H 35.769243 29.757630 60.253517 0
M  V30 41 H 40.612898 33.476413 61.406304 0
M  V30 42 H 39.765761 32.845672 60.038391 0
M  V30 43 H 41.949101 30.567473 51.053485 0
M  V30 44 H 40.706922 31.222244 52.093289 0
M  V30 45 H 36.951500 29.225521 55.656230 0
M  V30 46 H 36.718100 30.871958 55.099743 0
M  V30 47 H 36.934826 29.589515 53.943715 0
M  V30 48 H 40.667394 27.090313 54.818738 0
M  V30 49 H 38.667475 27.816847 49.453534 0
M  V30 50 H 38.268303 29.120652 50.517198 0
M  V30 51 H 40.500969 29.029006 59.811101 0
M  V30 52 H 40.258624 30.820673 59.854720 0
M  V30 53 H 40.667159 27.394389 50.339921 0
M  V30 54 H 38.631648 28.670793 58.153600 0
M  V30 55 H 34.675974 33.133272 61.631274 0
M  V30 56 H 34.878132 31.445428 62.065833 0
M  V30 57 H 37.167230 26.992247 56.445471 0
M  V30 58 H 36.986248 27.233028 54.665442 0
M  V30 59 H 36.781982 25.656516 55.377537 0
M  V30 60 H 40.586640 29.396346 54.653514 0
M  V30 61 H 37.426667 30.632909 57.225842 0
M  V30 62 H 38.339568 34.421345 58.881551 0
M  V30 63 H 37.044898 33.923813 59.903049 0
M  V30 64 H 36.991331 33.425519 61.500344 0
M  V30 65 H 37.467875 30.665150 62.305587 0
M  V30 66 H 35.546610 32.671477 59.344537 0
M  V30 67 H 34.240875 31.621694 59.683230 0
M  V30 68 H 39.154360 25.479717 57.287086 0
M  V30 69 H 38.665468 24.294241 56.089332 0
M  V30 70 H 40.303339 24.895111 56.078737 0
M  V30 71 H 38.084726 32.642333 57.373850 0
M  V30 72 H 38.622974 29.429644 52.590715 0
M  V30 73 H 39.753105 31.752196 56.175538 0
M  V30 74 H 40.267400 30.213366 56.621597 0
M  V30 75 H 40.856032 29.223443 48.848468 0
M  V30 76 H 39.467374 29.957668 48.245753 0
M  V30 77 H 40.733837 31.618888 49.491386 0
M  V30 78 H 39.199475 31.356358 50.272212 0
M  V30 79 H 38.991091 32.505265 62.989932 0
M  V30 80 H 39.772627 31.302106 62.042975 0
M  V30 81 H 40.626784 26.979277 56.928607 0
M  V30 82 H 41.554789 28.522922 51.853507 0
M  V30 83 H 38.267387 28.825863 60.632170 0
M  V30 84 H 38.917597 25.801727 54.312694 0
M  V30 85 H 38.601474 31.078142 53.311315 0
M  V30 86 H 37.911685 31.591909 59.590245 0
M  V30 END ATOM
M  V30 BEGIN BOND
M  V30 1 1 6 4
M  V30 2 1 8 2
M  V30 3 1 12 10
M  V30 4 1 13 1
M  V30 5 2 13 7
M  V30 6 1 14 11
M  V30 7 1 17 4
M  V30 8 1 17 9
M  V30 9 1 18 14
M  V30 10 1 20 15
M  V30 11 1 21 3
M  V30 12 1 21 13
M  V30 13 1 21 19
M  V30 14 1 22 7
M  V30 15 1 23 12
M  V30 16 1 24 8
M  V30 17 1 24 20
M  V30 18 1 25 2
M  V30 19 1 25 15
M  V30 20 1 27 18
M  V30 21 1 28 17
M  V30 22 1 28 23
M  V30 23 1 29 4
M  V30 24 1 29 18
M  V30 25 1 30 10
M  V30 26 1 31 5
M  V30 27 1 31 30
M  V30 28 1 32 3
M  V30 29 1 32 24
M  V30 30 1 33 9
M  V30 31 1 34 5
M  V30 32 1 34 12
M  V30 33 1 34 28
M  V30 34 1 35 8
M  V30 35 1 35 11
M  V30 36 1 35 14
M  V30 37 1 36 9
M  V30 38 1 36 16
M  V30 39 1 36 26
M  V30 40 1 4 37 CFG=3
M  V30 41 1 38 7
M  V30 42 1 38 19
M  V30 43 1 39 2
M  V30 44 1 40 2
M  V30 45 1 41 3
M  V30 46 1 42 3
M  V30 47 1 43 5
M  V30 48 1 44 5
M  V30 49 1 45 6
M  V30 50 1 46 6
M  V30 51 1 47 6
M  V30 52 1 9 48 CFG=3
M  V30 53 1 49 10
M  V30 54 1 50 10
M  V30 55 1 51 11
M  V30 56 1 52 11
M  V30 57 1 12 53 CFG=3
M  V30 58 1 14 54 CFG=3
M  V30 59 1 55 15
M  V30 60 1 56 15
M  V30 61 1 57 16
M  V30 62 1 58 16
M  V30 63 1 59 16
M  V30 64 1 17 60 CFG=3
M  V30 65 1 18 61 CFG=3
M  V30 66 1 62 19
M  V30 67 1 63 19
M  V30 68 1 64 20
M  V30 69 1 24 65 CFG=1
M  V30 70 1 66 25
M  V30 71 1 67 25
M  V30 72 1 68 26
M  V30 73 1 69 26
M  V30 74 1 70 26
M  V30 75 1 71 27
M  V30 76 1 28 72 CFG=3
M  V30 77 1 73 29
M  V30 78 1 74 29
M  V30 79 1 75 30
M  V30 80 1 76 30
M  V30 81 1 77 31
M  V30 82 1 78 31
M  V30 83 1 79 32
M  V30 84 1 80 32
M  V30 85 1 81 33
M  V30 86 1 34 82 CFG=1
M  V30 87 1 35 83 CFG=1
M  V30 88 1 84 36
M  V30 89 1 85 37
M  V30 90 1 8 86 CFG=3
M  V30 END BOND
M  V30 END CTAB
M  END
>  <i_epik_Tot_Q>  (1) 
1

>  <i_epik_Tot_abs_Q>  (1) 
1

>  <i_i_glide_confnum>  (1) 
1180

>  <i_i_glide_lignum>  (1) 
75

>  <i_i_glide_posenum>  (1) 
78

>  <i_i_glide_rotatable_bonds>  (1) 
14

>  <i_lp_mmshare_version>  (1) 
72125

>  <i_m_source_file_index>  (1) 
30

>  <i_f3d_flags>  (1) 
0

>  <num_sample>  (1) 
100

>  <b_lp_Chiralities_Consistent>  (1) 
1

>  <r_epik_Charging_Adjusted_Penalty>  (1) 
1.7477768688038313

>  <r_epik_Ionization_Penalty>  (1) 
0.56833185219894722

>  <r_epik_Ionization_Penalty_Charging>  (1) 
0.56833130032608237

>  <r_epik_Ionization_Penalty_Neutral>  (1) 
5.5187286482775955e-07

>  <r_epik_State_Penalty>  (1) 
1.179445568477749

>  <r_glide_ring_energy>  (1) 
2.2046325848137989

>  <r_i_docking_score>  (1) 
-4.2399558825741144

>  <r_i_glide_ecoul>  (1) 
-1.206784551313925

>  <r_i_glide_eff_state_penalty>  (1) 
1.179445568477749

>  <r_i_glide_einternal>  (1) 
140.60782633141292

>  <r_i_glide_emodel>  (1) 
45.961960825482905

>  <r_i_glide_emodel_strain>  (1) 
9.1061870498276392

>  <r_i_glide_energy>  (1) 
-22.467427268276808

>  <r_i_glide_erotb>  (1) 
0.46833353265868582

>  <r_i_glide_esite>  (1) 
-0.014402603034711532

>  <r_i_glide_evdw>  (1) 
-21.260642716962884

>  <r_i_glide_gscore>  (1) 
-5.4194014510518631

>  <r_i_glide_gscore_strain>  (1) 
1.2765467624569098

>  <r_i_glide_hbond>  (1) 
-0.11700739579348084

>  <r_i_glide_ligand_efficiency>  (1) 
-0.11157778638352933

>  <r_i_glide_ligand_efficiency_ln>  (1) 
-0.91425921514831088

>  <r_i_glide_ligand_efficiency_sa>  (1) 
-0.37512177376649392

>  <r_i_glide_lipo>  (1) 
-4.1063328457661505

>  <r_i_glide_metal>  (1) 
-0

>  <r_i_glide_rewards>  (1) 
-1.6824890830278822

>  <r_lp_Energy>  (1) 
40.584823

>  <s_epik_Chemistry_Notes>  (1) 
This compound has an imine and may undergo hydrolysis. This compound contains an acetal/aminal-like group ( X-CH(R)-Y where X, Y are N, S, or O) that may be acid/base labile, releasing an aldehyde.

>  <s_epik_cmdline>  (1) 
J2VwaWtfcHl0aG9uJywgJy1waHQnLCAnMS4wJywgJy1waCcsICc3LjQnLCAnLXRuJywgJzgnLCAnLW1hJywgJzUwMCcsICctaW1hZScsICc8aW5maWxlLm1hZT4nLCAnLW9tYWUnLCAnPG91dGZpbGUubWFlPic=

>  <s_epik_input>  (1) 
RkMxPUMoRilOKFtDSDJdUzEpW0NIMl1bQ0gyXVtDQEhdMltOSF1bQ0gyXVtDSDJdW0NIMl1OMltDQEBIXTNbQ0gyXVtDQEBIXTNbQ0BASF0oW09IXSlbQ0gyXVtDQEBdKFtDSDNdKShbT0hdKVtDQEBIXShbQ0BASF0oW09IXSlbQ0hdKFtDSDNdKVtDSDNdKVtDQEhdKFM0KVtDQEBIXShbQ0BASF00NSlbQ0gyXVtDSDJdW0NIMl1bQ0gyXTU=

>  <s_glide_docking_method>  (1) 
confgen

>  <s_i_glide_gridfile>  (1) 
gpcr_5ht2c_6bqh_protein_autoprepared_prepared

>  <s_lp_Force_Field>  (1) 
S-OPLS

>  <s_lp_Variant>  (1) 
DiffSBDD_29_num_sample_100-5

>  <s_m_source_file>  (1) 
generated__ligand_DiffSBDD_2026-05-06_prepared.sdf

>  <GenAI_Model>  (1) 
DiffSBDD

>  <Protein>  (1) 
GPCR_5HT2C

$$$$
DiffSBDD_90_num_sample_100
     RDKit          3D

  0  0  0  0  0  0  0  0  0  0999 V3000
M  V30 BEGIN CTAB
M  V30 COUNTS 85 88 0 0 1
M  V30 BEGIN ATOM
M  V30 1 C 36.571448 30.153180 59.048519 0
M  V30 2 O 42.138249 35.232955 65.170058 0
M  V30 3 F 39.867301 25.662336 59.341493 0
M  V30 4 C 38.502010 27.840144 54.170238 0 CFG=1
M  V30 5 C 40.905525 32.853031 62.944484 0 CFG=2
M  V30 6 C 39.007124 33.950454 61.836850 0 CFG=1
M  V30 7 C 39.584480 27.745868 50.648271 0
M  V30 8 C 39.001296 33.742611 59.294268 0
M  V30 9 C 38.545122 28.419447 52.752509 0
M  V30 10 N 41.874267 35.008928 63.767299 0
M  V30 11 C 38.537959 27.366995 59.311754 0
M  V30 12 C 37.110333 28.580260 52.356763 0
M  V30 13 C 39.536786 32.583174 62.310439 0
M  V30 14 C 39.618495 34.964965 62.825584 0
M  V30 15 O 42.043305 30.786439 63.358103 0
M  V30 16 N 37.589758 30.571060 58.021465 0 CFG=2 CHG=1
M  V30 17 C 39.500326 34.251372 60.438982 0
M  V30 18 F 40.758046 27.621311 59.882693 0
M  V30 19 C 39.434993 26.311134 56.756040 0 CFG=1
M  V30 20 N 38.518945 29.533240 57.403312 0
M  V30 21 C 37.593249 26.691865 58.253501 0
M  V30 22 C 38.521088 31.552575 58.566609 0
M  V30 23 O 39.072521 27.390092 51.914901 0
M  V30 24 C 39.299556 29.771929 52.639909 0
M  V30 25 C 35.871856 31.346879 59.732726 0
M  V30 26 C 40.470034 27.028471 57.623254 0
M  V30 27 C 37.839604 32.775010 59.141849 0 CFG=1
M  V30 28 C 40.668946 34.207930 63.664001 0 CFG=1
M  V30 29 C 39.867416 27.224220 54.519739 0
M  V30 30 O 40.878250 31.684387 65.034734 0 CHG=-1
M  V30 31 C 37.854271 28.511161 56.625450 0 CFG=1
M  V30 32 C 36.877498 32.369807 60.274016 0
M  V30 33 O 41.850772 33.013747 61.890196 0
M  V30 34 C 38.019644 28.927001 55.180261 0
M  V30 35 C 38.062654 26.984317 56.884082 0 CFG=1
M  V30 36 C 39.847932 25.994449 55.357025 0
M  V30 37 C 39.951163 26.949610 59.053604 0
M  V30 38 C 41.316007 31.675263 63.862149 0
M  V30 39 H 37.015446 29.595126 59.860857 0
M  V30 40 H 35.808118 29.510749 58.615240 0
M  V30 41 H 42.202372 36.179381 65.208902 0
M  V30 42 H 37.781620 27.019100 54.151505 0
M  V30 43 H 37.926237 34.034618 61.868082 0
M  V30 44 H 39.878115 26.821917 50.163492 0
M  V30 45 H 38.850274 28.249654 50.023384 0
M  V30 46 H 40.481107 28.358225 50.723196 0
M  V30 47 H 39.463613 34.021420 58.369697 0
M  V30 48 H 42.677547 34.467691 63.475179 0
M  V30 49 H 38.267375 27.221454 60.344722 0
M  V30 50 H 38.556552 28.429223 59.382223 0
M  V30 51 H 36.517948 29.145628 53.053590 0
M  V30 52 H 37.089641 29.124063 51.453557 0
M  V30 53 H 36.645356 27.621642 52.253568 0
M  V30 54 H 38.852549 32.184237 63.053501 0
M  V30 55 H 39.604234 31.836456 61.517937 0
M  V30 56 H 38.853172 35.413466 63.452049 0
M  V30 57 H 40.056674 35.823431 62.313542 0
M  V30 58 H 40.334778 34.931922 60.374601 0
M  V30 59 H 39.344227 25.301528 57.152181 0
M  V30 60 H 38.911711 29.131784 58.244072 0
M  V30 61 H 37.568531 25.613048 58.410371 0
M  V30 62 H 36.553592 26.998583 58.253446 0
M  V30 63 H 39.196524 31.840074 57.756674 0
M  V30 64 H 39.122877 31.073459 59.342524 0
M  V30 65 H 38.776543 30.571693 53.164189 0
M  V30 66 H 40.296777 29.706304 53.054474 0
M  V30 67 H 39.400129 30.129486 51.616684 0
M  V30 68 H 35.264026 30.980487 60.559722 0
M  V30 69 H 35.178510 31.837260 59.054186 0
M  V30 70 H 41.440143 26.532947 57.560401 0
M  V30 71 H 40.638674 28.057733 57.312508 0
M  V30 72 H 37.224046 33.221211 58.357079 0
M  V30 73 H 40.267688 34.013015 64.656191 0
M  V30 74 H 40.395765 26.821405 53.649292 0
M  V30 75 H 40.469129 27.960887 55.053663 0
M  V30 76 H 36.871370 28.698169 57.049898 0
M  V30 77 H 37.391514 31.894525 61.100360 0
M  V30 78 H 36.332905 33.229290 60.665205 0
M  V30 79 H 41.568868 33.757363 61.386376 0
M  V30 80 H 37.057266 29.357244 54.932325 0
M  V30 81 H 38.712557 29.765750 55.122834 0
M  V30 82 H 37.378801 26.434778 56.235822 0
M  V30 83 H 39.209054 25.230806 54.909410 0
M  V30 84 H 40.857012 25.592732 55.396077 0
M  V30 85 H 37.053556 30.999710 57.266551 0
M  V30 END ATOM
M  V30 BEGIN BOND
M  V30 1 1 9 4
M  V30 2 1 10 2
M  V30 3 1 12 9
M  V30 4 1 13 5
M  V30 5 1 13 6
M  V30 6 1 14 6
M  V30 7 1 16 1
M  V30 8 1 17 6
M  V30 9 2 17 8
M  V30 10 1 20 16
M  V30 11 1 21 11
M  V30 12 1 22 16
M  V30 13 1 23 7
M  V30 14 1 23 9
M  V30 15 1 24 9
M  V30 16 1 25 1
M  V30 17 1 26 19
M  V30 18 1 27 8
M  V30 19 1 27 22
M  V30 20 1 28 5
M  V30 21 1 28 10
M  V30 22 1 28 14
M  V30 23 1 29 4
M  V30 24 1 31 20
M  V30 25 1 32 25
M  V30 26 1 32 27
M  V30 27 1 5 33 CFG=3
M  V30 28 1 34 4
M  V30 29 1 34 31
M  V30 30 1 35 19
M  V30 31 1 35 21
M  V30 32 1 35 31
M  V30 33 1 36 19
M  V30 34 1 36 29
M  V30 35 1 37 3
M  V30 36 1 37 11
M  V30 37 1 37 18
M  V30 38 1 37 26
M  V30 39 1 38 5
M  V30 40 2 38 15
M  V30 41 1 38 30
M  V30 42 1 39 1
M  V30 43 1 40 1
M  V30 44 1 41 2
M  V30 45 1 4 42 CFG=3
M  V30 46 1 6 43 CFG=3
M  V30 47 1 44 7
M  V30 48 1 45 7
M  V30 49 1 46 7
M  V30 50 1 47 8
M  V30 51 1 48 10
M  V30 52 1 49 11
M  V30 53 1 50 11
M  V30 54 1 51 12
M  V30 55 1 52 12
M  V30 56 1 53 12
M  V30 57 1 54 13
M  V30 58 1 55 13
M  V30 59 1 56 14
M  V30 60 1 57 14
M  V30 61 1 58 17
M  V30 62 1 19 59 CFG=1
M  V30 63 1 60 20
M  V30 64 1 61 21
M  V30 65 1 62 21
M  V30 66 1 63 22
M  V30 67 1 64 22
M  V30 68 1 65 24
M  V30 69 1 66 24
M  V30 70 1 67 24
M  V30 71 1 68 25
M  V30 72 1 69 25
M  V30 73 1 70 26
M  V30 74 1 71 26
M  V30 75 1 27 72 CFG=3
M  V30 76 1 28 73 CFG=1
M  V30 77 1 74 29
M  V30 78 1 75 29
M  V30 79 1 31 76 CFG=1
M  V30 80 1 77 32
M  V30 81 1 78 32
M  V30 82 1 79 33
M  V30 83 1 80 34
M  V30 84 1 81 34
M  V30 85 1 35 82 CFG=3
M  V30 86 1 83 36
M  V30 87 1 84 36
M  V30 88 1 16 85 CFG=3
M  V30 END BOND
M  V30 END CTAB
M  END
>  <i_epik_Tot_Q>  (1) 
0

>  <i_epik_Tot_abs_Q>  (1) 
2

>  <i_i_glide_confnum>  (1) 
119

>  <i_i_glide_lignum>  (1) 
242

>  <i_i_glide_posenum>  (1) 
196

>  <i_i_glide_rotatable_bonds>  (1) 
10

>  <i_lp_mmshare_version>  (1) 
72125

>  <i_m_source_file_index>  (1) 
91

>  <i_f3d_flags>  (1) 
0

>  <num_sample>  (1) 
100

>  <b_lp_Chiralities_Consistent>  (1) 
1

>  <r_epik_Charging_Adjusted_Penalty>  (1) 
1.5083745474312953

>  <r_epik_Ionization_Penalty>  (1) 
0.65750586125956467

>  <r_epik_Ionization_Penalty_Charging>  (1) 
0.6544614066189578

>  <r_epik_Ionization_Penalty_Neutral>  (1) 
0.0030444546406068235

>  <r_epik_State_Penalty>  (1) 
0.8539131408123376

>  <r_glide_ring_energy>  (1) 
0.48000684916915476

>  <r_i_docking_score>  (1) 
-4.2231611506762547

>  <r_i_glide_ecoul>  (1) 
-4.7159127392817881

>  <r_i_glide_eff_state_penalty>  (1) 
0.8539131408123376

>  <r_i_glide_einternal>  (1) 
14.672852374528102

>  <r_i_glide_emodel>  (1) 
0.024576688635404409

>  <r_i_glide_emodel_strain>  (1) 
7.8723639028043664

>  <r_i_glide_energy>  (1) 
-11.208037429514729

>  <r_i_glide_erotb>  (1) 
0.42002339013477186

>  <r_i_glide_esite>  (1) 
-0.088824399997818271

>  <r_i_glide_evdw>  (1) 
-6.4921246902329415

>  <r_i_glide_gscore>  (1) 
-5.077074291488592

>  <r_i_glide_gscore_strain>  (1) 
0.96809097570109159

>  <r_i_glide_hbond>  (1) 
-0.31232903852308735

>  <r_i_glide_ligand_efficiency>  (1) 
-0.11113581975463828

>  <r_i_glide_ligand_efficiency_ln>  (1) 
-0.91063777690017478

>  <r_i_glide_ligand_efficiency_sa>  (1) 
-0.37363589282953641

>  <r_i_glide_lipo>  (1) 
-4.0363465097055959

>  <r_i_glide_metal>  (1) 
-0

>  <r_i_glide_rewards>  (1) 
-0.99569556369403878

>  <r_lp_Energy>  (1) 
47.513490999999995

>  <s_epik_Chemistry_Notes>  (1) 
This compound has a N-S or N-O group and may undergo hydrolysis at high or low pH.

>  <s_epik_cmdline>  (1) 
J2VwaWtfcHl0aG9uJywgJy1waHQnLCAnMS4wJywgJy1waCcsICc3LjQnLCAnLXRuJywgJzgnLCAnLW1hJywgJzUwMCcsICctaW1hZScsICc8aW5maWxlLm1hZT4nLCAnLW9tYWUnLCAnPG91dGZpbGUubWFlPic=

>  <s_epik_input>  (1) 
RkMoRikoW0NIMl0xKVtDSDJdW0NIMl1bQ0BIXShbQ0BASF0xMilbQ0BIXShbQ0gyXVtDQEhdKFtDSDJdW0NIMl0yKUMoW0NIM10pKFtDSDNdKU9bQ0gzXSlbTkhdTjNbQ0gyXVtDSDJdW0NIMl1bQ0BIXShbQ0gyXTMpL1tDSF09W0NIXVxbQ0BASF0oW0NIMl1bQ0BdNChbT0hdKUMoPU8pW09IXSlbQ0gyXVtDQEBIXTRbTkhdW09IXQ==

>  <s_glide_docking_method>  (1) 
confgen

>  <s_i_glide_gridfile>  (1) 
gpcr_5ht2c_6bqh_protein_autoprepared_prepared

>  <s_lp_Force_Field>  (1) 
S-OPLS

>  <s_lp_Variant>  (1) 
DiffSBDD_90_num_sample_100-14

>  <s_m_source_file>  (1) 
generated__ligand_DiffSBDD_2026-05-06_prepared.sdf

>  <GenAI_Model>  (1) 
DiffSBDD

>  <Protein>  (1) 
GPCR_5HT2C

$$$$
DiffSBDD_93_num_sample_100
     RDKit          3D

  0  0  0  0  0  0  0  0  0  0999 V3000
M  V30 BEGIN CTAB
M  V30 COUNTS 74 77 0 0 1
M  V30 BEGIN ATOM
M  V30 1 C 40.779341 29.902575 64.911070 0
M  V30 2 S 37.758510 33.085688 59.219243 0
M  V30 3 C 41.062916 30.951497 67.219484 0 CFG=2
M  V30 4 O 40.154319 36.961465 61.853531 0
M  V30 5 C 39.721673 29.769453 56.759686 0
M  V30 6 C 39.937532 34.077016 61.685063 0 CFG=1
M  V30 7 C 38.827705 28.563214 59.353393 0
M  V30 8 C 37.130688 30.368994 59.434301 0
M  V30 9 C 40.978876 29.534675 67.792356 0
M  V30 10 N 38.134039 31.555630 61.492624 0 CHG=1
M  V30 11 C 40.578325 28.564926 57.121712 0
M  V30 12 C 40.702266 30.981301 65.745183 0
M  V30 13 C 40.377136 30.021403 63.472360 0
M  V30 14 C 39.614335 31.463776 61.494302 0 CFG=2
M  V30 15 C 41.769476 28.566361 66.921890 0
M  V30 16 Cl 42.628204 27.854270 64.507545 0
M  V30 17 O 39.294044 26.759502 56.156188 0
M  V30 18 C 41.279948 28.548529 65.460425 0 CFG=2
M  V30 19 C 40.341643 28.781039 62.587018 0
M  V30 20 C 37.717962 34.485973 60.378437 0
M  V30 21 C 41.205193 34.820502 62.151632 0
M  V30 22 C 40.035073 31.228585 62.945607 0
M  V30 23 C 38.667691 27.370963 58.399318 0
M  V30 24 C 39.109575 35.023052 60.778366 0 CFG=1
M  V30 25 C 37.291272 31.670824 60.273518 0 CFG=1
M  V30 26 C 39.809385 27.255780 57.374841 0 CFG=2
M  V30 27 C 38.909889 36.379392 61.492355 0
M  V30 28 C 40.874170 36.175019 62.789186 0
M  V30 29 C 38.731693 30.280302 57.525775 0
M  V30 30 S 35.684780 31.898169 61.053500 0 CHG=-1
M  V30 31 N 38.305457 29.797891 58.766930 0
M  V30 32 C 42.411107 31.644013 67.474131 0
M  V30 33 C 40.339229 32.736358 61.003713 0
M  V30 34 H 40.301719 31.542744 67.729220 0
M  V30 35 H 39.944436 30.240715 55.813098 0
M  V30 36 H 39.336314 33.884339 62.573117 0
M  V30 37 H 39.860142 28.685700 59.676098 0
M  V30 38 H 38.267407 28.326038 60.253472 0
M  V30 39 H 36.393291 30.566492 58.653749 0
M  V30 40 H 36.656307 29.609729 60.051739 0
M  V30 41 H 41.338529 29.510209 68.821403 0
M  V30 42 H 39.934707 29.221443 67.824406 0
M  V30 43 H 37.878746 32.350708 62.057520 0
M  V30 44 H 41.197177 28.821148 57.981469 0
M  V30 45 H 41.288362 28.408192 56.308684 0
M  V30 46 H 40.355696 31.927283 65.388198 0
M  V30 47 H 39.920127 30.638231 60.858231 0
M  V30 48 H 42.821110 28.852248 66.955400 0
M  V30 49 H 41.721748 27.560332 67.340265 0
M  V30 50 H 38.686221 27.397389 55.812889 0
M  V30 51 H 40.445713 27.849095 65.395418 0
M  V30 52 H 40.338342 27.847324 63.142312 0
M  V30 53 H 39.410965 28.762511 62.028894 0
M  V30 54 H 41.180635 28.766482 61.891291 0
M  V30 55 H 37.169434 35.274154 59.861664 0
M  V30 56 H 37.128164 34.249890 61.262742 0
M  V30 57 H 41.867145 34.989970 61.300828 0
M  V30 58 H 41.761221 34.211443 62.865548 0
M  V30 59 H 40.052097 32.104705 63.555171 0
M  V30 60 H 37.699061 27.446341 57.901223 0
M  V30 61 H 38.628915 26.445369 58.974557 0
M  V30 62 H 39.689037 35.206140 59.873577 0
M  V30 63 H 40.529138 26.520768 57.738952 0
M  V30 64 H 38.385588 37.077179 60.838853 0
M  V30 65 H 38.287682 36.263148 62.381238 0
M  V30 66 H 41.793931 36.696902 63.053482 0
M  V30 67 H 40.298473 36.051765 63.707730 0
M  V30 68 H 38.169263 31.142271 57.193091 0
M  V30 69 H 42.386055 32.681109 67.137863 0
M  V30 70 H 42.656449 31.649226 68.536418 0
M  V30 71 H 43.226385 31.149606 66.945657 0
M  V30 72 H 40.267355 32.822974 59.924776 0
M  V30 73 H 41.405327 32.560745 61.156515 0
M  V30 74 H 37.804624 30.728779 61.964624 0
M  V30 END ATOM
M  V30 BEGIN BOND
M  V30 1 1 9 3
M  V30 2 1 11 5
M  V30 3 2 12 1
M  V30 4 1 12 3
M  V30 5 1 13 1
M  V30 6 1 14 10
M  V30 7 1 15 9
M  V30 8 1 18 1
M  V30 9 1 18 15
M  V30 10 1 18 16
M  V30 11 1 19 13
M  V30 12 1 20 2
M  V30 13 1 21 6
M  V30 14 2 22 13
M  V30 15 1 22 14
M  V30 16 1 23 7
M  V30 17 1 24 6
M  V30 18 1 24 20
M  V30 19 1 25 2
M  V30 20 1 25 8
M  V30 21 1 25 10
M  V30 22 1 26 11
M  V30 23 1 26 17
M  V30 24 1 26 23
M  V30 25 1 27 4
M  V30 26 1 27 24
M  V30 27 1 28 4
M  V30 28 1 28 21
M  V30 29 2 29 5
M  V30 30 1 25 30 CFG=1
M  V30 31 1 31 7
M  V30 32 1 31 8
M  V30 33 1 31 29
M  V30 34 1 32 3
M  V30 35 1 33 6
M  V30 36 1 33 14
M  V30 37 1 3 34 CFG=1
M  V30 38 1 35 5
M  V30 39 1 6 36 CFG=1
M  V30 40 1 37 7
M  V30 41 1 38 7
M  V30 42 1 39 8
M  V30 43 1 40 8
M  V30 44 1 41 9
M  V30 45 1 42 9
M  V30 46 1 43 10
M  V30 47 1 44 11
M  V30 48 1 45 11
M  V30 49 1 46 12
M  V30 50 1 14 47 CFG=3
M  V30 51 1 48 15
M  V30 52 1 49 15
M  V30 53 1 50 17
M  V30 54 1 18 51 CFG=1
M  V30 55 1 52 19
M  V30 56 1 53 19
M  V30 57 1 54 19
M  V30 58 1 55 20
M  V30 59 1 56 20
M  V30 60 1 57 21
M  V30 61 1 58 21
M  V30 62 1 59 22
M  V30 63 1 60 23
M  V30 64 1 61 23
M  V30 65 1 24 62 CFG=3
M  V30 66 1 26 63 CFG=1
M  V30 67 1 64 27
M  V30 68 1 65 27
M  V30 69 1 66 28
M  V30 70 1 67 28
M  V30 71 1 68 29
M  V30 72 1 69 32
M  V30 73 1 70 32
M  V30 74 1 71 32
M  V30 75 1 72 33
M  V30 76 1 73 33
M  V30 77 1 74 10
M  V30 END BOND
M  V30 END CTAB
M  END
>  <i_epik_Tot_Q>  (1) 
0

>  <i_epik_Tot_abs_Q>  (1) 
2

>  <i_i_glide_confnum>  (1) 
45

>  <i_i_glide_lignum>  (1) 
259

>  <i_i_glide_posenum>  (1) 
118

>  <i_i_glide_rotatable_bonds>  (1) 
5

>  <i_lp_mmshare_version>  (1) 
72125

>  <i_m_source_file_index>  (1) 
94

>  <i_f3d_flags>  (1) 
0

>  <num_sample>  (1) 
100

>  <b_lp_Chiralities_Consistent>  (1) 
1

>  <r_epik_Charging_Adjusted_Penalty>  (1) 
0.80501984278308969

>  <r_epik_Ionization_Penalty>  (1) 
0.072421558423421364

>  <r_epik_Ionization_Penalty_Charging>  (1) 
0.072408791886815996

>  <r_epik_Ionization_Penalty_Neutral>  (1) 
1.2766536605372598e-05

>  <r_epik_State_Penalty>  (1) 
0.73261105089627365

>  <r_glide_ring_energy>  (1) 
1.2305908303780047

>  <r_i_docking_score>  (1) 
-4.2199639389307864

>  <r_i_glide_ecoul>  (1) 
-0.40655623646652944

>  <r_i_glide_eff_state_penalty>  (1) 
0.73261105089627365

>  <r_i_glide_einternal>  (1) 
45.306444561876219

>  <r_i_glide_emodel>  (1) 
-17.179480627730221

>  <r_i_glide_emodel_strain>  (1) 
0

>  <r_i_glide_energy>  (1) 
-39.505088496487531

>  <r_i_glide_erotb>  (1) 
0.31140238833871409

>  <r_i_glide_esite>  (1) 
-0.0037150254103858363

>  <r_i_glide_evdw>  (1) 
-39.098532260021003

>  <r_i_glide_gscore>  (1) 
-4.9525749898270597

>  <r_i_glide_gscore_strain>  (1) 
0

>  <r_i_glide_hbond>  (1) 
-0.045053776981293807

>  <r_i_glide_ligand_efficiency>  (1) 
-0.12787769511911473

>  <r_i_glide_ligand_efficiency_ln>  (1) 
-0.93849813021430739

>  <r_i_glide_ligand_efficiency_sa>  (1) 
-0.41017209713530028

>  <r_i_glide_lipo>  (1) 
-2.8632290953037618

>  <r_i_glide_metal>  (1) 
-0

>  <r_i_glide_rewards>  (1) 
-0.33606943199930256

>  <r_lp_Energy>  (1) 
34.184450999999996

>  <s_epik_Chemistry_Notes>  (1) 
This compound has an imine and may undergo hydrolysis.

>  <s_epik_cmdline>  (1) 
J2VwaWtfcHl0aG9uJywgJy1waHQnLCAnMS4wJywgJy1waCcsICc3LjQnLCAnLXRuJywgJzgnLCAnLW1hJywgJzUwMCcsICctaW1hZScsICc8aW5maWxlLm1hZT4nLCAnLW9tYWUnLCAnPG91dGZpbGUubWFlPic=

>  <s_epik_input>  (1) 
Q2xbQ0BIXTFbQ0gyXVtDSDJdW0NAQEhdKFtDSDNdKVtDSF09QzEvQyhbQ0gzXSk9W0NIXS9bQ0BASF0oW0NIMl0yKVtOSF1bQ0BAXShbU0hdKShTW0NIMl1bQ0BIXShbQ0BASF0yMylbQ0gyXU9bQ0gyXVtDSDJdMylbQ0gyXU4oW0NIMl1bQ0gyXTQpW0NIXT1bQ0hdW0NIMl1bQ0BASF00W09IXQ==

>  <s_glide_docking_method>  (1) 
confgen

>  <s_i_glide_gridfile>  (1) 
gpcr_5ht2c_6bqh_protein_autoprepared_prepared

>  <s_lp_Force_Field>  (1) 
S-OPLS

>  <s_lp_Variant>  (1) 
DiffSBDD_93_num_sample_100-11

>  <s_m_source_file>  (1) 
generated__ligand_DiffSBDD_2026-05-06_prepared.sdf

>  <GenAI_Model>  (1) 
DiffSBDD

>  <Protein>  (1) 
GPCR_5HT2C

$$$$
DiffSBDD_31_num_sample_100
     RDKit          3D

  0  0  0  0  0  0  0  0  0  0999 V3000
M  V30 BEGIN CTAB
M  V30 COUNTS 22 22 0 0 1
M  V30 BEGIN ATOM
M  V30 1 O 39.061654 30.182357 58.435789 0
M  V30 2 C 37.866041 29.907044 56.385395 0 CFG=1
M  V30 3 C 38.966453 29.359576 54.064303 0
M  V30 4 O 37.867328 31.293534 56.087610 0
M  V30 5 C 39.694149 28.435847 51.650633 0 CFG=2
M  V30 6 O 39.796765 28.635589 57.011680 0 CHG=-1
M  V30 7 C 39.119610 28.239511 53.045707 0 CFG=2
M  V30 8 C 37.845498 29.064108 55.082419 0
M  V30 9 C 39.009282 29.544893 57.359790 0
M  V30 10 S 40.240002 30.064279 51.049639 0
M  V30 11 C 38.219486 28.161068 51.845695 0
M  V30 12 H 36.942871 29.708777 56.931786 0
M  V30 13 H 38.763249 30.304245 53.559505 0
M  V30 14 H 39.916230 29.487757 54.578074 0
M  V30 15 H 36.981444 31.621425 56.261519 0
M  V30 16 H 40.266583 27.620800 51.220242 0
M  V30 17 H 39.370028 27.286398 53.507329 0
M  V30 18 H 37.873269 28.008032 55.357606 0
M  V30 19 H 36.888299 29.202326 54.581554 0
M  V30 20 H 39.679411 29.997414 49.838373 0
M  V30 21 H 37.865974 27.178887 51.545691 0
M  V30 22 H 37.510273 28.971426 51.713267 0
M  V30 END ATOM
M  V30 BEGIN BOND
M  V30 1 1 4 2
M  V30 2 1 7 3
M  V30 3 1 7 5
M  V30 4 1 8 2
M  V30 5 1 8 3
M  V30 6 2 9 1
M  V30 7 1 9 2
M  V30 8 1 9 6
M  V30 9 1 10 5
M  V30 10 1 11 5
M  V30 11 1 11 7
M  V30 12 1 2 12 CFG=1
M  V30 13 1 13 3
M  V30 14 1 14 3
M  V30 15 1 15 4
M  V30 16 1 5 16 CFG=3
M  V30 17 1 7 17 CFG=1
M  V30 18 1 18 8
M  V30 19 1 19 8
M  V30 20 1 20 10
M  V30 21 1 21 11
M  V30 22 1 22 11
M  V30 END BOND
M  V30 END CTAB
M  END
>  <i_epik_Tot_Q>  (1) 
-1

>  <i_epik_Tot_abs_Q>  (1) 
1

>  <i_i_glide_confnum>  (1) 
1

>  <i_i_glide_lignum>  (1) 
85

>  <i_i_glide_posenum>  (1) 
230

>  <i_i_glide_rotatable_bonds>  (1) 
6

>  <i_lp_mmshare_version>  (1) 
72125

>  <i_m_source_file_index>  (1) 
32

>  <i_f3d_flags>  (1) 
0

>  <num_sample>  (1) 
100

>  <b_lp_Chiralities_Consistent>  (1) 
1

>  <r_epik_Charging_Adjusted_Penalty>  (1) 
0.00018608046313999227

>  <r_epik_Ionization_Penalty>  (1) 
0.0019748008794804291

>  <r_epik_Ionization_Penalty_Charging>  (1) 
0.00018608046313999227

>  <r_epik_Ionization_Penalty_Neutral>  (1) 
0.0017887204163404367

>  <r_epik_State_Penalty>  (1) 
-0

>  <r_glide_ring_energy>  (1) 
0

>  <r_i_docking_score>  (1) 
-4.2147929551314132

>  <r_i_glide_ecoul>  (1) 
-3.8371075039775895

>  <r_i_glide_eff_state_penalty>  (1) 
-0

>  <r_i_glide_einternal>  (1) 
2.76549908820482

>  <r_i_glide_emodel>  (1) 
-24.496385765621469

>  <r_i_glide_emodel_strain>  (1) 
2.1560011933384438

>  <r_i_glide_energy>  (1) 
-21.967143663222192

>  <r_i_glide_erotb>  (1) 
1.524023084200782

>  <r_i_glide_esite>  (1) 
0

>  <r_i_glide_evdw>  (1) 
-18.130036159244604

>  <r_i_glide_gscore>  (1) 
-4.2147929551314132

>  <r_i_glide_gscore_strain>  (1) 
0

>  <r_i_glide_hbond>  (1) 
-0.16

>  <r_i_glide_ligand_efficiency>  (1) 
-0.38316299592103759

>  <r_i_glide_ligand_efficiency_ln>  (1) 
-1.2404128487633694

>  <r_i_glide_ligand_efficiency_sa>  (1) 
-0.85214687437127945

>  <r_i_glide_lipo>  (1) 
-1.2387889258330116

>  <r_i_glide_metal>  (1) 
-0

>  <r_i_glide_rewards>  (1) 
-2.8579591799403152

>  <r_lp_Energy>  (1) 
14.639012999999998

>  <r_lp_tautomer_probability>  (1) 
1

>  <s_epik_cmdline>  (1) 
J2VwaWtfcHl0aG9uJywgJy1waHQnLCAnMS4wJywgJy1waCcsICc3LjQnLCAnLXRuJywgJzgnLCAnLW1hJywgJzUwMCcsICctaW1hZScsICc8aW5maWxlLm1hZT4nLCAnLW9tYWUnLCAnPG91dGZpbGUubWFlPic=

>  <s_epik_input>  (1) 
Tz1DKFtPSF0pW0NAQEhdKFtPSF0pW0NIMl1bQ0gyXVtDQEBIXShbQ0gyXTEpW0NAQEhdMVtTSF0=

>  <s_glide_docking_method>  (1) 
confgen

>  <s_i_glide_gridfile>  (1) 
gpcr_5ht2c_6bqh_protein_autoprepared_prepared

>  <s_lp_Force_Field>  (1) 
S-OPLS

>  <s_lp_Variant>  (1) 
DiffSBDD_31_num_sample_100-1

>  <s_m_source_file>  (1) 
generated__ligand_DiffSBDD_2026-05-06_prepared.sdf

>  <GenAI_Model>  (1) 
DiffSBDD

>  <Protein>  (1) 
GPCR_5HT2C

$$$$
DiffSBDD_6_num_sample_100
     RDKit          3D

  0  0  0  0  0  0  0  0  0  0999 V3000
M  V30 BEGIN CTAB
M  V30 COUNTS 67 70 0 0 1
M  V30 BEGIN ATOM
M  V30 1 C 39.907677 31.295754 62.762122 0 CFG=1
M  V30 2 C 38.861355 24.021439 57.281103 0
M  V30 3 O 37.609910 29.642150 59.381165 0
M  V30 4 C 39.066679 30.976640 56.240779 0 CFG=2
M  V30 5 N 40.506471 30.765978 61.538760 0
M  V30 6 N 39.114595 28.053783 55.181903 0
M  V30 7 O 37.867395 32.674494 57.529126 0
M  V30 8 C 39.310959 29.787095 57.221981 0 CFG=1
M  V30 9 O 39.867402 32.120054 56.313078 0
M  V30 10 O 40.073324 26.421698 53.888912 0
M  V30 11 S 36.931966 33.507221 60.881670 0
M  V30 12 S 38.978020 30.208921 58.996465 0
M  V30 13 O 38.299865 30.863055 53.853490 0
M  V30 14 C 37.736612 31.646804 56.541903 0
M  V30 15 C 40.994960 31.497933 63.817618 0
M  V30 16 C 37.469472 23.987572 57.397848 0
M  V30 17 C 39.707641 33.678369 61.673026 0
M  V30 18 S 38.783224 34.252921 60.262107 0
M  V30 19 C 38.672684 32.138593 53.413517 0
M  V30 20 O 36.284194 34.490908 61.761966 0
M  V30 21 C 40.159412 29.369068 61.301945 0
M  V30 22 C 39.466093 24.906660 56.409024 0
M  V30 23 C 42.025927 32.576242 63.467364 0
M  V30 24 S 38.267362 28.444141 56.644058 0
M  V30 25 C 37.674157 32.169865 61.892388 0
M  V30 26 C 38.685464 25.780379 55.664918 0
M  V30 27 C 39.047834 32.567001 62.496222 0 CFG=1
M  V30 28 C 41.438801 33.983153 63.276878 0
M  V30 29 O 36.199734 32.911629 59.756495 0
M  V30 30 C 39.785799 29.126106 54.524086 0
M  V30 31 C 39.337437 26.770694 54.815687 0
M  V30 32 C 36.673403 24.846241 56.621619 0
M  V30 33 C 37.282664 25.744908 55.759513 0
M  V30 34 C 39.317890 30.524485 54.779937 0 CFG=2
M  V30 35 N 40.833364 34.194360 61.971828 0
M  V30 36 C 40.235221 29.100322 59.794008 0
M  V30 37 H 39.231063 30.552636 63.186613 0
M  V30 38 H 39.467121 23.343520 57.853502 0
M  V30 39 H 40.154907 31.317826 60.768765 0
M  V30 40 H 36.981727 32.827499 57.850682 0
M  V30 41 H 40.348786 29.467491 57.178762 0
M  V30 42 H 39.346072 32.700814 56.868702 0
M  V30 43 H 37.067445 30.863061 56.894515 0
M  V30 44 H 37.264508 32.099176 55.675204 0
M  V30 45 H 40.520794 31.751889 64.767343 0
M  V30 46 H 41.509605 30.551576 63.993681 0
M  V30 47 H 37.029570 23.283781 58.064905 0
M  V30 48 H 38.267399 32.684579 52.596758 0
M  V30 49 H 38.716669 32.821463 54.252911 0
M  V30 50 H 39.651210 32.021426 52.948714 0
M  V30 51 H 39.144301 29.146038 61.636982 0
M  V30 52 H 40.833585 28.716623 61.859465 0
M  V30 53 H 40.541295 24.937515 56.326811 0
M  V30 54 H 42.698963 32.622098 64.318586 0
M  V30 55 H 42.626820 32.285043 62.603909 0
M  V30 56 H 36.961087 31.910063 62.653481 0
M  V30 57 H 37.768931 31.304994 61.240967 0
M  V30 58 H 40.737369 34.221332 64.079467 0
M  V30 59 H 42.244867 34.708602 63.396720 0
M  V30 60 H 40.736268 29.097449 55.053502 0
M  V30 61 H 39.867412 28.963742 53.446774 0
M  V30 62 H 35.600827 24.821433 56.686463 0
M  V30 63 H 36.680058 26.421414 55.172219 0
M  V30 64 H 40.281443 30.964894 54.490312 0
M  V30 65 H 38.848887 33.020014 63.453495 0
M  V30 66 H 39.997786 28.060295 59.570347 0
M  V30 67 H 41.232544 29.306810 59.405251 0
M  V30 END ATOM
M  V30 BEGIN BOND
M  V30 1 1 5 1
M  V30 2 1 8 4
M  V30 3 1 4 9 CFG=1
M  V30 4 2 12 3
M  V30 5 1 12 8
M  V30 6 1 14 4
M  V30 7 1 14 7
M  V30 8 1 15 1
M  V30 9 2 16 2
M  V30 10 1 18 11
M  V30 11 1 18 17
M  V30 12 1 19 13
M  V30 13 2 20 11
M  V30 14 1 21 5
M  V30 15 1 22 2
M  V30 16 1 23 15
M  V30 17 1 24 6
M  V30 18 1 24 8
M  V30 19 1 25 11
M  V30 20 2 26 22
M  V30 21 1 27 1
M  V30 22 1 27 17
M  V30 23 1 27 25
M  V30 24 1 28 23
M  V30 25 2 29 11
M  V30 26 1 30 6
M  V30 27 1 31 6
M  V30 28 2 31 10
M  V30 29 1 31 26
M  V30 30 1 32 16
M  V30 31 1 33 26
M  V30 32 2 33 32
M  V30 33 1 34 4
M  V30 34 1 34 13
M  V30 35 1 34 30
M  V30 36 2 35 17
M  V30 37 1 35 28
M  V30 38 1 12 36 CFG=1
M  V30 39 1 36 21
M  V30 40 1 1 37 CFG=1
M  V30 41 1 38 2
M  V30 42 1 39 5
M  V30 43 1 40 7
M  V30 44 1 8 41 CFG=1
M  V30 45 1 42 9
M  V30 46 1 43 14
M  V30 47 1 44 14
M  V30 48 1 45 15
M  V30 49 1 46 15
M  V30 50 1 47 16
M  V30 51 1 48 19
M  V30 52 1 49 19
M  V30 53 1 50 19
M  V30 54 1 51 21
M  V30 55 1 52 21
M  V30 56 1 53 22
M  V30 57 1 54 23
M  V30 58 1 55 23
M  V30 59 1 56 25
M  V30 60 1 57 25
M  V30 61 1 58 28
M  V30 62 1 59 28
M  V30 63 1 60 30
M  V30 64 1 61 30
M  V30 65 1 62 32
M  V30 66 1 63 33
M  V30 67 1 34 64 CFG=3
M  V30 68 1 27 65 CFG=1
M  V30 69 1 66 36
M  V30 70 1 67 36
M  V30 END BOND
M  V30 END CTAB
M  END
>  <i_epik_Tot_Q>  (1) 
0

>  <i_epik_Tot_abs_Q>  (1) 
0

>  <i_i_glide_confnum>  (1) 
1048

>  <i_i_glide_lignum>  (1) 
25

>  <i_i_glide_posenum>  (1) 
138

>  <i_i_glide_rotatable_bonds>  (1) 
11

>  <i_lp_mmshare_version>  (1) 
72125

>  <i_m_source_file_index>  (1) 
7

>  <i_f3d_flags>  (1) 
0

>  <num_sample>  (1) 
100

>  <b_lp_Chiralities_Consistent>  (1) 
1

>  <r_epik_Charging_Adjusted_Penalty>  (1) 
0.04024977574551479

>  <r_epik_Ionization_Penalty>  (1) 
0.04050266925573108

>  <r_epik_Ionization_Penalty_Charging>  (1) 
0

>  <r_epik_Ionization_Penalty_Neutral>  (1) 
0.04050266925573108

>  <r_epik_State_Penalty>  (1) 
0.04024977574551479

>  <r_glide_ring_energy>  (1) 
2.3592977893351628

>  <r_i_docking_score>  (1) 
-4.1933766045005996

>  <r_i_glide_ecoul>  (1) 
-3.144281563986032

>  <r_i_glide_eff_state_penalty>  (1) 
0.04024977574551479

>  <r_i_glide_einternal>  (1) 
7.4920743005788566

>  <r_i_glide_emodel>  (1) 
-16.567071416414198

>  <r_i_glide_emodel_strain>  (1) 
10.783671823075849

>  <r_i_glide_energy>  (1) 
-18.996670572733034

>  <r_i_glide_erotb>  (1) 
0.34065271397431773

>  <r_i_glide_esite>  (1) 
-0.066982275501698538

>  <r_i_glide_evdw>  (1) 
-15.852389008747004

>  <r_i_glide_gscore>  (1) 
-4.2336263802461147

>  <r_i_glide_gscore_strain>  (1) 
1.6959179557689623

>  <r_i_glide_hbond>  (1) 
-0.13395153062532086

>  <r_i_glide_ligand_efficiency>  (1) 
-0.11648268345834999

>  <r_i_glide_ligand_efficiency_ln>  (1) 
-0.91488148315867457

>  <r_i_glide_ligand_efficiency_sa>  (1) 
-0.38461734653549329

>  <r_i_glide_lipo>  (1) 
-3.3063819561868146

>  <r_i_glide_metal>  (1) 
-0

>  <r_i_glide_rewards>  (1) 
-1.4986196026403049

>  <r_lp_Energy>  (1) 
38.802732999999996

>  <r_lp_tautomer_probability>  (1) 
0.99960115913750414

>  <s_epik_Chemistry_Notes>  (1) 
This compound has an imine and may undergo hydrolysis. This compound contains an acetal/aminal-like group ( X-CH(R)-Y where X, Y are N, S, or O) that may be acid/base labile, releasing an aldehyde. This compound has a N-S or N-O group and may undergo hydrolysis at high or low pH.

>  <s_epik_cmdline>  (1) 
J2VwaWtfcHl0aG9uJywgJy1waHQnLCAnMS4wJywgJy1waCcsICc3LjQnLCAnLXRuJywgJzgnLCAnLW1hJywgJzUwMCcsICctaW1hZScsICc8aW5maWxlLm1hZT4nLCAnLW9tYWUnLCAnPG91dGZpbGUubWFlPic=

>  <s_epik_input>  (1) 
UzFTKD1PKSg9TylbQ0gyXUMoPUMxMilbQ0BIXShbQ0gyXVtDSDJdW0NIMl1bTkhdMilbTkhdW0NIMl1bQ0gyXVtTQF0oPU8pW0NASF0oW0NAXTMoW09IXSlbQ0gyXVtPSF0pU04oW0NIMl1bQ0BIXTNPW0NIM10pQyg9TyljNFtjSF1bY0hdW2NIXVtjSF1bY0hdNA==

>  <s_glide_docking_method>  (1) 
confgen

>  <s_i_glide_gridfile>  (1) 
gpcr_5ht2c_6bqh_protein_autoprepared_prepared

>  <s_lp_Force_Field>  (1) 
S-OPLS

>  <s_lp_Variant>  (1) 
DiffSBDD_6_num_sample_100-1

>  <s_m_source_file>  (1) 
generated__ligand_DiffSBDD_2026-05-06_prepared.sdf

>  <GenAI_Model>  (1) 
DiffSBDD

>  <Protein>  (1) 
GPCR_5HT2C

$$$$
DiffSBDD_90_num_sample_100
     RDKit          3D

  0  0  0  0  0  0  0  0  0  0999 V3000
M  V30 BEGIN CTAB
M  V30 COUNTS 85 88 0 0 1
M  V30 BEGIN ATOM
M  V30 1 C 38.640540 27.308106 56.894535 0
M  V30 2 O 41.467692 26.934697 67.143396 0
M  V30 3 F 39.414931 31.540119 52.725677 0
M  V30 4 C 37.612112 32.484278 58.675351 0 CFG=1
M  V30 5 C 41.939032 29.936475 64.940690 0 CFG=2
M  V30 6 C 41.497584 28.448924 63.017492 0 CFG=1
M  V30 7 C 37.818169 35.094861 61.338354 0
M  V30 8 C 40.728115 27.909344 60.662254 0
M  V30 9 C 37.434415 32.953152 60.165615 0
M  V30 10 N 41.275273 28.302834 66.715350 0
M  V30 11 C 38.091111 29.903388 53.804397 0
M  V30 12 C 35.954913 32.875490 60.610108 0
M  V30 13 C 41.411678 29.902961 63.488422 0
M  V30 14 C 41.317364 27.617953 64.293880 0
M  V30 15 O 43.580649 31.437859 65.843325 0
M  V30 16 N 38.506464 28.497404 57.730857 0
M  V30 17 C 40.450542 28.149802 61.955004 0
M  V30 18 F 40.267336 29.624883 53.097161 0
M  V30 19 C 38.999020 32.080756 55.572717 0 CFG=1
M  V30 20 N 38.514300 29.575985 56.886305 0 CHG=1
M  V30 21 C 37.101170 30.871014 54.482525 0
M  V30 22 C 39.648733 28.724535 58.604909 0
M  V30 23 O 37.829679 34.333016 60.134460 0
M  V30 24 C 38.324377 32.164377 61.163098 0
M  V30 25 C 38.742195 26.094427 57.794235 0
M  V30 26 C 40.050556 31.124970 54.923084 0
M  V30 27 C 39.667964 27.620824 59.611664 0 CFG=1
M  V30 28 C 41.939774 28.453953 65.421062 0 CFG=1
M  V30 29 C 39.067534 32.560892 58.200941 0
M  V30 30 O 44.230090 30.020701 64.250037 0 CHG=-1
M  V30 31 C 37.397609 30.483095 56.966694 0 CFG=1
M  V30 32 C 39.867721 26.340742 58.789602 0
M  V30 33 O 41.014888 30.736228 65.676779 0
M  V30 34 C 37.132362 31.038962 58.413726 0
M  V30 35 C 37.612360 31.468894 55.786487 0 CFG=1
M  V30 36 C 39.368325 32.995426 56.748494 0
M  V30 37 C 39.471668 30.550214 53.614070 0
M  V30 38 C 43.375071 30.517324 65.018331 0
M  V30 39 H 37.773219 27.203362 56.239041 0
M  V30 40 H 39.529837 27.370058 56.263515 0
M  V30 41 H 40.612171 26.728579 67.500617 0
M  V30 42 H 37.022021 33.172123 58.069431 0
M  V30 43 H 42.507505 28.266964 62.653350 0
M  V30 44 H 38.133423 36.112564 61.106701 0
M  V30 45 H 36.825523 35.167467 61.784751 0
M  V30 46 H 38.515062 34.709596 62.081234 0
M  V30 47 H 41.755174 27.918446 60.325405 0
M  V30 48 H 41.773785 28.829259 67.421916 0
M  V30 49 H 37.714853 29.572071 52.837483 0
M  V30 50 H 38.186456 28.983264 54.377758 0
M  V30 51 H 35.580504 31.854123 60.596299 0
M  V30 52 H 35.814296 33.225559 61.631477 0
M  V30 53 H 35.314479 33.472487 59.961478 0
M  V30 54 H 41.958781 30.571863 62.821176 0
M  V30 55 H 40.367986 30.223077 63.459052 0
M  V30 56 H 41.781904 26.636260 64.209644 0
M  V30 57 H 40.267392 27.452526 64.504094 0
M  V30 58 H 39.423959 28.138188 62.285246 0
M  V30 59 H 38.856301 32.813873 54.775345 0
M  V30 60 H 39.358919 30.090669 57.085678 0
M  V30 61 H 36.955447 31.731374 53.853526 0
M  V30 62 H 36.118493 30.421410 54.619178 0
M  V30 63 H 39.553785 29.657738 59.152209 0
M  V30 64 H 40.586321 28.761669 58.046964 0
M  V30 65 H 38.111806 31.096906 61.152409 0
M  V30 66 H 39.386723 32.287288 60.954334 0
M  V30 67 H 38.162194 32.490531 62.191488 0
M  V30 68 H 37.797219 25.931963 58.311443 0
M  V30 69 H 38.936147 25.194951 57.209089 0
M  V30 70 H 40.987948 31.621587 54.694552 0
M  V30 71 H 40.364217 30.312858 55.566199 0
M  V30 72 H 38.699930 27.615783 60.116638 0
M  V30 73 H 42.972646 28.116898 65.540691 0
M  V30 74 H 39.627983 33.232054 58.849257 0
M  V30 75 H 39.467356 31.572721 58.355411 0
M  V30 76 H 36.521976 29.875764 56.743019 0
M  V30 77 H 40.830753 26.346830 58.273370 0
M  V30 78 H 39.867415 25.527900 59.453572 0
M  V30 79 H 40.212113 30.241056 65.739386 0
M  V30 80 H 36.073024 30.963641 58.653479 0
M  V30 81 H 37.548041 30.375103 59.163848 0
M  V30 82 H 37.067429 32.378743 55.963203 0
M  V30 83 H 38.816448 33.925794 56.598831 0
M  V30 84 H 40.426043 33.221397 56.651833 0
M  V30 85 H 38.560664 29.202063 55.950680 0
M  V30 END ATOM
M  V30 BEGIN BOND
M  V30 1 1 9 4
M  V30 2 1 10 2
M  V30 3 1 12 9
M  V30 4 1 13 5
M  V30 5 1 13 6
M  V30 6 1 14 6
M  V30 7 1 16 1
M  V30 8 1 17 6
M  V30 9 2 17 8
M  V30 10 1 20 16
M  V30 11 1 21 11
M  V30 12 1 22 16
M  V30 13 1 23 7
M  V30 14 1 23 9
M  V30 15 1 24 9
M  V30 16 1 25 1
M  V30 17 1 26 19
M  V30 18 1 27 8
M  V30 19 1 27 22
M  V30 20 1 28 5
M  V30 21 1 28 10
M  V30 22 1 28 14
M  V30 23 1 29 4
M  V30 24 1 31 20
M  V30 25 1 32 25
M  V30 26 1 32 27
M  V30 27 1 5 33 CFG=1
M  V30 28 1 34 4
M  V30 29 1 34 31
M  V30 30 1 35 19
M  V30 31 1 35 21
M  V30 32 1 35 31
M  V30 33 1 36 19
M  V30 34 1 36 29
M  V30 35 1 37 3
M  V30 36 1 37 11
M  V30 37 1 37 18
M  V30 38 1 37 26
M  V30 39 1 38 5
M  V30 40 2 38 15
M  V30 41 1 38 30
M  V30 42 1 39 1
M  V30 43 1 40 1
M  V30 44 1 41 2
M  V30 45 1 4 42 CFG=3
M  V30 46 1 6 43 CFG=3
M  V30 47 1 44 7
M  V30 48 1 45 7
M  V30 49 1 46 7
M  V30 50 1 47 8
M  V30 51 1 48 10
M  V30 52 1 49 11
M  V30 53 1 50 11
M  V30 54 1 51 12
M  V30 55 1 52 12
M  V30 56 1 53 12
M  V30 57 1 54 13
M  V30 58 1 55 13
M  V30 59 1 56 14
M  V30 60 1 57 14
M  V30 61 1 58 17
M  V30 62 1 19 59 CFG=3
M  V30 63 1 60 20
M  V30 64 1 61 21
M  V30 65 1 62 21
M  V30 66 1 63 22
M  V30 67 1 64 22
M  V30 68 1 65 24
M  V30 69 1 66 24
M  V30 70 1 67 24
M  V30 71 1 68 25
M  V30 72 1 69 25
M  V30 73 1 70 26
M  V30 74 1 71 26
M  V30 75 1 27 72 CFG=1
M  V30 76 1 28 73 CFG=1
M  V30 77 1 74 29
M  V30 78 1 75 29
M  V30 79 1 31 76 CFG=3
M  V30 80 1 77 32
M  V30 81 1 78 32
M  V30 82 1 79 33
M  V30 83 1 80 34
M  V30 84 1 81 34
M  V30 85 1 35 82 CFG=1
M  V30 86 1 83 36
M  V30 87 1 84 36
M  V30 88 1 85 20
M  V30 END BOND
M  V30 END CTAB
M  END
>  <i_epik_Tot_Q>  (1) 
0

>  <i_epik_Tot_abs_Q>  (1) 
2

>  <i_i_glide_confnum>  (1) 
1056

>  <i_i_glide_lignum>  (1) 
236

>  <i_i_glide_posenum>  (1) 
206

>  <i_i_glide_rotatable_bonds>  (1) 
10

>  <i_lp_mmshare_version>  (1) 
72125

>  <i_m_source_file_index>  (1) 
91

>  <i_f3d_flags>  (1) 
0

>  <num_sample>  (1) 
100

>  <b_lp_Chiralities_Consistent>  (1) 
1

>  <r_epik_Charging_Adjusted_Penalty>  (1) 
1.3235823108087639

>  <r_epik_Ionization_Penalty>  (1) 
0.58520961668590687

>  <r_epik_Ionization_Penalty_Charging>  (1) 
0.5818654171532841

>  <r_epik_Ionization_Penalty_Neutral>  (1) 
0.0033441995326227757

>  <r_epik_State_Penalty>  (1) 
0.74171689365547977

>  <r_glide_ring_energy>  (1) 
0

>  <r_i_docking_score>  (1) 
-4.1662795457222375

>  <r_i_glide_ecoul>  (1) 
-2.799227575303775

>  <r_i_glide_eff_state_penalty>  (1) 
0.74171689365547977

>  <r_i_glide_einternal>  (1) 
0.66676304852873081

>  <r_i_glide_emodel>  (1) 
-43.372393752483276

>  <r_i_glide_emodel_strain>  (1) 
1.7820709214353627

>  <r_i_glide_energy>  (1) 
-24.850979612955769

>  <r_i_glide_erotb>  (1) 
0.42002339013477186

>  <r_i_glide_esite>  (1) 
-0.030300879634499935

>  <r_i_glide_evdw>  (1) 
-22.051752037651994

>  <r_i_glide_gscore>  (1) 
-4.9079964393777171

>  <r_i_glide_gscore_strain>  (1) 
0

>  <r_i_glide_hbond>  (1) 
-0.16988513131621349

>  <r_i_glide_ligand_efficiency>  (1) 
-0.10963893541374309

>  <r_i_glide_ligand_efficiency_ln>  (1) 
-0.89837242958480046

>  <r_i_glide_ligand_efficiency_sa>  (1) 
-0.36860340448862428

>  <r_i_glide_lipo>  (1) 
-2.5340502897336745

>  <r_i_glide_metal>  (1) 
-0

>  <r_i_glide_rewards>  (1) 
-1.0713117906499352

>  <r_lp_Energy>  (1) 
58.928919

>  <s_epik_Chemistry_Notes>  (1) 
This compound has a N-S or N-O group and may undergo hydrolysis at high or low pH.

>  <s_epik_cmdline>  (1) 
J2VwaWtfcHl0aG9uJywgJy1waHQnLCAnMS4wJywgJy1waCcsICc3LjQnLCAnLXRuJywgJzgnLCAnLW1hJywgJzUwMCcsICctaW1hZScsICc8aW5maWxlLm1hZT4nLCAnLW9tYWUnLCAnPG91dGZpbGUubWFlPic=

>  <s_epik_input>  (1) 
RkMoRikoW0NIMl0xKVtDSDJdW0NIMl1bQ0BIXShbQ0BASF0xMilbQ0BIXShbQ0gyXVtDQEhdKFtDSDJdW0NIMl0yKUMoW0NIM10pKFtDSDNdKU9bQ0gzXSlbTkhdTjNbQ0gyXVtDSDJdW0NIMl1bQ0BIXShbQ0gyXTMpL1tDSF09W0NIXS9bQ0BASF0oW0NIMl1bQ0BdNChbT0hdKUMoPU8pW09IXSlbQ0gyXVtDQEBIXTRbTkhdW09IXQ==

>  <s_glide_docking_method>  (1) 
confgen

>  <s_i_glide_gridfile>  (1) 
gpcr_5ht2c_6bqh_protein_autoprepared_prepared

>  <s_lp_Force_Field>  (1) 
S-OPLS

>  <s_lp_Variant>  (1) 
DiffSBDD_90_num_sample_100-8

>  <s_m_source_file>  (1) 
generated__ligand_DiffSBDD_2026-05-06_prepared.sdf

>  <GenAI_Model>  (1) 
DiffSBDD

>  <Protein>  (1) 
GPCR_5HT2C

$$$$
DiffSBDD_90_num_sample_100
     RDKit          3D

  0  0  0  0  0  0  0  0  0  0999 V3000
M  V30 BEGIN CTAB
M  V30 COUNTS 85 88 0 0 1
M  V30 BEGIN ATOM
M  V30 1 C 36.551989 30.612568 59.513607 0
M  V30 2 O 43.551219 28.541997 65.546825 0
M  V30 3 F 37.467391 23.221431 55.559971 0
M  V30 4 C 38.457185 29.874658 55.234078 0 CFG=1
M  V30 5 C 41.876388 31.798175 66.180266 0 CFG=2
M  V30 6 C 41.275730 31.867690 63.815868 0 CFG=1
M  V30 7 C 38.560367 32.421417 56.785381 0
M  V30 8 C 39.840773 32.319879 61.788095 0
M  V30 9 C 39.270905 31.116363 54.792389 0
M  V30 10 N 42.433805 29.388770 65.922140 0
M  V30 11 C 38.081043 24.614452 57.400961 0
M  V30 12 C 40.768171 30.839159 54.622494 0
M  V30 13 C 40.685467 31.998369 65.226090 0
M  V30 14 C 42.424706 30.853853 63.954773 0
M  V30 15 O 43.350810 33.156761 67.477869 0
M  V30 16 N 37.932111 30.232940 59.197549 0
M  V30 17 C 40.260457 31.484925 62.756206 0
M  V30 18 F 39.285777 24.421430 55.401549 0
M  V30 19 C 37.844177 26.746739 55.420604 0 CFG=2
M  V30 20 N 38.004200 28.820456 58.777672 0 CHG=1
M  V30 21 C 38.538643 26.055443 57.731316 0
M  V30 22 C 38.811519 30.450481 60.343929 0
M  V30 23 O 39.067987 32.364576 55.467807 0
M  V30 24 C 38.718370 31.497008 53.453494 0
M  V30 25 C 36.471339 32.104169 59.883479 0
M  V30 26 C 37.226163 25.390313 55.153158 0
M  V30 27 C 38.835313 31.951869 60.707084 0 CFG=1
M  V30 28 C 42.752451 30.737577 65.462342 0 CFG=1
M  V30 29 C 38.342627 28.827923 54.091186 0
M  V30 30 O 42.667395 33.965392 65.517252 0 CHG=-1
M  V30 31 C 37.878740 28.576048 57.321197 0 CFG=1
M  V30 32 C 37.418900 32.441317 61.043954 0
M  V30 33 O 41.453350 31.385680 67.468414 0
M  V30 34 C 39.009035 29.237145 56.529377 0
M  V30 35 C 37.678962 27.078068 56.943342 0 CFG=1
M  V30 36 C 37.378293 27.692399 54.320014 0
M  V30 37 C 38.043601 24.373226 55.883758 0
M  V30 38 C 42.702667 33.087938 66.407849 0
M  V30 39 H 35.905053 30.423123 58.655484 0
M  V30 40 H 36.173728 30.021398 60.342678 0
M  V30 41 H 44.278083 28.940231 66.004462 0
M  V30 42 H 37.443105 30.240997 55.401150 0
M  V30 43 H 41.705881 32.828240 63.530213 0
M  V30 44 H 38.340687 33.460100 57.032943 0
M  V30 45 H 37.633865 31.863047 56.898174 0
M  V30 46 H 39.298425 32.073917 57.502652 0
M  V30 47 H 40.232385 33.326468 61.752273 0
M  V30 48 H 42.405351 29.324078 66.932565 0
M  V30 49 H 37.089252 24.443354 57.822565 0
M  V30 50 H 38.742621 23.878843 57.853500 0
M  V30 51 H 41.057841 30.819012 53.576511 0
M  V30 52 H 41.372143 31.621438 55.053486 0
M  V30 53 H 41.067420 29.891447 55.053532 0
M  V30 54 H 40.196402 32.958074 65.377632 0
M  V30 55 H 39.940819 31.219294 65.397548 0
M  V30 56 H 43.296249 31.194858 63.401065 0
M  V30 57 H 42.148116 29.886608 63.531439 0
M  V30 58 H 39.871247 30.478934 62.805594 0
M  V30 59 H 38.914644 26.663849 55.235413 0
M  V30 60 H 38.889070 28.463261 59.109141 0
M  V30 61 H 38.458019 26.206665 58.806818 0
M  V30 62 H 39.594233 26.174967 57.481568 0
M  V30 63 H 39.821467 30.124749 60.089449 0
M  V30 64 H 38.477027 29.849685 61.190387 0
M  V30 65 H 39.067413 30.839451 52.654739 0
M  V30 66 H 37.637236 31.563403 53.492451 0
M  V30 67 H 39.067401 32.421428 53.109629 0
M  V30 68 H 36.718699 32.713258 59.013966 0
M  V30 69 H 35.445520 32.362823 60.147958 0
M  V30 70 H 36.202874 25.349973 55.507787 0
M  V30 71 H 37.205657 25.136185 54.092611 0
M  V30 72 H 39.173425 32.493110 59.822666 0
M  V30 73 H 43.809888 30.939789 65.645762 0
M  V30 74 H 37.926278 29.242081 53.177678 0
M  V30 75 H 39.330421 28.446464 53.826631 0
M  V30 76 H 36.953572 29.090587 57.075224 0
M  V30 77 H 37.068215 31.967169 61.961106 0
M  V30 78 H 37.414643 33.516472 61.228139 0
M  V30 79 H 42.090205 31.790252 68.049748 0
M  V30 80 H 39.509305 29.987060 57.132577 0
M  V30 81 H 39.801336 28.519147 56.315646 0
M  V30 82 H 36.667405 26.822360 57.241753 0
M  V30 83 H 36.351108 28.020212 54.375598 0
M  V30 84 H 37.395419 27.147031 53.374871 0
M  V30 85 H 37.245195 28.356109 59.254058 0
M  V30 END ATOM
M  V30 BEGIN BOND
M  V30 1 1 9 4
M  V30 2 1 10 2
M  V30 3 1 12 9
M  V30 4 1 13 5
M  V30 5 1 13 6
M  V30 6 1 14 6
M  V30 7 1 16 1
M  V30 8 1 17 6
M  V30 9 2 17 8
M  V30 10 1 20 16
M  V30 11 1 21 11
M  V30 12 1 22 16
M  V30 13 1 23 7
M  V30 14 1 23 9
M  V30 15 1 24 9
M  V30 16 1 25 1
M  V30 17 1 26 19
M  V30 18 1 27 8
M  V30 19 1 27 22
M  V30 20 1 28 5
M  V30 21 1 28 10
M  V30 22 1 28 14
M  V30 23 1 29 4
M  V30 24 1 31 20
M  V30 25 1 32 25
M  V30 26 1 32 27
M  V30 27 1 5 33 CFG=1
M  V30 28 1 34 4
M  V30 29 1 34 31
M  V30 30 1 35 19
M  V30 31 1 35 21
M  V30 32 1 35 31
M  V30 33 1 36 19
M  V30 34 1 36 29
M  V30 35 1 37 3
M  V30 36 1 37 11
M  V30 37 1 37 18
M  V30 38 1 37 26
M  V30 39 1 38 5
M  V30 40 2 38 15
M  V30 41 1 38 30
M  V30 42 1 39 1
M  V30 43 1 40 1
M  V30 44 1 41 2
M  V30 45 1 4 42 CFG=1
M  V30 46 1 6 43 CFG=3
M  V30 47 1 44 7
M  V30 48 1 45 7
M  V30 49 1 46 7
M  V30 50 1 47 8
M  V30 51 1 48 10
M  V30 52 1 49 11
M  V30 53 1 50 11
M  V30 54 1 51 12
M  V30 55 1 52 12
M  V30 56 1 53 12
M  V30 57 1 54 13
M  V30 58 1 55 13
M  V30 59 1 56 14
M  V30 60 1 57 14
M  V30 61 1 58 17
M  V30 62 1 19 59 CFG=1
M  V30 63 1 60 20
M  V30 64 1 61 21
M  V30 65 1 62 21
M  V30 66 1 63 22
M  V30 67 1 64 22
M  V30 68 1 65 24
M  V30 69 1 66 24
M  V30 70 1 67 24
M  V30 71 1 68 25
M  V30 72 1 69 25
M  V30 73 1 70 26
M  V30 74 1 71 26
M  V30 75 1 27 72 CFG=3
M  V30 76 1 28 73 CFG=3
M  V30 77 1 74 29
M  V30 78 1 75 29
M  V30 79 1 31 76 CFG=3
M  V30 80 1 77 32
M  V30 81 1 78 32
M  V30 82 1 79 33
M  V30 83 1 80 34
M  V30 84 1 81 34
M  V30 85 1 35 82 CFG=1
M  V30 86 1 83 36
M  V30 87 1 84 36
M  V30 88 1 85 20
M  V30 END BOND
M  V30 END CTAB
M  END
>  <i_epik_Tot_Q>  (1) 
0

>  <i_epik_Tot_abs_Q>  (1) 
2

>  <i_i_glide_confnum>  (1) 
119

>  <i_i_glide_lignum>  (1) 
234

>  <i_i_glide_posenum>  (1) 
79

>  <i_i_glide_rotatable_bonds>  (1) 
10

>  <i_lp_mmshare_version>  (1) 
72125

>  <i_m_source_file_index>  (1) 
91

>  <i_f3d_flags>  (1) 
0

>  <num_sample>  (1) 
100

>  <b_lp_Chiralities_Consistent>  (1) 
1

>  <r_epik_Charging_Adjusted_Penalty>  (1) 
1.3235823108087639

>  <r_epik_Ionization_Penalty>  (1) 
0.58520961668590687

>  <r_epik_Ionization_Penalty_Charging>  (1) 
0.5818654171532841

>  <r_epik_Ionization_Penalty_Neutral>  (1) 
0.0033441995326227757

>  <r_epik_State_Penalty>  (1) 
0.74171689365547977

>  <r_glide_ring_energy>  (1) 
0.35261698705854638

>  <r_i_docking_score>  (1) 
-4.1442867483237764

>  <r_i_glide_ecoul>  (1) 
0.65481677316611619

>  <r_i_glide_eff_state_penalty>  (1) 
0.74171689365547977

>  <r_i_glide_einternal>  (1) 
9.970836280262132

>  <r_i_glide_emodel>  (1) 
-24.542239275517296

>  <r_i_glide_emodel_strain>  (1) 
7.3020662814818138

>  <r_i_glide_energy>  (1) 
-27.412355968260034

>  <r_i_glide_erotb>  (1) 
0.42002339013477186

>  <r_i_glide_esite>  (1) 
0

>  <r_i_glide_evdw>  (1) 
-28.067172741426148

>  <r_i_glide_gscore>  (1) 
-4.8860036419792561

>  <r_i_glide_gscore_strain>  (1) 
0.82551657037045345

>  <r_i_glide_hbond>  (1) 
0

>  <r_i_glide_ligand_efficiency>  (1) 
-0.1090601775874678

>  <r_i_glide_ligand_efficiency_ln>  (1) 
-0.89363013550313997

>  <r_i_glide_ligand_efficiency_sa>  (1) 
-0.36665763491019432

>  <r_i_glide_lipo>  (1) 
-3.8422060380768284

>  <r_i_glide_metal>  (1) 
-0

>  <r_i_glide_rewards>  (1) 
-0.98420144331126314

>  <r_lp_Energy>  (1) 
50.269594999999995

>  <s_epik_Chemistry_Notes>  (1) 
This compound has a N-S or N-O group and may undergo hydrolysis at high or low pH.

>  <s_epik_cmdline>  (1) 
J2VwaWtfcHl0aG9uJywgJy1waHQnLCAnMS4wJywgJy1waCcsICc3LjQnLCAnLXRuJywgJzgnLCAnLW1hJywgJzUwMCcsICctaW1hZScsICc8aW5maWxlLm1hZT4nLCAnLW9tYWUnLCAnPG91dGZpbGUubWFlPic=

>  <s_epik_input>  (1) 
RkMoRikoW0NIMl0xKVtDSDJdW0NIMl1bQ0BIXShbQ0BASF0xMilbQ0BIXShbQ0gyXVtDQEhdKFtDSDJdW0NIMl0yKUMoW0NIM10pKFtDSDNdKU9bQ0gzXSlbTkhdTjNbQ0gyXVtDSDJdW0NIMl1bQ0BIXShbQ0gyXTMpL1tDSF09W0NIXS9bQ0BASF0oW0NIMl1bQ0BdNChbT0hdKUMoPU8pW09IXSlbQ0gyXVtDQEBIXTRbTkhdW09IXQ==

>  <s_glide_docking_method>  (1) 
confgen

>  <s_i_glide_gridfile>  (1) 
gpcr_5ht2c_6bqh_protein_autoprepared_prepared

>  <s_lp_Force_Field>  (1) 
S-OPLS

>  <s_lp_Variant>  (1) 
DiffSBDD_90_num_sample_100-6

>  <s_m_source_file>  (1) 
generated__ligand_DiffSBDD_2026-05-06_prepared.sdf

>  <GenAI_Model>  (1) 
DiffSBDD

>  <Protein>  (1) 
GPCR_5HT2C

$$$$
DiffSBDD_45_num_sample_100
     RDKit          3D

  0  0  0  0  0  0  0  0  0  0999 V3000
M  V30 BEGIN CTAB
M  V30 COUNTS 30 30 0 0 1
M  V30 BEGIN ATOM
M  V30 1 O 40.640967 29.629111 61.294312 0
M  V30 2 C 40.802310 28.491598 60.470993 0
M  V30 3 C 39.594502 28.313710 59.540076 0
M  V30 4 C 40.253082 29.397629 50.647569 0
M  V30 5 C 38.701463 28.823269 52.923518 0
M  V30 6 S 37.710570 28.479925 54.334691 0
M  V30 7 C 39.471217 28.225248 50.693610 0
M  V30 8 C 40.259043 30.281880 51.742296 0
M  V30 9 C 39.192475 26.447699 56.120548 0
M  V30 10 C 38.696392 27.938825 51.831993 0
M  V30 11 C 39.481225 29.996396 52.883750 0
M  V30 12 C 38.749981 27.219184 57.376375 0
M  V30 13 S 37.942432 26.498113 54.802553 0
M  V30 14 C 39.814823 27.212794 58.486999 0
M  V30 15 H 39.939272 29.461676 61.908409 0
M  V30 16 H 41.715840 28.600416 59.885564 0
M  V30 17 H 40.926503 27.621480 61.106900 0
M  V30 18 H 38.697752 28.096073 60.121718 0
M  V30 19 H 39.409454 29.257481 59.025902 0
M  V30 20 H 40.845684 29.621487 49.772043 0
M  V30 21 H 39.462893 27.547367 49.853524 0
M  V30 22 H 40.855448 31.181751 51.705635 0
M  V30 23 H 40.119992 26.868596 55.734149 0
M  V30 24 H 39.391234 25.403083 56.369911 0
M  V30 25 H 38.091981 27.046774 51.863594 0
M  V30 26 H 39.479166 30.680208 53.721160 0
M  V30 27 H 37.810016 26.814083 57.752203 0
M  V30 28 H 38.542971 28.251666 57.096959 0
M  V30 29 H 40.790884 27.357412 58.023098 0
M  V30 30 H 39.849173 26.235091 58.968636 0
M  V30 END ATOM
M  V30 BEGIN BOND
M  V30 1 1 2 1
M  V30 2 1 3 2
M  V30 3 1 6 5
M  V30 4 2 7 4
M  V30 5 1 8 4
M  V30 6 2 10 5
M  V30 7 1 10 7
M  V30 8 1 11 5
M  V30 9 2 11 8
M  V30 10 1 12 9
M  V30 11 1 13 6
M  V30 12 1 13 9
M  V30 13 1 14 3
M  V30 14 1 14 12
M  V30 15 1 15 1
M  V30 16 1 16 2
M  V30 17 1 17 2
M  V30 18 1 18 3
M  V30 19 1 19 3
M  V30 20 1 20 4
M  V30 21 1 21 7
M  V30 22 1 22 8
M  V30 23 1 23 9
M  V30 24 1 24 9
M  V30 25 1 25 10
M  V30 26 1 26 11
M  V30 27 1 27 12
M  V30 28 1 28 12
M  V30 29 1 29 14
M  V30 30 1 30 14
M  V30 END BOND
M  V30 END CTAB
M  END
>  <i_epik_Tot_Q>  (1) 
0

>  <i_epik_Tot_abs_Q>  (1) 
0

>  <i_i_glide_confnum>  (1) 
8

>  <i_i_glide_lignum>  (1) 
124

>  <i_i_glide_posenum>  (1) 
245

>  <i_i_glide_rotatable_bonds>  (1) 
8

>  <i_lp_mmshare_version>  (1) 
72125

>  <i_m_source_file_index>  (1) 
46

>  <i_f3d_flags>  (1) 
0

>  <num_sample>  (1) 
100

>  <b_lp_Chiralities_Consistent>  (1) 
1

>  <r_epik_Charging_Adjusted_Penalty>  (1) 
0

>  <r_epik_Ionization_Penalty>  (1) 
2.3568832338971596e-07

>  <r_epik_Ionization_Penalty_Charging>  (1) 
0

>  <r_epik_Ionization_Penalty_Neutral>  (1) 
2.3568832338971596e-07

>  <r_epik_State_Penalty>  (1) 
-0

>  <r_glide_ring_energy>  (1) 
0

>  <r_i_docking_score>  (1) 
-4.1314856153747144

>  <r_i_glide_ecoul>  (1) 
-3.9188793183189161

>  <r_i_glide_eff_state_penalty>  (1) 
-0

>  <r_i_glide_einternal>  (1) 
2.1852504678420344

>  <r_i_glide_emodel>  (1) 
-40.489598856115514

>  <r_i_glide_emodel_strain>  (1) 
0.30153003516113852

>  <r_i_glide_energy>  (1) 
-32.624873252045816

>  <r_i_glide_erotb>  (1) 
3.9203098885211913

>  <r_i_glide_esite>  (1) 
0

>  <r_i_glide_evdw>  (1) 
-28.705993933726898

>  <r_i_glide_gscore>  (1) 
-4.1314856153747144

>  <r_i_glide_gscore_strain>  (1) 
0

>  <r_i_glide_hbond>  (1) 
-0.28891651610201602

>  <r_i_glide_ligand_efficiency>  (1) 
-0.29510611538390819

>  <r_i_glide_ligand_efficiency_ln>  (1) 
-1.135317539999162

>  <r_i_glide_ligand_efficiency_sa>  (1) 
-0.71124772110332923

>  <r_i_glide_lipo>  (1) 
-3.5143098731190507

>  <r_i_glide_metal>  (1) 
-0

>  <r_i_glide_rewards>  (1) 
-2.2254375202406567

>  <r_lp_Energy>  (1) 
5.2512449999999999

>  <r_lp_tautomer_probability>  (1) 
1

>  <s_epik_cmdline>  (1) 
J2VwaWtfcHl0aG9uJywgJy1waHQnLCAnMS4wJywgJy1waCcsICc3LjQnLCAnLXRuJywgJzgnLCAnLW1hJywgJzUwMCcsICctaW1hZScsICc8aW5maWxlLm1hZT4nLCAnLW9tYWUnLCAnPG91dGZpbGUubWFlPic=

>  <s_epik_input>  (1) 
W09IXVtDSDJdW0NIMl1bQ0gyXVtDSDJdW0NIMl1TU2MxW2NIXVtjSF1bY0hdW2NIXVtjSF0x

>  <s_glide_docking_method>  (1) 
confgen

>  <s_i_glide_gridfile>  (1) 
gpcr_5ht2c_6bqh_protein_autoprepared_prepared

>  <s_lp_Force_Field>  (1) 
S-OPLS

>  <s_lp_Variant>  (1) 
DiffSBDD_45_num_sample_100-1

>  <s_m_source_file>  (1) 
generated__ligand_DiffSBDD_2026-05-06_prepared.sdf

>  <GenAI_Model>  (1) 
DiffSBDD

>  <Protein>  (1) 
GPCR_5HT2C

$$$$
DiffSBDD_32_num_sample_100
     RDKit          3D

  0  0  0  0  0  0  0  0  0  0999 V3000
M  V30 BEGIN CTAB
M  V30 COUNTS 84 87 0 0 1
M  V30 BEGIN ATOM
M  V30 1 C 38.104164 31.546223 60.848995 0 CFG=2
M  V30 2 O 40.179090 29.404910 60.731139 0 CHG=-1
M  V30 3 O 38.661661 39.221299 60.653631 0
M  V30 4 C 35.865219 38.501852 61.053734 0
M  V30 5 C 41.992027 34.918794 63.682829 0
M  V30 6 C 38.361686 29.160941 55.813217 0
M  V30 7 O 39.426232 33.549754 61.135826 0
M  V30 8 C 39.136693 26.908110 54.831906 0
M  V30 9 C 37.551391 35.485417 62.253516 0 CFG=1
M  V30 10 C 36.471736 29.929684 59.011102 0
M  V30 11 C 36.667487 37.940117 59.854403 0 CFG=2
M  V30 12 C 37.482319 27.470319 57.413596 0
M  V30 13 C 36.537292 33.542276 60.501947 0
M  V30 14 C 38.824034 26.025952 55.788375 0
M  V30 15 O 39.393647 24.821750 55.732364 0
M  V30 16 C 37.889063 26.277785 56.888285 0
M  V30 17 C 40.757174 35.520061 60.813713 0
M  V30 18 C 39.698671 29.087634 59.620124 0
M  V30 19 O 39.721436 27.944405 59.124363 0
M  V30 20 C 39.038190 30.225248 58.777039 0 CFG=2
M  V30 21 O 37.433103 28.223471 53.811049 0
M  V30 22 C 36.479993 34.335786 61.853540 0
M  V30 23 C 37.867470 28.842086 57.025195 0
M  V30 24 C 38.558841 28.252515 54.661727 0 CFG=1
M  V30 25 C 39.050544 35.273812 62.652269 0
M  V30 26 C 38.924325 32.396614 61.840249 0
M  V30 27 N 36.018533 31.290085 59.453414 0 CHG=1
M  V30 28 C 37.086322 36.593373 60.207193 0
M  V30 29 C 36.356476 37.683181 62.212315 0
M  V30 30 C 37.867963 38.844398 59.517714 0
M  V30 31 C 41.343733 35.151688 65.059069 0
M  V30 32 N 37.360127 36.758445 61.607840 0 CFG=1 CHG=1
M  V30 33 C 40.114460 34.568861 61.832682 0 CFG=1
M  V30 34 C 38.904283 31.531513 59.541046 0
M  V30 35 C 41.233416 33.953143 62.743987 0
M  V30 36 C 37.701990 29.968390 58.052872 0 CFG=1
M  V30 37 C 36.653549 31.992113 60.617207 0 CFG=1
M  V30 38 H 38.047065 30.549851 61.289468 0
M  V30 39 H 39.374333 39.761031 60.341012 0
M  V30 40 H 34.788743 38.420630 60.940032 0
M  V30 41 H 36.059112 39.564760 61.208999 0
M  V30 42 H 42.955854 34.451460 63.891743 0
M  V30 43 H 42.209312 35.872350 63.197992 0
M  V30 44 H 38.619439 30.190969 55.622782 0
M  V30 45 H 39.843671 26.612006 54.067629 0
M  V30 46 H 37.199722 35.907746 63.189759 0
M  V30 47 H 35.632103 29.523306 58.445493 0
M  V30 48 H 36.632461 29.262718 59.853602 0
M  V30 49 H 36.066446 37.621751 58.982437 0
M  V30 50 H 36.833475 27.398206 58.253432 0
M  V30 51 H 37.323508 33.929205 59.855141 0
M  V30 52 H 35.608668 33.758532 59.972376 0
M  V30 53 H 40.056749 24.848897 55.061738 0
M  V30 54 H 37.510576 25.398796 57.387062 0
M  V30 55 H 40.769715 36.551546 61.163691 0
M  V30 56 H 41.802998 35.251683 60.652392 0
M  V30 57 H 40.238591 35.487784 59.858163 0
M  V30 58 H 39.767461 30.417895 57.990052 0
M  V30 59 H 36.990202 27.398486 53.934323 0
M  V30 60 H 35.506020 34.821386 61.865969 0
M  V30 61 H 36.267684 33.621315 62.647291 0
M  V30 62 H 39.315397 28.768650 54.071327 0
M  V30 63 H 39.448980 36.211908 63.041561 0
M  V30 64 H 39.067636 34.591713 63.453433 0
M  V30 65 H 39.761997 31.787521 62.175456 0
M  V30 66 H 38.344909 32.639245 62.723421 0
M  V30 67 H 36.054333 31.859907 58.605215 0
M  V30 68 H 37.935623 36.223074 59.642772 0
M  V30 69 H 36.224254 35.964428 60.011018 0
M  V30 70 H 35.516068 37.192226 62.699594 0
M  V30 71 H 36.796273 38.307641 62.983391 0
M  V30 72 H 38.267631 38.274749 58.701491 0
M  V30 73 H 37.703682 39.799467 59.044715 0
M  V30 74 H 42.021973 35.716408 65.699605 0
M  V30 75 H 40.415960 35.716529 64.998540 0
M  V30 76 H 41.127578 34.211173 65.567298 0
M  V30 77 H 38.641167 32.350764 58.873209 0
M  V30 78 H 39.880082 31.769484 59.853563 0
M  V30 79 H 40.844478 33.161577 63.386837 0
M  V30 80 H 41.960681 33.461732 62.096029 0
M  V30 81 H 37.510460 30.847388 57.432380 0
M  V30 82 H 36.068549 31.677280 61.482696 0
M  V30 83 H 38.230835 37.271024 61.644672 0
M  V30 84 H 35.037988 31.206545 59.668487 0
M  V30 END ATOM
M  V30 BEGIN BOND
M  V30 1 1 11 4
M  V30 2 2 14 8
M  V30 3 1 15 14
M  V30 4 2 16 12
M  V30 5 1 16 14
M  V30 6 1 18 2
M  V30 7 2 19 18
M  V30 8 1 20 18
M  V30 9 1 22 9
M  V30 10 1 22 13
M  V30 11 2 23 6
M  V30 12 1 23 12
M  V30 13 1 24 6
M  V30 14 1 24 8
M  V30 15 1 24 21
M  V30 16 1 25 9
M  V30 17 1 26 1
M  V30 18 1 26 7
M  V30 19 1 27 10
M  V30 20 1 28 11
M  V30 21 1 29 4
M  V30 22 1 30 3
M  V30 23 1 30 11
M  V30 24 1 31 5
M  V30 25 1 32 9
M  V30 26 1 32 28
M  V30 27 1 32 29
M  V30 28 1 33 7
M  V30 29 1 33 17 CFG=3
M  V30 30 1 33 25
M  V30 31 1 34 1
M  V30 32 1 34 20
M  V30 33 1 35 5
M  V30 34 1 35 33
M  V30 35 1 36 10
M  V30 36 1 36 20
M  V30 37 1 36 23
M  V30 38 1 37 1
M  V30 39 1 37 13
M  V30 40 1 37 27
M  V30 41 1 1 38 CFG=1
M  V30 42 1 39 3
M  V30 43 1 40 4
M  V30 44 1 41 4
M  V30 45 1 42 5
M  V30 46 1 43 5
M  V30 47 1 44 6
M  V30 48 1 45 8
M  V30 49 1 9 46 CFG=1
M  V30 50 1 47 10
M  V30 51 1 48 10
M  V30 52 1 11 49 CFG=3
M  V30 53 1 50 12
M  V30 54 1 51 13
M  V30 55 1 52 13
M  V30 56 1 53 15
M  V30 57 1 54 16
M  V30 58 1 55 17
M  V30 59 1 56 17
M  V30 60 1 57 17
M  V30 61 1 20 58 CFG=3
M  V30 62 1 59 21
M  V30 63 1 60 22
M  V30 64 1 61 22
M  V30 65 1 24 62 CFG=3
M  V30 66 1 63 25
M  V30 67 1 64 25
M  V30 68 1 65 26
M  V30 69 1 66 26
M  V30 70 1 67 27
M  V30 71 1 68 28
M  V30 72 1 69 28
M  V30 73 1 70 29
M  V30 74 1 71 29
M  V30 75 1 72 30
M  V30 76 1 73 30
M  V30 77 1 74 31
M  V30 78 1 75 31
M  V30 79 1 76 31
M  V30 80 1 77 34
M  V30 81 1 78 34
M  V30 82 1 79 35
M  V30 83 1 80 35
M  V30 84 1 36 81 CFG=3
M  V30 85 1 37 82 CFG=1
M  V30 86 1 32 83 CFG=3
M  V30 87 1 84 27
M  V30 END BOND
M  V30 END CTAB
M  END
>  <i_epik_Tot_Q>  (1) 
1

>  <i_epik_Tot_abs_Q>  (1) 
3

>  <i_i_glide_confnum>  (1) 
45

>  <i_i_glide_lignum>  (1) 
86

>  <i_i_glide_posenum>  (1) 
275

>  <i_i_glide_rotatable_bonds>  (1) 
9

>  <i_lp_mmshare_version>  (1) 
72125

>  <i_m_source_file_index>  (1) 
33

>  <i_f3d_flags>  (1) 
0

>  <num_sample>  (1) 
100

>  <b_lp_Chiralities_Consistent>  (1) 
1

>  <r_epik_Charging_Adjusted_Penalty>  (1) 
0.016900800142501185

>  <r_epik_Ionization_Penalty>  (1) 
0.019380071947909534

>  <r_epik_Ionization_Penalty_Charging>  (1) 
0.016900800142501185

>  <r_epik_Ionization_Penalty_Neutral>  (1) 
0.0024792718054083493

>  <r_epik_State_Penalty>  (1) 
-0

>  <r_glide_ring_energy>  (1) 
0.61486460330697923

>  <r_i_docking_score>  (1) 
-4.1267495210755873

>  <r_i_glide_ecoul>  (1) 
-2.3033385389368028

>  <r_i_glide_eff_state_penalty>  (1) 
-0

>  <r_i_glide_einternal>  (1) 
19.827056808694493

>  <r_i_glide_emodel>  (1) 
10.940078389839059

>  <r_i_glide_emodel_strain>  (1) 
6.2122949401094161

>  <r_i_glide_energy>  (1) 
-2.7047957381171255

>  <r_i_glide_erotb>  (1) 
0.30428459818937692

>  <r_i_glide_esite>  (1) 
-0.10000000000000001

>  <r_i_glide_evdw>  (1) 
-0.40145719918032241

>  <r_i_glide_gscore>  (1) 
-4.1267495210755873

>  <r_i_glide_gscore_strain>  (1) 
0.55307373502735402

>  <r_i_glide_hbond>  (1) 
-0.15062736973157212

>  <r_i_glide_ligand_efficiency>  (1) 
-0.11153377083988074

>  <r_i_glide_ligand_efficiency_ln>  (1) 
-0.89499522638628359

>  <r_i_glide_ligand_efficiency_sa>  (1) 
-0.37165526838912288

>  <r_i_glide_lipo>  (1) 
-3.1903312084098188

>  <r_i_glide_metal>  (1) 
-0

>  <r_i_glide_rewards>  (1) 
-1.1775756353513904

>  <r_lp_Energy>  (1) 
56.404024999999997

>  <r_lp_tautomer_probability>  (1) 
1

>  <s_epik_cmdline>  (1) 
J2VwaWtfcHl0aG9uJywgJy1waHQnLCAnMS4wJywgJy1waCcsICc3LjQnLCAnLXRuJywgJzgnLCAnLW1hJywgJzUwMCcsICctaW1hZScsICc8aW5maWxlLm1hZT4nLCAnLW9tYWUnLCAnPG91dGZpbGUubWFlPic=

>  <s_epik_input>  (1) 
W09IXUMxPVtDSF1bQ0BASF0oW09IXSlbQ0hdPUMoW0NIXT1bQ0hdMSlbQ0BIXShbQ0BASF0oW0NIMl0yKUMoPU8pW09IXSlbQ0gyXVtOSF1bQ0BASF0oW0NAQEhdMjMpW0NIMl1bQ0gyXVtDQEBIXShbQ0gyXVtDQF0oW0NIM10pKE9bQ0gyXTMpW0NIMl1bQ0gyXVtDSDNdKU4oW0NIMl00KVtDSDJdW0NIMl1bQ0BIXTRbQ0gyXVtPSF0=

>  <s_glide_docking_method>  (1) 
confgen

>  <s_i_glide_gridfile>  (1) 
gpcr_5ht2c_6bqh_protein_autoprepared_prepared

>  <s_lp_Force_Field>  (1) 
S-OPLS

>  <s_lp_Variant>  (1) 
DiffSBDD_32_num_sample_100-1

>  <s_m_source_file>  (1) 
generated__ligand_DiffSBDD_2026-05-06_prepared.sdf

>  <GenAI_Model>  (1) 
DiffSBDD

>  <Protein>  (1) 
GPCR_5HT2C

$$$$
DiffSBDD_90_num_sample_100
     RDKit          3D

  0  0  0  0  0  0  0  0  0  0999 V3000
M  V30 BEGIN CTAB
M  V30 COUNTS 85 88 0 0 1
M  V30 BEGIN ATOM
M  V30 1 C 36.688753 29.796287 59.197509 0
M  V30 2 O 37.067385 27.247372 54.257460 0
M  V30 3 F 33.655496 34.421160 59.722665 0
M  V30 4 C 39.414513 33.480473 62.195454 0 CFG=1
M  V30 5 C 39.305311 28.785146 52.843215 0 CFG=2
M  V30 6 C 39.113313 30.774084 54.321808 0 CFG=1
M  V30 7 C 41.968150 34.946976 64.461354 0
M  V30 8 C 38.961145 29.342648 56.367881 0
M  V30 9 C 40.810887 33.441998 62.891391 0
M  V30 10 N 36.872190 28.021274 53.050203 0
M  V30 11 C 34.760754 32.662669 59.596063 0
M  V30 12 C 40.859930 32.355372 63.992675 0
M  V30 13 C 40.019876 30.101530 53.303976 0
M  V30 14 C 37.703490 30.327186 53.951761 0
M  V30 15 O 39.105948 27.229618 51.042897 0
M  V30 16 N 37.704870 30.801883 58.809999 0 CFG=1 CHG=1
M  V30 17 C 39.415704 30.445599 55.754813 0
M  V30 18 F 34.568592 34.421267 57.854264 0
M  V30 19 C 36.592677 34.591260 60.960673 0 CFG=1
M  V30 20 N 37.759085 32.130391 59.482277 0
M  V30 21 C 35.104443 32.554215 61.097187 0
M  V30 22 C 39.053161 30.233143 58.728629 0
M  V30 23 O 40.955045 34.739708 63.482418 0
M  V30 24 C 41.942666 33.233003 61.870743 0
M  V30 25 C 36.726932 28.703639 58.152818 0
M  V30 26 C 36.063896 34.865045 59.533462 0
M  V30 27 C 39.189226 29.001215 57.815541 0 CFG=1
M  V30 28 C 37.827201 29.138269 52.979576 0 CFG=1
M  V30 29 C 39.239157 34.613065 61.146612 0
M  V30 30 O 40.266261 29.094471 50.673797 0 CHG=-1
M  V30 31 C 37.594759 32.088339 60.924500 0 CFG=1
M  V30 32 C 38.098171 27.988013 58.206329 0
M  V30 33 O 39.467423 27.709283 53.733781 0
M  V30 34 C 38.966034 32.123755 61.626253 0
M  V30 35 C 36.517657 33.097531 61.396326 0 CFG=1
M  V30 36 C 37.898905 35.359360 61.292269 0
M  V30 37 C 34.774811 34.108473 59.132775 0
M  V30 38 C 39.589327 28.329735 51.396551 0
M  V30 39 H 35.673292 30.168824 59.221245 0
M  V30 40 H 36.904708 29.380196 60.173580 0
M  V30 41 H 36.193859 27.227474 54.624293 0
M  V30 42 H 38.735313 33.678111 63.014003 0
M  V30 43 H 39.197099 31.858658 54.234659 0
M  V30 44 H 42.128593 36.013020 64.607464 0
M  V30 45 H 41.668995 34.525587 65.421005 0
M  V30 46 H 42.917554 34.498387 64.177644 0
M  V30 47 H 38.374164 28.638890 55.805745 0
M  V30 48 H 37.061578 27.336318 52.314712 0
M  V30 49 H 33.836570 32.147178 59.360423 0
M  V30 50 H 35.480678 32.135618 59.053914 0
M  V30 51 H 40.771033 31.348906 63.585460 0
M  V30 52 H 41.804883 32.362822 64.535741 0
M  V30 53 H 40.059060 32.495863 64.720017 0
M  V30 54 H 40.139903 30.785710 52.463540 0
M  V30 55 H 40.997188 30.021578 53.756005 0
M  V30 56 H 37.360916 31.219895 53.454605 0
M  V30 57 H 37.020016 30.154616 54.785996 0
M  V30 58 H 40.020070 31.158272 56.289171 0
M  V30 59 H 35.867114 35.083306 61.602093 0
M  V30 60 H 36.937655 32.547461 59.065660 0
M  V30 61 H 34.377485 33.118429 61.681169 0
M  V30 62 H 35.025126 31.523489 61.438972 0
M  V30 63 H 39.488937 30.046994 59.707420 0
M  V30 64 H 39.467545 31.102733 58.272114 0
M  V30 65 H 41.781647 32.369490 61.230380 0
M  V30 66 H 42.027889 34.109858 61.234120 0
M  V30 67 H 42.904329 33.082392 62.360940 0
M  V30 68 H 36.579815 29.221606 57.200923 0
M  V30 69 H 35.887606 28.021311 58.253893 0
M  V30 70 H 35.889501 35.933112 59.405685 0
M  V30 71 H 36.845696 34.611905 58.815431 0
M  V30 72 H 40.181674 28.560450 57.911733 0
M  V30 73 H 37.577584 29.519242 51.999389 0
M  V30 74 H 40.026274 35.357562 61.271305 0
M  V30 75 H 39.365338 34.240604 60.128876 0
M  V30 76 H 37.194602 31.125553 61.211179 0
M  V30 77 H 38.107225 27.128643 57.532561 0
M  V30 78 H 38.285838 27.594357 59.205882 0
M  V30 79 H 38.587543 27.345470 53.836523 0
M  V30 80 H 38.904806 31.404335 62.441649 0
M  V30 81 H 39.739757 31.745812 60.966546 0
M  V30 82 H 36.656279 33.104986 62.470152 0
M  V30 83 H 37.837182 35.726432 62.315398 0
M  V30 84 H 37.938980 36.262691 60.682296 0
M  V30 85 H 37.439374 31.041635 57.859161 0
M  V30 END ATOM
M  V30 BEGIN BOND
M  V30 1 1 9 4
M  V30 2 1 10 2
M  V30 3 1 12 9
M  V30 4 1 13 5
M  V30 5 1 13 6
M  V30 6 1 14 6
M  V30 7 1 16 1
M  V30 8 1 17 6
M  V30 9 2 17 8
M  V30 10 1 20 16
M  V30 11 1 21 11
M  V30 12 1 22 16
M  V30 13 1 23 7
M  V30 14 1 23 9
M  V30 15 1 24 9
M  V30 16 1 25 1
M  V30 17 1 26 19
M  V30 18 1 27 8
M  V30 19 1 27 22
M  V30 20 1 28 5
M  V30 21 1 28 10
M  V30 22 1 28 14
M  V30 23 1 29 4
M  V30 24 1 31 20
M  V30 25 1 32 25
M  V30 26 1 32 27
M  V30 27 1 5 33 CFG=1
M  V30 28 1 34 4
M  V30 29 1 34 31
M  V30 30 1 35 19
M  V30 31 1 35 21
M  V30 32 1 35 31
M  V30 33 1 36 19
M  V30 34 1 36 29
M  V30 35 1 37 3
M  V30 36 1 37 11
M  V30 37 1 37 18
M  V30 38 1 37 26
M  V30 39 1 38 5
M  V30 40 2 38 15
M  V30 41 1 38 30
M  V30 42 1 39 1
M  V30 43 1 40 1
M  V30 44 1 41 2
M  V30 45 1 4 42 CFG=1
M  V30 46 1 6 43 CFG=1
M  V30 47 1 44 7
M  V30 48 1 45 7
M  V30 49 1 46 7
M  V30 50 1 47 8
M  V30 51 1 48 10
M  V30 52 1 49 11
M  V30 53 1 50 11
M  V30 54 1 51 12
M  V30 55 1 52 12
M  V30 56 1 53 12
M  V30 57 1 54 13
M  V30 58 1 55 13
M  V30 59 1 56 14
M  V30 60 1 57 14
M  V30 61 1 58 17
M  V30 62 1 19 59 CFG=1
M  V30 63 1 60 20
M  V30 64 1 61 21
M  V30 65 1 62 21
M  V30 66 1 63 22
M  V30 67 1 64 22
M  V30 68 1 65 24
M  V30 69 1 66 24
M  V30 70 1 67 24
M  V30 71 1 68 25
M  V30 72 1 69 25
M  V30 73 1 70 26
M  V30 74 1 71 26
M  V30 75 1 27 72 CFG=3
M  V30 76 1 28 73 CFG=3
M  V30 77 1 74 29
M  V30 78 1 75 29
M  V30 79 1 31 76 CFG=3
M  V30 80 1 77 32
M  V30 81 1 78 32
M  V30 82 1 79 33
M  V30 83 1 80 34
M  V30 84 1 81 34
M  V30 85 1 35 82 CFG=1
M  V30 86 1 83 36
M  V30 87 1 84 36
M  V30 88 1 16 85 CFG=3
M  V30 END BOND
M  V30 END CTAB
M  END
>  <i_epik_Tot_Q>  (1) 
0

>  <i_epik_Tot_abs_Q>  (1) 
2

>  <i_i_glide_confnum>  (1) 
772

>  <i_i_glide_lignum>  (1) 
243

>  <i_i_glide_posenum>  (1) 
389

>  <i_i_glide_rotatable_bonds>  (1) 
10

>  <i_lp_mmshare_version>  (1) 
72125

>  <i_m_source_file_index>  (1) 
91

>  <i_f3d_flags>  (1) 
0

>  <num_sample>  (1) 
100

>  <b_lp_Chiralities_Consistent>  (1) 
1

>  <r_epik_Charging_Adjusted_Penalty>  (1) 
1.5083745474312953

>  <r_epik_Ionization_Penalty>  (1) 
0.65750586125956467

>  <r_epik_Ionization_Penalty_Charging>  (1) 
0.6544614066189578

>  <r_epik_Ionization_Penalty_Neutral>  (1) 
0.0030444546406068235

>  <r_epik_State_Penalty>  (1) 
0.8539131408123376

>  <r_glide_ring_energy>  (1) 
0.48000684916914799

>  <r_i_docking_score>  (1) 
-4.1236152842727432

>  <r_i_glide_ecoul>  (1) 
-1.1750216172562089

>  <r_i_glide_eff_state_penalty>  (1) 
0.8539131408123376

>  <r_i_glide_einternal>  (1) 
30.999398771102104

>  <r_i_glide_emodel>  (1) 
-0.091341275898793484

>  <r_i_glide_emodel_strain>  (1) 
2.5610603679740223

>  <r_i_glide_energy>  (1) 
-11.755554511810381

>  <r_i_glide_erotb>  (1) 
0.42002339013477186

>  <r_i_glide_esite>  (1) 
-0.06541566306415357

>  <r_i_glide_evdw>  (1) 
-10.580532894554173

>  <r_i_glide_gscore>  (1) 
-4.9775284250850804

>  <r_i_glide_gscore_strain>  (1) 
0

>  <r_i_glide_hbond>  (1) 
-0.18179829492047972

>  <r_i_glide_ligand_efficiency>  (1) 
-0.10851619169138797

>  <r_i_glide_ligand_efficiency_ln>  (1) 
-0.88917275976087384

>  <r_i_glide_ligand_efficiency_sa>  (1) 
-0.36482876770592848

>  <r_i_glide_lipo>  (1) 
-3.3057377807834221

>  <r_i_glide_metal>  (1) 
-0

>  <r_i_glide_rewards>  (1) 
-1.139320189135657

>  <r_lp_Energy>  (1) 
44.827317999999998

>  <s_epik_Chemistry_Notes>  (1) 
This compound has a N-S or N-O group and may undergo hydrolysis at high or low pH.

>  <s_epik_cmdline>  (1) 
J2VwaWtfcHl0aG9uJywgJy1waHQnLCAnMS4wJywgJy1waCcsICc3LjQnLCAnLXRuJywgJzgnLCAnLW1hJywgJzUwMCcsICctaW1hZScsICc8aW5maWxlLm1hZT4nLCAnLW9tYWUnLCAnPG91dGZpbGUubWFlPic=

>  <s_epik_input>  (1) 
RkMoRikoW0NIMl0xKVtDSDJdW0NIMl1bQ0BIXShbQ0BASF0xMilbQ0BIXShbQ0gyXVtDQEhdKFtDSDJdW0NIMl0yKUMoW0NIM10pKFtDSDNdKU9bQ0gzXSlbTkhdTjNbQ0gyXVtDSDJdW0NIMl1bQ0BIXShbQ0gyXTMpL1tDSF09W0NIXS9bQ0BASF0oW0NIMl1bQ0BdNChbT0hdKUMoPU8pW09IXSlbQ0gyXVtDQEBIXTRbTkhdW09IXQ==

>  <s_glide_docking_method>  (1) 
confgen

>  <s_i_glide_gridfile>  (1) 
gpcr_5ht2c_6bqh_protein_autoprepared_prepared

>  <s_lp_Force_Field>  (1) 
S-OPLS

>  <s_lp_Variant>  (1) 
DiffSBDD_90_num_sample_100-15

>  <s_m_source_file>  (1) 
generated__ligand_DiffSBDD_2026-05-06_prepared.sdf

>  <GenAI_Model>  (1) 
DiffSBDD

>  <Protein>  (1) 
GPCR_5HT2C

$$$$
DiffSBDD_90_num_sample_100
     RDKit          3D

  0  0  0  0  0  0  0  0  0  0999 V3000
M  V30 BEGIN CTAB
M  V30 COUNTS 84 87 0 0 1
M  V30 BEGIN ATOM
M  V30 1 C 37.310250 32.019874 59.173642 0
M  V30 2 O 41.067469 28.287133 64.427258 0
M  V30 3 F 39.450401 23.710855 57.453518 0
M  V30 4 C 38.392751 29.913751 55.182709 0 CFG=1
M  V30 5 C 41.349557 30.508181 66.470990 0 CFG=2
M  V30 6 C 41.609637 31.713078 64.360988 0 CFG=1
M  V30 7 C 38.614458 33.296909 55.756696 0
M  V30 8 C 40.087316 31.212976 62.404469 0
M  V30 9 C 39.119664 31.150021 54.578845 0
M  V30 10 N 42.175286 28.357555 65.358841 0
M  V30 11 C 39.051156 25.704439 58.653535 0
M  V30 12 C 40.587041 31.217299 54.964361 0
M  V30 13 C 40.573945 31.306888 65.418808 0
M  V30 14 C 42.682338 30.610189 64.356780 0
M  V30 15 O 43.158676 31.733321 67.473326 0
M  V30 16 N 37.929748 30.689170 59.302501 0
M  V30 17 C 40.996745 32.002024 63.004108 0
M  V30 18 F 40.596652 25.462982 56.933678 0
M  V30 19 C 38.323761 26.907053 56.159691 0 CFG=2
M  V30 20 N 37.134311 29.636132 58.759910 0
M  V30 21 C 38.771295 27.197277 58.581271 0
M  V30 22 C 38.449504 30.436621 60.650327 0
M  V30 23 O 38.290857 32.303766 54.794626 0
M  V30 24 C 39.067541 31.061493 53.088839 0
M  V30 25 C 38.221086 33.166985 59.640913 0
M  V30 26 C 38.363855 25.380206 56.262295 0
M  V30 27 C 39.466920 31.513036 61.060052 0 CFG=1
M  V30 28 C 42.455447 29.771492 65.640766 0 CFG=1
M  V30 29 C 38.663497 28.596142 54.385875 0
M  V30 30 O 41.118380 32.021485 68.317811 0 CHG=-1
M  V30 31 C 37.544287 29.080118 57.443033 0 CFG=1
M  V30 32 C 38.790018 32.895904 61.035554 0
M  V30 33 O 40.445409 29.622132 67.119043 0
M  V30 34 C 38.670455 29.814074 56.692906 0
M  V30 35 C 37.770618 27.548548 57.468820 0 CFG=1
M  V30 36 C 37.833312 27.391927 54.793078 0
M  V30 37 C 39.399934 25.034590 57.322941 0
M  V30 38 C 41.927954 31.507262 67.512763 0
M  V30 39 H 37.067319 32.186068 58.126344 0
M  V30 40 H 36.374629 32.032092 59.735394 0
M  V30 41 H 40.353215 28.000237 64.981784 0
M  V30 42 H 37.328920 30.126778 55.061542 0
M  V30 43 H 42.079922 32.635750 64.705900 0
M  V30 44 H 37.778170 33.991076 55.844238 0
M  V30 45 H 38.804728 32.898291 56.745299 0
M  V30 46 H 39.477781 33.880049 55.453505 0
M  V30 47 H 39.762251 30.304318 62.891521 0
M  V30 48 H 42.907525 27.856766 64.874686 0
M  V30 49 H 38.179296 25.206199 59.053295 0
M  V30 50 H 39.867107 25.621494 59.359232 0
M  V30 51 H 40.990991 30.216819 55.110297 0
M  V30 52 H 41.227754 31.621416 54.195459 0
M  V30 53 H 40.667347 31.819342 55.853654 0
M  V30 54 H 40.070661 32.183913 65.825885 0
M  V30 55 H 39.789940 30.673745 65.006231 0
M  V30 56 H 43.674493 31.058971 64.369931 0
M  V30 57 H 42.638393 30.003981 63.452038 0
M  V30 58 H 41.324663 32.906393 62.511825 0
M  V30 59 H 39.373722 27.188432 56.152798 0
M  V30 60 H 36.172464 29.969095 58.699850 0
M  V30 61 H 38.406518 27.521280 59.554486 0
M  V30 62 H 39.714819 27.721521 58.426636 0
M  V30 63 H 38.918483 29.452541 60.672964 0
M  V30 64 H 37.616334 30.421401 61.355192 0
M  V30 65 H 39.786519 30.374697 52.640471 0
M  V30 66 H 38.077320 30.648392 53.053506 0
M  V30 67 H 39.102919 32.021405 52.580213 0
M  V30 68 H 39.049693 33.287105 58.944127 0
M  V30 69 H 37.671422 34.107980 59.630621 0
M  V30 70 H 37.381961 24.981565 56.518511 0
M  V30 71 H 38.659194 24.916351 55.320724 0
M  V30 72 H 40.267237 31.498580 60.324035 0
M  V30 73 H 43.388213 29.741144 66.204437 0
M  V30 74 H 38.449099 28.672627 53.323606 0
M  V30 75 H 39.724170 28.357062 54.425695 0
M  V30 76 H 36.667393 29.250430 56.837203 0
M  V30 77 H 37.990152 32.932637 61.777194 0
M  V30 78 H 39.496136 33.684446 61.296011 0
M  V30 79 H 40.909480 29.197319 67.822437 0
M  V30 80 H 38.760574 30.829388 57.048346 0
M  V30 81 H 39.644400 29.372900 56.894213 0
M  V30 82 H 36.815681 27.081880 57.710784 0
M  V30 83 H 36.765522 27.561366 54.653491 0
M  V30 84 H 38.055790 26.618954 54.056002 0
M  V30 END ATOM
M  V30 BEGIN BOND
M  V30 1 1 9 4
M  V30 2 1 10 2
M  V30 3 1 12 9
M  V30 4 1 13 5
M  V30 5 1 13 6
M  V30 6 1 14 6
M  V30 7 1 16 1
M  V30 8 1 17 6
M  V30 9 2 17 8
M  V30 10 1 20 16
M  V30 11 1 21 11
M  V30 12 1 22 16
M  V30 13 1 23 7
M  V30 14 1 23 9
M  V30 15 1 24 9
M  V30 16 1 25 1
M  V30 17 1 26 19
M  V30 18 1 27 8
M  V30 19 1 27 22
M  V30 20 1 28 5
M  V30 21 1 28 10
M  V30 22 1 28 14
M  V30 23 1 29 4
M  V30 24 1 31 20
M  V30 25 1 32 25
M  V30 26 1 32 27
M  V30 27 1 5 33 CFG=1
M  V30 28 1 34 4
M  V30 29 1 34 31
M  V30 30 1 35 19
M  V30 31 1 35 21
M  V30 32 1 35 31
M  V30 33 1 36 19
M  V30 34 1 36 29
M  V30 35 1 37 3
M  V30 36 1 37 11
M  V30 37 1 37 18
M  V30 38 1 37 26
M  V30 39 1 38 5
M  V30 40 2 38 15
M  V30 41 1 38 30
M  V30 42 1 39 1
M  V30 43 1 40 1
M  V30 44 1 41 2
M  V30 45 1 4 42 CFG=1
M  V30 46 1 6 43 CFG=1
M  V30 47 1 44 7
M  V30 48 1 45 7
M  V30 49 1 46 7
M  V30 50 1 47 8
M  V30 51 1 48 10
M  V30 52 1 49 11
M  V30 53 1 50 11
M  V30 54 1 51 12
M  V30 55 1 52 12
M  V30 56 1 53 12
M  V30 57 1 54 13
M  V30 58 1 55 13
M  V30 59 1 56 14
M  V30 60 1 57 14
M  V30 61 1 58 17
M  V30 62 1 19 59 CFG=3
M  V30 63 1 60 20
M  V30 64 1 61 21
M  V30 65 1 62 21
M  V30 66 1 63 22
M  V30 67 1 64 22
M  V30 68 1 65 24
M  V30 69 1 66 24
M  V30 70 1 67 24
M  V30 71 1 68 25
M  V30 72 1 69 25
M  V30 73 1 70 26
M  V30 74 1 71 26
M  V30 75 1 27 72 CFG=3
M  V30 76 1 28 73 CFG=1
M  V30 77 1 74 29
M  V30 78 1 75 29
M  V30 79 1 31 76 CFG=3
M  V30 80 1 77 32
M  V30 81 1 78 32
M  V30 82 1 79 33
M  V30 83 1 80 34
M  V30 84 1 81 34
M  V30 85 1 35 82 CFG=1
M  V30 86 1 83 36
M  V30 87 1 84 36
M  V30 END BOND
M  V30 END CTAB
M  END
>  <i_epik_Tot_Q>  (1) 
-1

>  <i_epik_Tot_abs_Q>  (1) 
1

>  <i_i_glide_confnum>  (1) 
1341

>  <i_i_glide_lignum>  (1) 
230

>  <i_i_glide_posenum>  (1) 
179

>  <i_i_glide_rotatable_bonds>  (1) 
10

>  <i_lp_mmshare_version>  (1) 
72125

>  <i_m_source_file_index>  (1) 
91

>  <i_f3d_flags>  (1) 
0

>  <num_sample>  (1) 
100

>  <b_lp_Chiralities_Consistent>  (1) 
1

>  <r_epik_Charging_Adjusted_Penalty>  (1) 
0.43821527866000726

>  <r_epik_Ionization_Penalty>  (1) 
0.52002734918543769

>  <r_epik_Ionization_Penalty_Charging>  (1) 
0.00012691742049533285

>  <r_epik_Ionization_Penalty_Neutral>  (1) 
0.51990043176494238

>  <r_epik_State_Penalty>  (1) 
0.43808836123951195

>  <r_glide_ring_energy>  (1) 
0.69230642483633709

>  <r_i_docking_score>  (1) 
-4.1211736901683924

>  <r_i_glide_ecoul>  (1) 
-0.56228712663339064

>  <r_i_glide_eff_state_penalty>  (1) 
0.43808836123951195

>  <r_i_glide_einternal>  (1) 
15.271539901906753

>  <r_i_glide_emodel>  (1) 
-13.328855560144447

>  <r_i_glide_emodel_strain>  (1) 
7.8888298711553801

>  <r_i_glide_energy>  (1) 
-27.490294111981779

>  <r_i_glide_erotb>  (1) 
0.42146348941000378

>  <r_i_glide_esite>  (1) 
-0.10370590652553698

>  <r_i_glide_evdw>  (1) 
-26.928006985348389

>  <r_i_glide_gscore>  (1) 
-4.5592620514079041

>  <r_i_glide_gscore_strain>  (1) 
0.97220746778884504

>  <r_i_glide_hbond>  (1) 
-0.055662347481901943

>  <r_i_glide_ligand_efficiency>  (1) 
-0.1084519392149577

>  <r_i_glide_ligand_efficiency_ln>  (1) 
-0.88864628024755421

>  <r_i_glide_ligand_efficiency_sa>  (1) 
-0.36461275246034391

>  <r_i_glide_lipo>  (1) 
-3.6100641836982774

>  <r_i_glide_metal>  (1) 
-0

>  <r_i_glide_rewards>  (1) 
-0.75275715263860865

>  <r_lp_Energy>  (1) 
50.567886999999999

>  <s_epik_Chemistry_Notes>  (1) 
This compound has a N-S or N-O group and may undergo hydrolysis at high or low pH.

>  <s_epik_cmdline>  (1) 
J2VwaWtfcHl0aG9uJywgJy1waHQnLCAnMS4wJywgJy1waCcsICc3LjQnLCAnLXRuJywgJzgnLCAnLW1hJywgJzUwMCcsICctaW1hZScsICc8aW5maWxlLm1hZT4nLCAnLW9tYWUnLCAnPG91dGZpbGUubWFlPic=

>  <s_epik_input>  (1) 
RkMoRikoW0NIMl0xKVtDSDJdW0NIMl1bQ0BIXShbQ0BASF0xMilbQ0BIXShbQ0gyXVtDQEhdKFtDSDJdW0NIMl0yKUMoW0NIM10pKFtDSDNdKU9bQ0gzXSlbTkhdTjNbQ0gyXVtDSDJdW0NIMl1bQ0BIXShbQ0gyXTMpL1tDSF09W0NIXS9bQ0BASF0oW0NIMl1bQ0BdNChbT0hdKUMoPU8pW09IXSlbQ0gyXVtDQEBIXTRbTkhdW09IXQ==

>  <s_glide_docking_method>  (1) 
confgen

>  <s_i_glide_gridfile>  (1) 
gpcr_5ht2c_6bqh_protein_autoprepared_prepared

>  <s_lp_Force_Field>  (1) 
S-OPLS

>  <s_lp_Variant>  (1) 
DiffSBDD_90_num_sample_100-2

>  <s_m_source_file>  (1) 
generated__ligand_DiffSBDD_2026-05-06_prepared.sdf

>  <GenAI_Model>  (1) 
DiffSBDD

>  <Protein>  (1) 
GPCR_5HT2C

$$$$
DiffSBDD_90_num_sample_100
     RDKit          3D

  0  0  0  0  0  0  0  0  0  0999 V3000
M  V30 BEGIN CTAB
M  V30 COUNTS 85 88 0 0 1
M  V30 BEGIN ATOM
M  V30 1 C 38.743185 32.109364 55.116564 0
M  V30 2 O 41.048224 30.730174 65.136700 0
M  V30 3 F 38.361079 24.814370 55.049101 0
M  V30 4 C 39.598189 29.468646 51.199470 0 CFG=1
M  V30 5 C 40.081975 32.074637 62.404103 0 CFG=2
M  V30 6 C 39.266419 30.578748 60.674306 0 CFG=1
M  V30 7 C 42.248720 30.582657 50.653506 0
M  V30 8 C 37.378714 31.383777 59.162834 0
M  V30 9 C 40.027033 30.364050 49.961045 0
M  V30 10 N 39.867405 30.451701 64.348407 0
M  V30 11 C 37.914132 27.003933 55.777931 0
M  V30 12 C 39.867438 29.465936 48.788642 0
M  V30 13 C 40.136523 31.829088 60.903962 0
M  V30 14 C 39.378353 29.782764 61.997308 0
M  V30 15 O 42.267432 32.998347 62.339785 0
M  V30 16 N 39.039526 30.817575 55.782078 0 CFG=2 CHG=1
M  V30 17 C 37.813069 30.930446 60.353752 0
M  V30 18 F 39.733738 25.677328 56.462322 0
M  V30 19 C 38.959781 26.897473 53.092525 0 CFG=1
M  V30 20 N 39.388257 29.630268 54.951437 0
M  V30 21 C 37.222655 27.635232 54.535013 0
M  V30 22 C 38.088437 30.548595 56.882219 0
M  V30 23 O 41.354853 30.682740 49.635727 0
M  V30 24 C 39.285964 31.700524 49.784441 0
M  V30 25 C 38.967432 33.229599 56.130338 0
M  V30 26 C 39.872934 26.425455 54.243017 0
M  V30 27 C 38.270446 31.623566 57.960308 0 CFG=1
M  V30 28 C 40.228662 30.634606 62.947067 0 CFG=1
M  V30 29 C 40.267563 28.057615 51.239391 0
M  V30 30 O 40.859506 33.764361 63.883863 0 CHG=-1
M  V30 31 C 38.708726 29.539353 53.663286 0 CFG=1
M  V30 32 C 38.105751 33.040747 57.385579 0
M  V30 33 O 38.827341 32.658382 62.653471 0
M  V30 34 C 39.656428 30.116770 52.586565 0
M  V30 35 C 38.113100 28.111955 53.427933 0 CFG=1
M  V30 36 C 39.386806 26.905314 51.647023 0
M  V30 37 C 38.975773 25.944249 55.399331 0
M  V30 38 C 41.164614 33.027586 62.918668 0
M  V30 39 H 37.721554 32.139099 54.726496 0
M  V30 40 H 39.425534 32.268595 54.288520 0
M  V30 41 H 40.805577 31.534043 65.576230 0
M  V30 42 H 38.534798 29.310019 51.035272 0
M  V30 43 H 39.679347 29.990259 59.855280 0
M  V30 44 H 43.239861 30.821418 50.313579 0
M  V30 45 H 41.892566 31.221443 51.450605 0
M  V30 46 H 42.291948 29.595237 51.053488 0
M  V30 47 H 36.327656 31.601803 59.034409 0
M  V30 48 H 39.618412 29.501612 64.609167 0
M  V30 49 H 37.163531 26.542587 56.424081 0
M  V30 50 H 38.397372 27.750414 56.391354 0
M  V30 51 H 39.467393 29.870991 47.881471 0
M  V30 52 H 40.741565 28.853428 48.608088 0
M  V30 53 H 39.067406 28.806409 49.053562 0
M  V30 54 H 41.168214 31.590029 60.653438 0
M  V30 55 H 39.839836 32.698855 60.314638 0
M  V30 56 H 39.824759 28.800001 61.848456 0
M  V30 57 H 38.401114 29.621415 62.445778 0
M  V30 58 H 37.101879 30.800293 61.154329 0
M  V30 59 H 38.265512 26.060597 53.046793 0
M  V30 60 H 39.021972 28.906762 55.551663 0
M  V30 61 H 36.667362 26.821031 54.106410 0
M  V30 62 H 36.571184 28.485757 54.653517 0
M  V30 63 H 38.311119 29.592881 57.345560 0
M  V30 64 H 37.067522 30.496286 56.501522 0
M  V30 65 H 38.267415 31.621440 49.453625 0
M  V30 66 H 39.248587 32.275989 50.695153 0
M  V30 67 H 39.773836 32.314175 49.029982 0
M  V30 68 H 38.752635 34.199680 55.677489 0
M  V30 69 H 40.021224 33.221421 56.407947 0
M  V30 70 H 40.544841 25.632043 53.910212 0
M  V30 71 H 40.485872 27.221396 54.653559 0
M  V30 72 H 39.298694 31.547175 58.280258 0
M  V30 73 H 41.266708 30.319659 62.815924 0
M  V30 74 H 40.659393 27.720239 50.290641 0
M  V30 75 H 41.149995 28.064837 51.853487 0
M  V30 76 H 37.828450 30.180702 53.683431 0
M  V30 77 H 37.067449 33.230022 57.133896 0
M  V30 78 H 38.374509 33.779088 58.140072 0
M  V30 79 H 38.971227 33.176237 63.437526 0
M  V30 80 H 40.667439 30.054835 52.951546 0
M  V30 81 H 39.467425 31.178743 52.493884 0
M  V30 82 H 37.424573 28.240952 52.589626 0
M  V30 83 H 38.503695 26.898252 51.003493 0
M  V30 84 H 39.867423 25.964443 51.453559 0
M  V30 85 H 39.913221 31.002695 56.253882 0
M  V30 END ATOM
M  V30 BEGIN BOND
M  V30 1 1 9 4
M  V30 2 1 10 2
M  V30 3 1 12 9
M  V30 4 1 13 5
M  V30 5 1 13 6
M  V30 6 1 14 6
M  V30 7 1 16 1
M  V30 8 1 17 6
M  V30 9 2 17 8
M  V30 10 1 20 16
M  V30 11 1 21 11
M  V30 12 1 22 16
M  V30 13 1 23 7
M  V30 14 1 23 9
M  V30 15 1 24 9
M  V30 16 1 25 1
M  V30 17 1 26 19
M  V30 18 1 27 8
M  V30 19 1 27 22
M  V30 20 1 28 5
M  V30 21 1 28 10
M  V30 22 1 28 14
M  V30 23 1 29 4
M  V30 24 1 31 20
M  V30 25 1 32 25
M  V30 26 1 32 27
M  V30 27 1 5 33 CFG=3
M  V30 28 1 34 4
M  V30 29 1 34 31
M  V30 30 1 35 19
M  V30 31 1 35 21
M  V30 32 1 35 31
M  V30 33 1 36 19
M  V30 34 1 36 29
M  V30 35 1 37 3
M  V30 36 1 37 11
M  V30 37 1 37 18
M  V30 38 1 37 26
M  V30 39 1 38 5
M  V30 40 2 38 15
M  V30 41 1 38 30
M  V30 42 1 39 1
M  V30 43 1 40 1
M  V30 44 1 41 2
M  V30 45 1 4 42 CFG=3
M  V30 46 1 6 43 CFG=3
M  V30 47 1 44 7
M  V30 48 1 45 7
M  V30 49 1 46 7
M  V30 50 1 47 8
M  V30 51 1 48 10
M  V30 52 1 49 11
M  V30 53 1 50 11
M  V30 54 1 51 12
M  V30 55 1 52 12
M  V30 56 1 53 12
M  V30 57 1 54 13
M  V30 58 1 55 13
M  V30 59 1 56 14
M  V30 60 1 57 14
M  V30 61 1 58 17
M  V30 62 1 19 59 CFG=3
M  V30 63 1 60 20
M  V30 64 1 61 21
M  V30 65 1 62 21
M  V30 66 1 63 22
M  V30 67 1 64 22
M  V30 68 1 65 24
M  V30 69 1 66 24
M  V30 70 1 67 24
M  V30 71 1 68 25
M  V30 72 1 69 25
M  V30 73 1 70 26
M  V30 74 1 71 26
M  V30 75 1 27 72 CFG=1
M  V30 76 1 28 73 CFG=1
M  V30 77 1 74 29
M  V30 78 1 75 29
M  V30 79 1 31 76 CFG=1
M  V30 80 1 77 32
M  V30 81 1 78 32
M  V30 82 1 79 33
M  V30 83 1 80 34
M  V30 84 1 81 34
M  V30 85 1 35 82 CFG=3
M  V30 86 1 83 36
M  V30 87 1 84 36
M  V30 88 1 16 85 CFG=1
M  V30 END BOND
M  V30 END CTAB
M  END
>  <i_epik_Tot_Q>  (1) 
0

>  <i_epik_Tot_abs_Q>  (1) 
2

>  <i_i_glide_confnum>  (1) 
735

>  <i_i_glide_lignum>  (1) 
242

>  <i_i_glide_posenum>  (1) 
76

>  <i_i_glide_rotatable_bonds>  (1) 
10

>  <i_lp_mmshare_version>  (1) 
72125

>  <i_m_source_file_index>  (1) 
91

>  <i_f3d_flags>  (1) 
0

>  <num_sample>  (1) 
100

>  <b_lp_Chiralities_Consistent>  (1) 
1

>  <r_epik_Charging_Adjusted_Penalty>  (1) 
1.5083745474312953

>  <r_epik_Ionization_Penalty>  (1) 
0.65750586125956467

>  <r_epik_Ionization_Penalty_Charging>  (1) 
0.6544614066189578

>  <r_epik_Ionization_Penalty_Neutral>  (1) 
0.0030444546406068235

>  <r_epik_State_Penalty>  (1) 
0.8539131408123376

>  <r_glide_ring_energy>  (1) 
0.48000684916915476

>  <r_i_docking_score>  (1) 
-4.1146427392689917

>  <r_i_glide_ecoul>  (1) 
-3.3024296472207131

>  <r_i_glide_eff_state_penalty>  (1) 
0.8539131408123376

>  <r_i_glide_einternal>  (1) 
37.555177064979773

>  <r_i_glide_emodel>  (1) 
17.786666909903616

>  <r_i_glide_emodel_strain>  (1) 
10.501105653309196

>  <r_i_glide_energy>  (1) 
-7.6008388923352399

>  <r_i_glide_erotb>  (1) 
0.42002339013477186

>  <r_i_glide_esite>  (1) 
-0.045452468097967699

>  <r_i_glide_evdw>  (1) 
-4.2984092451145264

>  <r_i_glide_gscore>  (1) 
-4.968555880081329

>  <r_i_glide_gscore_strain>  (1) 
1.625276413327299

>  <r_i_glide_hbond>  (1) 
-0.24500160450064359

>  <r_i_glide_ligand_efficiency>  (1) 
-0.10828007208602609

>  <r_i_glide_ligand_efficiency_ln>  (1) 
-0.88723801511253275

>  <r_i_glide_ligand_efficiency_sa>  (1) 
-0.36403493939963871

>  <r_i_glide_lipo>  (1) 
-4.0971079541188065

>  <r_i_glide_metal>  (1) 
-0

>  <r_i_glide_rewards>  (1) 
-1.9160087474871494

>  <r_lp_Energy>  (1) 
47.513490999999995

>  <s_epik_Chemistry_Notes>  (1) 
This compound has a N-S or N-O group and may undergo hydrolysis at high or low pH.

>  <s_epik_cmdline>  (1) 
J2VwaWtfcHl0aG9uJywgJy1waHQnLCAnMS4wJywgJy1waCcsICc3LjQnLCAnLXRuJywgJzgnLCAnLW1hJywgJzUwMCcsICctaW1hZScsICc8aW5maWxlLm1hZT4nLCAnLW9tYWUnLCAnPG91dGZpbGUubWFlPic=

>  <s_epik_input>  (1) 
RkMoRikoW0NIMl0xKVtDSDJdW0NIMl1bQ0BIXShbQ0BASF0xMilbQ0BIXShbQ0gyXVtDQEhdKFtDSDJdW0NIMl0yKUMoW0NIM10pKFtDSDNdKU9bQ0gzXSlbTkhdTjNbQ0gyXVtDSDJdW0NIMl1bQ0BIXShbQ0gyXTMpL1tDSF09W0NIXVxbQ0BASF0oW0NIMl1bQ0BdNChbT0hdKUMoPU8pW09IXSlbQ0gyXVtDQEBIXTRbTkhdW09IXQ==

>  <s_glide_docking_method>  (1) 
confgen

>  <s_i_glide_gridfile>  (1) 
gpcr_5ht2c_6bqh_protein_autoprepared_prepared

>  <s_lp_Force_Field>  (1) 
S-OPLS

>  <s_lp_Variant>  (1) 
DiffSBDD_90_num_sample_100-14

>  <s_m_source_file>  (1) 
generated__ligand_DiffSBDD_2026-05-06_prepared.sdf

>  <GenAI_Model>  (1) 
DiffSBDD

>  <Protein>  (1) 
GPCR_5HT2C

$$$$
DiffSBDD_98_num_sample_100
     RDKit          3D

  0  0  0  0  0  0  0  0  0  0999 V3000
M  V30 BEGIN CTAB
M  V30 COUNTS 63 64 0 0 1
M  V30 BEGIN ATOM
M  V30 1 C 35.477199 31.864062 60.176807 0
M  V30 2 C 39.867398 26.814909 53.220207 0
M  V30 3 C 38.107874 35.291282 61.198283 0
M  V30 4 O 39.251152 31.900667 55.612664 0
M  V30 5 C 37.849996 31.747876 55.607311 0
M  V30 6 O 36.683116 35.142758 61.361898 0
M  V30 7 C 38.629579 34.001707 60.510649 0 CFG=2
M  V30 8 C 37.440762 27.414475 53.564007 0
M  V30 9 N 38.360283 29.300357 55.772949 0
M  V30 10 C 39.585869 33.119056 56.235353 0
M  V30 11 C 36.267254 34.130477 60.462054 0 CFG=2
M  V30 12 C 39.309970 28.692190 54.829396 0
M  V30 13 C 36.105945 34.761287 59.053508 0
M  V30 14 C 38.832511 27.349676 54.222554 0 CFG=2
M  V30 15 O 39.136417 28.119175 57.566724 0
M  V30 16 C 35.067219 33.237821 60.776146 0
M  V30 17 C 37.315709 29.440595 59.269661 0
M  V30 18 C 37.395168 33.141908 60.673765 0 CFG=1
M  V30 19 C 37.450313 30.322542 55.217070 0
M  V30 20 C 39.897818 33.435121 61.163158 0
M  V30 21 N 37.461643 29.630543 57.827240 0
M  V30 22 C 37.790565 30.662213 60.076991 0
M  V30 23 C 37.415611 28.207392 52.253540 0
M  V30 24 C 36.987567 31.949124 59.813894 0 CFG=1
M  V30 25 C 38.369210 28.958056 57.091749 0
M  V30 26 H 34.885370 31.626475 59.292224 0
M  V30 27 H 35.289718 31.080527 60.910831 0
M  V30 28 H 40.180080 27.586943 52.516677 0
M  V30 29 H 40.749597 26.421426 53.726165 0
M  V30 30 H 39.461731 26.021472 52.605428 0
M  V30 31 H 38.329885 36.169280 60.590770 0
M  V30 32 H 38.560665 35.449558 62.177683 0
M  V30 33 H 37.410581 32.465126 54.915163 0
M  V30 34 H 37.467402 31.973460 56.597782 0
M  V30 35 H 38.820493 34.182782 59.453704 0
M  V30 36 H 37.092837 26.400185 53.361705 0
M  V30 37 H 36.707433 27.828227 54.253473 0
M  V30 38 H 40.667410 33.221431 56.253501 0
M  V30 39 H 39.156988 33.960811 55.687478 0
M  V30 40 H 39.238762 33.155597 57.268812 0
M  V30 41 H 39.528103 29.407185 54.034560 0
M  V30 42 H 40.267247 28.544037 55.332049 0
M  V30 43 H 35.832898 34.024173 58.297574 0
M  V30 44 H 35.312567 35.507825 59.059272 0
M  V30 45 H 37.002035 35.265934 58.694719 0
M  V30 46 H 38.759680 26.627533 55.037361 0
M  V30 47 H 34.134850 33.617829 60.356218 0
M  V30 48 H 34.931128 33.154585 61.853581 0
M  V30 49 H 36.263207 29.242567 59.473011 0
M  V30 50 H 37.867383 28.565410 59.618723 0
M  V30 51 H 37.376495 32.811518 61.716583 0
M  V30 52 H 37.468604 30.274908 54.132230 0
M  V30 53 H 36.410210 30.118883 55.476990 0
M  V30 54 H 39.730852 33.184486 62.211156 0
M  V30 55 H 40.239101 32.535190 60.653647 0
M  V30 56 H 40.707007 34.164178 61.121203 0
M  V30 57 H 36.857292 30.307738 57.374240 0
M  V30 58 H 37.752136 30.421632 61.139658 0
M  V30 59 H 38.841457 30.841044 59.849105 0
M  V30 60 H 36.386079 28.421420 51.980916 0
M  V30 61 H 37.946629 29.153887 52.319288 0
M  V30 62 H 37.867242 27.639510 51.439289 0
M  V30 63 H 37.093264 32.217718 58.764883 0
M  V30 END ATOM
M  V30 BEGIN BOND
M  V30 1 1 5 4
M  V30 2 1 6 3
M  V30 3 1 7 3
M  V30 4 1 10 4
M  V30 5 1 11 6
M  V30 6 1 12 9
M  V30 7 1 11 13 CFG=3
M  V30 8 1 14 2
M  V30 9 1 14 8
M  V30 10 1 14 12
M  V30 11 1 16 1
M  V30 12 1 16 11
M  V30 13 1 18 7
M  V30 14 1 18 11
M  V30 15 1 19 5
M  V30 16 1 19 9
M  V30 17 1 20 7
M  V30 18 1 21 17
M  V30 19 1 22 17
M  V30 20 1 23 8
M  V30 21 1 24 1
M  V30 22 1 24 18
M  V30 23 1 24 22
M  V30 24 1 25 9
M  V30 25 2 25 15
M  V30 26 1 25 21
M  V30 27 1 26 1
M  V30 28 1 27 1
M  V30 29 1 28 2
M  V30 30 1 29 2
M  V30 31 1 30 2
M  V30 32 1 31 3
M  V30 33 1 32 3
M  V30 34 1 33 5
M  V30 35 1 34 5
M  V30 36 1 7 35 CFG=3
M  V30 37 1 36 8
M  V30 38 1 37 8
M  V30 39 1 38 10
M  V30 40 1 39 10
M  V30 41 1 40 10
M  V30 42 1 41 12
M  V30 43 1 42 12
M  V30 44 1 43 13
M  V30 45 1 44 13
M  V30 46 1 45 13
M  V30 47 1 14 46 CFG=1
M  V30 48 1 47 16
M  V30 49 1 48 16
M  V30 50 1 49 17
M  V30 51 1 50 17
M  V30 52 1 18 51 CFG=1
M  V30 53 1 52 19
M  V30 54 1 53 19
M  V30 55 1 54 20
M  V30 56 1 55 20
M  V30 57 1 56 20
M  V30 58 1 57 21
M  V30 59 1 58 22
M  V30 60 1 59 22
M  V30 61 1 60 23
M  V30 62 1 61 23
M  V30 63 1 62 23
M  V30 64 1 24 63 CFG=3
M  V30 END BOND
M  V30 END CTAB
M  END
>  <i_epik_Tot_Q>  (1) 
0

>  <i_epik_Tot_abs_Q>  (1) 
0

>  <i_i_glide_confnum>  (1) 
455

>  <i_i_glide_lignum>  (1) 
270

>  <i_i_glide_posenum>  (1) 
206

>  <i_i_glide_rotatable_bonds>  (1) 
11

>  <i_lp_mmshare_version>  (1) 
72125

>  <i_m_source_file_index>  (1) 
99

>  <i_f3d_flags>  (1) 
0

>  <num_sample>  (1) 
100

>  <b_lp_Chiralities_Consistent>  (1) 
1

>  <r_epik_Charging_Adjusted_Penalty>  (1) 
0

>  <r_epik_Ionization_Penalty>  (1) 
2.6949826091905801e-05

>  <r_epik_Ionization_Penalty_Charging>  (1) 
0

>  <r_epik_Ionization_Penalty_Neutral>  (1) 
2.6949826091905801e-05

>  <r_epik_State_Penalty>  (1) 
-0

>  <r_glide_ring_energy>  (1) 
0

>  <r_i_docking_score>  (1) 
-4.1025601073599036

>  <r_i_glide_ecoul>  (1) 
-1.7456567733230504

>  <r_i_glide_eff_state_penalty>  (1) 
-0

>  <r_i_glide_einternal>  (1) 
3.6774771615352364

>  <r_i_glide_emodel>  (1) 
-42.985366684408383

>  <r_i_glide_emodel_strain>  (1) 
0.68802980755003773

>  <r_i_glide_energy>  (1) 
-35.62733889248026

>  <r_i_glide_erotb>  (1) 
1.3682856871848257

>  <r_i_glide_esite>  (1) 
-0.06740466746162542

>  <r_i_glide_evdw>  (1) 
-33.881682119157212

>  <r_i_glide_gscore>  (1) 
-4.1025601073599036

>  <r_i_glide_gscore_strain>  (1) 
0

>  <r_i_glide_hbond>  (1) 
-0.0948836349374933

>  <r_i_glide_ligand_efficiency>  (1) 
-0.16410240429439615

>  <r_i_glide_ligand_efficiency_ln>  (1) 
-0.97242968924975859

>  <r_i_glide_ligand_efficiency_sa>  (1) 
-0.47983834104019357

>  <r_i_glide_lipo>  (1) 
-1.9466184736410832

>  <r_i_glide_metal>  (1) 
-0

>  <r_i_glide_rewards>  (1) 
-1.4060063965482099

>  <r_lp_Energy>  (1) 
41.975189

>  <r_lp_tautomer_probability>  (1) 
1

>  <s_epik_cmdline>  (1) 
J2VwaWtfcHl0aG9uJywgJy1waHQnLCAnMS4wJywgJy1waCcsICc3LjQnLCAnLXRuJywgJzgnLCAnLW1hJywgJzUwMCcsICctaW1hZScsICc8aW5maWxlLm1hZT4nLCAnLW9tYWUnLCAnPG91dGZpbGUubWFlPic=

>  <s_epik_input>  (1) 
TzFbQ0gyXVtDQEBIXShbQ0gzXSlbQ0BASF0oW0NAXTEyW0NIM10pW0NASF0oW0NIMl1bQ0gyXTIpW0NIMl1bQ0gyXVtOSF1DKD1PKU4oW0NIMl1bQ0BIXShbQ0gzXSlbQ0gyXVtDSDNdKVtDSDJdW0NIMl1PW0NIM10=

>  <s_glide_docking_method>  (1) 
confgen

>  <s_i_glide_gridfile>  (1) 
gpcr_5ht2c_6bqh_protein_autoprepared_prepared

>  <s_lp_Force_Field>  (1) 
S-OPLS

>  <s_lp_Variant>  (1) 
DiffSBDD_98_num_sample_100-1

>  <s_m_source_file>  (1) 
generated__ligand_DiffSBDD_2026-05-06_prepared.sdf

>  <GenAI_Model>  (1) 
DiffSBDD

>  <Protein>  (1) 
GPCR_5HT2C

$$$$
DiffSBDD_20_num_sample_100
     RDKit          3D

  0  0  0  0  0  0  0  0  0  0999 V3000
M  V30 BEGIN CTAB
M  V30 COUNTS 55 55 0 0 1
M  V30 BEGIN ATOM
M  V30 1 C 36.153245 32.620865 60.023331 0 CFG=1
M  V30 2 C 38.393490 33.817345 60.744285 0 CFG=2
M  V30 3 C 38.330287 31.359905 57.311393 0
M  V30 4 C 34.092940 33.871764 59.048184 0
M  V30 5 N 38.350280 35.063186 61.511833 0
M  V30 6 C 39.151791 36.655278 63.191009 0
M  V30 7 O 42.218688 28.021537 57.830651 0
M  V30 8 C 39.927772 27.456388 57.567339 0
M  V30 9 C 39.406496 29.559442 56.034675 0
M  V30 10 C 41.467457 35.150723 61.250512 0
M  V30 11 N 38.858687 30.132208 57.256780 0
M  V30 12 O 38.267497 32.122247 56.346525 0
M  V30 13 C 35.467496 31.249733 59.996878 0
M  V30 14 C 35.079602 33.721566 60.212449 0
M  V30 15 C 39.283720 35.426438 62.311020 0
M  V30 16 C 41.069440 28.161241 58.298953 0
M  V30 17 O 42.265925 35.675374 64.030519 0
M  V30 18 N 37.867427 31.656532 58.534280 0
M  V30 19 C 38.035271 34.021277 59.271547 0
M  V30 20 S 37.230115 32.641390 61.463874 0
M  V30 21 C 41.328251 34.647660 63.808126 0
M  V30 22 O 40.764784 28.830054 59.311440 0 CHG=-1
M  V30 23 C 37.116943 32.883163 58.836258 0 CFG=2
M  V30 24 C 40.613539 34.679597 62.429760 0 CFG=2
M  V30 25 C 39.651198 28.034455 56.157546 0
M  V30 26 H 39.348431 33.305584 60.703627 0
M  V30 27 H 33.203400 34.421292 59.345458 0
M  V30 28 H 34.551922 34.413698 58.220939 0
M  V30 29 H 33.747626 32.912744 58.667846 0
M  V30 30 H 40.016302 37.308947 63.069348 0
M  V30 31 H 39.025567 27.511133 58.177200 0
M  V30 32 H 40.175557 26.396952 57.492507 0
M  V30 33 H 38.738894 29.748656 55.192361 0
M  V30 34 H 40.335200 30.071698 55.802119 0
M  V30 35 H 40.892720 35.221460 60.325348 0
M  V30 36 H 41.867323 36.145612 61.432377 0
M  V30 37 H 42.267396 34.447331 61.053540 0
M  V30 38 H 38.887569 29.567137 58.094141 0
M  V30 39 H 34.956568 31.075044 59.053495 0
M  V30 40 H 36.166490 30.426750 60.150420 0
M  V30 41 H 34.738229 31.221411 60.805794 0
M  V30 42 H 34.510653 33.501426 61.115565 0
M  V30 43 H 35.548053 34.686698 60.402919 0
M  V30 44 H 41.835507 36.495411 64.245908 0
M  V30 45 H 37.967827 30.978360 59.273214 0
M  V30 46 H 37.518354 34.970517 59.120902 0
M  V30 47 H 38.929585 34.021414 58.650856 0
M  V30 48 H 41.913812 33.727593 63.861590 0
M  V30 49 H 40.629793 34.594518 64.641896 0
M  V30 50 H 36.594194 33.221448 57.947323 0
M  V30 51 H 40.417499 33.618661 62.321007 0
M  V30 52 H 38.771700 27.519081 55.768478 0
M  V30 53 H 40.463505 27.751365 55.487758 0
M  V30 54 H 38.256876 37.220455 62.929244 0
M  V30 55 H 39.072331 36.371057 64.240416 0
M  V30 END ATOM
M  V30 BEGIN BOND
M  V30 1 1 5 2
M  V30 2 1 11 3
M  V30 3 1 11 9
M  V30 4 2 12 3
M  V30 5 1 1 13 CFG=3
M  V30 6 1 14 1
M  V30 7 1 14 4
M  V30 8 2 15 5
M  V30 9 1 15 6
M  V30 10 2 16 7
M  V30 11 1 16 8
M  V30 12 1 18 3
M  V30 13 1 19 2
M  V30 14 1 20 1
M  V30 15 1 20 2
M  V30 16 1 21 17
M  V30 17 1 22 16
M  V30 18 1 23 1
M  V30 19 1 23 18
M  V30 20 1 23 19
M  V30 21 1 24 10
M  V30 22 1 24 15
M  V30 23 1 24 21
M  V30 24 1 25 8
M  V30 25 1 25 9
M  V30 26 1 2 26 CFG=3
M  V30 27 1 27 4
M  V30 28 1 28 4
M  V30 29 1 29 4
M  V30 30 1 30 6
M  V30 31 1 31 8
M  V30 32 1 32 8
M  V30 33 1 33 9
M  V30 34 1 34 9
M  V30 35 1 35 10
M  V30 36 1 36 10
M  V30 37 1 37 10
M  V30 38 1 38 11
M  V30 39 1 39 13
M  V30 40 1 40 13
M  V30 41 1 41 13
M  V30 42 1 42 14
M  V30 43 1 43 14
M  V30 44 1 44 17
M  V30 45 1 45 18
M  V30 46 1 46 19
M  V30 47 1 47 19
M  V30 48 1 48 21
M  V30 49 1 49 21
M  V30 50 1 23 50 CFG=3
M  V30 51 1 24 51 CFG=3
M  V30 52 1 52 25
M  V30 53 1 53 25
M  V30 54 1 54 6
M  V30 55 1 55 6
M  V30 END BOND
M  V30 END CTAB
M  END
>  <i_epik_Tot_Q>  (1) 
-1

>  <i_epik_Tot_abs_Q>  (1) 
1

>  <i_i_glide_confnum>  (1) 
24

>  <i_i_glide_lignum>  (1) 
54

>  <i_i_glide_posenum>  (1) 
169

>  <i_i_glide_rotatable_bonds>  (1) 
12

>  <i_lp_mmshare_version>  (1) 
72125

>  <i_m_source_file_index>  (1) 
21

>  <i_f3d_flags>  (1) 
0

>  <num_sample>  (1) 
100

>  <b_lp_Chiralities_Consistent>  (1) 
1

>  <r_epik_Charging_Adjusted_Penalty>  (1) 
0.43743025276339675

>  <r_epik_Ionization_Penalty>  (1) 
0.026773266926762091

>  <r_epik_Ionization_Penalty_Charging>  (1) 
0.0015534882308521432

>  <r_epik_Ionization_Penalty_Neutral>  (1) 
0.025219778695909949

>  <r_epik_State_Penalty>  (1) 
0.43587676453254459

>  <r_glide_ring_energy>  (1) 
0

>  <r_i_docking_score>  (1) 
-4.0909036318943226

>  <r_i_glide_ecoul>  (1) 
-2.126795826369948

>  <r_i_glide_eff_state_penalty>  (1) 
0.43587676453254459

>  <r_i_glide_einternal>  (1) 
10.015011940114807

>  <r_i_glide_emodel>  (1) 
-37.291959906769947

>  <r_i_glide_emodel_strain>  (1) 
1.9479301570998011

>  <r_i_glide_energy>  (1) 
-33.565115297575602

>  <r_i_glide_erotb>  (1) 
1.2527341714622291

>  <r_i_glide_esite>  (1) 
-0.19446006050200926

>  <r_i_glide_evdw>  (1) 
-31.438319471205652

>  <r_i_glide_gscore>  (1) 
-4.5267803964268669

>  <r_i_glide_gscore_strain>  (1) 
0

>  <r_i_glide_hbond>  (1) 
-0.309301336867355

>  <r_i_glide_ligand_efficiency>  (1) 
-0.16363614527577292

>  <r_i_glide_ligand_efficiency_ln>  (1) 
-0.96966675524803425

>  <r_i_glide_ligand_efficiency_sa>  (1) 
-0.47847499139913746

>  <r_i_glide_lipo>  (1) 
-1.7221132272457476

>  <r_i_glide_metal>  (1) 
-0

>  <r_i_glide_rewards>  (1) 
-1.6627045957582087

>  <r_lp_Energy>  (1) 
20.662696

>  <r_lp_tautomer_probability>  (1) 
0.49999399997599986

>  <s_epik_Chemistry_Notes>  (1) 
This compound has an imine and may undergo hydrolysis. This compound contains an acetal/aminal-like group ( X-CH(R)-Y where X, Y are N, S, or O) that may be acid/base labile, releasing an aldehyde.

>  <s_epik_cmdline>  (1) 
J2VwaWtfcHl0aG9uJywgJy1waHQnLCAnMS4wJywgJy1waCcsICc3LjQnLCAnLXRuJywgJzgnLCAnLW1hJywgJzUwMCcsICctaW1hZScsICc8aW5maWxlLm1hZT4nLCAnLW9tYWUnLCAnPG91dGZpbGUubWFlPic=

>  <s_epik_input>  (1) 
W09IXVtDSDJdW0NAQEhdKFtDSDNdKUMoPVtDSDJdKVtOSF1bQ0BASF0oU1tDQEBdMShbQ0gzXSlbQ0gyXVtDSDNdKVtDSDJdW0NASF0xW05IXUMoPU8pW05IXVtDSDJdW0NIMl1bQ0gyXUMoPU8pW09IXQ==

>  <s_glide_docking_method>  (1) 
confgen

>  <s_i_glide_gridfile>  (1) 
gpcr_5ht2c_6bqh_protein_autoprepared_prepared

>  <s_lp_Force_Field>  (1) 
S-OPLS

>  <s_lp_Variant>  (1) 
DiffSBDD_20_num_sample_100-2

>  <s_m_source_file>  (1) 
generated__ligand_DiffSBDD_2026-05-06_prepared.sdf

>  <GenAI_Model>  (1) 
DiffSBDD

>  <Protein>  (1) 
GPCR_5HT2C

$$$$
DiffSBDD_82_num_sample_100
     RDKit          3D

  0  0  0  0  0  0  0  0  0  0999 V3000
M  V30 BEGIN CTAB
M  V30 COUNTS 57 59 0 0 1
M  V30 BEGIN ATOM
M  V30 1 C 38.947547 29.896505 57.804030 0 CFG=1
M  V30 2 N 39.008457 26.666393 55.502814 0
M  V30 3 F 38.689928 29.276081 58.955557 0
M  V30 4 C 38.590058 31.996042 59.246783 0
M  V30 5 N 38.227831 29.198841 56.750865 0
M  V30 6 C 37.359226 25.737045 53.917987 0
M  V30 7 C 37.209832 34.110835 58.571418 0
M  V30 8 C 39.418081 34.264967 61.760022 0
M  V30 9 N 38.188415 30.715761 54.849987 0
M  V30 10 O 37.067329 32.028625 61.872339 0
M  V30 11 C 37.935662 24.702558 56.706066 0 CFG=2
M  V30 12 C 37.867390 24.202690 58.112961 0
M  V30 13 C 39.616241 28.942438 51.915092 0
M  V30 14 S 40.371905 32.880638 62.266173 0 CHG=-1
M  V30 15 C 38.384926 33.537040 59.413408 0 CFG=1
M  V30 16 C 38.124129 33.124204 54.653490 0
M  V30 17 C 37.963204 29.482061 55.498297 0
M  V30 18 C 38.172017 26.195018 56.598013 0 CFG=1
M  V30 19 C 38.762217 25.367121 57.721908 0 CFG=2
M  V30 20 C 38.667273 31.364189 57.876122 0
M  V30 21 O 39.644757 35.447000 62.004493 0
M  V30 22 C 38.309809 26.885409 54.248260 0 CFG=2
M  V30 23 C 38.536505 32.031670 56.784197 0
M  V30 24 O 35.867227 33.885887 61.602762 0 CHG=-1
M  V30 25 O 39.294690 26.979672 53.241398 0
M  V30 26 C 38.917857 27.582377 52.027138 0 CFG=2
M  V30 27 S 37.212367 28.346483 54.337229 0
M  V30 28 C 38.158917 33.943801 60.903226 0 CFG=1
M  V30 29 O 39.341169 26.821482 50.941115 0
M  V30 30 C 36.925385 33.221882 61.514314 0
M  V30 31 C 38.334752 31.924613 55.512577 0
M  V30 32 H 40.019469 29.762864 57.661510 0
M  V30 33 H 39.468146 27.518577 55.796465 0
M  V30 34 H 39.459379 31.663974 59.806170 0
M  V30 35 H 37.741367 31.466249 59.669811 0
M  V30 36 H 37.867395 24.797736 53.853491 0
M  V30 37 H 36.755519 25.936713 53.053483 0
M  V30 38 H 36.667380 25.610588 54.732953 0
M  V30 39 H 36.326583 33.472997 58.638492 0
M  V30 40 H 37.460961 34.228585 57.519536 0
M  V30 41 H 36.922493 35.112624 58.887697 0
M  V30 42 H 37.995806 30.800755 53.864743 0
M  V30 43 H 38.465051 24.064155 56.002264 0
M  V30 44 H 36.958449 24.422146 58.653317 0
M  V30 45 H 38.280159 23.221322 58.253488 0
M  V30 46 H 40.696686 28.808914 51.853301 0
M  V30 47 H 39.392443 29.565241 52.775259 0
M  V30 48 H 39.286069 29.455775 51.011887 0
M  V30 49 H 39.302445 34.021487 59.084142 0
M  V30 50 H 38.646729 33.998076 55.053643 0
M  V30 51 H 37.072201 33.356702 54.533855 0
M  V30 52 H 38.467246 32.821354 53.665260 0
M  V30 53 H 37.328045 26.807823 56.905780 0
M  V30 54 H 39.831588 25.174764 57.683981 0
M  V30 55 H 37.840105 27.671006 51.895973 0
M  V30 56 H 37.767304 34.959006 60.826523 0
M  V30 57 H 38.797495 26.050054 50.886433 0
M  V30 END ATOM
M  V30 BEGIN BOND
M  V30 1 1 3 1
M  V30 2 1 5 1
M  V30 3 1 12 11
M  V30 4 1 14 8
M  V30 5 1 15 4
M  V30 6 1 15 7
M  V30 7 2 17 5
M  V30 8 1 17 9
M  V30 9 1 18 2
M  V30 10 1 18 11
M  V30 11 1 19 11
M  V30 12 1 19 12
M  V30 13 1 19 18
M  V30 14 1 20 1
M  V30 15 1 20 4
M  V30 16 2 21 8
M  V30 17 1 22 2
M  V30 18 1 22 6
M  V30 19 2 23 20
M  V30 20 1 22 25 CFG=3
M  V30 21 1 26 13
M  V30 22 1 26 25
M  V30 23 1 27 17
M  V30 24 1 27 22
M  V30 25 1 28 8
M  V30 26 1 28 15
M  V30 27 1 29 26
M  V30 28 2 30 10
M  V30 29 1 30 24
M  V30 30 1 30 28
M  V30 31 1 31 9
M  V30 32 1 31 16
M  V30 33 2 31 23
M  V30 34 1 1 32 CFG=3
M  V30 35 1 33 2
M  V30 36 1 34 4
M  V30 37 1 35 4
M  V30 38 1 36 6
M  V30 39 1 37 6
M  V30 40 1 38 6
M  V30 41 1 39 7
M  V30 42 1 40 7
M  V30 43 1 41 7
M  V30 44 1 42 9
M  V30 45 1 11 43 CFG=3
M  V30 46 1 44 12
M  V30 47 1 45 12
M  V30 48 1 46 13
M  V30 49 1 47 13
M  V30 50 1 48 13
M  V30 51 1 15 49 CFG=3
M  V30 52 1 50 16
M  V30 53 1 51 16
M  V30 54 1 52 16
M  V30 55 1 18 53 CFG=1
M  V30 56 1 19 54 CFG=3
M  V30 57 1 26 55 CFG=1
M  V30 58 1 28 56 CFG=3
M  V30 59 1 57 29
M  V30 END BOND
M  V30 END CTAB
M  END
>  <i_epik_Tot_Q>  (1) 
-2

>  <i_epik_Tot_abs_Q>  (1) 
2

>  <i_i_glide_confnum>  (1) 
1370

>  <i_i_glide_lignum>  (1) 
215

>  <i_i_glide_posenum>  (1) 
256

>  <i_i_glide_rotatable_bonds>  (1) 
12

>  <i_lp_mmshare_version>  (1) 
72125

>  <i_m_source_file_index>  (1) 
83

>  <i_f3d_flags>  (1) 
0

>  <num_sample>  (1) 
100

>  <b_lp_Chiralities_Consistent>  (1) 
1

>  <r_epik_Charging_Adjusted_Penalty>  (1) 
0.00013622687110547772

>  <r_epik_Ionization_Penalty>  (1) 
0.0015792256383976989

>  <r_epik_Ionization_Penalty_Charging>  (1) 
0.00013622687110547772

>  <r_epik_Ionization_Penalty_Neutral>  (1) 
0.0014429987672922213

>  <r_epik_State_Penalty>  (1) 
-0

>  <r_glide_ring_energy>  (1) 
0

>  <r_i_docking_score>  (1) 
-4.0748711657497951

>  <r_i_glide_ecoul>  (1) 
-2.5388905527469761

>  <r_i_glide_eff_state_penalty>  (1) 
-0

>  <r_i_glide_einternal>  (1) 
13.974653796147123

>  <r_i_glide_emodel>  (1) 
-29.950977660665792

>  <r_i_glide_emodel_strain>  (1) 
8.3330610242770291

>  <r_i_glide_energy>  (1) 
-34.011148105461558

>  <r_i_glide_erotb>  (1) 
0.72716710484865599

>  <r_i_glide_esite>  (1) 
-0.0070710286531494417

>  <r_i_glide_evdw>  (1) 
-31.472257552714584

>  <r_i_glide_gscore>  (1) 
-4.0748711657497951

>  <r_i_glide_gscore_strain>  (1) 
1.0832652560692573

>  <r_i_glide_hbond>  (1) 
-0.178855138975273

>  <r_i_glide_ligand_efficiency>  (1) 
-0.13144745695967081

>  <r_i_glide_ligand_efficiency_ln>  (1) 
-0.91900832768031182

>  <r_i_glide_ligand_efficiency_sa>  (1) 
-0.41292649809916032

>  <r_i_glide_lipo>  (1) 
-1.9969882667740002

>  <r_i_glide_metal>  (1) 
-0

>  <r_i_glide_rewards>  (1) 
-1.7479426317175106

>  <r_lp_Energy>  (1) 
24.444061999999999

>  <r_lp_tautomer_probability>  (1) 
1

>  <s_epik_Chemistry_Notes>  (1) 
This compound has an imine and may undergo hydrolysis. This compound contains an acetal/aminal-like group ( X-CH(R)-Y where X, Y are N, S, or O) that may be acid/base labile, releasing an aldehyde.

>  <s_epik_cmdline>  (1) 
J2VwaWtfcHl0aG9uJywgJy1waHQnLCAnMS4wJywgJy1waCcsICc3LjQnLCAnLXRuJywgJzgnLCAnLW1hJywgJzUwMCcsICctaW1hZScsICc8aW5maWxlLm1hZT4nLCAnLW9tYWUnLCAnPG91dGZpbGUubWFlPic=

>  <s_epik_input>  (1) 
W0NASF0xMltDQEhdKFtDSDJdMSlbQ0BIXTJbTkhdW0NAXShbQ0gzXSkoT1tDQEBIXShbQ0gzXSlbT0hdKVNDKD1OW0NAQEhdM0YpW05IXUMoW0NIM10pPUM9QzNbQ0gyXVtDQEBIXShbQ0gzXSlbQ0BIXShDKD1PKVtTSF0pQyg9TylbT0hd

>  <s_glide_docking_method>  (1) 
confgen

>  <s_i_glide_gridfile>  (1) 
gpcr_5ht2c_6bqh_protein_autoprepared_prepared

>  <s_lp_Force_Field>  (1) 
S-OPLS

>  <s_lp_Variant>  (1) 
DiffSBDD_82_num_sample_100-1

>  <s_m_source_file>  (1) 
generated__ligand_DiffSBDD_2026-05-06_prepared.sdf

>  <GenAI_Model>  (1) 
DiffSBDD

>  <Protein>  (1) 
GPCR_5HT2C

$$$$
DiffSBDD_93_num_sample_100
     RDKit          3D

  0  0  0  0  0  0  0  0  0  0999 V3000
M  V30 BEGIN CTAB
M  V30 COUNTS 74 77 0 0 1
M  V30 BEGIN ATOM
M  V30 1 C 39.038121 29.227799 52.486869 0
M  V30 2 S 39.550386 29.621483 58.774227 0
M  V30 3 C 40.481072 30.975760 51.443415 0 CFG=2
M  V30 4 O 39.781656 24.758231 56.720451 0
M  V30 5 C 39.240724 34.080634 60.843228 0
M  V30 6 C 39.261485 27.502284 56.166799 0 CFG=1
M  V30 7 C 36.917905 33.590316 58.914883 0
M  V30 8 C 38.449922 32.038563 57.787384 0
M  V30 9 C 41.210018 29.924838 50.598641 0
M  V30 10 N 37.712492 29.969653 56.753698 0 CHG=1
M  V30 11 C 37.985134 34.368230 61.656861 0
M  V30 12 C 39.467453 30.488950 52.457742 0
M  V30 13 C 37.828970 28.862310 53.267812 0
M  V30 14 C 38.563878 29.913062 55.513964 0 CFG=2
M  V30 15 C 40.255079 28.780261 50.300793 0
M  V30 16 Cl 38.907144 26.821442 51.053522 0
M  V30 17 O 35.670867 34.421422 62.209995 0
M  V30 18 C 39.731592 28.213985 51.587584 0 CFG=2
M  V30 19 C 36.754060 28.087424 52.594275 0
M  V30 20 C 39.092106 27.868354 58.705467 0
M  V30 21 C 39.599780 26.454483 55.099523 0
M  V30 22 C 37.616762 29.212425 54.561196 0
M  V30 23 C 36.142945 33.421524 60.191459 0
M  V30 24 C 39.762556 27.072608 57.563675 0 CFG=1
M  V30 25 C 38.133703 30.529964 58.048302 0 CFG=1
M  V30 26 C 36.559836 34.527674 61.116116 0 CFG=2
M  V30 27 C 39.448287 25.584230 57.817016 0
M  V30 28 C 39.084714 25.096159 55.538430 0
M  V30 29 C 39.301616 33.430268 59.662923 0
M  V30 30 S 36.671246 30.224402 59.069784 0 CHG=-1
M  V30 31 N 38.233369 32.959621 58.897930 0
M  V30 32 C 39.605548 31.648995 50.365413 0
M  V30 33 C 39.732568 28.923644 55.722411 0
M  V30 34 H 41.168571 31.621363 51.941039 0
M  V30 35 H 40.170940 34.378100 61.308146 0
M  V30 36 H 38.175394 27.453403 56.253596 0
M  V30 37 H 37.044977 34.648671 58.682290 0
M  V30 38 H 36.295393 33.221500 58.110804 0
M  V30 39 H 37.836550 32.400831 56.962319 0
M  V30 40 H 39.467150 32.143662 57.417412 0
M  V30 41 H 41.572014 30.350973 49.660821 0
M  V30 42 H 42.119393 29.579230 51.053515 0
M  V30 43 H 37.395582 29.038377 56.974007 0
M  V30 44 H 38.220136 35.212781 62.303794 0
M  V30 45 H 37.963403 33.464964 62.254334 0
M  V30 46 H 38.977739 31.244799 53.053236 0
M  V30 47 H 38.864594 30.906730 55.182252 0
M  V30 48 H 39.436703 29.068818 49.651487 0
M  V30 49 H 40.667214 27.951012 49.757867 0
M  V30 50 H 35.865698 35.091365 62.849109 0
M  V30 51 H 40.565933 27.824165 52.162480 0
M  V30 52 H 36.620480 27.108069 53.054212 0
M  V30 53 H 35.867464 28.678097 52.653481 0
M  V30 54 H 36.899450 28.029472 51.525287 0
M  V30 55 H 39.396678 27.440262 59.660735 0
M  V30 56 H 38.008678 27.768046 58.659082 0
M  V30 57 H 40.674581 26.396935 54.934176 0
M  V30 58 H 39.145881 26.699415 54.140913 0
M  V30 59 H 36.671576 28.929091 54.990354 0
M  V30 60 H 36.280794 32.440250 60.643180 0
M  V30 61 H 35.079702 33.515784 59.964324 0
M  V30 62 H 40.845224 27.199666 57.606310 0
M  V30 63 H 36.423937 35.502306 60.644055 0
M  V30 64 H 40.045187 25.236133 58.652844 0
M  V30 65 H 38.398660 25.434328 58.083166 0
M  V30 66 H 39.295849 24.385684 54.748564 0
M  V30 67 H 38.003580 25.090720 55.695810 0
M  V30 68 H 40.261355 33.222254 59.219327 0
M  V30 69 H 38.984540 32.421457 50.781343 0
M  V30 70 H 40.186260 32.021429 49.524561 0
M  V30 71 H 38.876529 30.994428 49.913332 0
M  V30 72 H 40.499293 29.309453 56.381410 0
M  V30 73 H 40.264363 28.852138 54.786731 0
M  V30 74 H 36.878582 30.517108 56.549360 0
M  V30 END ATOM
M  V30 BEGIN BOND
M  V30 1 1 9 3
M  V30 2 1 11 5
M  V30 3 2 12 1
M  V30 4 1 12 3
M  V30 5 1 13 1
M  V30 6 1 14 10
M  V30 7 1 15 9
M  V30 8 1 18 1
M  V30 9 1 18 15
M  V30 10 1 18 16
M  V30 11 1 19 13
M  V30 12 1 20 2
M  V30 13 1 21 6
M  V30 14 2 22 13
M  V30 15 1 22 14
M  V30 16 1 23 7
M  V30 17 1 24 6
M  V30 18 1 24 20
M  V30 19 1 25 2
M  V30 20 1 25 8
M  V30 21 1 25 10
M  V30 22 1 26 11
M  V30 23 1 26 17
M  V30 24 1 26 23
M  V30 25 1 27 4
M  V30 26 1 27 24
M  V30 27 1 28 4
M  V30 28 1 28 21
M  V30 29 2 29 5
M  V30 30 1 25 30 CFG=1
M  V30 31 1 31 7
M  V30 32 1 31 8
M  V30 33 1 31 29
M  V30 34 1 32 3
M  V30 35 1 33 6
M  V30 36 1 33 14
M  V30 37 1 3 34 CFG=1
M  V30 38 1 35 5
M  V30 39 1 6 36 CFG=1
M  V30 40 1 37 7
M  V30 41 1 38 7
M  V30 42 1 39 8
M  V30 43 1 40 8
M  V30 44 1 41 9
M  V30 45 1 42 9
M  V30 46 1 43 10
M  V30 47 1 44 11
M  V30 48 1 45 11
M  V30 49 1 46 12
M  V30 50 1 14 47 CFG=3
M  V30 51 1 48 15
M  V30 52 1 49 15
M  V30 53 1 50 17
M  V30 54 1 18 51 CFG=1
M  V30 55 1 52 19
M  V30 56 1 53 19
M  V30 57 1 54 19
M  V30 58 1 55 20
M  V30 59 1 56 20
M  V30 60 1 57 21
M  V30 61 1 58 21
M  V30 62 1 59 22
M  V30 63 1 60 23
M  V30 64 1 61 23
M  V30 65 1 24 62 CFG=3
M  V30 66 1 26 63 CFG=3
M  V30 67 1 64 27
M  V30 68 1 65 27
M  V30 69 1 66 28
M  V30 70 1 67 28
M  V30 71 1 68 29
M  V30 72 1 69 32
M  V30 73 1 70 32
M  V30 74 1 71 32
M  V30 75 1 72 33
M  V30 76 1 73 33
M  V30 77 1 74 10
M  V30 END BOND
M  V30 END CTAB
M  END
>  <i_epik_Tot_Q>  (1) 
0

>  <i_epik_Tot_abs_Q>  (1) 
2

>  <i_i_glide_confnum>  (1) 
38

>  <i_i_glide_lignum>  (1) 
260

>  <i_i_glide_posenum>  (1) 
400

>  <i_i_glide_rotatable_bonds>  (1) 
5

>  <i_lp_mmshare_version>  (1) 
72125

>  <i_m_source_file_index>  (1) 
94

>  <i_f3d_flags>  (1) 
0

>  <num_sample>  (1) 
100

>  <b_lp_Chiralities_Consistent>  (1) 
1

>  <r_epik_Charging_Adjusted_Penalty>  (1) 
0.80501984278308969

>  <r_epik_Ionization_Penalty>  (1) 
0.072421558423421364

>  <r_epik_Ionization_Penalty_Charging>  (1) 
0.072408791886815996

>  <r_epik_Ionization_Penalty_Neutral>  (1) 
1.2766536605372598e-05

>  <r_epik_State_Penalty>  (1) 
0.73261105089627365

>  <r_glide_ring_energy>  (1) 
1.2305908303780115

>  <r_i_docking_score>  (1) 
-4.0721651304471278

>  <r_i_glide_ecoul>  (1) 
-2.1455972377237074

>  <r_i_glide_eff_state_penalty>  (1) 
0.73261105089627365

>  <r_i_glide_einternal>  (1) 
20.537318687004205

>  <r_i_glide_emodel>  (1) 
2.3434698262936688

>  <r_i_glide_emodel_strain>  (1) 
12.110898247689391

>  <r_i_glide_energy>  (1) 
-9.6460502164096766

>  <r_i_glide_erotb>  (1) 
0.31140238833871409

>  <r_i_glide_esite>  (1) 
-0.10403612751640784

>  <r_i_glide_evdw>  (1) 
-7.5004529786859688

>  <r_i_glide_gscore>  (1) 
-4.8047761813434011

>  <r_i_glide_gscore_strain>  (1) 
2.0277245619223478

>  <r_i_glide_hbond>  (1) 
-0.19499912930217694

>  <r_i_glide_ligand_efficiency>  (1) 
-0.12339894334688266

>  <r_i_glide_ligand_efficiency_ln>  (1) 
-0.90562844046881619

>  <r_i_glide_ligand_efficiency_sa>  (1) 
-0.39580634707033624

>  <r_i_glide_lipo>  (1) 
-5.2480056401930231

>  <r_i_glide_metal>  (1) 
-0

>  <r_i_glide_rewards>  (1) 
-0.90000000000000002

>  <r_lp_Energy>  (1) 
39.266486

>  <s_epik_Chemistry_Notes>  (1) 
This compound has an imine and may undergo hydrolysis.

>  <s_epik_cmdline>  (1) 
J2VwaWtfcHl0aG9uJywgJy1waHQnLCAnMS4wJywgJy1waCcsICc3LjQnLCAnLXRuJywgJzgnLCAnLW1hJywgJzUwMCcsICctaW1hZScsICc8aW5maWxlLm1hZT4nLCAnLW9tYWUnLCAnPG91dGZpbGUubWFlPic=

>  <s_epik_input>  (1) 
Q2xbQ0BIXTFbQ0gyXVtDSDJdW0NAQEhdKFtDSDNdKVtDSF09QzEvQyhbQ0gzXSk9W0NIXVxbQ0BASF0oW0NIMl0yKVtOSF1bQ0BAXShbU0hdKShTW0NIMl1bQ0BIXShbQ0BASF0yMylbQ0gyXU9bQ0gyXVtDSDJdMylbQ0gyXU4oW0NIMl1bQ0gyXTQpW0NIXT1bQ0hdW0NIMl1bQ0BASF00W09IXQ==

>  <s_glide_docking_method>  (1) 
confgen

>  <s_i_glide_gridfile>  (1) 
gpcr_5ht2c_6bqh_protein_autoprepared_prepared

>  <s_lp_Force_Field>  (1) 
S-OPLS

>  <s_lp_Variant>  (1) 
DiffSBDD_93_num_sample_100-12

>  <s_m_source_file>  (1) 
generated__ligand_DiffSBDD_2026-05-06_prepared.sdf

>  <GenAI_Model>  (1) 
DiffSBDD

>  <Protein>  (1) 
GPCR_5HT2C

$$$$
DiffSBDD_45_num_sample_100
     RDKit          3D

  0  0  0  0  0  0  0  0  0  0999 V3000
M  V30 BEGIN CTAB
M  V30 COUNTS 30 30 0 0 1
M  V30 BEGIN ATOM
M  V30 1 O 36.159367 30.816255 59.207836 0
M  V30 2 C 37.018668 29.751621 58.884611 0
M  V30 3 C 38.250874 30.283851 58.141814 0
M  V30 4 C 40.263954 30.015212 51.253628 0
M  V30 5 C 38.675497 28.340953 52.864352 0
M  V30 6 S 37.671632 27.294691 53.862078 0
M  V30 7 C 39.868960 30.444278 52.537094 0
M  V30 8 C 39.867497 28.749779 50.778877 0
M  V30 9 C 39.679489 27.213851 56.186826 0
M  V30 10 C 39.071236 29.607055 53.343696 0
M  V30 11 C 39.074074 27.911817 51.585139 0
M  V30 12 C 38.628376 28.129828 56.825107 0
M  V30 13 S 38.970904 26.122816 54.922443 0
M  V30 14 C 39.241832 29.170999 57.770303 0
M  V30 15 H 35.866560 31.226207 58.380015 0
M  V30 16 H 37.312492 29.245937 59.804623 0
M  V30 17 H 36.480145 29.028819 58.270329 0
M  V30 18 H 37.933269 30.804573 57.236820 0
M  V30 19 H 38.755507 31.026348 58.762094 0
M  V30 20 H 40.872765 30.659267 50.633551 0
M  V30 21 H 40.171311 31.414633 52.898999 0
M  V30 22 H 40.172829 28.421972 49.797483 0
M  V30 23 H 40.456416 27.813562 55.714728 0
M  V30 24 H 40.167683 26.601911 56.947528 0
M  V30 25 H 38.768161 29.938054 54.326024 0
M  V30 26 H 38.770009 26.941347 51.221460 0
M  V30 27 H 37.906589 27.529617 57.377662 0
M  V30 28 H 38.067269 28.642699 56.045400 0
M  V30 29 H 40.123047 29.612707 57.302588 0
M  V30 30 H 39.588973 28.675907 58.677547 0
M  V30 END ATOM
M  V30 BEGIN BOND
M  V30 1 1 2 1
M  V30 2 1 3 2
M  V30 3 1 6 5
M  V30 4 2 7 4
M  V30 5 1 8 4
M  V30 6 2 10 5
M  V30 7 1 10 7
M  V30 8 1 11 5
M  V30 9 2 11 8
M  V30 10 1 12 9
M  V30 11 1 13 6
M  V30 12 1 13 9
M  V30 13 1 14 3
M  V30 14 1 14 12
M  V30 15 1 15 1
M  V30 16 1 16 2
M  V30 17 1 17 2
M  V30 18 1 18 3
M  V30 19 1 19 3
M  V30 20 1 20 4
M  V30 21 1 21 7
M  V30 22 1 22 8
M  V30 23 1 23 9
M  V30 24 1 24 9
M  V30 25 1 25 10
M  V30 26 1 26 11
M  V30 27 1 27 12
M  V30 28 1 28 12
M  V30 29 1 29 14
M  V30 30 1 30 14
M  V30 END BOND
M  V30 END CTAB
M  END
>  <i_epik_Tot_Q>  (1) 
0

>  <i_epik_Tot_abs_Q>  (1) 
0

>  <i_i_glide_confnum>  (1) 
40

>  <i_i_glide_lignum>  (1) 
124

>  <i_i_glide_posenum>  (1) 
310

>  <i_i_glide_rotatable_bonds>  (1) 
8

>  <i_lp_mmshare_version>  (1) 
72125

>  <i_m_source_file_index>  (1) 
46

>  <i_f3d_flags>  (1) 
0

>  <num_sample>  (1) 
100

>  <b_lp_Chiralities_Consistent>  (1) 
1

>  <r_epik_Charging_Adjusted_Penalty>  (1) 
0

>  <r_epik_Ionization_Penalty>  (1) 
2.3568832338971596e-07

>  <r_epik_Ionization_Penalty_Charging>  (1) 
0

>  <r_epik_Ionization_Penalty_Neutral>  (1) 
2.3568832338971596e-07

>  <r_epik_State_Penalty>  (1) 
-0

>  <r_glide_ring_energy>  (1) 
0

>  <r_i_docking_score>  (1) 
-4.0635135227040511

>  <r_i_glide_ecoul>  (1) 
-7.2947858082023442

>  <r_i_glide_eff_state_penalty>  (1) 
-0

>  <r_i_glide_einternal>  (1) 
4.1115637828616682

>  <r_i_glide_emodel>  (1) 
-42.667169054913323

>  <r_i_glide_emodel_strain>  (1) 
0.13188389793811917

>  <r_i_glide_energy>  (1) 
-35.74828307676605

>  <r_i_glide_erotb>  (1) 
3.9203098885211913

>  <r_i_glide_esite>  (1) 
0

>  <r_i_glide_evdw>  (1) 
-28.453497268563709

>  <r_i_glide_gscore>  (1) 
-4.0635135227040511

>  <r_i_glide_gscore_strain>  (1) 
0

>  <r_i_glide_hbond>  (1) 
-0.16

>  <r_i_glide_ligand_efficiency>  (1) 
-0.29025096590743221

>  <r_i_glide_ligand_efficiency_ln>  (1) 
-1.1166390508977413

>  <r_i_glide_ligand_efficiency_sa>  (1) 
-0.69954612015118622

>  <r_i_glide_lipo>  (1) 
-2.9186962361772766

>  <r_i_glide_metal>  (1) 
-0

>  <r_i_glide_rewards>  (1) 
-2.3882344403894287

>  <r_lp_Energy>  (1) 
5.2512449999999999

>  <r_lp_tautomer_probability>  (1) 
1

>  <s_epik_cmdline>  (1) 
J2VwaWtfcHl0aG9uJywgJy1waHQnLCAnMS4wJywgJy1waCcsICc3LjQnLCAnLXRuJywgJzgnLCAnLW1hJywgJzUwMCcsICctaW1hZScsICc8aW5maWxlLm1hZT4nLCAnLW9tYWUnLCAnPG91dGZpbGUubWFlPic=

>  <s_epik_input>  (1) 
W09IXVtDSDJdW0NIMl1bQ0gyXVtDSDJdW0NIMl1TU2MxW2NIXVtjSF1bY0hdW2NIXVtjSF0x

>  <s_glide_docking_method>  (1) 
confgen

>  <s_i_glide_gridfile>  (1) 
gpcr_5ht2c_6bqh_protein_autoprepared_prepared

>  <s_lp_Force_Field>  (1) 
S-OPLS

>  <s_lp_Variant>  (1) 
DiffSBDD_45_num_sample_100-1

>  <s_m_source_file>  (1) 
generated__ligand_DiffSBDD_2026-05-06_prepared.sdf

>  <GenAI_Model>  (1) 
DiffSBDD

>  <Protein>  (1) 
GPCR_5HT2C

$$$$
DiffSBDD_93_num_sample_100
     RDKit          3D

  0  0  0  0  0  0  0  0  0  0999 V3000
M  V30 BEGIN CTAB
M  V30 COUNTS 74 77 0 0 1
M  V30 BEGIN ATOM
M  V30 1 C 37.195586 33.267186 60.676869 0
M  V30 2 S 41.066679 29.221407 59.453370 0
M  V30 3 C 37.640677 35.548103 61.768505 0 CFG=2
M  V30 4 O 39.130592 28.092869 54.824375 0
M  V30 5 C 41.912654 33.621360 61.897545 0
M  V30 6 C 38.262875 29.409577 57.261181 0 CFG=1
M  V30 7 C 40.325324 31.738610 63.774482 0
M  V30 8 C 41.047180 29.973875 62.214962 0
M  V30 9 C 38.575558 35.862389 60.617747 0
M  V30 10 N 39.071587 30.580732 60.761557 0
M  V30 11 C 41.867816 34.374483 63.226031 0
M  V30 12 C 36.846079 34.261328 61.544507 0
M  V30 13 C 36.280489 32.092033 60.555256 0
M  V30 14 C 38.055447 30.356250 59.719766 0 CFG=1
M  V30 15 C 39.324560 34.594610 60.253661 0
M  V30 16 Cl 37.867402 33.764842 58.125002 0
M  V30 17 O 41.067809 34.969904 65.361397 0
M  V30 18 C 38.428615 33.443301 59.783682 0 CFG=2
M  V30 19 C 34.840466 32.276349 60.924491 0
M  V30 20 C 40.063331 28.034265 58.497418 0
M  V30 21 C 37.875958 29.895563 55.843761 0
M  V30 22 C 36.664264 30.845646 60.114504 0
M  V30 23 C 40.974342 32.663250 64.778909 0
M  V30 24 C 39.583472 28.617666 57.156697 0 CFG=1
M  V30 25 C 40.139952 29.596339 60.980518 0 CFG=1
M  V30 26 C 40.840810 34.084291 64.279380 0 CFG=2
M  V30 27 C 39.437460 27.514215 56.088750 0
M  V30 28 C 37.877170 28.761024 54.807413 0
M  V30 29 C 41.601869 32.323513 61.677107 0
M  V30 30 S 39.467412 28.153352 61.694847 0
M  V30 31 N 41.105828 31.386304 62.582359 0
M  V30 32 C 36.767822 36.760812 62.106273 0
M  V30 33 C 38.355548 30.616503 58.217762 0
M  V30 34 H 38.266839 35.365072 62.642701 0
M  V30 35 H 42.267359 34.199559 61.060585 0
M  V30 36 H 37.467679 28.748689 57.607779 0
M  V30 37 H 39.384731 32.164363 63.431839 0
M  V30 38 H 40.036494 30.846757 64.328880 0
M  V30 39 H 42.040391 29.556197 62.113596 0
M  V30 40 H 40.755021 29.464619 63.134759 0
M  V30 41 H 38.023780 36.260075 59.766564 0
M  V30 42 H 39.273096 36.624425 60.960842 0
M  V30 43 H 38.611838 30.726697 61.647761 0
M  V30 44 H 41.794154 35.429739 62.959989 0
M  V30 45 H 42.844673 34.254842 63.690518 0
M  V30 46 H 35.956382 34.152509 62.147844 0
M  V30 47 H 37.891472 29.283350 59.781935 0
M  V30 48 H 40.153698 34.784726 59.573635 0
M  V30 49 H 39.745123 34.262024 61.186375 0
M  V30 50 H 41.086052 35.860670 65.038419 0
M  V30 51 H 39.111058 32.625536 59.698436 0
M  V30 52 H 34.267576 31.644369 60.253061 0
M  V30 53 H 34.667482 31.974412 61.955666 0
M  V30 54 H 34.483367 33.294082 60.767386 0
M  V30 55 H 40.729884 27.193093 58.309655 0
M  V30 56 H 39.227160 27.623837 59.057123 0
M  V30 57 H 38.577196 30.666695 55.519939 0
M  V30 58 H 36.890766 30.363076 55.853519 0
M  V30 59 H 35.896249 30.086996 60.046266 0
M  V30 60 H 42.009327 32.384667 64.983460 0
M  V30 61 H 40.436327 32.570539 65.722695 0
M  V30 62 H 40.353822 29.293328 56.787701 0
M  V30 63 H 39.867437 34.285453 63.853484 0
M  V30 64 H 40.375595 26.969873 55.979239 0
M  V30 65 H 38.677480 26.783332 56.371018 0
M  V30 66 H 37.707662 29.170543 53.810421 0
M  V30 67 H 37.078622 28.044547 54.986895 0
M  V30 68 H 41.731493 31.908508 60.690323 0
M  V30 69 H 39.052396 28.677415 62.856408 0
M  V30 70 H 36.027975 36.532836 62.873847 0
M  V30 71 H 37.378438 37.579491 62.483798 0
M  V30 72 H 36.267327 37.136911 61.216016 0
M  V30 73 H 39.286514 31.150172 58.051960 0
M  V30 74 H 37.567687 31.277950 57.870801 0
M  V30 END ATOM
M  V30 BEGIN BOND
M  V30 1 1 9 3
M  V30 2 1 11 5
M  V30 3 2 12 1
M  V30 4 1 12 3
M  V30 5 1 13 1
M  V30 6 1 14 10
M  V30 7 1 15 9
M  V30 8 1 18 1
M  V30 9 1 18 15
M  V30 10 1 18 16
M  V30 11 1 19 13
M  V30 12 1 20 2
M  V30 13 1 21 6
M  V30 14 2 22 13
M  V30 15 1 22 14
M  V30 16 1 23 7
M  V30 17 1 24 6
M  V30 18 1 24 20
M  V30 19 1 25 2
M  V30 20 1 25 8
M  V30 21 1 25 10
M  V30 22 1 26 11
M  V30 23 1 26 17
M  V30 24 1 26 23
M  V30 25 1 27 4
M  V30 26 1 27 24
M  V30 27 1 28 4
M  V30 28 1 28 21
M  V30 29 2 29 5
M  V30 30 1 25 30 CFG=1
M  V30 31 1 31 7
M  V30 32 1 31 8
M  V30 33 1 31 29
M  V30 34 1 32 3
M  V30 35 1 33 6
M  V30 36 1 33 14
M  V30 37 1 3 34 CFG=1
M  V30 38 1 35 5
M  V30 39 1 6 36 CFG=1
M  V30 40 1 37 7
M  V30 41 1 38 7
M  V30 42 1 39 8
M  V30 43 1 40 8
M  V30 44 1 41 9
M  V30 45 1 42 9
M  V30 46 1 43 10
M  V30 47 1 44 11
M  V30 48 1 45 11
M  V30 49 1 46 12
M  V30 50 1 14 47 CFG=3
M  V30 51 1 48 15
M  V30 52 1 49 15
M  V30 53 1 50 17
M  V30 54 1 18 51 CFG=3
M  V30 55 1 52 19
M  V30 56 1 53 19
M  V30 57 1 54 19
M  V30 58 1 55 20
M  V30 59 1 56 20
M  V30 60 1 57 21
M  V30 61 1 58 21
M  V30 62 1 59 22
M  V30 63 1 60 23
M  V30 64 1 61 23
M  V30 65 1 24 62 CFG=3
M  V30 66 1 26 63 CFG=3
M  V30 67 1 64 27
M  V30 68 1 65 27
M  V30 69 1 66 28
M  V30 70 1 67 28
M  V30 71 1 68 29
M  V30 72 1 69 30
M  V30 73 1 70 32
M  V30 74 1 71 32
M  V30 75 1 72 32
M  V30 76 1 73 33
M  V30 77 1 74 33
M  V30 END BOND
M  V30 END CTAB
M  END
>  <i_epik_Tot_Q>  (1) 
0

>  <i_epik_Tot_abs_Q>  (1) 
0

>  <i_i_glide_confnum>  (1) 
176

>  <i_i_glide_lignum>  (1) 
250

>  <i_i_glide_posenum>  (1) 
171

>  <i_i_glide_rotatable_bonds>  (1) 
6

>  <i_lp_mmshare_version>  (1) 
72125

>  <i_m_source_file_index>  (1) 
94

>  <i_f3d_flags>  (1) 
0

>  <num_sample>  (1) 
100

>  <b_lp_Chiralities_Consistent>  (1) 
1

>  <r_epik_Charging_Adjusted_Penalty>  (1) 
0.20325292957253988

>  <r_epik_Ionization_Penalty>  (1) 
0.031936562948065232

>  <r_epik_Ionization_Penalty_Charging>  (1) 
3.6030848355623751e-07

>  <r_epik_Ionization_Penalty_Neutral>  (1) 
0.031936202639581676

>  <r_epik_State_Penalty>  (1) 
0.20325256926405633

>  <r_glide_ring_energy>  (1) 
0

>  <r_i_docking_score>  (1) 
-4.0545312437506409

>  <r_i_glide_ecoul>  (1) 
-1.1292339162357643

>  <r_i_glide_eff_state_penalty>  (1) 
0.20325256926405633

>  <r_i_glide_einternal>  (1) 
23.989076706482376

>  <r_i_glide_emodel>  (1) 
-4.7963086018775574

>  <r_i_glide_emodel_strain>  (1) 
1.2900935679724341

>  <r_i_glide_energy>  (1) 
-11.50497304945581

>  <r_i_glide_erotb>  (1) 
0.31140238833871409

>  <r_i_glide_esite>  (1) 
0

>  <r_i_glide_evdw>  (1) 
-10.375739133220046

>  <r_i_glide_gscore>  (1) 
-4.2577838130146972

>  <r_i_glide_gscore_strain>  (1) 
0

>  <r_i_glide_hbond>  (1) 
-0.26365226178893519

>  <r_i_glide_ligand_efficiency>  (1) 
-0.12286458314395882

>  <r_i_glide_ligand_efficiency_ln>  (1) 
-0.9017067553708964

>  <r_i_glide_ligand_efficiency_sa>  (1) 
-0.39409236837487449

>  <r_i_glide_lipo>  (1) 
-2.7651740617702814

>  <r_i_glide_metal>  (1) 
-0

>  <r_i_glide_rewards>  (1) 
-0.85218783369782813

>  <r_lp_Energy>  (1) 
33.420006000000001

>  <s_epik_Chemistry_Notes>  (1) 
This compound has an imine and may undergo hydrolysis.

>  <s_epik_cmdline>  (1) 
J2VwaWtfcHl0aG9uJywgJy1waHQnLCAnMS4wJywgJy1waCcsICc3LjQnLCAnLXRuJywgJzgnLCAnLW1hJywgJzUwMCcsICctaW1hZScsICc8aW5maWxlLm1hZT4nLCAnLW9tYWUnLCAnPG91dGZpbGUubWFlPic=

>  <s_epik_input>  (1) 
Q2xbQ0BIXTFbQ0gyXVtDSDJdW0NAQEhdKFtDSDNdKVtDSF09QzEvQyhbQ0gzXSk9W0NIXVxbQ0BASF0oW0NIMl0yKVtOSF1bQ0BAXShbU0hdKShTW0NIMl1bQ0BIXShbQ0BASF0yMylbQ0gyXU9bQ0gyXVtDSDJdMylbQ0gyXU4oW0NIMl1bQ0gyXTQpW0NIXT1bQ0hdW0NIMl1bQ0BASF00W09IXQ==

>  <s_glide_docking_method>  (1) 
confgen

>  <s_i_glide_gridfile>  (1) 
gpcr_5ht2c_6bqh_protein_autoprepared_prepared

>  <s_lp_Force_Field>  (1) 
S-OPLS

>  <s_lp_Variant>  (1) 
DiffSBDD_93_num_sample_100-2

>  <s_m_source_file>  (1) 
generated__ligand_DiffSBDD_2026-05-06_prepared.sdf

>  <GenAI_Model>  (1) 
DiffSBDD

>  <Protein>  (1) 
GPCR_5HT2C

$$$$
DiffSBDD_90_num_sample_100
     RDKit          3D

  0  0  0  0  0  0  0  0  0  0999 V3000
M  V30 BEGIN CTAB
M  V30 COUNTS 85 88 0 0 1
M  V30 BEGIN ATOM
M  V30 1 C 40.564773 29.618984 59.297157 0
M  V30 2 O 37.980637 32.524723 58.122900 0
M  V30 3 F 38.849800 23.705049 56.401984 0
M  V30 4 C 38.549886 29.725012 55.098495 0 CFG=1
M  V30 5 C 37.154250 34.794988 60.198381 0 CFG=2
M  V30 6 C 35.931567 32.846075 61.075257 0 CFG=1
M  V30 7 C 40.121044 30.717854 52.556899 0
M  V30 8 C 37.552982 30.893848 60.866103 0
M  V30 9 C 38.823428 31.190477 54.650717 0
M  V30 10 N 37.462895 33.840878 57.911864 0
M  V30 11 C 38.084868 25.166407 57.920490 0
M  V30 12 C 37.531590 32.005444 54.748777 0
M  V30 13 C 36.369874 34.262139 61.394876 0
M  V30 14 C 35.657869 32.909907 59.556361 0
M  V30 15 O 37.489533 36.941582 61.203881 0
M  V30 16 N 39.201284 29.112393 59.121407 0 CFG=1 CHG=1
M  V30 17 C 36.973118 31.854493 61.601960 0
M  V30 18 F 40.267185 24.421344 57.853853 0
M  V30 19 C 38.854850 26.475556 55.357536 0 CFG=1
M  V30 20 N 39.097770 28.087334 58.076201 0
M  V30 21 C 37.066562 25.846019 57.021503 0
M  V30 22 C 38.667382 28.710815 60.431785 0
M  V30 23 O 39.067227 31.340931 53.254132 0
M  V30 24 C 39.927238 31.871803 55.463511 0
M  V30 25 C 40.517933 30.815838 60.271108 0
M  V30 26 C 39.921468 25.768756 56.155866 0
M  V30 27 C 38.583360 29.908217 61.404840 0 CFG=1
M  V30 28 C 36.497708 34.093724 58.987237 0 CFG=1
M  V30 29 C 39.793048 28.834846 55.066828 0
M  V30 30 O 36.805868 36.893608 59.088203 0 CHG=-1
M  V30 31 C 37.923552 28.231311 57.201677 0 CFG=1
M  V30 32 C 39.966382 30.478356 61.625806 0
M  V30 33 O 38.493222 34.322250 60.311754 0
M  V30 34 C 37.829656 29.588710 56.464681 0
M  V30 35 C 37.723182 27.001195 56.255877 0 CFG=1
M  V30 36 C 39.435200 27.492145 54.382837 0
M  V30 37 C 39.277451 24.748618 57.078055 0
M  V30 38 C 37.149235 36.345564 60.158179 0
M  V30 39 H 40.923223 29.869391 58.301547 0
M  V30 40 H 41.222377 28.831637 59.666630 0
M  V30 41 H 37.228601 32.020945 57.824495 0
M  V30 42 H 37.841550 29.354406 54.357128 0
M  V30 43 H 35.000341 32.617241 61.595218 0
M  V30 44 H 41.067405 31.126710 52.895675 0
M  V30 45 H 40.093466 29.633421 52.620157 0
M  V30 46 H 40.007356 30.945304 51.499680 0
M  V30 47 H 37.289308 30.787342 59.825898 0
M  V30 48 H 36.966058 33.732151 57.034530 0
M  V30 49 H 37.636933 24.297414 58.398974 0
M  V30 50 H 38.378375 25.814161 58.738229 0
M  V30 51 H 37.231001 32.141487 55.775585 0
M  V30 52 H 37.642820 32.994636 54.310649 0
M  V30 53 H 36.703165 31.501198 54.254501 0
M  V30 54 H 35.467404 34.822038 61.598113 0
M  V30 55 H 37.002315 34.316479 62.253451 0
M  V30 56 H 34.610880 33.172588 59.409153 0
M  V30 57 H 35.749313 31.950572 59.054268 0
M  V30 58 H 37.244625 31.958755 62.643924 0
M  V30 59 H 38.415243 25.690133 54.737272 0
M  V30 60 H 39.016169 27.254478 58.644039 0
M  V30 61 H 36.629789 25.126270 56.322812 0
M  V30 62 H 36.267592 26.219109 57.652755 0
M  V30 63 H 39.227962 27.873748 60.850833 0
M  V30 64 H 37.658168 28.421302 60.212711 0
M  V30 65 H 39.884905 31.572218 56.504446 0
M  V30 66 H 40.917844 31.614422 55.082508 0
M  V30 67 H 39.812349 32.953975 55.461739 0
M  V30 68 H 39.866580 31.595282 59.865234 0
M  V30 69 H 41.508761 31.231381 60.427102 0
M  V30 70 H 40.618031 25.266790 55.485728 0
M  V30 71 H 40.535615 26.466055 56.721307 0
M  V30 72 H 38.267510 29.621572 62.403237 0
M  V30 73 H 35.766210 34.781912 58.557759 0
M  V30 74 H 40.610554 29.399608 54.653544 0
M  V30 75 H 40.225645 28.679571 56.042603 0
M  V30 76 H 37.077802 28.238964 57.888279 0
M  V30 77 H 39.923118 31.367044 62.258296 0
M  V30 78 H 40.608059 29.747730 62.123848 0
M  V30 79 H 38.701330 34.019204 59.432764 0
M  V30 80 H 36.769450 29.793657 56.295428 0
M  V30 81 H 38.151206 30.366638 57.135948 0
M  V30 82 H 37.067715 27.306178 55.463169 0
M  V30 83 H 38.742557 27.626986 53.552760 0
M  V30 84 H 40.267411 27.000008 53.907762 0
M  V30 85 H 38.638053 29.883458 58.784619 0
M  V30 END ATOM
M  V30 BEGIN BOND
M  V30 1 1 9 4
M  V30 2 1 10 2
M  V30 3 1 12 9
M  V30 4 1 13 5
M  V30 5 1 13 6
M  V30 6 1 14 6
M  V30 7 1 16 1
M  V30 8 1 17 6
M  V30 9 2 17 8
M  V30 10 1 20 16
M  V30 11 1 21 11
M  V30 12 1 22 16
M  V30 13 1 23 7
M  V30 14 1 23 9
M  V30 15 1 24 9
M  V30 16 1 25 1
M  V30 17 1 26 19
M  V30 18 1 27 8
M  V30 19 1 27 22
M  V30 20 1 28 5
M  V30 21 1 28 10
M  V30 22 1 28 14
M  V30 23 1 29 4
M  V30 24 1 31 20
M  V30 25 1 32 25
M  V30 26 1 32 27
M  V30 27 1 5 33 CFG=1
M  V30 28 1 34 4
M  V30 29 1 34 31
M  V30 30 1 35 19
M  V30 31 1 35 21
M  V30 32 1 35 31
M  V30 33 1 36 19
M  V30 34 1 36 29
M  V30 35 1 37 3
M  V30 36 1 37 11
M  V30 37 1 37 18
M  V30 38 1 37 26
M  V30 39 1 38 5
M  V30 40 2 38 15
M  V30 41 1 38 30
M  V30 42 1 39 1
M  V30 43 1 40 1
M  V30 44 1 41 2
M  V30 45 1 4 42 CFG=3
M  V30 46 1 6 43 CFG=1
M  V30 47 1 44 7
M  V30 48 1 45 7
M  V30 49 1 46 7
M  V30 50 1 47 8
M  V30 51 1 48 10
M  V30 52 1 49 11
M  V30 53 1 50 11
M  V30 54 1 51 12
M  V30 55 1 52 12
M  V30 56 1 53 12
M  V30 57 1 54 13
M  V30 58 1 55 13
M  V30 59 1 56 14
M  V30 60 1 57 14
M  V30 61 1 58 17
M  V30 62 1 19 59 CFG=3
M  V30 63 1 60 20
M  V30 64 1 61 21
M  V30 65 1 62 21
M  V30 66 1 63 22
M  V30 67 1 64 22
M  V30 68 1 65 24
M  V30 69 1 66 24
M  V30 70 1 67 24
M  V30 71 1 68 25
M  V30 72 1 69 25
M  V30 73 1 70 26
M  V30 74 1 71 26
M  V30 75 1 27 72 CFG=1
M  V30 76 1 28 73 CFG=3
M  V30 77 1 74 29
M  V30 78 1 75 29
M  V30 79 1 31 76 CFG=1
M  V30 80 1 77 32
M  V30 81 1 78 32
M  V30 82 1 79 33
M  V30 83 1 80 34
M  V30 84 1 81 34
M  V30 85 1 35 82 CFG=3
M  V30 86 1 83 36
M  V30 87 1 84 36
M  V30 88 1 16 85 CFG=3
M  V30 END BOND
M  V30 END CTAB
M  END
>  <i_epik_Tot_Q>  (1) 
0

>  <i_epik_Tot_abs_Q>  (1) 
2

>  <i_i_glide_confnum>  (1) 
41

>  <i_i_glide_lignum>  (1) 
243

>  <i_i_glide_posenum>  (1) 
234

>  <i_i_glide_rotatable_bonds>  (1) 
10

>  <i_lp_mmshare_version>  (1) 
72125

>  <i_m_source_file_index>  (1) 
91

>  <i_f3d_flags>  (1) 
0

>  <num_sample>  (1) 
100

>  <b_lp_Chiralities_Consistent>  (1) 
1

>  <r_epik_Charging_Adjusted_Penalty>  (1) 
1.5083745474312953

>  <r_epik_Ionization_Penalty>  (1) 
0.65750586125956467

>  <r_epik_Ionization_Penalty_Charging>  (1) 
0.6544614066189578

>  <r_epik_Ionization_Penalty_Neutral>  (1) 
0.0030444546406068235

>  <r_epik_State_Penalty>  (1) 
0.8539131408123376

>  <r_glide_ring_energy>  (1) 
0.48000684916914799

>  <r_i_docking_score>  (1) 
-4.046826545468714

>  <r_i_glide_ecoul>  (1) 
-3.2809443402879994

>  <r_i_glide_eff_state_penalty>  (1) 
0.8539131408123376

>  <r_i_glide_einternal>  (1) 
15.879965417547744

>  <r_i_glide_emodel>  (1) 
-0.44034869774689867

>  <r_i_glide_emodel_strain>  (1) 
4.2328392471597027

>  <r_i_glide_energy>  (1) 
-6.3153041832392827

>  <r_i_glide_erotb>  (1) 
0.42002339013477186

>  <r_i_glide_esite>  (1) 
-0.14947088841304848

>  <r_i_glide_evdw>  (1) 
-3.0343598429512837

>  <r_i_glide_gscore>  (1) 
-4.9007396862810513

>  <r_i_glide_gscore_strain>  (1) 
0.058209811789925681

>  <r_i_glide_hbond>  (1) 
-0.17193840870328866

>  <r_i_glide_ligand_efficiency>  (1) 
-0.10649543540707142

>  <r_i_glide_ligand_efficiency_ln>  (1) 
-0.87261484877889017

>  <r_i_glide_ligand_efficiency_sa>  (1) 
-0.35803503477492171

>  <r_i_glide_lipo>  (1) 
-3.3957953168789476

>  <r_i_glide_metal>  (1) 
-0

>  <r_i_glide_rewards>  (1) 
-1.0179086310197003

>  <r_lp_Energy>  (1) 
44.827317999999998

>  <s_epik_Chemistry_Notes>  (1) 
This compound has a N-S or N-O group and may undergo hydrolysis at high or low pH.

>  <s_epik_cmdline>  (1) 
J2VwaWtfcHl0aG9uJywgJy1waHQnLCAnMS4wJywgJy1waCcsICc3LjQnLCAnLXRuJywgJzgnLCAnLW1hJywgJzUwMCcsICctaW1hZScsICc8aW5maWxlLm1hZT4nLCAnLW9tYWUnLCAnPG91dGZpbGUubWFlPic=

>  <s_epik_input>  (1) 
RkMoRikoW0NIMl0xKVtDSDJdW0NIMl1bQ0BIXShbQ0BASF0xMilbQ0BIXShbQ0gyXVtDQEhdKFtDSDJdW0NIMl0yKUMoW0NIM10pKFtDSDNdKU9bQ0gzXSlbTkhdTjNbQ0gyXVtDSDJdW0NIMl1bQ0BIXShbQ0gyXTMpL1tDSF09W0NIXS9bQ0BASF0oW0NIMl1bQ0BdNChbT0hdKUMoPU8pW09IXSlbQ0gyXVtDQEBIXTRbTkhdW09IXQ==

>  <s_glide_docking_method>  (1) 
confgen

>  <s_i_glide_gridfile>  (1) 
gpcr_5ht2c_6bqh_protein_autoprepared_prepared

>  <s_lp_Force_Field>  (1) 
S-OPLS

>  <s_lp_Variant>  (1) 
DiffSBDD_90_num_sample_100-15

>  <s_m_source_file>  (1) 
generated__ligand_DiffSBDD_2026-05-06_prepared.sdf

>  <GenAI_Model>  (1) 
DiffSBDD

>  <Protein>  (1) 
GPCR_5HT2C

$$$$
DiffSBDD_60_num_sample_100
     RDKit          3D

  0  0  0  0  0  0  0  0  0  0999 V3000
M  V30 BEGIN CTAB
M  V30 COUNTS 74 76 0 0 1
M  V30 BEGIN ATOM
M  V30 1 C 38.877506 28.420056 52.125985 0
M  V30 2 C 41.643809 35.220034 64.998730 0
M  V30 3 C 41.976295 33.854292 65.042140 0
M  V30 4 C 38.296150 30.850845 57.603072 0
M  V30 5 N 38.047892 26.894003 53.287863 0
M  V30 6 C 40.188096 30.976064 52.909607 0
M  V30 7 C 39.542950 30.358958 61.936961 0
M  V30 8 C 36.568428 29.417269 58.862147 0
M  V30 9 C 37.927840 30.139887 58.941173 0 CFG=2
M  V30 10 C 38.386550 27.595541 55.651637 0
M  V30 11 C 39.321113 31.877355 61.704852 0 CFG=1
M  V30 12 O 37.627506 31.124873 54.653498 0
M  V30 13 C 37.402004 33.200928 60.446971 0 CFG=1
M  V30 14 C 37.895325 34.605567 60.797305 0
M  V30 15 C 38.776606 29.933325 56.451547 0 CFG=1
M  V30 16 N 37.867415 28.804755 56.277559 0
M  V30 17 C 40.674430 32.650449 61.631662 0
M  V30 18 C 38.515571 27.792457 54.193459 0
M  V30 19 C 39.734079 30.045103 54.030209 0 CFG=1
M  V30 20 C 38.910318 30.748310 55.133929 0 CFG=1
M  V30 21 O 42.606188 33.340927 66.137857 0
M  V30 22 C 41.660759 33.017728 63.953048 0
M  V30 23 C 39.067412 28.810581 53.493633 0
M  V30 24 C 35.096716 33.344091 61.184008 0
M  V30 25 C 34.421513 32.966903 59.853661 0
M  V30 26 C 40.999708 35.751373 63.866108 0
M  V30 27 C 38.486786 32.102579 60.397355 0 CFG=2
M  V30 28 O 37.669016 30.987973 60.057106 0
M  V30 29 N 38.267400 27.247531 52.014019 0
M  V30 30 C 40.343392 29.961439 63.180578 0
M  V30 31 C 41.011245 33.548956 62.817870 0
M  V30 32 C 40.687856 34.920806 62.777005 0
M  V30 33 O 36.389226 32.776876 61.363403 0
M  V30 34 H 39.168388 28.942370 51.226671 0
M  V30 35 H 41.885617 35.863011 65.833006 0
M  V30 36 H 37.467381 31.471481 57.284089 0
M  V30 37 H 39.108994 31.553383 57.743864 0
M  V30 38 H 40.667470 30.451860 52.084366 0
M  V30 39 H 40.938367 31.621431 53.331393 0
M  V30 40 H 39.386547 31.593451 52.511399 0
M  V30 41 H 40.020711 29.917145 61.063218 0
M  V30 42 H 38.570157 29.879058 62.034324 0
M  V30 43 H 36.619277 28.462281 58.344621 0
M  V30 44 H 35.823463 30.021553 58.346982 0
M  V30 45 H 36.171150 29.221389 59.853445 0
M  V30 46 H 38.714853 29.437437 59.214744 0
M  V30 47 H 39.347051 27.317576 56.087333 0
M  V30 48 H 37.706084 26.766128 55.849523 0
M  V30 49 H 38.739883 32.257849 62.546076 0
M  V30 50 H 37.152001 31.571300 55.344992 0
M  V30 51 H 37.001035 33.247345 59.435058 0
M  V30 52 H 38.784111 34.863403 60.223513 0
M  V30 53 H 38.118878 34.678109 61.858361 0
M  V30 54 H 37.141610 35.358718 60.572926 0
M  V30 55 H 39.758904 29.558301 56.741223 0
M  V30 56 H 37.108539 29.152113 55.695693 0
M  V30 57 H 41.505089 31.968758 61.451080 0
M  V30 58 H 40.667297 33.308576 60.766187 0
M  V30 59 H 40.646166 29.744632 54.547371 0
M  V30 60 H 39.435498 31.674458 55.376589 0
M  V30 61 H 41.921056 31.975893 63.987289 0
M  V30 62 H 35.148709 34.421378 61.293520 0
M  V30 63 H 34.471758 32.993191 62.003953 0
M  V30 64 H 33.377141 33.278980 59.852394 0
M  V30 65 H 34.449092 31.891884 59.682636 0
M  V30 66 H 34.894987 33.450432 59.000788 0
M  V30 67 H 40.747279 36.800872 63.832816 0
M  V30 68 H 39.170889 32.346852 59.594439 0
M  V30 69 H 37.575137 26.032459 53.519893 0
M  V30 70 H 40.267450 28.889174 63.359207 0
M  V30 71 H 39.981271 30.471071 64.073417 0
M  V30 72 H 41.402858 30.165630 63.047938 0
M  V30 73 H 40.204118 35.337330 61.910127 0
M  V30 74 H 42.751435 32.409167 66.081407 0
M  V30 END ATOM
M  V30 BEGIN BOND
M  V30 1 2 3 2
M  V30 2 1 9 4
M  V30 3 1 9 8
M  V30 4 1 11 7
M  V30 5 1 14 13
M  V30 6 1 15 4
M  V30 7 1 16 10
M  V30 8 1 16 15
M  V30 9 1 17 11
M  V30 10 1 18 5
M  V30 11 1 18 10
M  V30 12 1 19 6
M  V30 13 1 20 12
M  V30 14 1 20 15
M  V30 15 1 20 19
M  V30 16 1 21 3
M  V30 17 1 22 3
M  V30 18 1 23 1
M  V30 19 2 23 18
M  V30 20 1 23 19
M  V30 21 1 25 24
M  V30 22 1 26 2
M  V30 23 1 27 11
M  V30 24 1 27 13
M  V30 25 1 28 9
M  V30 26 1 28 27
M  V30 27 2 29 1
M  V30 28 1 29 5
M  V30 29 1 30 7
M  V30 30 1 31 17
M  V30 31 2 31 22
M  V30 32 2 32 26
M  V30 33 1 32 31
M  V30 34 1 33 13
M  V30 35 1 33 24
M  V30 36 1 34 1
M  V30 37 1 35 2
M  V30 38 1 36 4
M  V30 39 1 37 4
M  V30 40 1 38 6
M  V30 41 1 39 6
M  V30 42 1 40 6
M  V30 43 1 41 7
M  V30 44 1 42 7
M  V30 45 1 43 8
M  V30 46 1 44 8
M  V30 47 1 45 8
M  V30 48 1 9 46 CFG=1
M  V30 49 1 47 10
M  V30 50 1 48 10
M  V30 51 1 11 49 CFG=1
M  V30 52 1 50 12
M  V30 53 1 13 51 CFG=3
M  V30 54 1 52 14
M  V30 55 1 53 14
M  V30 56 1 54 14
M  V30 57 1 15 55 CFG=1
M  V30 58 1 56 16
M  V30 59 1 57 17
M  V30 60 1 58 17
M  V30 61 1 19 59 CFG=1
M  V30 62 1 20 60 CFG=1
M  V30 63 1 61 22
M  V30 64 1 62 24
M  V30 65 1 63 24
M  V30 66 1 64 25
M  V30 67 1 65 25
M  V30 68 1 66 25
M  V30 69 1 67 26
M  V30 70 1 27 68 CFG=3
M  V30 71 1 69 5
M  V30 72 1 70 30
M  V30 73 1 71 30
M  V30 74 1 72 30
M  V30 75 1 73 32
M  V30 76 1 74 21
M  V30 END BOND
M  V30 END CTAB
M  END
>  <i_epik_Tot_Q>  (1) 
0

>  <i_epik_Tot_abs_Q>  (1) 
0

>  <i_i_glide_confnum>  (1) 
2001

>  <i_i_glide_lignum>  (1) 
154

>  <i_i_glide_posenum>  (1) 
262

>  <i_i_glide_rotatable_bonds>  (1) 
13

>  <i_lp_mmshare_version>  (1) 
72125

>  <i_m_source_file_index>  (1) 
61

>  <i_f3d_flags>  (1) 
0

>  <num_sample>  (1) 
100

>  <b_lp_Chiralities_Consistent>  (1) 
1

>  <r_epik_Charging_Adjusted_Penalty>  (1) 
0.96999093632078437

>  <r_epik_Ionization_Penalty>  (1) 
0.47106789062039978

>  <r_epik_Ionization_Penalty_Charging>  (1) 
0

>  <r_epik_Ionization_Penalty_Neutral>  (1) 
0.47106789062039978

>  <r_epik_State_Penalty>  (1) 
0.96999093632078437

>  <r_glide_ring_energy>  (1) 
0

>  <r_i_docking_score>  (1) 
-4.0439025527473822

>  <r_i_glide_ecoul>  (1) 
-2.9648903055109179

>  <r_i_glide_eff_state_penalty>  (1) 
0.96999093632078437

>  <r_i_glide_einternal>  (1) 
9.0021473595539412

>  <r_i_glide_emodel>  (1) 
-50.135951329464298

>  <r_i_glide_emodel_strain>  (1) 
6.1461687437947106

>  <r_i_glide_energy>  (1) 
-45.243509547956563

>  <r_i_glide_erotb>  (1) 
0.85721886193159891

>  <r_i_glide_esite>  (1) 
0

>  <r_i_glide_evdw>  (1) 
-42.278619242445643

>  <r_i_glide_gscore>  (1) 
-5.0138934890681668

>  <r_i_glide_gscore_strain>  (1) 
0.53654218594867764

>  <r_i_glide_hbond>  (1) 
-0.024172755861000584

>  <r_i_glide_ligand_efficiency>  (1) 
-0.12254250159840552

>  <r_i_glide_ligand_efficiency_ln>  (1) 
-0.89934298952418834

>  <r_i_glide_ligand_efficiency_sa>  (1) 
-0.39305928076045415

>  <r_i_glide_lipo>  (1) 
-3.3276292593774177

>  <r_i_glide_metal>  (1) 
-0

>  <r_i_glide_rewards>  (1) 
-0.49718801376110455

>  <r_lp_Energy>  (1) 
22.684680999999998

>  <r_lp_tautomer_probability>  (1) 
0.49999999999868239

>  <s_epik_cmdline>  (1) 
J2VwaWtfcHl0aG9uJywgJy1waHQnLCAnMS4wJywgJy1waCcsICc3LjQnLCAnLXRuJywgJzgnLCAnLW1hJywgJzUwMCcsICctaW1hZScsICc8aW5maWxlLm1hZT4nLCAnLW9tYWUnLCAnPG91dGZpbGUubWFlPic=

>  <s_epik_input>  (1) 
bjFbbkhdW2NIXWMoYzEyKVtDQEBIXShbQ0gzXSlbQ0BASF0oW09IXSlbQ0BIXShbTkhdW0NIMl0yKVtDSDJdW0NASF0oW0NIM10pT1tDQEBIXShbQ0BIXShbQ0gzXSlPW0NIMl1bQ0gzXSlbQ0BASF0oW0NIMl1bQ0gzXSlbQ0gyXUMoPVtDSF0zKVtDSDJdW0NIXT1bQ0hdQzM9Tw==

>  <s_glide_docking_method>  (1) 
confgen

>  <s_i_glide_gridfile>  (1) 
gpcr_5ht2c_6bqh_protein_autoprepared_prepared

>  <s_lp_Force_Field>  (1) 
S-OPLS

>  <s_lp_Variant>  (1) 
DiffSBDD_60_num_sample_100-3

>  <s_m_source_file>  (1) 
generated__ligand_DiffSBDD_2026-05-06_prepared.sdf

>  <GenAI_Model>  (1) 
DiffSBDD

>  <Protein>  (1) 
GPCR_5HT2C

$$$$
DiffSBDD_15_num_sample_100
     RDKit          3D

  0  0  0  0  0  0  0  0  0  0999 V3000
M  V30 BEGIN CTAB
M  V30 COUNTS 74 79 0 0 1
M  V30 BEGIN ATOM
M  V30 1 C 49.713256 21.377040 57.146640 0
M  V30 2 S 49.581022 20.821502 61.269633 0
M  V30 3 N 51.631070 24.310884 50.554839 0
M  V30 4 C 53.077537 17.588304 65.611919 0
M  V30 5 C 52.070292 27.316695 51.011392 0
M  V30 6 C 49.713814 21.006238 49.814848 0
M  V30 7 S 51.897559 21.296465 52.878959 0
M  V30 8 S 51.547064 26.356110 52.464877 0
M  V30 9 O 53.266721 21.803705 53.053500 0
M  V30 10 C 52.071418 18.426198 62.958953 0
M  V30 11 C 51.600990 19.140423 64.000027 0
M  V30 12 C 50.122445 20.510151 59.553864 0 CFG=1
M  V30 13 C 50.120692 22.468398 49.740599 0 CFG=1
M  V30 14 N 51.433653 18.806112 61.793229 0
M  V30 15 C 50.921187 27.573705 50.021889 0
M  V30 16 C 51.429746 28.041751 48.653721 0
M  V30 17 C 51.302971 22.850366 50.648997 0 CFG=2
M  V30 18 C 53.341833 20.717895 57.460968 0
M  V30 19 S 52.033976 19.091187 65.680767 0
M  V30 20 C 53.128059 17.376658 62.990922 0
M  V30 21 N 51.067427 23.766657 52.647299 0
M  V30 22 C 51.224604 21.637199 57.072548 0 CFG=2
M  V30 23 N 50.376044 22.821532 48.353439 0
M  V30 24 O 47.904857 20.966342 58.653884 0
M  V30 25 C 53.936517 17.482571 64.316042 0
M  V30 26 C 51.072114 21.122568 54.520908 0
M  V30 27 C 49.249733 21.391611 58.615155 0 CFG=2
M  V30 28 N 50.979786 22.543910 52.101866 0
M  V30 29 C 51.921587 21.663148 55.694398 0 CFG=2
M  V30 30 C 49.270555 23.486685 49.018001 0
M  V30 31 C 51.425791 24.685805 51.754983 0
M  V30 32 C 53.243863 20.899088 55.941413 0
M  V30 33 O 51.664270 20.055989 52.126549 0
M  V30 34 C 50.631287 19.789122 62.229510 0
M  V30 35 N 51.936013 20.640410 57.881218 0 CFG=2 CHG=1
M  V30 36 O 50.655756 20.020631 63.578774 0
M  V30 37 C 51.633915 20.792686 59.321644 0
M  V30 38 H 49.473825 20.418698 56.690910 0
M  V30 39 H 49.168000 22.134955 56.582491 0
M  V30 40 H 53.717952 17.577022 66.494163 0
M  V30 41 H 52.426352 16.716937 65.686308 0
M  V30 42 H 52.479462 28.268315 51.351367 0
M  V30 43 H 52.888174 26.788086 50.521084 0
M  V30 44 H 49.379625 20.753133 50.820790 0
M  V30 45 H 48.893799 20.791912 49.129088 0
M  V30 46 H 50.555707 20.362523 49.557549 0
M  V30 47 H 49.931720 19.458849 59.332682 0
M  V30 48 H 50.333584 26.668435 49.876989 0
M  V30 49 H 50.236648 28.312214 50.439653 0
M  V30 50 H 50.602395 28.274677 47.985577 0
M  V30 51 H 52.047088 28.935312 48.742217 0
M  V30 52 H 52.030691 27.267895 48.175842 0
M  V30 53 H 52.174670 22.264382 50.347790 0
M  V30 54 H 53.907776 19.829033 57.742703 0
M  V30 55 H 53.818126 21.587646 57.917859 0
M  V30 56 H 52.659202 16.398535 62.923092 0
M  V30 57 H 53.794926 17.466163 62.133222 0
M  V30 58 H 50.875924 23.939723 53.622327 0
M  V30 59 H 51.445902 22.590748 57.551276 0
M  V30 60 H 50.115359 22.136422 47.648066 0
M  V30 61 H 47.602547 21.014053 59.549993 0
M  V30 62 H 54.581226 18.361782 64.264947 0
M  V30 63 H 54.606743 16.626596 64.392890 0
M  V30 64 H 50.858425 20.062532 54.654119 0
M  V30 65 H 50.109363 21.626448 54.444568 0
M  V30 66 H 49.279112 22.421426 58.970487 0
M  V30 67 H 52.161757 22.703366 55.466700 0
M  V30 68 H 48.267504 23.203254 48.708128 0
M  V30 69 H 49.396483 24.541970 49.248976 0
M  V30 70 H 53.210777 19.919544 55.461675 0
M  V30 71 H 54.111274 21.423971 55.539220 0
M  V30 72 H 52.274810 20.101058 59.861243 0
M  V30 73 H 51.898580 21.795152 59.663622 0
M  V30 74 H 51.607553 19.729195 57.594417 0
M  V30 END ATOM
M  V30 BEGIN BOND
M  V30 1 1 8 5
M  V30 2 2 9 7
M  V30 3 2 11 10
M  V30 4 1 12 2
M  V30 5 1 13 6 CFG=3
M  V30 6 1 14 10
M  V30 7 1 15 5
M  V30 8 1 16 15
M  V30 9 1 17 3
M  V30 10 1 17 13
M  V30 11 1 19 4
M  V30 12 1 19 11
M  V30 13 1 20 10
M  V30 14 1 22 1
M  V30 15 1 23 13
M  V30 16 1 25 4
M  V30 17 1 25 20
M  V30 18 1 26 7
M  V30 19 1 27 1
M  V30 20 1 27 12
M  V30 21 1 27 24
M  V30 22 1 28 7
M  V30 23 1 28 17
M  V30 24 1 28 21
M  V30 25 1 29 22
M  V30 26 1 29 26
M  V30 27 1 30 13
M  V30 28 1 30 23
M  V30 29 2 31 3
M  V30 30 1 31 8
M  V30 31 1 31 21
M  V30 32 1 32 18
M  V30 33 1 32 29
M  V30 34 2 33 7
M  V30 35 1 34 2
M  V30 36 2 34 14
M  V30 37 1 35 18
M  V30 38 1 35 22
M  V30 39 1 36 11
M  V30 40 1 36 34
M  V30 41 1 37 12
M  V30 42 1 37 35
M  V30 43 1 38 1
M  V30 44 1 39 1
M  V30 45 1 40 4
M  V30 46 1 41 4
M  V30 47 1 42 5
M  V30 48 1 43 5
M  V30 49 1 44 6
M  V30 50 1 45 6
M  V30 51 1 46 6
M  V30 52 1 12 47 CFG=3
M  V30 53 1 48 15
M  V30 54 1 49 15
M  V30 55 1 50 16
M  V30 56 1 51 16
M  V30 57 1 52 16
M  V30 58 1 17 53 CFG=3
M  V30 59 1 54 18
M  V30 60 1 55 18
M  V30 61 1 56 20
M  V30 62 1 57 20
M  V30 63 1 58 21
M  V30 64 1 22 59 CFG=1
M  V30 65 1 60 23
M  V30 66 1 61 24
M  V30 67 1 62 25
M  V30 68 1 63 25
M  V30 69 1 64 26
M  V30 70 1 65 26
M  V30 71 1 27 66 CFG=1
M  V30 72 1 29 67 CFG=3
M  V30 73 1 68 30
M  V30 74 1 69 30
M  V30 75 1 70 32
M  V30 76 1 71 32
M  V30 77 1 72 37
M  V30 78 1 73 37
M  V30 79 1 35 74 CFG=3
M  V30 END BOND
M  V30 END CTAB
M  END
>  <i_epik_Tot_Q>  (1) 
1

>  <i_epik_Tot_abs_Q>  (1) 
1

>  <i_i_glide_confnum>  (1) 
240

>  <i_i_glide_lignum>  (1) 
35

>  <i_i_glide_posenum>  (1) 
393

>  <i_i_glide_rotatable_bonds>  (1) 
10

>  <i_lp_mmshare_version>  (1) 
72125

>  <i_m_source_file_index>  (1) 
16

>  <i_f3d_flags>  (1) 
0

>  <num_sample>  (1) 
100

>  <b_lp_Chiralities_Consistent>  (1) 
1

>  <r_epik_Charging_Adjusted_Penalty>  (1) 
0.0082019649409003706

>  <r_epik_Ionization_Penalty>  (1) 
0.015626865898487191

>  <r_epik_Ionization_Penalty_Charging>  (1) 
0.0082019649409003706

>  <r_epik_Ionization_Penalty_Neutral>  (1) 
0.0074249009575868222

>  <r_epik_State_Penalty>  (1) 
-0

>  <r_glide_ring_energy>  (1) 
0

>  <r_i_docking_score>  (1) 
-4.0348849266605171

>  <r_i_glide_ecoul>  (1) 
-1.7978084591279273

>  <r_i_glide_eff_state_penalty>  (1) 
-0

>  <r_i_glide_einternal>  (1) 
9.1100190704672492

>  <r_i_glide_emodel>  (1) 
-32.04622726734258

>  <r_i_glide_emodel_strain>  (1) 
0.099198294778048535

>  <r_i_glide_energy>  (1) 
-32.669741425707969

>  <r_i_glide_erotb>  (1) 
0.37349522713264072

>  <r_i_glide_esite>  (1) 
0

>  <r_i_glide_evdw>  (1) 
-30.87193296658004

>  <r_i_glide_gscore>  (1) 
-4.0348849266605171

>  <r_i_glide_gscore_strain>  (1) 
0

>  <r_i_glide_hbond>  (1) 
-0.31936083685368993

>  <r_i_glide_ligand_efficiency>  (1) 
-0.10905094396379776

>  <r_i_glide_ligand_efficiency_ln>  (1) 
-0.87507194946930444

>  <r_i_glide_ligand_efficiency_sa>  (1) 
-0.3633819384187853

>  <r_i_glide_lipo>  (1) 
-1.9701916821188892

>  <r_i_glide_metal>  (1) 
-0

>  <r_i_glide_rewards>  (1) 
-0.3055597176223882

>  <r_lp_Energy>  (1) 
14.877502999999999

>  <r_lp_tautomer_probability>  (1) 
1

>  <s_epik_Chemistry_Notes>  (1) 
This compound has an imine and may undergo hydrolysis. This compound contains an acetal/aminal-like group ( X-CH(R)-Y where X, Y are N, S, or O) that may be acid/base labile, releasing an aldehyde.

>  <s_epik_cmdline>  (1) 
J2VwaWtfcHl0aG9uJywgJy1waHQnLCAnMS4wJywgJy1waCcsICc3LjQnLCAnLXRuJywgJzgnLCAnLW1hJywgJzUwMCcsICctaW1hZScsICc8aW5maWxlLm1hZT4nLCAnLW9tYWUnLCAnPG91dGZpbGUubWFlPic=

>  <s_epik_input>  (1) 
W0NIMl0xW0NIMl1bQ0gyXVNjKGMxMilvYyhuMilTW0NAQEhdKFtDQEBIXShbQ0gyXTMpW09IXSlbQ0gyXU4oW0NASF0zNClbQ0gyXVtDSDJdW0NASF00W0NIMl1TKD1PKSg9TylONVtOSF1DKFNbQ0gyXVtDSDJdW0NIM10pPU5bQ0BASF01W0NAXTYoW0NIM10pW05IXVtDSDJdNg==

>  <s_glide_docking_method>  (1) 
confgen

>  <s_i_glide_gridfile>  (1) 
gpcr_5ht2c_6bqh_protein_autoprepared_prepared

>  <s_lp_Force_Field>  (1) 
S-OPLS

>  <s_lp_Variant>  (1) 
DiffSBDD_15_num_sample_100-2

>  <s_m_source_file>  (1) 
generated__ligand_DiffSBDD_2026-05-06_prepared.sdf

>  <GenAI_Model>  (1) 
DiffSBDD

>  <Protein>  (1) 
GPCR_5HT2C

$$$$
DiffSBDD_90_num_sample_100
     RDKit          3D

  0  0  0  0  0  0  0  0  0  0999 V3000
M  V30 BEGIN CTAB
M  V30 COUNTS 85 88 0 0 1
M  V30 BEGIN ATOM
M  V30 1 C 41.164830 28.739002 59.960052 0
M  V30 2 O 36.728899 35.113497 60.867139 0
M  V30 3 F 39.352578 32.021426 52.571606 0
M  V30 4 C 38.503103 26.021048 55.890384 0 CFG=1
M  V30 5 C 39.798585 34.365523 61.115257 0 CFG=2
M  V30 6 C 38.463248 32.378885 60.915318 0 CFG=1
M  V30 7 C 36.877949 23.453927 55.025634 0
M  V30 8 C 37.164830 30.337965 60.126007 0
M  V30 9 C 37.578776 25.058524 56.711866 0
M  V30 10 N 37.683732 35.580111 61.853270 0
M  V30 11 C 39.796375 31.586594 54.857375 0
M  V30 12 C 38.474043 24.031401 57.398903 0
M  V30 13 C 39.147471 33.446466 60.047244 0
M  V30 14 C 38.112361 33.077156 62.239098 0
M  V30 15 O 41.471778 32.661476 61.453615 0
M  V30 16 N 40.241402 28.568952 58.837210 0 CFG=2 CHG=1
M  V30 17 C 37.227671 31.653878 60.419922 0
M  V30 18 F 37.739188 31.410631 53.853542 0
M  V30 19 C 38.950949 28.814260 54.231891 0 CFG=2
M  V30 20 N 40.968706 28.422285 57.541119 0
M  V30 21 C 39.513457 30.546080 55.946236 0
M  V30 22 C 39.149493 29.567138 58.929490 0
M  V30 23 O 36.545190 24.489685 55.921639 0
M  V30 24 C 36.787941 25.746090 57.835924 0
M  V30 25 C 40.480914 28.355281 61.264816 0
M  V30 26 C 39.246671 29.792345 53.094914 0
M  V30 27 C 38.336779 29.349668 60.196311 0 CFG=1
M  V30 28 C 38.667471 34.516116 62.142657 0 CFG=1
M  V30 29 C 37.932858 26.498138 54.545005 0
M  V30 30 O 41.468078 34.417268 62.823794 0 CHG=-1
M  V30 31 C 40.149794 27.990409 56.405253 0 CFG=1
M  V30 32 C 39.196741 29.163665 61.502572 0
M  V30 33 O 40.213203 35.621277 60.653553 0
M  V30 34 C 38.922080 27.178767 56.799730 0
M  V30 35 C 39.896954 29.148672 55.416111 0 CFG=1
M  V30 36 C 38.912764 27.359097 53.734703 0
M  V30 37 C 39.028962 31.227207 53.580503 0
M  V30 38 C 41.021238 33.758272 61.861305 0
M  V30 39 H 41.467390 29.784494 59.983376 0
M  V30 40 H 42.030753 28.097708 59.805348 0
M  V30 41 H 36.912125 35.681858 60.132352 0
M  V30 42 H 39.411163 25.478729 55.624647 0
M  V30 43 H 39.270617 31.690223 61.053792 0
M  V30 44 H 36.267589 23.621163 54.146974 0
M  V30 45 H 37.904125 23.494697 54.680579 0
M  V30 46 H 36.657808 22.470231 55.441937 0
M  V30 47 H 36.221178 29.926310 59.796553 0
M  V30 48 H 37.089598 35.813126 62.636831 0
M  V30 49 H 40.869085 31.621342 54.660083 0
M  V30 50 H 39.499193 32.577001 55.205128 0
M  V30 51 H 39.088260 24.559901 58.118988 0
M  V30 52 H 37.917730 23.239140 57.902218 0
M  V30 53 H 39.183782 23.621322 56.695673 0
M  V30 54 H 39.867084 33.025873 59.352799 0
M  V30 55 H 38.428741 33.993921 59.439773 0
M  V30 56 H 38.612118 32.551557 63.053209 0
M  V30 57 H 37.042016 33.044631 62.438594 0
M  V30 58 H 36.337225 32.257502 60.310334 0
M  V30 59 H 37.934163 29.038365 54.558360 0
M  V30 60 H 41.603638 27.677141 57.794999 0
M  V30 61 H 40.086783 30.824019 56.820840 0
M  V30 62 H 38.459824 30.587462 56.221560 0
M  V30 63 H 38.458582 29.476283 58.101552 0
M  V30 64 H 39.469352 30.601796 58.899511 0
M  V30 65 H 37.453730 26.029753 58.652950 0
M  V30 66 H 36.267403 26.628295 57.483839 0
M  V30 67 H 36.038542 25.086125 58.253310 0
M  V30 68 H 41.165445 28.496468 62.102364 0
M  V30 69 H 40.267061 27.289688 61.238635 0
M  V30 70 H 40.267446 29.664081 52.731376 0
M  V30 71 H 38.593661 29.597203 52.244672 0
M  V30 72 H 37.867427 28.384520 60.039411 0
M  V30 73 H 39.081731 34.812081 63.104837 0
M  V30 74 H 37.703442 25.637952 53.923442 0
M  V30 75 H 36.983974 27.012617 54.685531 0
M  V30 76 H 40.812516 27.298956 55.882589 0
M  V30 77 H 39.465282 30.057688 62.048071 0
M  V30 78 H 38.667462 28.599527 62.253675 0
M  V30 79 H 40.624759 36.039881 61.397121 0
M  V30 80 H 39.173943 26.713697 57.743943 0
M  V30 81 H 38.064211 27.831413 56.938750 0
M  V30 82 H 40.897929 29.332380 55.053412 0
M  V30 83 H 39.904687 26.910694 53.700426 0
M  V30 84 H 38.553897 27.348744 52.703820 0
M  V30 85 H 39.798429 27.670143 58.963285 0
M  V30 END ATOM
M  V30 BEGIN BOND
M  V30 1 1 9 4
M  V30 2 1 10 2
M  V30 3 1 12 9
M  V30 4 1 13 5
M  V30 5 1 13 6
M  V30 6 1 14 6
M  V30 7 1 16 1
M  V30 8 1 17 6
M  V30 9 2 17 8
M  V30 10 1 20 16
M  V30 11 1 21 11
M  V30 12 1 22 16
M  V30 13 1 23 7
M  V30 14 1 23 9
M  V30 15 1 24 9
M  V30 16 1 25 1
M  V30 17 1 26 19
M  V30 18 1 27 8
M  V30 19 1 27 22
M  V30 20 1 28 5
M  V30 21 1 28 10
M  V30 22 1 28 14
M  V30 23 1 29 4
M  V30 24 1 31 20
M  V30 25 1 32 25
M  V30 26 1 32 27
M  V30 27 1 5 33 CFG=3
M  V30 28 1 34 4
M  V30 29 1 34 31
M  V30 30 1 35 19
M  V30 31 1 35 21
M  V30 32 1 35 31
M  V30 33 1 36 19
M  V30 34 1 36 29
M  V30 35 1 37 3
M  V30 36 1 37 11
M  V30 37 1 37 18
M  V30 38 1 37 26
M  V30 39 1 38 5
M  V30 40 2 38 15
M  V30 41 1 38 30
M  V30 42 1 39 1
M  V30 43 1 40 1
M  V30 44 1 41 2
M  V30 45 1 4 42 CFG=3
M  V30 46 1 6 43 CFG=1
M  V30 47 1 44 7
M  V30 48 1 45 7
M  V30 49 1 46 7
M  V30 50 1 47 8
M  V30 51 1 48 10
M  V30 52 1 49 11
M  V30 53 1 50 11
M  V30 54 1 51 12
M  V30 55 1 52 12
M  V30 56 1 53 12
M  V30 57 1 54 13
M  V30 58 1 55 13
M  V30 59 1 56 14
M  V30 60 1 57 14
M  V30 61 1 58 17
M  V30 62 1 19 59 CFG=1
M  V30 63 1 60 20
M  V30 64 1 61 21
M  V30 65 1 62 21
M  V30 66 1 63 22
M  V30 67 1 64 22
M  V30 68 1 65 24
M  V30 69 1 66 24
M  V30 70 1 67 24
M  V30 71 1 68 25
M  V30 72 1 69 25
M  V30 73 1 70 26
M  V30 74 1 71 26
M  V30 75 1 27 72 CFG=3
M  V30 76 1 28 73 CFG=1
M  V30 77 1 74 29
M  V30 78 1 75 29
M  V30 79 1 31 76 CFG=3
M  V30 80 1 77 32
M  V30 81 1 78 32
M  V30 82 1 79 33
M  V30 83 1 80 34
M  V30 84 1 81 34
M  V30 85 1 35 82 CFG=3
M  V30 86 1 83 36
M  V30 87 1 84 36
M  V30 88 1 16 85 CFG=1
M  V30 END BOND
M  V30 END CTAB
M  END
>  <i_epik_Tot_Q>  (1) 
0

>  <i_epik_Tot_abs_Q>  (1) 
2

>  <i_i_glide_confnum>  (1) 
268

>  <i_i_glide_lignum>  (1) 
238

>  <i_i_glide_posenum>  (1) 
110

>  <i_i_glide_rotatable_bonds>  (1) 
10

>  <i_lp_mmshare_version>  (1) 
72125

>  <i_m_source_file_index>  (1) 
91

>  <i_f3d_flags>  (1) 
0

>  <num_sample>  (1) 
100

>  <b_lp_Chiralities_Consistent>  (1) 
1

>  <r_epik_Charging_Adjusted_Penalty>  (1) 
1.5083745474312953

>  <r_epik_Ionization_Penalty>  (1) 
0.65750586125956467

>  <r_epik_Ionization_Penalty_Charging>  (1) 
0.6544614066189578

>  <r_epik_Ionization_Penalty_Neutral>  (1) 
0.0030444546406068235

>  <r_epik_State_Penalty>  (1) 
0.8539131408123376

>  <r_glide_ring_energy>  (1) 
1.5457856915782662

>  <r_i_docking_score>  (1) 
-4.0305215909202436

>  <r_i_glide_ecoul>  (1) 
-1.4928062184598938

>  <r_i_glide_eff_state_penalty>  (1) 
0.8539131408123376

>  <r_i_glide_einternal>  (1) 
50.491009346679974

>  <r_i_glide_emodel>  (1) 
3.9275101182704972

>  <r_i_glide_emodel_strain>  (1) 
8.6826299040879036

>  <r_i_glide_energy>  (1) 
-20.358394133092812

>  <r_i_glide_erotb>  (1) 
0.42002339013477186

>  <r_i_glide_esite>  (1) 
-0.016640148821041399

>  <r_i_glide_evdw>  (1) 
-18.865587914632918

>  <r_i_glide_gscore>  (1) 
-4.8844347317325809

>  <r_i_glide_gscore_strain>  (1) 
1.1706574760219759

>  <r_i_glide_hbond>  (1) 
0

>  <r_i_glide_ligand_efficiency>  (1) 
-0.10606635765579589

>  <r_i_glide_ligand_efficiency_ln>  (1) 
-0.8690990209350723

>  <r_i_glide_ligand_efficiency_sa>  (1) 
-0.35659248592752879

>  <r_i_glide_lipo>  (1) 
-4.3209977978260827

>  <r_i_glide_metal>  (1) 
-0

>  <r_i_glide_rewards>  (1) 
-0.97027732274157419

>  <r_lp_Energy>  (1) 
51.758362999999996

>  <s_epik_Chemistry_Notes>  (1) 
This compound has a N-S or N-O group and may undergo hydrolysis at high or low pH.

>  <s_epik_cmdline>  (1) 
J2VwaWtfcHl0aG9uJywgJy1waHQnLCAnMS4wJywgJy1waCcsICc3LjQnLCAnLXRuJywgJzgnLCAnLW1hJywgJzUwMCcsICctaW1hZScsICc8aW5maWxlLm1hZT4nLCAnLW9tYWUnLCAnPG91dGZpbGUubWFlPic=

>  <s_epik_input>  (1) 
RkMoRikoW0NIMl0xKVtDSDJdW0NIMl1bQ0BIXShbQ0BASF0xMilbQ0BIXShbQ0gyXVtDQEhdKFtDSDJdW0NIMl0yKUMoW0NIM10pKFtDSDNdKU9bQ0gzXSlbTkhdTjNbQ0gyXVtDSDJdW0NIMl1bQ0BIXShbQ0gyXTMpL1tDSF09W0NIXVxbQ0BASF0oW0NIMl1bQ0BdNChbT0hdKUMoPU8pW09IXSlbQ0gyXVtDQEBIXTRbTkhdW09IXQ==

>  <s_glide_docking_method>  (1) 
confgen

>  <s_i_glide_gridfile>  (1) 
gpcr_5ht2c_6bqh_protein_autoprepared_prepared

>  <s_lp_Force_Field>  (1) 
S-OPLS

>  <s_lp_Variant>  (1) 
DiffSBDD_90_num_sample_100-10

>  <s_m_source_file>  (1) 
generated__ligand_DiffSBDD_2026-05-06_prepared.sdf

>  <GenAI_Model>  (1) 
DiffSBDD

>  <Protein>  (1) 
GPCR_5HT2C

$$$$
DiffSBDD_45_num_sample_100
     RDKit          3D

  0  0  0  0  0  0  0  0  0  0999 V3000
M  V30 BEGIN CTAB
M  V30 COUNTS 30 30 0 0 1
M  V30 BEGIN ATOM
M  V30 1 O 40.281198 29.285931 62.650737 0
M  V30 2 C 39.606661 28.815869 61.505915 0
M  V30 3 C 40.583882 28.615657 60.339139 0
M  V30 4 C 40.168849 29.478405 50.719256 0
M  V30 5 C 38.762370 28.804187 53.061378 0
M  V30 6 S 37.867404 28.385923 54.520358 0
M  V30 7 C 40.168735 30.360470 51.816682 0
M  V30 8 C 39.467343 28.257741 50.795709 0
M  V30 9 C 40.020935 27.620192 56.577576 0
M  V30 10 C 39.467142 30.023260 52.990864 0
M  V30 11 C 38.762368 27.921829 51.966614 0
M  V30 12 C 40.794646 27.908155 57.875823 0
M  V30 13 S 38.986524 29.034171 56.099442 0
M  V30 14 C 39.876722 28.035011 59.105967 0
M  V30 15 H 39.711536 29.143377 63.398106 0
M  V30 16 H 39.110468 27.880329 61.758820 0
M  V30 17 H 38.828434 29.529902 61.234532 0
M  V30 18 H 41.034127 29.575348 60.083580 0
M  V30 19 H 41.403281 27.961729 60.639927 0
M  V30 20 H 40.704368 29.738340 49.817918 0
M  V30 21 H 40.703851 31.296137 51.757827 0
M  V30 22 H 39.465168 27.582504 49.955805 0
M  V30 23 H 40.713398 27.407615 55.763527 0
M  V30 24 H 39.391820 26.737031 56.696515 0
M  V30 25 H 39.463548 30.701773 53.830943 0
M  V30 26 H 38.219195 26.989507 52.022636 0
M  V30 27 H 41.376732 28.820676 57.749614 0
M  V30 28 H 41.521424 27.113585 58.052206 0
M  V30 29 H 39.461286 27.055920 59.346594 0
M  V30 30 H 39.023675 28.673548 58.874623 0
M  V30 END ATOM
M  V30 BEGIN BOND
M  V30 1 1 2 1
M  V30 2 1 3 2
M  V30 3 1 6 5
M  V30 4 2 7 4
M  V30 5 1 8 4
M  V30 6 2 10 5
M  V30 7 1 10 7
M  V30 8 1 11 5
M  V30 9 2 11 8
M  V30 10 1 12 9
M  V30 11 1 13 6
M  V30 12 1 13 9
M  V30 13 1 14 3
M  V30 14 1 14 12
M  V30 15 1 15 1
M  V30 16 1 16 2
M  V30 17 1 17 2
M  V30 18 1 18 3
M  V30 19 1 19 3
M  V30 20 1 20 4
M  V30 21 1 21 7
M  V30 22 1 22 8
M  V30 23 1 23 9
M  V30 24 1 24 9
M  V30 25 1 25 10
M  V30 26 1 26 11
M  V30 27 1 27 12
M  V30 28 1 28 12
M  V30 29 1 29 14
M  V30 30 1 30 14
M  V30 END BOND
M  V30 END CTAB
M  END
>  <i_epik_Tot_Q>  (1) 
0

>  <i_epik_Tot_abs_Q>  (1) 
0

>  <i_i_glide_confnum>  (1) 
141

>  <i_i_glide_lignum>  (1) 
124

>  <i_i_glide_posenum>  (1) 
8

>  <i_i_glide_rotatable_bonds>  (1) 
8

>  <i_lp_mmshare_version>  (1) 
72125

>  <i_m_source_file_index>  (1) 
46

>  <i_f3d_flags>  (1) 
0

>  <num_sample>  (1) 
100

>  <b_lp_Chiralities_Consistent>  (1) 
1

>  <r_epik_Charging_Adjusted_Penalty>  (1) 
0

>  <r_epik_Ionization_Penalty>  (1) 
2.3568832338971596e-07

>  <r_epik_Ionization_Penalty_Charging>  (1) 
0

>  <r_epik_Ionization_Penalty_Neutral>  (1) 
2.3568832338971596e-07

>  <r_epik_State_Penalty>  (1) 
-0

>  <r_glide_ring_energy>  (1) 
0

>  <r_i_docking_score>  (1) 
-4.0284149327894232

>  <r_i_glide_ecoul>  (1) 
-3.7716689541957984

>  <r_i_glide_eff_state_penalty>  (1) 
-0

>  <r_i_glide_einternal>  (1) 
2.5521509231515038

>  <r_i_glide_emodel>  (1) 
-40.088877137994906

>  <r_i_glide_emodel_strain>  (1) 
0.2608668608555047

>  <r_i_glide_energy>  (1) 
-32.597925515564775

>  <r_i_glide_erotb>  (1) 
3.9203098885211913

>  <r_i_glide_esite>  (1) 
0

>  <r_i_glide_evdw>  (1) 
-28.826256561368979

>  <r_i_glide_gscore>  (1) 
-4.0284149327894232

>  <r_i_glide_gscore_strain>  (1) 
0

>  <r_i_glide_hbond>  (1) 
-0.32000000000000001

>  <r_i_glide_ligand_efficiency>  (1) 
-0.28774392377067309

>  <r_i_glide_ligand_efficiency_ln>  (1) 
-1.1069940833318308

>  <r_i_glide_ligand_efficiency_sa>  (1) 
-0.69350379193931488

>  <r_i_glide_lipo>  (1) 
-3.2190571968566255

>  <r_i_glide_metal>  (1) 
-0

>  <r_i_glide_rewards>  (1) 
-2.4026044532561692

>  <r_lp_Energy>  (1) 
5.2512449999999999

>  <r_lp_tautomer_probability>  (1) 
1

>  <s_epik_cmdline>  (1) 
J2VwaWtfcHl0aG9uJywgJy1waHQnLCAnMS4wJywgJy1waCcsICc3LjQnLCAnLXRuJywgJzgnLCAnLW1hJywgJzUwMCcsICctaW1hZScsICc8aW5maWxlLm1hZT4nLCAnLW9tYWUnLCAnPG91dGZpbGUubWFlPic=

>  <s_epik_input>  (1) 
W09IXVtDSDJdW0NIMl1bQ0gyXVtDSDJdW0NIMl1TU2MxW2NIXVtjSF1bY0hdW2NIXVtjSF0x

>  <s_glide_docking_method>  (1) 
confgen

>  <s_i_glide_gridfile>  (1) 
gpcr_5ht2c_6bqh_protein_autoprepared_prepared

>  <s_lp_Force_Field>  (1) 
S-OPLS

>  <s_lp_Variant>  (1) 
DiffSBDD_45_num_sample_100-1

>  <s_m_source_file>  (1) 
generated__ligand_DiffSBDD_2026-05-06_prepared.sdf

>  <GenAI_Model>  (1) 
DiffSBDD

>  <Protein>  (1) 
GPCR_5HT2C

$$$$
DiffSBDD_29_num_sample_100
     RDKit          3D

  0  0  0  0  0  0  0  0  0  0999 V3000
M  V30 BEGIN CTAB
M  V30 COUNTS 86 90 0 0 1
M  V30 BEGIN ATOM
M  V30 1 F 39.467491 30.728037 64.246841 0
M  V30 2 C 34.775019 32.174469 59.469834 0
M  V30 3 C 38.737406 32.816666 62.292656 0
M  V30 4 C 39.482710 29.196533 56.277111 0 CFG=2
M  V30 5 C 38.620854 25.522335 56.821532 0
M  V30 6 C 40.934991 28.718264 56.204108 0
M  V30 7 C 41.613563 31.122170 63.632897 0
M  V30 8 N 36.177086 31.813383 59.658277 0
M  V30 9 C 38.622828 29.803060 53.732370 0 CFG=1
M  V30 10 C 36.661741 24.420828 54.770006 0
M  V30 11 C 37.637724 29.638065 59.379661 0
M  V30 12 C 37.740500 25.418496 54.502313 0 CFG=1
M  V30 13 C 40.365951 31.389733 63.525733 0
M  V30 14 C 37.037605 30.092964 58.076357 0 CFG=2
M  V30 15 C 35.392436 34.421140 60.341329 0
M  V30 16 C 40.039104 30.869085 51.763729 0
M  V30 17 C 38.575116 28.877491 55.029118 0 CFG=1
M  V30 18 C 37.875859 31.053699 57.187782 0 CFG=1
M  V30 19 C 41.202351 32.971429 61.935068 0
M  V30 20 N 36.738116 33.900557 60.559320 0 CHG=1
M  V30 21 N 40.061279 32.369494 62.640880 0
M  V30 22 F 42.120676 30.191767 64.457927 0
M  V30 23 S 37.467409 26.852110 53.485652 0
M  V30 24 C 36.743623 32.450890 60.840197 0 CFG=2
M  V30 25 C 34.705344 33.679271 59.207295 0
M  V30 26 C 39.857855 28.425586 51.870577 0
M  V30 27 O 37.937606 32.392922 57.631000 0
M  V30 28 C 38.673698 27.382714 54.731611 0 CFG=2
M  V30 29 C 39.329011 30.595401 56.897021 0
M  V30 30 C 37.187930 23.596846 55.908773 0
M  V30 31 C 37.647672 24.369496 57.165591 0
M  V30 32 C 38.183005 32.042579 61.128380 0
M  V30 33 O 38.455655 31.153579 54.101318 0
M  V30 34 C 38.012137 26.328630 55.672689 0 CFG=2
M  V30 35 C 36.332922 30.397897 59.400596 0 CFG=2
M  V30 36 C 39.826227 29.702420 52.743669 0
M  V30 37 O 39.118638 28.368081 57.336844 0
M  V30 38 S 42.665853 32.023677 62.654345 0
M  V30 39 H 34.285977 31.625705 58.660809 0
M  V30 40 H 34.270902 31.922641 60.393106 0
M  V30 41 H 38.787699 33.884942 62.087819 0
M  V30 42 H 38.007082 32.678415 63.053526 0
M  V30 43 H 38.768418 26.087714 57.736158 0
M  V30 44 H 39.599125 25.132347 56.537994 0
M  V30 45 H 41.467259 29.276698 55.453526 0
M  V30 46 H 41.435806 28.821373 57.168603 0
M  V30 47 H 41.047169 27.664164 55.967968 0
M  V30 48 H 37.724771 29.591488 53.153648 0
M  V30 49 H 35.779748 24.822527 55.196352 0
M  V30 50 H 36.382207 23.852893 53.888014 0
M  V30 51 H 37.602637 28.574886 59.571182 0
M  V30 52 H 38.601058 30.072050 59.614248 0
M  V30 53 H 38.687032 24.947676 54.253446 0
M  V30 54 H 36.521038 29.338445 57.488738 0
M  V30 55 H 35.468353 35.477553 60.095388 0
M  V30 56 H 34.836939 34.310547 61.271057 0
M  V30 57 H 39.382485 30.823995 50.898533 0
M  V30 58 H 39.938191 31.837313 52.238494 0
M  V30 59 H 41.051672 30.826659 51.363691 0
M  V30 60 H 37.554764 29.023121 55.380827 0
M  V30 61 H 37.333559 31.133887 56.251138 0
M  V30 62 H 41.114666 32.805968 60.862923 0
M  V30 63 H 41.288080 34.039198 62.144535 0
M  V30 64 H 37.279928 34.048749 59.717518 0
M  V30 65 H 36.125120 32.225144 61.710891 0
M  V30 66 H 35.195652 33.938724 58.266733 0
M  V30 67 H 33.668216 34.001429 59.122044 0
M  V30 68 H 38.925210 28.333217 51.313297 0
M  V30 69 H 40.664309 28.459866 51.137970 0
M  V30 70 H 40.005265 27.500172 52.416759 0
M  V30 71 H 37.035830 32.692614 57.570759 0
M  V30 72 H 39.672626 27.055561 54.454867 0
M  V30 73 H 39.866542 30.599757 57.836609 0
M  V30 74 H 39.840400 31.326633 56.272234 0
M  V30 75 H 36.513984 22.770045 56.144990 0
M  V30 76 H 38.087894 23.221475 55.454901 0
M  V30 77 H 36.767862 24.770265 57.671211 0
M  V30 78 H 38.116889 23.676270 57.864745 0
M  V30 79 H 38.205615 31.001841 61.445002 0
M  V30 80 H 38.819229 32.172119 60.253741 0
M  V30 81 H 39.274360 31.490757 54.427339 0
M  V30 82 H 37.073244 26.759984 56.027669 0
M  V30 83 H 35.495567 29.754474 59.657608 0
M  V30 84 H 40.667396 29.795977 53.396443 0
M  V30 85 H 38.237659 28.588093 57.594827 0
M  V30 86 H 37.161001 34.400827 61.329112 0
M  V30 END ATOM
M  V30 BEGIN BOND
M  V30 1 1 6 4
M  V30 2 1 8 2
M  V30 3 1 12 10
M  V30 4 1 13 1
M  V30 5 2 13 7
M  V30 6 1 14 11
M  V30 7 1 17 4
M  V30 8 1 17 9
M  V30 9 1 18 14
M  V30 10 1 20 15
M  V30 11 1 21 3
M  V30 12 1 21 13
M  V30 13 1 21 19
M  V30 14 1 22 7
M  V30 15 1 23 12
M  V30 16 1 24 8
M  V30 17 1 24 20
M  V30 18 1 25 2
M  V30 19 1 25 15
M  V30 20 1 27 18
M  V30 21 1 28 17
M  V30 22 1 28 23
M  V30 23 1 29 4
M  V30 24 1 29 18
M  V30 25 1 30 10
M  V30 26 1 31 5
M  V30 27 1 31 30
M  V30 28 1 32 3
M  V30 29 1 32 24
M  V30 30 1 33 9
M  V30 31 1 34 5
M  V30 32 1 34 12
M  V30 33 1 34 28
M  V30 34 1 35 8
M  V30 35 1 35 11
M  V30 36 1 35 14
M  V30 37 1 36 9
M  V30 38 1 36 16
M  V30 39 1 36 26
M  V30 40 1 4 37 CFG=1
M  V30 41 1 38 7
M  V30 42 1 38 19
M  V30 43 1 39 2
M  V30 44 1 40 2
M  V30 45 1 41 3
M  V30 46 1 42 3
M  V30 47 1 43 5
M  V30 48 1 44 5
M  V30 49 1 45 6
M  V30 50 1 46 6
M  V30 51 1 47 6
M  V30 52 1 9 48 CFG=3
M  V30 53 1 49 10
M  V30 54 1 50 10
M  V30 55 1 51 11
M  V30 56 1 52 11
M  V30 57 1 12 53 CFG=3
M  V30 58 1 14 54 CFG=3
M  V30 59 1 55 15
M  V30 60 1 56 15
M  V30 61 1 57 16
M  V30 62 1 58 16
M  V30 63 1 59 16
M  V30 64 1 17 60 CFG=1
M  V30 65 1 18 61 CFG=3
M  V30 66 1 62 19
M  V30 67 1 63 19
M  V30 68 1 64 20
M  V30 69 1 24 65 CFG=1
M  V30 70 1 66 25
M  V30 71 1 67 25
M  V30 72 1 68 26
M  V30 73 1 69 26
M  V30 74 1 70 26
M  V30 75 1 71 27
M  V30 76 1 28 72 CFG=3
M  V30 77 1 73 29
M  V30 78 1 74 29
M  V30 79 1 75 30
M  V30 80 1 76 30
M  V30 81 1 77 31
M  V30 82 1 78 31
M  V30 83 1 79 32
M  V30 84 1 80 32
M  V30 85 1 81 33
M  V30 86 1 34 82 CFG=1
M  V30 87 1 35 83 CFG=3
M  V30 88 1 84 36
M  V30 89 1 85 37
M  V30 90 1 86 20
M  V30 END BOND
M  V30 END CTAB
M  END
>  <i_epik_Tot_Q>  (1) 
1

>  <i_epik_Tot_abs_Q>  (1) 
1

>  <i_i_glide_confnum>  (1) 
2056

>  <i_i_glide_lignum>  (1) 
72

>  <i_i_glide_posenum>  (1) 
69

>  <i_i_glide_rotatable_bonds>  (1) 
14

>  <i_lp_mmshare_version>  (1) 
72125

>  <i_m_source_file_index>  (1) 
30

>  <i_f3d_flags>  (1) 
0

>  <num_sample>  (1) 
100

>  <b_lp_Chiralities_Consistent>  (1) 
1

>  <r_epik_Charging_Adjusted_Penalty>  (1) 
0.43533657855592212

>  <r_epik_Ionization_Penalty>  (1) 
0.17417288321429925

>  <r_epik_Ionization_Penalty_Charging>  (1) 
0.17415579174197784

>  <r_epik_Ionization_Penalty_Neutral>  (1) 
1.7091472321405907e-05

>  <r_epik_State_Penalty>  (1) 
0.2611807868139443

>  <r_glide_ring_energy>  (1) 
0.53215094814158026

>  <r_i_docking_score>  (1) 
-4.0234990187906465

>  <r_i_glide_ecoul>  (1) 
0.4250421225389962

>  <r_i_glide_eff_state_penalty>  (1) 
0.2611807868139443

>  <r_i_glide_einternal>  (1) 
19.707051371450525

>  <r_i_glide_emodel>  (1) 
0.1509992445782693

>  <r_i_glide_emodel_strain>  (1) 
6.4503334054094665

>  <r_i_glide_energy>  (1) 
-5.6387379770341628

>  <r_i_glide_erotb>  (1) 
0.46833353265868582

>  <r_i_glide_esite>  (1) 
-0.018270203559180378

>  <r_i_glide_evdw>  (1) 
-6.063780099573159

>  <r_i_glide_gscore>  (1) 
-4.2846798056045907

>  <r_i_glide_gscore_strain>  (1) 
0.61258335135236663

>  <r_i_glide_hbond>  (1) 
-0.10970489127513493

>  <r_i_glide_ligand_efficiency>  (1) 
-0.10588155312606964

>  <r_i_glide_ligand_efficiency_ln>  (1) 
-0.86758474780078909

>  <r_i_glide_ligand_efficiency_sa>  (1) 
-0.35597117764352409

>  <r_i_glide_lipo>  (1) 
-4.367591265725558

>  <r_i_glide_metal>  (1) 
-0

>  <r_i_glide_rewards>  (1) 
-0.63059764245796113

>  <r_lp_Energy>  (1) 
47.870706999999996

>  <s_epik_Chemistry_Notes>  (1) 
This compound has an imine and may undergo hydrolysis. This compound contains an acetal/aminal-like group ( X-CH(R)-Y where X, Y are N, S, or O) that may be acid/base labile, releasing an aldehyde.

>  <s_epik_cmdline>  (1) 
J2VwaWtfcHl0aG9uJywgJy1waHQnLCAnMS4wJywgJy1waCcsICc3LjQnLCAnLXRuJywgJzgnLCAnLW1hJywgJzUwMCcsICctaW1hZScsICc8aW5maWxlLm1hZT4nLCAnLW9tYWUnLCAnPG91dGZpbGUubWFlPic=

>  <s_epik_input>  (1) 
RkMxPUMoRilOKFtDSDJdUzEpW0NIMl1bQ0gyXVtDQEhdMltOSF1bQ0gyXVtDSDJdW0NIMl1OMltDQEBIXTNbQ0gyXVtDQEBIXTNbQ0BASF0oW09IXSlbQ0gyXVtDQEBdKFtDSDNdKShbT0hdKVtDQEBIXShbQ0BASF0oW09IXSlbQ0hdKFtDSDNdKVtDSDNdKVtDQEhdKFM0KVtDQEBIXShbQ0BASF00NSlbQ0gyXVtDSDJdW0NIMl1bQ0gyXTU=

>  <s_glide_docking_method>  (1) 
confgen

>  <s_i_glide_gridfile>  (1) 
gpcr_5ht2c_6bqh_protein_autoprepared_prepared

>  <s_lp_Force_Field>  (1) 
S-OPLS

>  <s_lp_Variant>  (1) 
DiffSBDD_29_num_sample_100-2

>  <s_m_source_file>  (1) 
generated__ligand_DiffSBDD_2026-05-06_prepared.sdf

>  <GenAI_Model>  (1) 
DiffSBDD

>  <Protein>  (1) 
GPCR_5HT2C

$$$$
DiffSBDD_90_num_sample_100
     RDKit          3D

  0  0  0  0  0  0  0  0  0  0999 V3000
M  V30 BEGIN CTAB
M  V30 COUNTS 85 88 0 0 1
M  V30 BEGIN ATOM
M  V30 1 C 35.797286 30.915146 59.786813 0
M  V30 2 O 40.924094 36.052684 61.160585 0
M  V30 3 F 38.043012 23.705435 57.113587 0
M  V30 4 C 38.546776 30.239200 55.057445 0 CFG=1
M  V30 5 C 40.593297 32.820715 61.902070 0 CFG=2
M  V30 6 C 38.631146 33.938748 60.943279 0 CFG=1
M  V30 7 C 38.212612 33.212230 55.461326 0
M  V30 8 C 37.327318 34.820235 58.953415 0
M  V30 9 C 39.469606 31.333161 54.484972 0
M  V30 10 N 41.436307 35.253333 62.255446 0
M  V30 11 C 38.214157 25.639767 58.350081 0
M  V30 12 C 40.892027 30.831184 54.475824 0
M  V30 13 C 39.797390 32.982837 60.608947 0
M  V30 14 C 39.041089 34.593194 62.237199 0
M  V30 15 O 38.729064 31.430344 62.623920 0
M  V30 16 N 36.728314 31.007778 58.661813 0 CFG=2 CHG=1
M  V30 17 C 38.266005 34.975315 59.899436 0
M  V30 18 F 39.788466 24.936769 56.781516 0
M  V30 19 C 38.090583 27.166456 55.891731 0 CFG=2
M  V30 20 N 37.622415 29.847761 58.614549 0
M  V30 21 C 38.518179 27.130195 58.361905 0
M  V30 22 C 37.409898 32.298418 58.676552 0
M  V30 23 O 39.445061 32.504698 55.314392 0
M  V30 24 C 39.145145 31.623429 53.036905 0
M  V30 25 C 34.788952 32.078920 59.756098 0
M  V30 26 C 37.732903 25.672174 55.890289 0
M  V30 27 C 36.511994 33.562043 58.773448 0 CFG=1
M  V30 28 C 40.457798 34.212433 62.581100 0 CFG=1
M  V30 29 C 38.501946 28.976413 54.153244 0
M  V30 30 O 40.716575 31.095689 63.578472 0 CHG=-1
M  V30 31 C 37.693257 29.332719 57.260849 0 CFG=1
M  V30 32 C 35.420398 33.455131 59.820056 0
M  V30 33 O 41.947072 32.482817 61.695114 0
M  V30 34 C 38.901076 29.930739 56.535651 0
M  V30 35 C 37.692901 27.793790 57.256344 0 CFG=1
M  V30 36 C 37.574942 27.893180 54.627510 0
M  V30 37 C 38.479635 24.955831 57.019157 0
M  V30 38 C 39.956676 31.681550 62.778178 0
M  V30 39 H 36.328203 30.902456 60.736807 0
M  V30 40 H 35.430204 29.916510 59.629528 0
M  V30 41 H 41.521146 35.880418 60.450840 0
M  V30 42 H 37.538779 30.652481 55.034934 0
M  V30 43 H 37.760255 33.363192 61.212779 0
M  V30 44 H 38.342176 34.075334 56.114856 0
M  V30 45 H 37.791753 33.592604 54.534164 0
M  V30 46 H 37.466551 32.572236 55.922055 0
M  V30 47 H 37.129525 35.621380 58.261701 0
M  V30 48 H 41.511296 35.943267 62.993612 0
M  V30 49 H 37.174094 25.443782 58.573593 0
M  V30 50 H 38.778466 25.231182 59.157495 0
M  V30 51 H 40.979087 30.033607 53.744347 0
M  V30 52 H 41.645080 31.582743 54.258210 0
M  V30 53 H 41.062750 30.456511 55.452728 0
M  V30 54 H 39.583349 31.967174 60.297402 0
M  V30 55 H 40.265855 33.409108 59.754022 0
M  V30 56 H 38.666540 33.916115 62.970003 0
M  V30 57 H 38.673428 35.606762 62.428424 0
M  V30 58 H 38.806979 35.911143 59.938857 0
M  V30 59 H 39.179455 27.196213 55.829714 0
M  V30 60 H 37.068742 29.217294 59.176166 0
M  V30 61 H 38.269563 27.518967 59.350787 0
M  V30 62 H 39.585776 27.301185 58.219310 0
M  V30 63 H 38.224608 32.399618 57.959372 0
M  V30 64 H 37.811201 32.114063 59.622294 0
M  V30 65 H 39.090897 30.705566 52.456997 0
M  V30 66 H 38.260830 32.257648 53.027088 0
M  V30 67 H 39.956906 32.021377 52.435680 0
M  V30 68 H 34.265865 32.033154 60.660532 0
M  V30 69 H 34.082924 32.023657 58.937874 0
M  V30 70 H 36.656084 25.550274 56.016339 0
M  V30 71 H 37.985044 25.211227 54.937232 0
M  V30 72 H 36.024846 33.717514 57.828887 0
M  V30 73 H 40.505577 34.090223 63.665186 0
M  V30 74 H 38.028845 29.245893 53.214329 0
M  V30 75 H 39.482421 28.568033 53.929858 0
M  V30 76 H 36.783695 29.650440 56.743158 0
M  V30 77 H 35.805289 33.603377 60.820538 0
M  V30 78 H 34.695545 34.255355 59.686206 0
M  V30 79 H 42.274332 32.261321 62.558273 0
M  V30 80 H 39.247013 30.834061 57.038500 0
M  V30 81 H 39.759733 29.263500 56.621312 0
M  V30 82 H 36.665752 27.514357 57.485653 0
M  V30 83 H 36.667311 28.452383 54.709190 0
M  V30 84 H 37.409752 27.179723 53.817748 0
M  V30 85 H 36.162771 31.044738 57.818218 0
M  V30 END ATOM
M  V30 BEGIN BOND
M  V30 1 1 9 4
M  V30 2 1 10 2
M  V30 3 1 12 9
M  V30 4 1 13 5
M  V30 5 1 13 6
M  V30 6 1 14 6
M  V30 7 1 16 1
M  V30 8 1 17 6
M  V30 9 2 17 8
M  V30 10 1 20 16
M  V30 11 1 21 11
M  V30 12 1 22 16
M  V30 13 1 23 7
M  V30 14 1 23 9
M  V30 15 1 24 9
M  V30 16 1 25 1
M  V30 17 1 26 19
M  V30 18 1 27 8
M  V30 19 1 27 22
M  V30 20 1 28 5
M  V30 21 1 28 10
M  V30 22 1 28 14
M  V30 23 1 29 4
M  V30 24 1 31 20
M  V30 25 1 32 25
M  V30 26 1 32 27
M  V30 27 1 5 33 CFG=3
M  V30 28 1 34 4
M  V30 29 1 34 31
M  V30 30 1 35 19
M  V30 31 1 35 21
M  V30 32 1 35 31
M  V30 33 1 36 19
M  V30 34 1 36 29
M  V30 35 1 37 3
M  V30 36 1 37 11
M  V30 37 1 37 18
M  V30 38 1 37 26
M  V30 39 1 38 5
M  V30 40 2 38 15
M  V30 41 1 38 30
M  V30 42 1 39 1
M  V30 43 1 40 1
M  V30 44 1 41 2
M  V30 45 1 4 42 CFG=1
M  V30 46 1 6 43 CFG=1
M  V30 47 1 44 7
M  V30 48 1 45 7
M  V30 49 1 46 7
M  V30 50 1 47 8
M  V30 51 1 48 10
M  V30 52 1 49 11
M  V30 53 1 50 11
M  V30 54 1 51 12
M  V30 55 1 52 12
M  V30 56 1 53 12
M  V30 57 1 54 13
M  V30 58 1 55 13
M  V30 59 1 56 14
M  V30 60 1 57 14
M  V30 61 1 58 17
M  V30 62 1 19 59 CFG=3
M  V30 63 1 60 20
M  V30 64 1 61 21
M  V30 65 1 62 21
M  V30 66 1 63 22
M  V30 67 1 64 22
M  V30 68 1 65 24
M  V30 69 1 66 24
M  V30 70 1 67 24
M  V30 71 1 68 25
M  V30 72 1 69 25
M  V30 73 1 70 26
M  V30 74 1 71 26
M  V30 75 1 27 72 CFG=3
M  V30 76 1 28 73 CFG=1
M  V30 77 1 74 29
M  V30 78 1 75 29
M  V30 79 1 31 76 CFG=3
M  V30 80 1 77 32
M  V30 81 1 78 32
M  V30 82 1 79 33
M  V30 83 1 80 34
M  V30 84 1 81 34
M  V30 85 1 35 82 CFG=1
M  V30 86 1 83 36
M  V30 87 1 84 36
M  V30 88 1 16 85 CFG=3
M  V30 END BOND
M  V30 END CTAB
M  END
>  <i_epik_Tot_Q>  (1) 
0

>  <i_epik_Tot_abs_Q>  (1) 
2

>  <i_i_glide_confnum>  (1) 
322

>  <i_i_glide_lignum>  (1) 
238

>  <i_i_glide_posenum>  (1) 
44

>  <i_i_glide_rotatable_bonds>  (1) 
10

>  <i_lp_mmshare_version>  (1) 
72125

>  <i_m_source_file_index>  (1) 
91

>  <i_f3d_flags>  (1) 
0

>  <num_sample>  (1) 
100

>  <b_lp_Chiralities_Consistent>  (1) 
1

>  <r_epik_Charging_Adjusted_Penalty>  (1) 
1.5083745474312953

>  <r_epik_Ionization_Penalty>  (1) 
0.65750586125956467

>  <r_epik_Ionization_Penalty_Charging>  (1) 
0.6544614066189578

>  <r_epik_Ionization_Penalty_Neutral>  (1) 
0.0030444546406068235

>  <r_epik_State_Penalty>  (1) 
0.8539131408123376

>  <r_glide_ring_energy>  (1) 
1.5457856915782662

>  <r_i_docking_score>  (1) 
-4.013581531087083

>  <r_i_glide_ecoul>  (1) 
-8.4955047075534953

>  <r_i_glide_eff_state_penalty>  (1) 
0.8539131408123376

>  <r_i_glide_einternal>  (1) 
25.448471232174466

>  <r_i_glide_emodel>  (1) 
0.36467518549221545

>  <r_i_glide_emodel_strain>  (1) 
9.1870430729706101

>  <r_i_glide_energy>  (1) 
-11.937814090855355

>  <r_i_glide_erotb>  (1) 
0.42002339013477186

>  <r_i_glide_esite>  (1) 
-0.10000000000000001

>  <r_i_glide_evdw>  (1) 
-3.4423093833018599

>  <r_i_glide_gscore>  (1) 
-4.8674946718994203

>  <r_i_glide_gscore_strain>  (1) 
1.2967607682426525

>  <r_i_glide_hbond>  (1) 
-0.15636471290036391

>  <r_i_glide_ligand_efficiency>  (1) 
-0.10562056660755481

>  <r_i_glide_ligand_efficiency_ln>  (1) 
-0.86544624570897066

>  <r_i_glide_ligand_efficiency_sa>  (1) 
-0.35509374738677119

>  <r_i_glide_lipo>  (1) 
-3.029071595109567

>  <r_i_glide_metal>  (1) 
-0

>  <r_i_glide_rewards>  (1) 
-1.8524013469687963

>  <r_lp_Energy>  (1) 
51.758362999999996

>  <s_epik_Chemistry_Notes>  (1) 
This compound has a N-S or N-O group and may undergo hydrolysis at high or low pH.

>  <s_epik_cmdline>  (1) 
J2VwaWtfcHl0aG9uJywgJy1waHQnLCAnMS4wJywgJy1waCcsICc3LjQnLCAnLXRuJywgJzgnLCAnLW1hJywgJzUwMCcsICctaW1hZScsICc8aW5maWxlLm1hZT4nLCAnLW9tYWUnLCAnPG91dGZpbGUubWFlPic=

>  <s_epik_input>  (1) 
RkMoRikoW0NIMl0xKVtDSDJdW0NIMl1bQ0BIXShbQ0BASF0xMilbQ0BIXShbQ0gyXVtDQEhdKFtDSDJdW0NIMl0yKUMoW0NIM10pKFtDSDNdKU9bQ0gzXSlbTkhdTjNbQ0gyXVtDSDJdW0NIMl1bQ0BIXShbQ0gyXTMpL1tDSF09W0NIXVxbQ0BASF0oW0NIMl1bQ0BdNChbT0hdKUMoPU8pW09IXSlbQ0gyXVtDQEBIXTRbTkhdW09IXQ==

>  <s_glide_docking_method>  (1) 
confgen

>  <s_i_glide_gridfile>  (1) 
gpcr_5ht2c_6bqh_protein_autoprepared_prepared

>  <s_lp_Force_Field>  (1) 
S-OPLS

>  <s_lp_Variant>  (1) 
DiffSBDD_90_num_sample_100-10

>  <s_m_source_file>  (1) 
generated__ligand_DiffSBDD_2026-05-06_prepared.sdf

>  <GenAI_Model>  (1) 
DiffSBDD

>  <Protein>  (1) 
GPCR_5HT2C

$$$$
DiffSBDD_90_num_sample_100
     RDKit          3D

  0  0  0  0  0  0  0  0  0  0999 V3000
M  V30 BEGIN CTAB
M  V30 COUNTS 85 88 0 0 1
M  V30 BEGIN ATOM
M  V30 1 C 38.536455 28.239909 59.701465 0
M  V30 2 O 37.069709 27.100831 53.469083 0
M  V30 3 F 42.796831 32.477652 66.151084 0
M  V30 4 C 38.619381 32.716965 60.615098 0 CFG=1
M  V30 5 C 39.588199 29.475461 52.118627 0 CFG=2
M  V30 6 C 38.930192 29.941025 54.548992 0 CFG=1
M  V30 7 C 37.750788 31.490595 57.984244 0
M  V30 8 C 40.059440 29.047927 56.627739 0
M  V30 9 C 37.213987 32.869839 59.957010 0
M  V30 10 N 37.996599 27.496250 52.437833 0
M  V30 11 C 41.927795 30.690464 64.914753 0
M  V30 12 C 36.065753 32.864974 60.989682 0
M  V30 13 C 39.933769 30.234243 53.459119 0
M  V30 14 C 37.697916 29.687863 53.734241 0
M  V30 15 O 40.057228 29.746736 49.762371 0
M  V30 16 N 39.777186 29.064415 59.728562 0 CFG=1 CHG=1
M  V30 17 C 39.396571 28.823947 55.476271 0
M  V30 18 F 40.653355 32.252890 66.101972 0
M  V30 19 C 40.646901 32.710568 63.151190 0 CFG=2
M  V30 20 N 40.149465 29.391583 61.145345 0
M  V30 21 C 40.893284 30.301959 63.844519 0
M  V30 22 C 40.933540 28.505429 58.968852 0
M  V30 23 O 36.977899 31.700340 59.166049 0
M  V30 24 C 37.074827 34.132227 59.078569 0
M  V30 25 C 38.280486 27.411282 58.415463 0
M  V30 26 C 41.700618 33.125890 64.192647 0
M  V30 27 C 40.555433 27.957250 57.575376 0 CFG=1
M  V30 28 C 38.120693 28.969991 52.413841 0 CFG=1
M  V30 29 C 39.085510 33.916600 61.460258 0
M  V30 30 O 39.863498 31.597923 50.983861 0 CHG=-1
M  V30 31 C 40.151401 30.834409 61.396344 0 CFG=1
M  V30 32 C 39.547350 26.831752 57.793114 0
M  V30 33 O 40.266560 28.275379 51.855250 0
M  V30 34 C 38.716247 31.390044 61.406361 0
M  V30 35 C 40.970211 31.268767 62.640678 0 CFG=1
M  V30 36 C 40.508721 33.779391 62.044320 0
M  V30 37 C 41.766648 32.146958 65.375913 0
M  V30 38 C 39.860953 30.353243 50.841850 0
M  V30 39 H 37.685774 28.909195 59.833834 0
M  V30 40 H 38.537445 27.617714 60.588987 0
M  V30 41 H 37.531837 26.392398 53.884199 0
M  V30 42 H 39.330870 32.684715 59.794804 0
M  V30 43 H 38.794622 30.828470 55.165496 0
M  V30 44 H 37.469057 30.530833 57.550800 0
M  V30 45 H 37.574358 32.249978 57.220529 0
M  V30 46 H 38.819739 31.438725 58.172293 0
M  V30 47 H 40.267037 30.062311 56.916038 0
M  V30 48 H 37.522027 27.155727 51.602636 0
M  V30 49 H 42.930502 30.557144 64.505653 0
M  V30 50 H 41.860534 30.012849 65.765701 0
M  V30 51 H 36.099677 33.733199 61.645228 0
M  V30 52 H 35.094666 32.879664 60.492061 0
M  V30 53 H 36.075189 31.974214 61.614076 0
M  V30 54 H 39.953331 31.311799 53.322686 0
M  V30 55 H 40.820145 30.020853 53.980733 0
M  V30 56 H 37.469491 30.708287 53.460781 0
M  V30 57 H 36.845321 29.316584 54.301085 0
M  V30 58 H 39.177639 27.814186 55.166035 0
M  V30 59 H 39.700031 32.687727 63.693424 0
M  V30 60 H 41.080264 28.997890 61.179837 0
M  V30 61 H 41.094260 29.270510 63.549002 0
M  V30 62 H 39.887827 30.320776 64.273462 0
M  V30 63 H 41.402985 27.705335 59.545234 0
M  V30 64 H 41.688135 29.285088 58.874227 0
M  V30 65 H 37.082390 35.040244 59.678185 0
M  V30 66 H 37.866604 34.215593 58.336273 0
M  V30 67 H 36.121186 34.117505 58.546006 0
M  V30 68 H 37.750949 28.026597 57.685250 0
M  V30 69 H 37.619253 26.574615 58.629641 0
M  V30 70 H 42.664189 33.179384 63.697028 0
M  V30 71 H 41.494369 34.126670 64.572746 0
M  V30 72 H 41.456161 27.540635 57.118488 0
M  V30 73 H 37.461840 29.222268 51.595521 0
M  V30 74 H 39.072047 34.816006 60.846388 0
M  V30 75 H 38.369337 34.104276 62.252813 0
M  V30 76 H 40.691322 31.262983 60.558118 0
M  V30 77 H 39.317855 26.315070 56.861110 0
M  V30 78 H 39.962729 26.079052 58.464031 0
M  V30 79 H 39.634420 27.607499 52.091725 0
M  V30 80 H 38.029464 30.659037 60.996671 0
M  V30 81 H 38.339566 31.505505 62.423164 0
M  V30 82 H 42.008618 31.266580 62.306620 0
M  V30 83 H 41.239397 33.603086 61.261158 0
M  V30 84 H 40.768923 34.753548 62.460325 0
M  V30 85 H 39.529045 29.946219 59.300683 0
M  V30 END ATOM
M  V30 BEGIN BOND
M  V30 1 1 9 4
M  V30 2 1 10 2
M  V30 3 1 12 9
M  V30 4 1 13 5
M  V30 5 1 13 6
M  V30 6 1 14 6
M  V30 7 1 16 1
M  V30 8 1 17 6
M  V30 9 2 17 8
M  V30 10 1 20 16
M  V30 11 1 21 11
M  V30 12 1 22 16
M  V30 13 1 23 7
M  V30 14 1 23 9
M  V30 15 1 24 9
M  V30 16 1 25 1
M  V30 17 1 26 19
M  V30 18 1 27 8
M  V30 19 1 27 22
M  V30 20 1 28 5
M  V30 21 1 28 10
M  V30 22 1 28 14
M  V30 23 1 29 4
M  V30 24 1 31 20
M  V30 25 1 32 25
M  V30 26 1 32 27
M  V30 27 1 5 33 CFG=3
M  V30 28 1 34 4
M  V30 29 1 34 31
M  V30 30 1 35 19
M  V30 31 1 35 21
M  V30 32 1 35 31
M  V30 33 1 36 19
M  V30 34 1 36 29
M  V30 35 1 37 3
M  V30 36 1 37 11
M  V30 37 1 37 18
M  V30 38 1 37 26
M  V30 39 1 38 5
M  V30 40 2 38 15
M  V30 41 1 38 30
M  V30 42 1 39 1
M  V30 43 1 40 1
M  V30 44 1 41 2
M  V30 45 1 4 42 CFG=3
M  V30 46 1 6 43 CFG=1
M  V30 47 1 44 7
M  V30 48 1 45 7
M  V30 49 1 46 7
M  V30 50 1 47 8
M  V30 51 1 48 10
M  V30 52 1 49 11
M  V30 53 1 50 11
M  V30 54 1 51 12
M  V30 55 1 52 12
M  V30 56 1 53 12
M  V30 57 1 54 13
M  V30 58 1 55 13
M  V30 59 1 56 14
M  V30 60 1 57 14
M  V30 61 1 58 17
M  V30 62 1 19 59 CFG=1
M  V30 63 1 60 20
M  V30 64 1 61 21
M  V30 65 1 62 21
M  V30 66 1 63 22
M  V30 67 1 64 22
M  V30 68 1 65 24
M  V30 69 1 66 24
M  V30 70 1 67 24
M  V30 71 1 68 25
M  V30 72 1 69 25
M  V30 73 1 70 26
M  V30 74 1 71 26
M  V30 75 1 27 72 CFG=3
M  V30 76 1 28 73 CFG=3
M  V30 77 1 74 29
M  V30 78 1 75 29
M  V30 79 1 31 76 CFG=3
M  V30 80 1 77 32
M  V30 81 1 78 32
M  V30 82 1 79 33
M  V30 83 1 80 34
M  V30 84 1 81 34
M  V30 85 1 35 82 CFG=3
M  V30 86 1 83 36
M  V30 87 1 84 36
M  V30 88 1 16 85 CFG=3
M  V30 END BOND
M  V30 END CTAB
M  END
>  <i_epik_Tot_Q>  (1) 
0

>  <i_epik_Tot_abs_Q>  (1) 
2

>  <i_i_glide_confnum>  (1) 
750

>  <i_i_glide_lignum>  (1) 
239

>  <i_i_glide_posenum>  (1) 
387

>  <i_i_glide_rotatable_bonds>  (1) 
10

>  <i_lp_mmshare_version>  (1) 
72125

>  <i_m_source_file_index>  (1) 
91

>  <i_f3d_flags>  (1) 
0

>  <num_sample>  (1) 
100

>  <b_lp_Chiralities_Consistent>  (1) 
1

>  <r_epik_Charging_Adjusted_Penalty>  (1) 
1.5083745474312953

>  <r_epik_Ionization_Penalty>  (1) 
0.65750586125956467

>  <r_epik_Ionization_Penalty_Charging>  (1) 
0.6544614066189578

>  <r_epik_Ionization_Penalty_Neutral>  (1) 
0.0030444546406068235

>  <r_epik_State_Penalty>  (1) 
0.8539131408123376

>  <r_glide_ring_energy>  (1) 
2.1836281216948508

>  <r_i_docking_score>  (1) 
-4.0043114029890656

>  <r_i_glide_ecoul>  (1) 
1.673616616215615

>  <r_i_glide_eff_state_penalty>  (1) 
0.8539131408123376

>  <r_i_glide_einternal>  (1) 
11.721418282687713

>  <r_i_glide_emodel>  (1) 
-15.680523169774826

>  <r_i_glide_emodel_strain>  (1) 
9.8265297601250978

>  <r_i_glide_energy>  (1) 
-27.802487838679237

>  <r_i_glide_erotb>  (1) 
0.42002339013477186

>  <r_i_glide_esite>  (1) 
0

>  <r_i_glide_evdw>  (1) 
-29.476104454894852

>  <r_i_glide_gscore>  (1) 
-4.8582245438014029

>  <r_i_glide_gscore_strain>  (1) 
1.4566324400312745

>  <r_i_glide_hbond>  (1) 
-0.2466364729445315

>  <r_i_glide_ligand_efficiency>  (1) 
-0.10537661586813331

>  <r_i_glide_ligand_efficiency_ln>  (1) 
-0.86344733339149804

>  <r_i_glide_ligand_efficiency_sa>  (1) 
-0.35427359100036565

>  <r_i_glide_lipo>  (1) 
-4.0056796777171559

>  <r_i_glide_metal>  (1) 
-0

>  <r_i_glide_rewards>  (1) 
-1.2598014929933621

>  <r_lp_Energy>  (1) 
48.876987999999997

>  <s_epik_Chemistry_Notes>  (1) 
This compound has a N-S or N-O group and may undergo hydrolysis at high or low pH.

>  <s_epik_cmdline>  (1) 
J2VwaWtfcHl0aG9uJywgJy1waHQnLCAnMS4wJywgJy1waCcsICc3LjQnLCAnLXRuJywgJzgnLCAnLW1hJywgJzUwMCcsICctaW1hZScsICc8aW5maWxlLm1hZT4nLCAnLW9tYWUnLCAnPG91dGZpbGUubWFlPic=

>  <s_epik_input>  (1) 
RkMoRikoW0NIMl0xKVtDSDJdW0NIMl1bQ0BIXShbQ0BASF0xMilbQ0BIXShbQ0gyXVtDQEhdKFtDSDJdW0NIMl0yKUMoW0NIM10pKFtDSDNdKU9bQ0gzXSlbTkhdTjNbQ0gyXVtDSDJdW0NIMl1bQ0BIXShbQ0gyXTMpL1tDSF09W0NIXS9bQ0BASF0oW0NIMl1bQ0BdNChbT0hdKUMoPU8pW09IXSlbQ0gyXVtDQEBIXTRbTkhdW09IXQ==

>  <s_glide_docking_method>  (1) 
confgen

>  <s_i_glide_gridfile>  (1) 
gpcr_5ht2c_6bqh_protein_autoprepared_prepared

>  <s_lp_Force_Field>  (1) 
S-OPLS

>  <s_lp_Variant>  (1) 
DiffSBDD_90_num_sample_100-11

>  <s_m_source_file>  (1) 
generated__ligand_DiffSBDD_2026-05-06_prepared.sdf

>  <GenAI_Model>  (1) 
DiffSBDD

>  <Protein>  (1) 
GPCR_5HT2C

$$$$
DiffSBDD_44_num_sample_100
     RDKit          3D

  0  0  0  0  0  0  0  0  0  0999 V3000
M  V30 BEGIN CTAB
M  V30 COUNTS 58 59 0 0 1
M  V30 BEGIN ATOM
M  V30 1 C 36.398442 28.844952 58.060452 0
M  V30 2 O 37.024433 31.221291 61.453502 0 CHG=-1
M  V30 3 C 41.249736 33.256820 63.980232 0
M  V30 4 C 38.148287 29.800663 59.335578 0 CFG=1
M  V30 5 N 37.007663 30.758031 59.248860 0 CFG=1 CHG=1
M  V30 6 C 40.114660 31.351804 62.925596 0
M  V30 7 N 38.752284 34.222290 61.969540 0
M  V30 8 C 40.521211 32.818174 62.985635 0
M  V30 9 O 41.031950 34.808067 61.711393 0
M  V30 10 C 37.891585 28.762662 58.250995 0 CFG=1
M  V30 11 C 38.480121 27.366388 58.507017 0
M  V30 12 C 37.688734 33.027639 60.057746 0 CFG=1
M  V30 13 C 37.713173 33.997272 61.251578 0
M  V30 14 C 35.859168 29.900880 58.979363 0
M  V30 15 C 40.638006 35.833190 60.818334 0
M  V30 16 C 42.057445 31.791780 65.797607 0
M  V30 17 C 36.770725 31.792749 60.300547 0 CFG=2
M  V30 18 C 40.116375 33.717852 61.809516 0 CFG=2
M  V30 19 F 39.873800 30.831732 65.823579 0
M  V30 20 C 41.092615 30.660374 65.315555 0 CFG=1
M  V30 21 C 41.924000 33.132692 65.091297 0
M  V30 22 C 37.318592 33.758037 58.749500 0
M  V30 23 C 36.391129 34.683692 61.542411 0
M  V30 24 C 39.467380 30.421121 59.015813 0
M  V30 25 C 40.989573 30.387237 63.787126 0
M  V30 26 H 35.874826 27.913596 58.253498 0
M  V30 27 H 36.267578 29.221803 57.053923 0
M  V30 28 H 38.185041 29.305676 60.305194 0
M  V30 29 H 39.066562 31.266063 63.208805 0
M  V30 30 H 40.178229 31.010972 61.900684 0
M  V30 31 H 38.326187 29.107339 57.309113 0
M  V30 32 H 38.267436 27.005829 59.509738 0
M  V30 33 H 38.090213 26.639418 57.794756 0
M  V30 34 H 39.564247 27.375656 58.399665 0
M  V30 35 H 38.682722 32.680590 59.871927 0
M  V30 36 H 35.533437 29.379236 59.853493 0
M  V30 37 H 34.984704 30.421452 58.607698 0
M  V30 38 H 41.467357 36.512939 60.653522 0
M  V30 39 H 40.298235 35.417056 59.868234 0
M  V30 40 H 39.826915 36.428225 61.235362 0
M  V30 41 H 43.089208 31.467154 65.658621 0
M  V30 42 H 41.927756 31.947771 66.869065 0
M  V30 43 H 35.763100 32.163446 60.103069 0
M  V30 44 H 40.291406 33.150304 60.902324 0
M  V30 45 H 41.437178 29.739368 65.786137 0
M  V30 46 H 42.448982 33.970710 65.526914 0
M  V30 47 H 37.866184 34.691054 58.658888 0
M  V30 48 H 37.560851 33.156081 57.873288 0
M  V30 49 H 36.255375 33.992941 58.684970 0
M  V30 50 H 35.955163 35.106941 60.639950 0
M  V30 51 H 35.684045 33.977269 61.976816 0
M  V30 52 H 36.533178 35.496633 62.254334 0
M  V30 53 H 40.218606 29.652466 58.826179 0
M  V30 54 H 39.409820 31.051013 58.125412 0
M  V30 55 H 39.851123 30.985909 59.854108 0
M  V30 56 H 40.578171 29.385110 63.660538 0
M  V30 57 H 41.995877 30.339972 63.370344 0
M  V30 58 H 37.115491 31.273811 58.385548 0
M  V30 END ATOM
M  V30 BEGIN BOND
M  V30 1 1 5 4
M  V30 2 2 8 3
M  V30 3 1 8 6
M  V30 4 1 10 1
M  V30 5 1 10 4
M  V30 6 1 11 10
M  V30 7 2 13 7
M  V30 8 1 13 12
M  V30 9 1 14 1
M  V30 10 1 14 5
M  V30 11 1 15 9
M  V30 12 1 17 2
M  V30 13 1 17 5
M  V30 14 1 17 12
M  V30 15 1 18 7
M  V30 16 1 18 8
M  V30 17 1 18 9
M  V30 18 1 20 16
M  V30 19 1 20 19
M  V30 20 2 21 3
M  V30 21 1 21 16
M  V30 22 1 22 12
M  V30 23 1 23 13
M  V30 24 1 24 4
M  V30 25 1 25 6
M  V30 26 1 25 20
M  V30 27 1 26 1
M  V30 28 1 27 1
M  V30 29 1 4 28 CFG=1
M  V30 30 1 29 6
M  V30 31 1 30 6
M  V30 32 1 10 31 CFG=3
M  V30 33 1 32 11
M  V30 34 1 33 11
M  V30 35 1 34 11
M  V30 36 1 12 35 CFG=3
M  V30 37 1 36 14
M  V30 38 1 37 14
M  V30 39 1 38 15
M  V30 40 1 39 15
M  V30 41 1 40 15
M  V30 42 1 41 16
M  V30 43 1 42 16
M  V30 44 1 17 43 CFG=1
M  V30 45 1 18 44 CFG=3
M  V30 46 1 20 45 CFG=1
M  V30 47 1 46 21
M  V30 48 1 47 22
M  V30 49 1 48 22
M  V30 50 1 49 22
M  V30 51 1 50 23
M  V30 52 1 51 23
M  V30 53 1 52 23
M  V30 54 1 53 24
M  V30 55 1 54 24
M  V30 56 1 55 24
M  V30 57 1 56 25
M  V30 58 1 57 25
M  V30 59 1 5 58 CFG=3
M  V30 END BOND
M  V30 END CTAB
M  END
>  <i_epik_Tot_Q>  (1) 
0

>  <i_epik_Tot_abs_Q>  (1) 
2

>  <i_i_glide_confnum>  (1) 
6

>  <i_i_glide_lignum>  (1) 
110

>  <i_i_glide_posenum>  (1) 
179

>  <i_i_glide_rotatable_bonds>  (1) 
6

>  <i_lp_mmshare_version>  (1) 
72125

>  <i_m_source_file_index>  (1) 
45

>  <i_f3d_flags>  (1) 
0

>  <num_sample>  (1) 
100

>  <b_lp_Chiralities_Consistent>  (1) 
1

>  <r_epik_Charging_Adjusted_Penalty>  (1) 
0.41733257654759531

>  <r_epik_Ionization_Penalty>  (1) 
0.0069177268181324029

>  <r_epik_Ionization_Penalty_Charging>  (1) 
0.0066527375949913311

>  <r_epik_Ionization_Penalty_Neutral>  (1) 
0.00026498922314107146

>  <r_epik_State_Penalty>  (1) 
0.41067983895260396

>  <r_glide_ring_energy>  (1) 
0

>  <r_i_docking_score>  (1) 
-3.9948115434884559

>  <r_i_glide_ecoul>  (1) 
-6.0504490751327644

>  <r_i_glide_eff_state_penalty>  (1) 
0.41067983895260396

>  <r_i_glide_einternal>  (1) 
7.9009640860896155

>  <r_i_glide_emodel>  (1) 
-22.501333330025652

>  <r_i_glide_emodel_strain>  (1) 
2.751138608786917

>  <r_i_glide_energy>  (1) 
-18.486887481892087

>  <r_i_glide_erotb>  (1) 
0.61440649929112812

>  <r_i_glide_esite>  (1) 
-0.13782670470330935

>  <r_i_glide_evdw>  (1) 
-12.436438406759322

>  <r_i_glide_gscore>  (1) 
-4.4054913824410598

>  <r_i_glide_gscore_strain>  (1) 
0

>  <r_i_glide_hbond>  (1) 
-0.17352673594699483

>  <r_i_glide_ligand_efficiency>  (1) 
-0.15979246173953823

>  <r_i_glide_ligand_efficiency_ln>  (1) 
-0.94689005064832765

>  <r_i_glide_ligand_efficiency_sa>  (1) 
-0.46723599255911058

>  <r_i_glide_lipo>  (1) 
-1.440824383736907

>  <r_i_glide_metal>  (1) 
-0

>  <r_i_glide_rewards>  (1) 
-1.7383307757370967

>  <r_lp_Energy>  (1) 
10.814218

>  <r_lp_tautomer_probability>  (1) 
0.49999399997599986

>  <s_epik_Chemistry_Notes>  (1) 
This compound has an imine and may undergo hydrolysis. This compound contains an acetal/aminal-like group ( X-CH(R)-Y where X, Y are N, S, or O) that may be acid/base labile, releasing an aldehyde.

>  <s_epik_cmdline>  (1) 
J2VwaWtfcHl0aG9uJywgJy1waHQnLCAnMS4wJywgJy1waCcsICc3LjQnLCAnLXRuJywgJzgnLCAnLW1hJywgJzUwMCcsICctaW1hZScsICc8aW5maWxlLm1hZT4nLCAnLW9tYWUnLCAnPG91dGZpbGUubWFlPic=

>  <s_epik_input>  (1) 
W0NIM11bQ0BIXTFbQ0gyXVtDSDJdTihbQ0BASF0xW0NIM10pW0NAQEhdKFtPSF0pW0NAQEhdKFtDSDNdKS9DKFtDSDNdKT1OXFtDQEBIXShPW0NIM10pQzI9Qz1bQ0hdW0NIMl1bQ0BASF0oRilbQ0gyXVtDSDJdMg==

>  <s_glide_docking_method>  (1) 
confgen

>  <s_i_glide_gridfile>  (1) 
gpcr_5ht2c_6bqh_protein_autoprepared_prepared

>  <s_lp_Force_Field>  (1) 
S-OPLS

>  <s_lp_Variant>  (1) 
DiffSBDD_44_num_sample_100-3

>  <s_m_source_file>  (1) 
generated__ligand_DiffSBDD_2026-05-06_prepared.sdf

>  <GenAI_Model>  (1) 
DiffSBDD

>  <Protein>  (1) 
GPCR_5HT2C

$$$$
DiffSBDD_96_num_sample_100
     RDKit          3D

  0  0  0  0  0  0  0  0  0  0999 V3000
M  V30 BEGIN CTAB
M  V30 COUNTS 29 28 0 0 1
M  V30 BEGIN ATOM
M  V30 1 C 38.199436 28.147880 53.536885 0
M  V30 2 C 40.178682 29.490349 50.108546 0
M  V30 3 N 37.867414 31.723073 56.200700 0 CHG=1
M  V30 4 C 37.646603 30.296009 55.853388 0
M  V30 5 C 38.741212 28.109955 54.988549 0
M  V30 6 C 38.940484 29.466563 55.702664 0
M  V30 7 C 38.760395 31.947460 57.351877 0
M  V30 8 S 39.467383 28.077130 51.007655 0
M  V30 9 C 38.209296 32.574892 55.042548 0
M  V30 10 O 39.467317 30.067766 52.790903 0
M  V30 11 C 39.067800 28.930227 52.545458 0
M  V30 12 H 37.192168 28.561874 53.508514 0
M  V30 13 H 38.100350 27.123354 53.175618 0
M  V30 14 H 40.420290 29.217342 49.082144 0
M  V30 15 H 41.089280 29.839335 50.596387 0
M  V30 16 H 39.467402 30.316180 50.070864 0
M  V30 17 H 37.045107 30.264215 54.945762 0
M  V30 18 H 37.026418 29.847932 56.630673 0
M  V30 19 H 38.066813 27.498026 55.588863 0
M  V30 20 H 39.692495 27.575893 54.991111 0
M  V30 21 H 39.344532 29.267801 56.695895 0
M  V30 22 H 39.716990 30.043806 55.204858 0
M  V30 23 H 39.788531 31.743496 57.053502 0
M  V30 24 H 38.702008 32.983474 57.687841 0
M  V30 25 H 38.493689 31.302616 58.189930 0
M  V30 26 H 39.187040 32.317383 54.635918 0
M  V30 27 H 37.467395 32.464730 54.253494 0
M  V30 28 H 38.221802 33.626215 55.332270 0
M  V30 29 H 36.929138 32.021426 56.495333 0
M  V30 END ATOM
M  V30 BEGIN BOND
M  V30 1 1 4 3
M  V30 2 1 5 1
M  V30 3 1 6 4
M  V30 4 1 6 5
M  V30 5 1 7 3
M  V30 6 1 8 2
M  V30 7 1 9 3
M  V30 8 1 11 1
M  V30 9 1 11 8
M  V30 10 2 11 10
M  V30 11 1 12 1
M  V30 12 1 13 1
M  V30 13 1 14 2
M  V30 14 1 15 2
M  V30 15 1 16 2
M  V30 16 1 17 4
M  V30 17 1 18 4
M  V30 18 1 19 5
M  V30 19 1 20 5
M  V30 20 1 21 6
M  V30 21 1 22 6
M  V30 22 1 23 7
M  V30 23 1 24 7
M  V30 24 1 25 7
M  V30 25 1 26 9
M  V30 26 1 27 9
M  V30 27 1 28 9
M  V30 28 1 29 3
M  V30 END BOND
M  V30 END CTAB
M  END
>  <i_epik_Tot_Q>  (1) 
1

>  <i_epik_Tot_abs_Q>  (1) 
1

>  <i_i_glide_confnum>  (1) 
78

>  <i_i_glide_lignum>  (1) 
267

>  <i_i_glide_posenum>  (1) 
172

>  <i_i_glide_rotatable_bonds>  (1) 
6

>  <i_lp_mmshare_version>  (1) 
72125

>  <i_m_source_file_index>  (1) 
97

>  <i_f3d_flags>  (1) 
0

>  <num_sample>  (1) 
100

>  <b_lp_Chiralities_Consistent>  (1) 
1

>  <r_epik_Charging_Adjusted_Penalty>  (1) 
0.0098875649971034846

>  <r_epik_Ionization_Penalty>  (1) 
0.0049437824985517501

>  <r_epik_Ionization_Penalty_Charging>  (1) 
0.0049437824985517501

>  <r_epik_Ionization_Penalty_Neutral>  (1) 
0

>  <r_epik_State_Penalty>  (1) 
0.0049437824985517353

>  <r_glide_ring_energy>  (1) 
0

>  <r_i_docking_score>  (1) 
-3.9773193537218323

>  <r_i_glide_ecoul>  (1) 
-4.0011643546559075

>  <r_i_glide_eff_state_penalty>  (1) 
0.0049437824985517353

>  <r_i_glide_einternal>  (1) 
2.0333738478266246

>  <r_i_glide_emodel>  (1) 
-34.469552781546597

>  <r_i_glide_emodel_strain>  (1) 
0.98152437083700583

>  <r_i_glide_energy>  (1) 
-27.107996063478879

>  <r_i_glide_erotb>  (1) 
2.0117858138389204

>  <r_i_glide_esite>  (1) 
-0.10000000000000001

>  <r_i_glide_evdw>  (1) 
-23.106831708822973

>  <r_i_glide_gscore>  (1) 
-3.982263136220384

>  <r_i_glide_gscore_strain>  (1) 
0

>  <r_i_glide_hbond>  (1) 
-0.20117163385451031

>  <r_i_glide_ligand_efficiency>  (1) 
-0.36157448670198478

>  <r_i_glide_ligand_efficiency_ln>  (1) 
-1.1705244083188799

>  <r_i_glide_ligand_efficiency_sa>  (1) 
-0.80413445968303388

>  <r_i_glide_lipo>  (1) 
-1.2803344412016233

>  <r_i_glide_metal>  (1) 
-0

>  <r_i_glide_rewards>  (1) 
-2.6570266363636361

>  <r_lp_Energy>  (1) 
14.365169999999999

>  <s_epik_cmdline>  (1) 
J2VwaWtfcHl0aG9uJywgJy1waHQnLCAnMS4wJywgJy1waCcsICc3LjQnLCAnLXRuJywgJzgnLCAnLW1hJywgJzUwMCcsICctaW1hZScsICc8aW5maWxlLm1hZT4nLCAnLW9tYWUnLCAnPG91dGZpbGUubWFlPic=

>  <s_epik_input>  (1) 
W0NIM11TQyg9TylbQ0gyXVtDSDJdW0NIMl1bQ0gyXU4oW0NIM10pW0NIM10=

>  <s_glide_docking_method>  (1) 
confgen

>  <s_i_glide_gridfile>  (1) 
gpcr_5ht2c_6bqh_protein_autoprepared_prepared

>  <s_lp_Force_Field>  (1) 
S-OPLS

>  <s_lp_Variant>  (1) 
DiffSBDD_96_num_sample_100-1

>  <s_m_source_file>  (1) 
generated__ligand_DiffSBDD_2026-05-06_prepared.sdf

>  <GenAI_Model>  (1) 
DiffSBDD

>  <Protein>  (1) 
GPCR_5HT2C

$$$$
DiffSBDD_81_num_sample_100
     RDKit          3D

  0  0  0  0  0  0  0  0  0  0999 V3000
M  V30 BEGIN CTAB
M  V30 COUNTS 55 56 0 0 1
M  V30 BEGIN ATOM
M  V30 1 N 40.667381 26.453259 57.853499 0 CHG=1
M  V30 2 C 37.469729 25.888650 54.303453 0
M  V30 3 C 39.539873 28.425192 56.868228 0
M  V30 4 C 37.759980 30.008201 57.872326 0
M  V30 5 S 36.661780 31.171912 60.162669 0
M  V30 6 C 38.266769 32.408466 58.511433 0
M  V30 7 C 38.862399 30.517572 55.589338 0
M  V30 8 C 37.658334 31.255707 58.746414 0
M  V30 9 C 38.735897 27.724591 53.447377 0 CFG=2
M  V30 10 O 41.187745 28.421427 58.487285 0 CHG=-1
M  V30 11 O 36.673994 33.554131 61.449198 0
M  V30 12 C 39.631666 27.095135 52.366021 0
M  V30 13 C 39.031830 29.877562 56.991737 0 CFG=2
M  V30 14 C 38.071584 33.564807 59.449375 0
M  V30 15 C 39.452831 27.588759 50.929745 0
M  V30 16 O 37.496818 27.024619 53.453652 0
M  V30 17 O 40.254154 28.739105 50.722722 0
M  V30 18 C 40.108914 27.776260 58.147974 0 CFG=2
M  V30 19 C 37.105070 32.924916 60.485001 0
M  V30 20 C 37.849068 29.850370 54.609996 0
M  V30 21 C 38.405371 29.226830 53.293826 0 CFG=1
M  V30 22 C 39.510396 30.100873 52.647924 0
M  V30 23 C 39.702747 25.389987 57.508798 0
M  V30 24 C 39.641470 29.947141 51.125135 0
M  V30 25 H 41.351794 26.566606 57.119630 0
M  V30 26 H 36.667420 25.219386 54.002345 0
M  V30 27 H 38.393399 25.312915 54.262433 0
M  V30 28 H 37.292709 26.193005 55.334742 0
M  V30 29 H 38.714657 27.816103 56.504155 0
M  V30 30 H 40.320885 28.401700 56.106428 0
M  V30 31 H 37.684449 29.158406 58.547832 0
M  V30 32 H 36.860088 29.958963 57.259284 0
M  V30 33 H 38.902784 32.550057 57.652801 0
M  V30 34 H 38.548477 31.553279 55.718463 0
M  V30 35 H 39.853023 30.594718 55.146223 0
M  V30 36 H 39.246691 27.572688 54.391371 0
M  V30 37 H 39.496480 26.021436 52.368022 0
M  V30 38 H 40.667393 27.221159 52.653500 0
M  V30 39 H 39.840354 30.421511 57.480115 0
M  V30 40 H 39.010412 33.872170 59.909245 0
M  V30 41 H 37.604368 34.409724 58.943091 0
M  V30 42 H 38.405920 27.741770 50.665716 0
M  V30 43 H 39.830450 26.822415 50.253863 0
M  V30 44 H 39.292215 27.621521 58.853421 0
M  V30 45 H 37.230707 29.119865 55.129161 0
M  V30 46 H 37.142010 30.629183 54.319788 0
M  V30 47 H 37.569829 29.221438 52.593285 0
M  V30 48 H 39.270102 31.148350 52.834670 0
M  V30 49 H 40.476806 29.952608 53.121168 0
M  V30 50 H 40.209342 24.427242 57.453251 0
M  V30 51 H 38.910251 25.315919 58.253531 0
M  V30 52 H 39.251272 25.576176 56.537480 0
M  V30 53 H 38.667428 30.021408 50.653482 0
M  V30 54 H 40.246305 30.765872 50.733567 0
M  V30 55 H 41.174529 26.201277 58.687033 0
M  V30 END ATOM
M  V30 BEGIN BOND
M  V30 1 1 8 4
M  V30 2 1 8 5
M  V30 3 2 8 6
M  V30 4 1 12 9
M  V30 5 1 13 3
M  V30 6 1 13 4
M  V30 7 1 13 7
M  V30 8 1 14 6
M  V30 9 1 15 12
M  V30 10 1 16 2
M  V30 11 1 16 9
M  V30 12 1 17 15
M  V30 13 1 18 1
M  V30 14 1 18 3
M  V30 15 1 18 10
M  V30 16 1 19 5
M  V30 17 2 19 11
M  V30 18 1 19 14
M  V30 19 1 20 7
M  V30 20 1 21 9
M  V30 21 1 21 20
M  V30 22 1 22 21
M  V30 23 1 23 1
M  V30 24 1 24 17
M  V30 25 1 24 22
M  V30 26 1 25 1
M  V30 27 1 26 2
M  V30 28 1 27 2
M  V30 29 1 28 2
M  V30 30 1 29 3
M  V30 31 1 30 3
M  V30 32 1 31 4
M  V30 33 1 32 4
M  V30 34 1 33 6
M  V30 35 1 34 7
M  V30 36 1 35 7
M  V30 37 1 9 36 CFG=1
M  V30 38 1 37 12
M  V30 39 1 38 12
M  V30 40 1 13 39 CFG=1
M  V30 41 1 40 14
M  V30 42 1 41 14
M  V30 43 1 42 15
M  V30 44 1 43 15
M  V30 45 1 18 44 CFG=1
M  V30 46 1 45 20
M  V30 47 1 46 20
M  V30 48 1 21 47 CFG=3
M  V30 49 1 48 22
M  V30 50 1 49 22
M  V30 51 1 50 23
M  V30 52 1 51 23
M  V30 53 1 52 23
M  V30 54 1 53 24
M  V30 55 1 54 24
M  V30 56 1 55 1
M  V30 END BOND
M  V30 END CTAB
M  END
>  <i_epik_Tot_Q>  (1) 
0

>  <i_epik_Tot_abs_Q>  (1) 
2

>  <i_i_glide_confnum>  (1) 
1137

>  <i_i_glide_lignum>  (1) 
214

>  <i_i_glide_posenum>  (1) 
283

>  <i_i_glide_rotatable_bonds>  (1) 
9

>  <i_lp_mmshare_version>  (1) 
72125

>  <i_m_source_file_index>  (1) 
82

>  <i_f3d_flags>  (1) 
0

>  <num_sample>  (1) 
100

>  <b_lp_Chiralities_Consistent>  (1) 
1

>  <r_epik_Charging_Adjusted_Penalty>  (1) 
2.6824970044638059

>  <r_epik_Ionization_Penalty>  (1) 
1.3267145025925604

>  <r_epik_Ionization_Penalty_Charging>  (1) 
1.3267145025735321

>  <r_epik_Ionization_Penalty_Neutral>  (1) 
1.9028324776712985e-11

>  <r_epik_State_Penalty>  (1) 
1.3557825018902738

>  <r_glide_ring_energy>  (1) 
0.093239952567163886

>  <r_i_docking_score>  (1) 
-3.9737499335290991

>  <r_i_glide_ecoul>  (1) 
-0.49306516691613922

>  <r_i_glide_eff_state_penalty>  (1) 
1.3557825018902738

>  <r_i_glide_einternal>  (1) 
14.103577422634039

>  <r_i_glide_emodel>  (1) 
-39.70933890736719

>  <r_i_glide_emodel_strain>  (1) 
2.0301254857206956

>  <r_i_glide_energy>  (1) 
-34.855609670130349

>  <r_i_glide_erotb>  (1) 
0.89870139130029003

>  <r_i_glide_esite>  (1) 
-0.0011780555144547393

>  <r_i_glide_evdw>  (1) 
-34.36254450321421

>  <r_i_glide_gscore>  (1) 
-5.3295324354193729

>  <r_i_glide_gscore_strain>  (1) 
0

>  <r_i_glide_hbond>  (1) 
0

>  <r_i_glide_ligand_efficiency>  (1) 
-0.16557291389704579

>  <r_i_glide_ligand_efficiency_ln>  (1) 
-0.95110070259630142

>  <r_i_glide_ligand_efficiency_sa>  (1) 
-0.47759492784511964

>  <r_i_glide_lipo>  (1) 
-2.4898127400035457

>  <r_i_glide_metal>  (1) 
-0

>  <r_i_glide_rewards>  (1) 
-1.9451560310035307

>  <r_lp_Energy>  (1) 
7.9027319999999994

>  <s_epik_Chemistry_Notes>  (1) 
This compound contains an acetal/aminal-like group ( X-CH(R)-Y where X, Y are N, S, or O) that may be acid/base labile, releasing an aldehyde.

>  <s_epik_cmdline>  (1) 
J2VwaWtfcHl0aG9uJywgJy1waHQnLCAnMS4wJywgJy1waCcsICc3LjQnLCAnLXRuJywgJzgnLCAnLW1hJywgJzUwMCcsICctaW1hZScsICc8aW5maWxlLm1hZT4nLCAnLW9tYWUnLCAnPG91dGZpbGUubWFlPic=

>  <s_epik_input>  (1) 
UzFDKD1PKVtDSDJdW0NIXT1DMVtDSDJdW0NAQEhdKFtDSDJdW0NASF0oW09IXSlbTkhdW0NIM10pW0NIMl1bQ0gyXVtDQEhdMltDSDJdW0NIMl1PW0NIMl1bQ0gyXVtDQEBIXTJPW0NIM10=

>  <s_glide_docking_method>  (1) 
confgen

>  <s_i_glide_gridfile>  (1) 
gpcr_5ht2c_6bqh_protein_autoprepared_prepared

>  <s_lp_Force_Field>  (1) 
S-OPLS

>  <s_lp_Variant>  (1) 
DiffSBDD_81_num_sample_100-2

>  <s_m_source_file>  (1) 
generated__ligand_DiffSBDD_2026-05-06_prepared.sdf

>  <GenAI_Model>  (1) 
DiffSBDD

>  <Protein>  (1) 
GPCR_5HT2C

$$$$
DiffSBDD_79_num_sample_100
     RDKit          3D

  0  0  0  0  0  0  0  0  0  0999 V3000
M  V30 BEGIN CTAB
M  V30 COUNTS 85 87 0 0 1
M  V30 BEGIN ATOM
M  V30 1 C 38.666451 26.500705 58.921728 0
M  V30 2 C 38.530304 30.765947 60.931596 0
M  V30 3 C 39.867261 29.125968 52.142955 0
M  V30 4 C 38.141744 36.593609 63.553928 0
M  V30 5 C 39.495640 27.276651 56.847545 0
M  V30 6 C 38.756589 26.983692 52.367396 0
M  V30 7 C 39.320796 27.700784 58.320505 0
M  V30 8 C 38.928678 31.554048 55.789881 0
M  V30 9 F 38.666977 26.821432 51.051343 0
M  V30 10 C 39.544669 35.975361 63.425519 0
M  V30 11 C 38.291002 29.390853 60.233864 0
M  V30 12 C 37.724456 30.169220 54.076421 0
M  V30 13 F 39.867602 26.421587 52.817137 0
M  V30 14 C 38.804762 28.443206 52.592598 0
M  V30 15 C 39.950767 31.076922 53.629555 0
M  V30 16 C 37.565161 32.986242 61.522501 0
M  V30 17 C 36.397880 37.836604 62.366256 0
M  V30 18 N 37.413657 36.935860 62.318494 0
M  V30 19 C 40.439412 28.431763 59.069191 0
M  V30 20 C 38.892361 30.945382 54.432595 0
M  V30 21 C 37.843381 36.295094 61.045124 0
M  V30 22 C 37.542317 32.260064 59.018741 0 CFG=2
M  V30 23 C 39.053437 29.123819 58.918632 0
M  V30 24 C 41.725534 28.725506 58.299696 0
M  V30 25 O 37.553611 31.055269 58.276011 0
M  V30 26 O 35.900500 38.226672 63.421828 0
M  V30 27 C 38.803559 33.198523 58.858428 0
M  V30 28 C 40.887986 28.060995 60.487896 0
M  V30 29 C 35.923123 38.421545 61.055407 0
M  V30 30 N 37.547295 31.835370 60.569395 0 CFG=1 CHG=1
M  V30 31 F 37.745135 26.430508 53.053439 0
M  V30 32 C 37.689321 29.071386 53.290443 0
M  V30 33 C 36.786955 35.290957 60.484853 0
M  V30 34 C 40.059306 30.579261 52.237669 0
M  V30 35 C 36.434602 34.024139 61.301433 0
M  V30 36 C 39.098375 30.302262 56.640846 0
M  V30 37 C 38.793837 30.384391 58.092988 0 CFG=2
M  V30 38 H 39.381054 25.688827 59.053000 0
M  V30 39 H 38.267411 26.821585 59.853660 0
M  V30 40 H 37.826571 26.147021 58.320011 0
M  V30 41 H 39.558314 31.105293 60.800759 0
M  V30 42 H 38.424724 30.591968 62.003603 0
M  V30 43 H 40.651306 28.585788 51.631792 0
M  V30 44 H 38.293994 37.519407 64.114167 0
M  V30 45 H 37.491255 36.021690 64.189529 0
M  V30 46 H 40.065402 27.941396 56.213875 0
M  V30 47 H 38.520456 27.143051 56.374035 0
M  V30 48 H 40.018013 26.319416 56.800366 0
M  V30 49 H 39.749037 32.262330 55.920558 0
M  V30 50 H 37.985247 32.069740 55.982717 0
M  V30 51 H 40.037775 35.923186 64.395947 0
M  V30 52 H 39.512214 34.963342 63.028686 0
M  V30 53 H 40.181317 36.587057 62.784877 0
M  V30 54 H 38.611933 28.653264 60.962715 0
M  V30 55 H 37.228777 29.229771 60.050844 0
M  V30 56 H 36.796581 30.440128 54.564101 0
M  V30 57 H 40.799491 31.621293 53.990135 0
M  V30 58 H 37.433237 32.570206 62.522505 0
M  V30 59 H 38.543219 33.463695 61.542581 0
M  V30 60 H 38.797787 35.780291 61.102871 0
M  V30 61 H 38.034845 37.060315 60.293590 0
M  V30 62 H 36.616312 32.782054 58.772117 0
M  V30 63 H 41.598514 28.821314 57.237439 0
M  V30 64 H 42.425000 27.895890 58.410359 0
M  V30 65 H 42.208778 29.621294 58.667308 0
M  V30 66 H 38.705608 34.151840 59.342445 0
M  V30 67 H 39.700577 32.821152 59.341004 0
M  V30 68 H 38.989096 33.391217 57.803675 0
M  V30 69 H 41.867456 27.621557 60.490215 0
M  V30 70 H 40.934823 28.944581 61.125679 0
M  V30 71 H 40.255440 27.320445 60.961654 0
M  V30 72 H 36.813966 38.882334 60.638581 0
M  V30 73 H 35.467221 37.763070 60.329905 0
M  V30 74 H 35.230383 39.228311 61.285628 0
M  V30 75 H 36.735595 28.571937 53.215755 0
M  V30 76 H 36.964319 35.062623 59.442799 0
M  V30 77 H 35.867372 35.805846 60.352685 0
M  V30 78 H 39.467297 31.138992 51.527934 0
M  V30 79 H 41.067205 30.792729 51.881048 0
M  V30 80 H 35.570548 33.531057 60.847969 0
M  V30 81 H 36.059093 34.365140 62.259410 0
M  V30 82 H 38.439276 29.509295 56.303456 0
M  V30 83 H 40.118803 29.994957 56.476166 0
M  V30 84 H 39.467402 31.042645 58.492818 0
M  V30 85 H 36.652473 31.394274 60.726523 0
M  V30 END ATOM
M  V30 BEGIN BOND
M  V30 1 1 7 1
M  V30 2 1 7 5
M  V30 3 1 9 6
M  V30 4 1 10 4
M  V30 5 1 11 2
M  V30 6 1 13 6
M  V30 7 2 14 3
M  V30 8 1 14 6
M  V30 9 1 18 4
M  V30 10 1 18 17
M  V30 11 1 19 7
M  V30 12 1 20 8
M  V30 13 1 20 12
M  V30 14 2 20 15
M  V30 15 1 21 18
M  V30 16 1 23 7
M  V30 17 1 23 11
M  V30 18 1 23 19
M  V30 19 1 24 19
M  V30 20 1 25 22
M  V30 21 2 26 17
M  V30 22 1 27 22
M  V30 23 1 28 19
M  V30 24 1 29 17
M  V30 25 1 30 2
M  V30 26 1 30 16
M  V30 27 1 30 22
M  V30 28 1 31 6
M  V30 29 2 32 12
M  V30 30 1 32 14
M  V30 31 1 33 21
M  V30 32 1 34 3
M  V30 33 1 34 15
M  V30 34 1 35 16
M  V30 35 1 35 33
M  V30 36 1 36 8
M  V30 37 1 37 23
M  V30 38 1 37 25
M  V30 39 1 37 36
M  V30 40 1 38 1
M  V30 41 1 39 1
M  V30 42 1 40 1
M  V30 43 1 41 2
M  V30 44 1 42 2
M  V30 45 1 43 3
M  V30 46 1 44 4
M  V30 47 1 45 4
M  V30 48 1 46 5
M  V30 49 1 47 5
M  V30 50 1 48 5
M  V30 51 1 49 8
M  V30 52 1 50 8
M  V30 53 1 51 10
M  V30 54 1 52 10
M  V30 55 1 53 10
M  V30 56 1 54 11
M  V30 57 1 55 11
M  V30 58 1 56 12
M  V30 59 1 57 15
M  V30 60 1 58 16
M  V30 61 1 59 16
M  V30 62 1 60 21
M  V30 63 1 61 21
M  V30 64 1 22 62 CFG=1
M  V30 65 1 63 24
M  V30 66 1 64 24
M  V30 67 1 65 24
M  V30 68 1 66 27
M  V30 69 1 67 27
M  V30 70 1 68 27
M  V30 71 1 69 28
M  V30 72 1 70 28
M  V30 73 1 71 28
M  V30 74 1 72 29
M  V30 75 1 73 29
M  V30 76 1 74 29
M  V30 77 1 75 32
M  V30 78 1 76 33
M  V30 79 1 77 33
M  V30 80 1 78 34
M  V30 81 1 79 34
M  V30 82 1 80 35
M  V30 83 1 81 35
M  V30 84 1 82 36
M  V30 85 1 83 36
M  V30 86 1 37 84 CFG=1
M  V30 87 1 30 85 CFG=1
M  V30 END BOND
M  V30 END CTAB
M  END
>  <i_epik_Tot_Q>  (1) 
1

>  <i_epik_Tot_abs_Q>  (1) 
1

>  <i_i_glide_confnum>  (1) 
813

>  <i_i_glide_lignum>  (1) 
203

>  <i_i_glide_posenum>  (1) 
77

>  <i_i_glide_rotatable_bonds>  (1) 
11

>  <i_lp_mmshare_version>  (1) 
72125

>  <i_m_source_file_index>  (1) 
80

>  <i_f3d_flags>  (1) 
0

>  <num_sample>  (1) 
100

>  <b_lp_Chiralities_Consistent>  (1) 
1

>  <r_epik_Charging_Adjusted_Penalty>  (1) 
1.4563538393833728

>  <r_epik_Ionization_Penalty>  (1) 
0.72817750760685918

>  <r_epik_Ionization_Penalty_Charging>  (1) 
0.72817691969168641

>  <r_epik_Ionization_Penalty_Neutral>  (1) 
5.8791517278497126e-07

>  <r_epik_State_Penalty>  (1) 
0.72817691969168641

>  <r_glide_ring_energy>  (1) 
0

>  <r_i_docking_score>  (1) 
-3.9731816951429386

>  <r_i_glide_ecoul>  (1) 
1.735437886883914

>  <r_i_glide_eff_state_penalty>  (1) 
0.72817691969168641

>  <r_i_glide_einternal>  (1) 
20.403168977947303

>  <r_i_glide_emodel>  (1) 
-1.7785149853386457

>  <r_i_glide_emodel_strain>  (1) 
11.569687495699895

>  <r_i_glide_energy>  (1) 
-13.54313753354921

>  <r_i_glide_erotb>  (1) 
0.59581955881290138

>  <r_i_glide_esite>  (1) 
-0.087167280014826834

>  <r_i_glide_evdw>  (1) 
-15.278575420433125

>  <r_i_glide_gscore>  (1) 
-4.7013586148346249

>  <r_i_glide_gscore_strain>  (1) 
1.8924218739249739

>  <r_i_glide_hbond>  (1) 
0

>  <r_i_glide_ligand_efficiency>  (1) 
-0.10738328905791726

>  <r_i_glide_ligand_efficiency_ln>  (1) 
-0.86168996508212337

>  <r_i_glide_ligand_efficiency_sa>  (1) 
-0.35782494230040574

>  <r_i_glide_lipo>  (1) 
-4.7625515527459843

>  <r_i_glide_metal>  (1) 
-0

>  <r_i_glide_rewards>  (1) 
-1.8362681268226215

>  <r_lp_Energy>  (1) 
66.61177099999999

>  <s_epik_Chemistry_Notes>  (1) 
This compound contains an acetal/aminal-like group ( X-CH(R)-Y where X, Y are N, S, or O) that may be acid/base labile, releasing an aldehyde.

>  <s_epik_cmdline>  (1) 
J2VwaWtfcHl0aG9uJywgJy1waHQnLCAnMS4wJywgJy1waCcsICc3LjQnLCAnLXRuJywgJzgnLCAnLW1hJywgJzUwMCcsICctaW1hZScsICc8aW5maWxlLm1hZT4nLCAnLW9tYWUnLCAnPG91dGZpbGUubWFlPic=

>  <s_epik_input>  (1) 
W0NIM11bQ0gyXU4oQyg9TylbQ0gzXSlbQ0gyXVtDSDJdW0NIMl1bQ0gyXU4oW0NIMl1bQ0gyXUMxMkMoW0NIM10pKFtDSDNdKUMxKFtDSDNdKVtDSDNdKVtDQEBIXShbQ0gzXSlPW0NASF0yW0NIMl1bQ0gyXUMoW0NIXT1bQ0hdMyk9W0NIXVtDSDJdW0NIXT1DM0MoRikoRilG

>  <s_glide_docking_method>  (1) 
confgen

>  <s_i_glide_gridfile>  (1) 
gpcr_5ht2c_6bqh_protein_autoprepared_prepared

>  <s_lp_Force_Field>  (1) 
S-OPLS

>  <s_lp_Variant>  (1) 
DiffSBDD_79_num_sample_100-5

>  <s_m_source_file>  (1) 
generated__ligand_DiffSBDD_2026-05-06_prepared.sdf

>  <GenAI_Model>  (1) 
DiffSBDD

>  <Protein>  (1) 
GPCR_5HT2C

$$$$
DiffSBDD_96_num_sample_100
     RDKit          3D

  0  0  0  0  0  0  0  0  0  0999 V3000
M  V30 BEGIN CTAB
M  V30 COUNTS 29 28 0 0 1
M  V30 BEGIN ATOM
M  V30 1 C 38.842238 29.793618 53.525559 0
M  V30 2 C 37.867403 27.057562 53.156868 0
M  V30 3 N 37.867403 31.980544 57.382049 0 CHG=1
M  V30 4 C 38.702508 31.370538 56.318078 0
M  V30 5 C 39.211539 31.261661 53.798899 0
M  V30 6 C 38.375858 31.912255 54.915122 0
M  V30 7 C 37.846669 31.166553 58.616935 0
M  V30 8 S 39.067334 27.493065 51.853590 0
M  V30 9 C 38.190724 33.396737 57.664068 0
M  V30 10 O 40.200080 29.900770 51.524486 0
M  V30 11 C 39.467403 29.221796 52.242413 0
M  V30 12 H 37.758824 29.719273 53.453501 0
M  V30 13 H 39.164434 29.187408 54.370694 0
M  V30 14 H 37.550502 26.021432 53.053502 0
M  V30 15 H 36.969203 27.670542 53.086435 0
M  V30 16 H 38.300152 27.153220 54.151620 0
M  V30 17 H 38.528656 30.294217 56.320150 0
M  V30 18 H 39.758864 31.514955 56.548392 0
M  V30 19 H 40.273063 31.332439 54.038290 0
M  V30 20 H 39.067404 31.848269 52.891406 0
M  V30 21 H 38.560050 32.984744 54.885138 0
M  V30 22 H 37.312717 31.786499 54.702621 0
M  V30 23 H 38.839327 31.099107 59.063567 0
M  V30 24 H 37.167019 31.601377 59.350770 0
M  V30 25 H 37.492225 30.156517 58.407851 0
M  V30 26 H 39.214292 33.499084 58.025469 0
M  V30 27 H 38.068728 34.021427 56.779957 0
M  V30 28 H 37.520496 33.796793 58.425768 0
M  V30 29 H 36.891046 31.975326 57.053502 0
M  V30 END ATOM
M  V30 BEGIN BOND
M  V30 1 1 4 3
M  V30 2 1 5 1
M  V30 3 1 6 4
M  V30 4 1 6 5
M  V30 5 1 7 3
M  V30 6 1 8 2
M  V30 7 1 9 3
M  V30 8 1 11 1
M  V30 9 1 11 8
M  V30 10 2 11 10
M  V30 11 1 12 1
M  V30 12 1 13 1
M  V30 13 1 14 2
M  V30 14 1 15 2
M  V30 15 1 16 2
M  V30 16 1 17 4
M  V30 17 1 18 4
M  V30 18 1 19 5
M  V30 19 1 20 5
M  V30 20 1 21 6
M  V30 21 1 22 6
M  V30 22 1 23 7
M  V30 23 1 24 7
M  V30 24 1 25 7
M  V30 25 1 26 9
M  V30 26 1 27 9
M  V30 27 1 28 9
M  V30 28 1 29 3
M  V30 END BOND
M  V30 END CTAB
M  END
>  <i_epik_Tot_Q>  (1) 
1

>  <i_epik_Tot_abs_Q>  (1) 
1

>  <i_i_glide_confnum>  (1) 
58

>  <i_i_glide_lignum>  (1) 
267

>  <i_i_glide_posenum>  (1) 
103

>  <i_i_glide_rotatable_bonds>  (1) 
6

>  <i_lp_mmshare_version>  (1) 
72125

>  <i_m_source_file_index>  (1) 
97

>  <i_f3d_flags>  (1) 
0

>  <num_sample>  (1) 
100

>  <b_lp_Chiralities_Consistent>  (1) 
1

>  <r_epik_Charging_Adjusted_Penalty>  (1) 
0.0098875649971034846

>  <r_epik_Ionization_Penalty>  (1) 
0.0049437824985517501

>  <r_epik_Ionization_Penalty_Charging>  (1) 
0.0049437824985517501

>  <r_epik_Ionization_Penalty_Neutral>  (1) 
0

>  <r_epik_State_Penalty>  (1) 
0.0049437824985517353

>  <r_glide_ring_energy>  (1) 
0

>  <r_i_docking_score>  (1) 
-3.937796787026302

>  <r_i_glide_ecoul>  (1) 
-4.4833301641732159

>  <r_i_glide_eff_state_penalty>  (1) 
0.0049437824985517353

>  <r_i_glide_einternal>  (1) 
5.4403428772139346

>  <r_i_glide_emodel>  (1) 
-32.80467363602385

>  <r_i_glide_emodel_strain>  (1) 
0

>  <r_i_glide_energy>  (1) 
-26.257969480743284

>  <r_i_glide_erotb>  (1) 
2.0117858138389204

>  <r_i_glide_esite>  (1) 
-0.10000000000000001

>  <r_i_glide_evdw>  (1) 
-21.774639316570067

>  <r_i_glide_gscore>  (1) 
-3.9427405695248536

>  <r_i_glide_gscore_strain>  (1) 
0

>  <r_i_glide_hbond>  (1) 
-0.20000000000000001

>  <r_i_glide_ligand_efficiency>  (1) 
-0.3579815260933002

>  <r_i_glide_ligand_efficiency_ln>  (1) 
-1.1588929236725092

>  <r_i_glide_ligand_efficiency_sa>  (1) 
-0.79614378682311959

>  <r_i_glide_lipo>  (1) 
-1.0334953340940738

>  <r_i_glide_metal>  (1) 
-0

>  <r_i_glide_rewards>  (1) 
-2.8597995588152147

>  <r_lp_Energy>  (1) 
14.365169999999999

>  <s_epik_cmdline>  (1) 
J2VwaWtfcHl0aG9uJywgJy1waHQnLCAnMS4wJywgJy1waCcsICc3LjQnLCAnLXRuJywgJzgnLCAnLW1hJywgJzUwMCcsICctaW1hZScsICc8aW5maWxlLm1hZT4nLCAnLW9tYWUnLCAnPG91dGZpbGUubWFlPic=

>  <s_epik_input>  (1) 
W0NIM11TQyg9TylbQ0gyXVtDSDJdW0NIMl1bQ0gyXU4oW0NIM10pW0NIM10=

>  <s_glide_docking_method>  (1) 
confgen

>  <s_i_glide_gridfile>  (1) 
gpcr_5ht2c_6bqh_protein_autoprepared_prepared

>  <s_lp_Force_Field>  (1) 
S-OPLS

>  <s_lp_Variant>  (1) 
DiffSBDD_96_num_sample_100-1

>  <s_m_source_file>  (1) 
generated__ligand_DiffSBDD_2026-05-06_prepared.sdf

>  <GenAI_Model>  (1) 
DiffSBDD

>  <Protein>  (1) 
GPCR_5HT2C

$$$$
DiffSBDD_29_num_sample_100
     RDKit          3D

  0  0  0  0  0  0  0  0  0  0999 V3000
M  V30 BEGIN CTAB
M  V30 COUNTS 86 90 0 0 1
M  V30 BEGIN ATOM
M  V30 1 F 38.667059 36.747793 61.163595 0
M  V30 2 C 35.333849 31.890028 59.691951 0
M  V30 3 C 39.381521 34.026659 60.493852 0
M  V30 4 C 38.811260 28.052404 56.737774 0 CFG=2
M  V30 5 C 40.179686 28.322797 51.746250 0
M  V30 6 C 40.116904 28.665720 57.295323 0
M  V30 7 C 40.242136 36.569962 62.821065 0
M  V30 8 N 36.783166 31.992710 60.001347 0 CFG=1 CHG=1
M  V30 9 C 37.648112 26.976670 54.582309 0 CFG=1
M  V30 10 C 39.870678 31.325488 51.711090 0
M  V30 11 C 38.802771 30.476099 60.286819 0
M  V30 12 C 39.902107 30.523747 52.983685 0 CFG=1
M  V30 13 C 39.686651 36.100709 61.756198 0
M  V30 14 C 37.785291 29.746990 59.445002 0 CFG=2
M  V30 15 C 35.067405 34.280655 60.104281 0
M  V30 16 C 36.533267 25.209779 56.248578 0
M  V30 17 C 38.887222 27.730870 55.203806 0 CFG=1
M  V30 18 C 37.565517 30.071293 57.976890 0 CFG=1
M  V30 19 C 41.217566 34.315698 62.173226 0
M  V30 20 N 36.467512 34.377170 60.451275 0
M  V30 21 N 40.157042 34.911691 61.329119 0
M  V30 22 F 39.867423 37.708568 63.415641 0
M  V30 23 S 38.659247 30.601753 54.324547 0
M  V30 24 C 36.967944 33.107091 60.966304 0 CFG=2
M  V30 25 C 34.888722 33.212242 59.071891 0
M  V30 26 C 38.625141 24.624611 55.053461 0
M  V30 27 O 38.328112 31.171687 57.521435 0
M  V30 28 C 39.467321 28.935395 54.395715 0 CFG=2
M  V30 29 C 37.528716 28.857521 57.051266 0
M  V30 30 C 40.224970 30.519390 50.428793 0
M  V30 31 C 39.817709 29.025912 50.424964 0
M  V30 32 C 38.394853 33.325841 61.442442 0
M  V30 33 O 37.828342 26.821856 53.198664 0
M  V30 34 C 39.451567 29.083539 52.838142 0 CFG=2
M  V30 35 C 37.325032 30.718291 60.517628 0 CFG=2
M  V30 36 C 37.377642 25.493527 55.001996 0
M  V30 37 O 38.750548 26.845527 57.466612 0
M  V30 38 S 41.490537 35.621297 63.540205 0
M  V30 39 H 35.068406 31.056643 59.053440 0
M  V30 40 H 34.780223 31.705994 60.613923 0
M  V30 41 H 40.015748 33.319895 59.964257 0
M  V30 42 H 38.871379 34.626369 59.742984 0
M  V30 43 H 39.871111 27.279745 51.712376 0
M  V30 44 H 41.259702 28.372927 51.853477 0
M  V30 45 H 40.267471 29.687505 56.960630 0
M  V30 46 H 40.125190 28.688106 58.383963 0
M  V30 47 H 40.986922 28.088209 56.985198 0
M  V30 48 H 36.742999 27.573248 54.653495 0
M  V30 49 H 39.067405 32.021448 51.606390 0
M  V30 50 H 40.667363 32.021414 51.838989 0
M  V30 51 H 39.332217 29.894596 61.039660 0
M  V30 52 H 39.402881 31.242441 59.809142 0
M  V30 53 H 40.880806 30.643037 53.448915 0
M  V30 54 H 37.688150 28.694901 59.682168 0
M  V30 55 H 34.766781 35.221478 59.650728 0
M  V30 56 H 34.463138 34.021727 60.976427 0
M  V30 57 H 37.110099 25.000654 57.146984 0
M  V30 58 H 35.867412 26.021397 56.458725 0
M  V30 59 H 35.916680 24.325855 56.083018 0
M  V30 60 H 39.696433 27.004901 55.135712 0
M  V30 61 H 36.556201 30.420312 57.872754 0
M  V30 62 H 40.889939 33.377822 62.622229 0
M  V30 63 H 42.104323 34.112920 61.576282 0
M  V30 64 H 36.995529 34.681980 59.644444 0
M  V30 65 H 36.377995 32.862317 61.852354 0
M  V30 66 H 35.530582 33.521384 58.253549 0
M  V30 67 H 33.855683 33.169586 58.723524 0
M  V30 68 H 39.130914 24.632587 56.018061 0
M  V30 69 H 38.269227 23.621298 54.861201 0
M  V30 70 H 39.365880 24.893820 54.304571 0
M  V30 71 H 38.046549 31.380410 56.638926 0
M  V30 72 H 40.426879 29.189112 54.842630 0
M  V30 73 H 37.081858 29.221375 56.126035 0
M  V30 74 H 36.789453 28.177275 57.470021 0
M  V30 75 H 39.812819 31.020030 49.551678 0
M  V30 76 H 41.307413 30.555346 50.300202 0
M  V30 77 H 38.743823 28.938451 50.260919 0
M  V30 78 H 40.267423 28.515273 49.577988 0
M  V30 79 H 38.226161 34.013841 62.253543 0
M  V30 80 H 38.837272 32.455368 61.925177 0
M  V30 81 H 38.492474 26.167808 53.049047 0
M  V30 82 H 38.406085 29.077410 52.507772 0
M  V30 83 H 36.889820 30.421453 61.460713 0
M  V30 84 H 36.756420 25.074274 54.202768 0
M  V30 85 H 38.085460 26.293064 57.081407 0
M  V30 86 H 37.269559 32.195764 59.135447 0
M  V30 END ATOM
M  V30 BEGIN BOND
M  V30 1 1 6 4
M  V30 2 1 8 2
M  V30 3 1 12 10
M  V30 4 1 13 1
M  V30 5 2 13 7
M  V30 6 1 14 11
M  V30 7 1 17 4
M  V30 8 1 17 9
M  V30 9 1 18 14
M  V30 10 1 20 15
M  V30 11 1 21 3
M  V30 12 1 21 13
M  V30 13 1 21 19
M  V30 14 1 22 7
M  V30 15 1 23 12
M  V30 16 1 24 8
M  V30 17 1 24 20
M  V30 18 1 25 2
M  V30 19 1 25 15
M  V30 20 1 27 18
M  V30 21 1 28 17
M  V30 22 1 28 23
M  V30 23 1 29 4
M  V30 24 1 29 18
M  V30 25 1 30 10
M  V30 26 1 31 5
M  V30 27 1 31 30
M  V30 28 1 32 3
M  V30 29 1 32 24
M  V30 30 1 33 9
M  V30 31 1 34 5
M  V30 32 1 34 12
M  V30 33 1 34 28
M  V30 34 1 35 8
M  V30 35 1 35 11
M  V30 36 1 35 14
M  V30 37 1 36 9
M  V30 38 1 36 16
M  V30 39 1 36 26
M  V30 40 1 4 37 CFG=1
M  V30 41 1 38 7
M  V30 42 1 38 19
M  V30 43 1 39 2
M  V30 44 1 40 2
M  V30 45 1 41 3
M  V30 46 1 42 3
M  V30 47 1 43 5
M  V30 48 1 44 5
M  V30 49 1 45 6
M  V30 50 1 46 6
M  V30 51 1 47 6
M  V30 52 1 9 48 CFG=3
M  V30 53 1 49 10
M  V30 54 1 50 10
M  V30 55 1 51 11
M  V30 56 1 52 11
M  V30 57 1 12 53 CFG=1
M  V30 58 1 14 54 CFG=1
M  V30 59 1 55 15
M  V30 60 1 56 15
M  V30 61 1 57 16
M  V30 62 1 58 16
M  V30 63 1 59 16
M  V30 64 1 17 60 CFG=1
M  V30 65 1 18 61 CFG=1
M  V30 66 1 62 19
M  V30 67 1 63 19
M  V30 68 1 64 20
M  V30 69 1 24 65 CFG=1
M  V30 70 1 66 25
M  V30 71 1 67 25
M  V30 72 1 68 26
M  V30 73 1 69 26
M  V30 74 1 70 26
M  V30 75 1 71 27
M  V30 76 1 28 72 CFG=1
M  V30 77 1 73 29
M  V30 78 1 74 29
M  V30 79 1 75 30
M  V30 80 1 76 30
M  V30 81 1 77 31
M  V30 82 1 78 31
M  V30 83 1 79 32
M  V30 84 1 80 32
M  V30 85 1 81 33
M  V30 86 1 34 82 CFG=3
M  V30 87 1 35 83 CFG=1
M  V30 88 1 84 36
M  V30 89 1 85 37
M  V30 90 1 8 86 CFG=3
M  V30 END BOND
M  V30 END CTAB
M  END
>  <i_epik_Tot_Q>  (1) 
1

>  <i_epik_Tot_abs_Q>  (1) 
1

>  <i_i_glide_confnum>  (1) 
213

>  <i_i_glide_lignum>  (1) 
77

>  <i_i_glide_posenum>  (1) 
138

>  <i_i_glide_rotatable_bonds>  (1) 
14

>  <i_lp_mmshare_version>  (1) 
72125

>  <i_m_source_file_index>  (1) 
30

>  <i_f3d_flags>  (1) 
0

>  <num_sample>  (1) 
100

>  <b_lp_Chiralities_Consistent>  (1) 
1

>  <r_epik_Charging_Adjusted_Penalty>  (1) 
1.7477768688038313

>  <r_epik_Ionization_Penalty>  (1) 
0.56833185219894722

>  <r_epik_Ionization_Penalty_Charging>  (1) 
0.56833130032608237

>  <r_epik_Ionization_Penalty_Neutral>  (1) 
5.5187286482775955e-07

>  <r_epik_State_Penalty>  (1) 
1.179445568477749

>  <r_glide_ring_energy>  (1) 
2.2046325848136337

>  <r_i_docking_score>  (1) 
-3.9362292577305711

>  <r_i_glide_ecoul>  (1) 
0.3521943068729696

>  <r_i_glide_eff_state_penalty>  (1) 
1.179445568477749

>  <r_i_glide_einternal>  (1) 
28.542539670488292

>  <r_i_glide_emodel>  (1) 
-9.539026087080039

>  <r_i_glide_emodel_strain>  (1) 
12.358692348655239

>  <r_i_glide_energy>  (1) 
-30.970144328464908

>  <r_i_glide_erotb>  (1) 
0.46833353265868582

>  <r_i_glide_esite>  (1) 
-0.094063172715239673

>  <r_i_glide_evdw>  (1) 
-31.322338635337879

>  <r_i_glide_gscore>  (1) 
-5.1156748262083198

>  <r_i_glide_gscore_strain>  (1) 
2.0896730871638098

>  <r_i_glide_hbond>  (1) 
0

>  <r_i_glide_ligand_efficiency>  (1) 
-0.10358498046659398

>  <r_i_glide_ligand_efficiency_ln>  (1) 
-0.84876682009996463

>  <r_i_glide_ligand_efficiency_sa>  (1) 
-0.34825015684244004

>  <r_i_glide_lipo>  (1) 
-4.6501824441577533

>  <r_i_glide_metal>  (1) 
-0

>  <r_i_glide_rewards>  (1) 
-1.4161480434218729

>  <r_lp_Energy>  (1) 
42.636096999999999

>  <s_epik_Chemistry_Notes>  (1) 
This compound has an imine and may undergo hydrolysis. This compound contains an acetal/aminal-like group ( X-CH(R)-Y where X, Y are N, S, or O) that may be acid/base labile, releasing an aldehyde.

>  <s_epik_cmdline>  (1) 
J2VwaWtfcHl0aG9uJywgJy1waHQnLCAnMS4wJywgJy1waCcsICc3LjQnLCAnLXRuJywgJzgnLCAnLW1hJywgJzUwMCcsICctaW1hZScsICc8aW5maWxlLm1hZT4nLCAnLW9tYWUnLCAnPG91dGZpbGUubWFlPic=

>  <s_epik_input>  (1) 
RkMxPUMoRilOKFtDSDJdUzEpW0NIMl1bQ0gyXVtDQEhdMltOSF1bQ0gyXVtDSDJdW0NIMl1OMltDQEBIXTNbQ0gyXVtDQEBIXTNbQ0BASF0oW09IXSlbQ0gyXVtDQEBdKFtDSDNdKShbT0hdKVtDQEBIXShbQ0BASF0oW09IXSlbQ0hdKFtDSDNdKVtDSDNdKVtDQEhdKFM0KVtDQEBIXShbQ0BASF00NSlbQ0gyXVtDSDJdW0NIMl1bQ0gyXTU=

>  <s_glide_docking_method>  (1) 
confgen

>  <s_i_glide_gridfile>  (1) 
gpcr_5ht2c_6bqh_protein_autoprepared_prepared

>  <s_lp_Force_Field>  (1) 
S-OPLS

>  <s_lp_Variant>  (1) 
DiffSBDD_29_num_sample_100-7

>  <s_m_source_file>  (1) 
generated__ligand_DiffSBDD_2026-05-06_prepared.sdf

>  <GenAI_Model>  (1) 
DiffSBDD

>  <Protein>  (1) 
GPCR_5HT2C

$$$$
DiffSBDD_90_num_sample_100
     RDKit          3D

  0  0  0  0  0  0  0  0  0  0999 V3000
M  V30 BEGIN CTAB
M  V30 COUNTS 85 88 0 0 1
M  V30 BEGIN ATOM
M  V30 1 C 37.378744 32.332931 58.733820 0
M  V30 2 O 43.672801 31.572624 67.097017 0
M  V30 3 F 38.560804 32.296626 53.054184 0
M  V30 4 C 39.067181 27.245500 56.364380 0 CFG=1
M  V30 5 C 42.266726 28.998533 64.773364 0 CFG=2
M  V30 6 C 40.248112 30.360615 64.565744 0 CFG=1
M  V30 7 C 37.110075 24.275829 56.096850 0
M  V30 8 C 39.007924 31.061866 62.478393 0
M  V30 9 C 38.791672 25.855087 57.007229 0
M  V30 10 N 43.690120 30.716980 65.928278 0
M  V30 11 C 39.079627 32.609143 55.242021 0
M  V30 12 C 40.078781 25.138424 57.367572 0
M  V30 13 C 40.759153 28.909127 64.502577 0
M  V30 14 C 41.243465 31.123597 65.468745 0
M  V30 15 O 42.192335 26.760801 65.616890 0
M  V30 16 N 38.464580 31.347207 58.702682 0
M  V30 17 C 40.146604 30.985865 63.184397 0
M  V30 18 F 37.068398 33.220537 54.254518 0
M  V30 19 C 38.492075 29.836817 54.437767 0 CFG=1
M  V30 20 N 38.251033 30.376826 57.592363 0 CHG=1
M  V30 21 C 40.152920 31.540183 55.046516 0
M  V30 22 C 38.550539 30.671505 60.003865 0
M  V30 23 O 38.305809 25.030291 55.936773 0
M  V30 24 C 37.866877 25.927423 58.236768 0
M  V30 25 C 37.710346 33.438838 59.746640 0
M  V30 26 C 37.388559 30.899302 54.548071 0
M  V30 27 C 38.899802 31.700765 61.106677 0 CFG=1
M  V30 28 C 42.358730 30.123722 65.827023 0 CFG=1
M  V30 29 C 37.786749 27.763194 55.721340 0
M  V30 30 O 44.192544 27.679616 65.259129 0 CHG=-1
M  V30 31 C 39.479200 29.819622 56.938266 0 CFG=1
M  V30 32 C 37.867321 32.839659 61.144493 0
M  V30 33 O 42.902330 29.395587 63.574700 0
M  V30 34 C 39.717956 28.318601 57.294183 0
M  V30 35 C 39.670570 30.122034 55.406356 0 CFG=1
M  V30 36 C 37.971681 28.410776 54.365273 0
M  V30 37 C 37.988414 32.278847 54.253538 0
M  V30 38 C 42.939478 27.698615 65.258993 0
M  V30 39 H 37.231505 32.801623 57.761285 0
M  V30 40 H 36.432107 31.856521 59.002352 0
M  V30 41 H 43.911035 32.412905 66.733270 0
M  V30 42 H 39.773852 27.063263 55.552805 0
M  V30 43 H 39.255995 30.382846 65.017992 0
M  V30 44 H 36.942416 23.694497 55.190766 0
M  V30 45 H 37.175924 23.582332 56.931702 0
M  V30 46 H 36.235518 24.911344 56.243251 0
M  V30 47 H 38.100751 30.653553 62.892904 0
M  V30 48 H 44.400963 30.030865 66.159738 0
M  V30 49 H 39.465946 33.606891 55.053727 0
M  V30 50 H 38.706946 32.634290 56.258086 0
M  V30 51 H 40.659152 25.649901 58.134872 0
M  V30 52 H 39.867756 24.122640 57.701926 0
M  V30 53 H 40.667067 25.055083 56.457785 0
M  V30 54 H 40.271262 28.340500 65.295780 0
M  V30 55 H 40.527406 28.408356 63.560362 0
M  V30 56 H 40.757489 31.488679 66.375796 0
M  V30 57 H 41.654327 31.993669 64.953238 0
M  V30 58 H 41.058539 31.387737 62.769786 0
M  V30 59 H 38.898719 29.966761 53.435400 0
M  V30 60 H 37.701588 29.623409 57.978746 0
M  V30 61 H 40.449649 31.485116 54.000679 0
M  V30 62 H 41.067695 31.877813 55.454666 0
M  V30 63 H 39.330514 29.909444 59.971787 0
M  V30 64 H 37.612564 30.164851 60.238964 0
M  V30 65 H 38.268115 26.542754 59.040684 0
M  V30 66 H 36.887118 26.324318 57.971487 0
M  V30 67 H 37.722024 24.932867 58.652188 0
M  V30 68 H 38.626229 33.953524 59.451902 0
M  V30 69 H 36.921479 34.192072 59.746900 0
M  V30 70 H 36.597426 30.676190 53.853575 0
M  V30 71 H 36.902670 30.879902 55.516986 0
M  V30 72 H 39.870396 32.134507 60.861602 0
M  V30 73 H 42.114112 29.685208 66.797569 0
M  V30 74 H 37.069841 26.961139 55.553068 0
M  V30 75 H 37.320530 28.444274 56.419992 0
M  V30 76 H 40.267672 30.348603 57.453359 0
M  V30 77 H 36.902211 32.463442 61.486378 0
M  V30 78 H 38.171632 33.613642 61.850380 0
M  V30 79 H 43.814789 29.172716 63.707571 0
M  V30 80 H 40.793795 28.136366 57.268087 0
M  V30 81 H 39.451263 28.173589 58.338389 0
M  V30 82 H 40.492661 29.477312 55.092246 0
M  V30 83 H 38.623814 27.795158 53.745352 0
M  V30 84 H 37.017585 28.414848 53.837765 0
M  V30 85 H 37.684291 30.868988 56.913415 0
M  V30 END ATOM
M  V30 BEGIN BOND
M  V30 1 1 9 4
M  V30 2 1 10 2
M  V30 3 1 12 9
M  V30 4 1 13 5
M  V30 5 1 13 6
M  V30 6 1 14 6
M  V30 7 1 16 1
M  V30 8 1 17 6
M  V30 9 2 17 8
M  V30 10 1 20 16
M  V30 11 1 21 11
M  V30 12 1 22 16
M  V30 13 1 23 7
M  V30 14 1 23 9
M  V30 15 1 24 9
M  V30 16 1 25 1
M  V30 17 1 26 19
M  V30 18 1 27 8
M  V30 19 1 27 22
M  V30 20 1 28 5
M  V30 21 1 28 10
M  V30 22 1 28 14
M  V30 23 1 29 4
M  V30 24 1 31 20
M  V30 25 1 32 25
M  V30 26 1 32 27
M  V30 27 1 5 33 CFG=3
M  V30 28 1 34 4
M  V30 29 1 34 31
M  V30 30 1 35 19
M  V30 31 1 35 21
M  V30 32 1 35 31
M  V30 33 1 36 19
M  V30 34 1 36 29
M  V30 35 1 37 3
M  V30 36 1 37 11
M  V30 37 1 37 18
M  V30 38 1 37 26
M  V30 39 1 38 5
M  V30 40 2 38 15
M  V30 41 1 38 30
M  V30 42 1 39 1
M  V30 43 1 40 1
M  V30 44 1 41 2
M  V30 45 1 4 42 CFG=3
M  V30 46 1 6 43 CFG=1
M  V30 47 1 44 7
M  V30 48 1 45 7
M  V30 49 1 46 7
M  V30 50 1 47 8
M  V30 51 1 48 10
M  V30 52 1 49 11
M  V30 53 1 50 11
M  V30 54 1 51 12
M  V30 55 1 52 12
M  V30 56 1 53 12
M  V30 57 1 54 13
M  V30 58 1 55 13
M  V30 59 1 56 14
M  V30 60 1 57 14
M  V30 61 1 58 17
M  V30 62 1 19 59 CFG=3
M  V30 63 1 60 20
M  V30 64 1 61 21
M  V30 65 1 62 21
M  V30 66 1 63 22
M  V30 67 1 64 22
M  V30 68 1 65 24
M  V30 69 1 66 24
M  V30 70 1 67 24
M  V30 71 1 68 25
M  V30 72 1 69 25
M  V30 73 1 70 26
M  V30 74 1 71 26
M  V30 75 1 27 72 CFG=3
M  V30 76 1 28 73 CFG=1
M  V30 77 1 74 29
M  V30 78 1 75 29
M  V30 79 1 31 76 CFG=1
M  V30 80 1 77 32
M  V30 81 1 78 32
M  V30 82 1 79 33
M  V30 83 1 80 34
M  V30 84 1 81 34
M  V30 85 1 35 82 CFG=3
M  V30 86 1 83 36
M  V30 87 1 84 36
M  V30 88 1 85 20
M  V30 END BOND
M  V30 END CTAB
M  END
>  <i_epik_Tot_Q>  (1) 
0

>  <i_epik_Tot_abs_Q>  (1) 
2

>  <i_i_glide_confnum>  (1) 
141

>  <i_i_glide_lignum>  (1) 
236

>  <i_i_glide_posenum>  (1) 
86

>  <i_i_glide_rotatable_bonds>  (1) 
10

>  <i_lp_mmshare_version>  (1) 
72125

>  <i_m_source_file_index>  (1) 
91

>  <i_f3d_flags>  (1) 
0

>  <num_sample>  (1) 
100

>  <b_lp_Chiralities_Consistent>  (1) 
1

>  <r_epik_Charging_Adjusted_Penalty>  (1) 
1.3235823108087639

>  <r_epik_Ionization_Penalty>  (1) 
0.58520961668590687

>  <r_epik_Ionization_Penalty_Charging>  (1) 
0.5818654171532841

>  <r_epik_Ionization_Penalty_Neutral>  (1) 
0.0033441995326227757

>  <r_epik_State_Penalty>  (1) 
0.74171689365547977

>  <r_glide_ring_energy>  (1) 
0.48000684916914799

>  <r_i_docking_score>  (1) 
-3.934182200127351

>  <r_i_glide_ecoul>  (1) 
-0.98239550723484426

>  <r_i_glide_eff_state_penalty>  (1) 
0.74171689365547977

>  <r_i_glide_einternal>  (1) 
10.840527935714489

>  <r_i_glide_emodel>  (1) 
-32.010994782360576

>  <r_i_glide_emodel_strain>  (1) 
2.7525653083061457

>  <r_i_glide_energy>  (1) 
-20.522867300247285

>  <r_i_glide_erotb>  (1) 
0.42002339013477186

>  <r_i_glide_esite>  (1) 
-0.070938909736903297

>  <r_i_glide_evdw>  (1) 
-19.54047179301244

>  <r_i_glide_gscore>  (1) 
-4.6758990937828306

>  <r_i_glide_gscore_strain>  (1) 
0

>  <r_i_glide_hbond>  (1) 
0

>  <r_i_glide_ligand_efficiency>  (1) 
-0.10353111052966713

>  <r_i_glide_ligand_efficiency_ln>  (1) 
-0.84832541426237673

>  <r_i_glide_ligand_efficiency_sa>  (1) 
-0.34806904743932615

>  <r_i_glide_lipo>  (1) 
-3.2033214778815391

>  <r_i_glide_metal>  (1) 
-0

>  <r_i_glide_rewards>  (1) 
-0.69727918056331206

>  <r_lp_Energy>  (1) 
58.928919

>  <s_epik_Chemistry_Notes>  (1) 
This compound has a N-S or N-O group and may undergo hydrolysis at high or low pH.

>  <s_epik_cmdline>  (1) 
J2VwaWtfcHl0aG9uJywgJy1waHQnLCAnMS4wJywgJy1waCcsICc3LjQnLCAnLXRuJywgJzgnLCAnLW1hJywgJzUwMCcsICctaW1hZScsICc8aW5maWxlLm1hZT4nLCAnLW9tYWUnLCAnPG91dGZpbGUubWFlPic=

>  <s_epik_input>  (1) 
RkMoRikoW0NIMl0xKVtDSDJdW0NIMl1bQ0BIXShbQ0BASF0xMilbQ0BIXShbQ0gyXVtDQEhdKFtDSDJdW0NIMl0yKUMoW0NIM10pKFtDSDNdKU9bQ0gzXSlbTkhdTjNbQ0gyXVtDSDJdW0NIMl1bQ0BIXShbQ0gyXTMpL1tDSF09W0NIXS9bQ0BASF0oW0NIMl1bQ0BdNChbT0hdKUMoPU8pW09IXSlbQ0gyXVtDQEBIXTRbTkhdW09IXQ==

>  <s_glide_docking_method>  (1) 
confgen

>  <s_i_glide_gridfile>  (1) 
gpcr_5ht2c_6bqh_protein_autoprepared_prepared

>  <s_lp_Force_Field>  (1) 
S-OPLS

>  <s_lp_Variant>  (1) 
DiffSBDD_90_num_sample_100-8

>  <s_m_source_file>  (1) 
generated__ligand_DiffSBDD_2026-05-06_prepared.sdf

>  <GenAI_Model>  (1) 
DiffSBDD

>  <Protein>  (1) 
GPCR_5HT2C

$$$$
DiffSBDD_93_num_sample_100
     RDKit          3D

  0  0  0  0  0  0  0  0  0  0999 V3000
M  V30 BEGIN CTAB
M  V30 COUNTS 74 77 0 0 1
M  V30 BEGIN ATOM
M  V30 1 C 36.797896 34.298566 61.557429 0
M  V30 2 S 40.197042 29.616285 59.677310 0
M  V30 3 C 37.162920 36.718463 62.306788 0 CFG=2
M  V30 4 O 41.971019 31.295803 64.280575 0
M  V30 5 C 39.970284 29.570732 54.756907 0
M  V30 6 C 39.490554 31.116764 62.826664 0 CFG=1
M  V30 7 C 38.130008 27.360727 55.980627 0
M  V30 8 C 38.120142 28.830469 57.975758 0
M  V30 9 C 38.640057 36.513387 61.957992 0
M  V30 10 N 37.523282 30.296579 59.788591 0
M  V30 11 C 39.202879 29.049982 53.554132 0
M  V30 12 C 36.395049 35.400376 62.253557 0
M  V30 13 C 35.929353 33.062984 61.587129 0
M  V30 14 C 37.736616 31.310477 60.820262 0 CFG=1
M  V30 15 C 38.742553 35.755905 60.649015 0
M  V30 16 Cl 37.467781 34.124455 59.043766 0
M  V30 17 O 38.326066 27.262820 52.271529 0
M  V30 18 C 38.047097 34.384226 60.704567 0 CFG=2
M  V30 19 C 34.495662 33.195736 62.018064 0
M  V30 20 C 40.829164 31.073042 60.653498 0
M  V30 21 C 39.676509 30.513345 64.236560 0
M  V30 22 C 36.351102 31.792429 61.240020 0
M  V30 23 C 37.613098 27.423477 54.548523 0
M  V30 24 C 40.850052 30.872535 62.166131 0 CFG=1
M  V30 25 C 38.602475 30.073410 58.821116 0 CFG=1
M  V30 26 C 38.761975 27.598444 53.571748 0 CFG=2
M  V30 27 C 41.887952 31.732161 62.924510 0
M  V30 28 C 40.733600 31.333863 64.994297 0
M  V30 29 C 39.674480 29.353920 56.059584 0
M  V30 30 S 38.524832 31.532290 57.731884 0
M  V30 31 N 38.625247 28.594005 56.598013 0
M  V30 32 C 36.491162 37.822996 61.468700 0
M  V30 33 C 38.348481 30.497126 62.013435 0
M  V30 34 H 37.141848 37.048966 63.346284 0
M  V30 35 H 40.810438 30.207500 54.527988 0
M  V30 36 H 39.285294 32.185094 62.922174 0
M  V30 37 H 38.925730 26.617965 56.044393 0
M  V30 38 H 37.327685 26.965489 56.603593 0
M  V30 39 H 37.036137 28.912056 57.854581 0
M  V30 40 H 38.278324 27.922897 58.559830 0
M  V30 41 H 39.165233 37.466366 61.882601 0
M  V30 42 H 39.138889 35.941343 62.741568 0
M  V30 43 H 36.725069 30.594188 59.241167 0
M  V30 44 H 39.862300 29.191591 52.697085 0
M  V30 45 H 38.357268 29.715070 53.380107 0
M  V30 46 H 35.493256 35.366623 62.837452 0
M  V30 47 H 38.363540 32.027792 60.357635 0
M  V30 48 H 38.294332 36.375056 59.867714 0
M  V30 49 H 39.789253 35.630868 60.364355 0
M  V30 50 H 37.524287 27.723469 52.075556 0
M  V30 51 H 38.819584 33.707823 61.041130 0
M  V30 52 H 33.866940 33.469998 61.173767 0
M  V30 53 H 34.267450 32.196101 62.374679 0
M  V30 54 H 34.267404 33.753763 62.911461 0
M  V30 55 H 41.854177 31.221642 60.327763 0
M  V30 56 H 40.346183 32.008536 60.387583 0
M  V30 57 H 40.035627 29.488368 64.157598 0
M  V30 58 H 38.754369 30.421371 64.805716 0
M  V30 59 H 35.614259 31.001388 61.285786 0
M  V30 60 H 36.865117 28.203699 54.427166 0
M  V30 61 H 37.106426 26.480840 54.339036 0
M  V30 62 H 41.144632 29.832151 62.307147 0
M  V30 63 H 39.595597 26.933909 53.808643 0
M  V30 64 H 42.878627 31.623873 62.486766 0
M  V30 65 H 41.641379 32.795783 62.883780 0
M  V30 66 H 40.889514 30.924838 65.993906 0
M  V30 67 H 40.407197 32.369391 65.112760 0
M  V30 68 H 40.267048 29.824921 56.819885 0
M  V30 69 H 37.229612 31.420819 57.394950 0
M  V30 70 H 35.515191 38.094376 61.871466 0
M  V30 71 H 37.090446 38.733567 61.454690 0
M  V30 72 H 36.342269 37.517714 60.432812 0
M  V30 73 H 38.668312 29.487557 61.753011 0
M  V30 74 H 37.530768 30.282494 62.655602 0
M  V30 END ATOM
M  V30 BEGIN BOND
M  V30 1 1 9 3
M  V30 2 1 11 5
M  V30 3 2 12 1
M  V30 4 1 12 3
M  V30 5 1 13 1
M  V30 6 1 14 10
M  V30 7 1 15 9
M  V30 8 1 18 1
M  V30 9 1 18 15
M  V30 10 1 18 16
M  V30 11 1 19 13
M  V30 12 1 20 2
M  V30 13 1 21 6
M  V30 14 2 22 13
M  V30 15 1 22 14
M  V30 16 1 23 7
M  V30 17 1 24 6
M  V30 18 1 24 20
M  V30 19 1 25 2
M  V30 20 1 25 8
M  V30 21 1 25 10
M  V30 22 1 26 11
M  V30 23 1 26 17
M  V30 24 1 26 23
M  V30 25 1 27 4
M  V30 26 1 27 24
M  V30 27 1 28 4
M  V30 28 1 28 21
M  V30 29 2 29 5
M  V30 30 1 25 30 CFG=3
M  V30 31 1 31 7
M  V30 32 1 31 8
M  V30 33 1 31 29
M  V30 34 1 32 3
M  V30 35 1 33 6
M  V30 36 1 33 14
M  V30 37 1 3 34 CFG=1
M  V30 38 1 35 5
M  V30 39 1 6 36 CFG=1
M  V30 40 1 37 7
M  V30 41 1 38 7
M  V30 42 1 39 8
M  V30 43 1 40 8
M  V30 44 1 41 9
M  V30 45 1 42 9
M  V30 46 1 43 10
M  V30 47 1 44 11
M  V30 48 1 45 11
M  V30 49 1 46 12
M  V30 50 1 14 47 CFG=3
M  V30 51 1 48 15
M  V30 52 1 49 15
M  V30 53 1 50 17
M  V30 54 1 18 51 CFG=1
M  V30 55 1 52 19
M  V30 56 1 53 19
M  V30 57 1 54 19
M  V30 58 1 55 20
M  V30 59 1 56 20
M  V30 60 1 57 21
M  V30 61 1 58 21
M  V30 62 1 59 22
M  V30 63 1 60 23
M  V30 64 1 61 23
M  V30 65 1 24 62 CFG=3
M  V30 66 1 26 63 CFG=1
M  V30 67 1 64 27
M  V30 68 1 65 27
M  V30 69 1 66 28
M  V30 70 1 67 28
M  V30 71 1 68 29
M  V30 72 1 69 30
M  V30 73 1 70 32
M  V30 74 1 71 32
M  V30 75 1 72 32
M  V30 76 1 73 33
M  V30 77 1 74 33
M  V30 END BOND
M  V30 END CTAB
M  END
>  <i_epik_Tot_Q>  (1) 
0

>  <i_epik_Tot_abs_Q>  (1) 
0

>  <i_i_glide_confnum>  (1) 
8

>  <i_i_glide_lignum>  (1) 
250

>  <i_i_glide_posenum>  (1) 
102

>  <i_i_glide_rotatable_bonds>  (1) 
6

>  <i_lp_mmshare_version>  (1) 
72125

>  <i_m_source_file_index>  (1) 
94

>  <i_f3d_flags>  (1) 
0

>  <num_sample>  (1) 
100

>  <b_lp_Chiralities_Consistent>  (1) 
1

>  <r_epik_Charging_Adjusted_Penalty>  (1) 
0.20325292957253988

>  <r_epik_Ionization_Penalty>  (1) 
0.031936562948065232

>  <r_epik_Ionization_Penalty_Charging>  (1) 
3.6030848355623751e-07

>  <r_epik_Ionization_Penalty_Neutral>  (1) 
0.031936202639581676

>  <r_epik_State_Penalty>  (1) 
0.20325256926405633

>  <r_glide_ring_energy>  (1) 
1.1916073689223343

>  <r_i_docking_score>  (1) 
-3.9278344992820244

>  <r_i_glide_ecoul>  (1) 
0.049794105037066494

>  <r_i_glide_eff_state_penalty>  (1) 
0.20325256926405633

>  <r_i_glide_einternal>  (1) 
7.8106973065119121

>  <r_i_glide_emodel>  (1) 
-14.703714354522543

>  <r_i_glide_emodel_strain>  (1) 
4.3362342781433085

>  <r_i_glide_energy>  (1) 
-16.565007589090047

>  <r_i_glide_erotb>  (1) 
0.31140238833871409

>  <r_i_glide_esite>  (1) 
-0.068450973156228154

>  <r_i_glide_evdw>  (1) 
-16.614801694127113

>  <r_i_glide_gscore>  (1) 
-4.1310870685460808

>  <r_i_glide_gscore_strain>  (1) 
0.084058569535827132

>  <r_i_glide_hbond>  (1) 
-0.16

>  <r_i_glide_ligand_efficiency>  (1) 
-0.11902528785703104

>  <r_i_glide_ligand_efficiency_ln>  (1) 
-0.87353005540171058

>  <r_i_glide_ligand_efficiency_sa>  (1) 
-0.38177769693906249

>  <r_i_glide_lipo>  (1) 
-2.9781811923553363

>  <r_i_glide_metal>  (1) 
-0

>  <r_i_glide_rewards>  (1) 
-0.49664489195826261

>  <r_lp_Energy>  (1) 
33.420006000000001

>  <s_epik_Chemistry_Notes>  (1) 
This compound has an imine and may undergo hydrolysis.

>  <s_epik_cmdline>  (1) 
J2VwaWtfcHl0aG9uJywgJy1waHQnLCAnMS4wJywgJy1waCcsICc3LjQnLCAnLXRuJywgJzgnLCAnLW1hJywgJzUwMCcsICctaW1hZScsICc8aW5maWxlLm1hZT4nLCAnLW9tYWUnLCAnPG91dGZpbGUubWFlPic=

>  <s_epik_input>  (1) 
Q2xbQ0BIXTFbQ0gyXVtDSDJdW0NAQEhdKFtDSDNdKVtDSF09QzEvQyhbQ0gzXSk9W0NIXVxbQ0BASF0oW0NIMl0yKVtOSF1bQ0BAXShbU0hdKShTW0NIMl1bQ0BIXShbQ0BASF0yMylbQ0gyXU9bQ0gyXVtDSDJdMylbQ0gyXU4oW0NIMl1bQ0gyXTQpW0NIXT1bQ0hdW0NIMl1bQ0BASF00W09IXQ==

>  <s_glide_docking_method>  (1) 
confgen

>  <s_i_glide_gridfile>  (1) 
gpcr_5ht2c_6bqh_protein_autoprepared_prepared

>  <s_lp_Force_Field>  (1) 
S-OPLS

>  <s_lp_Variant>  (1) 
DiffSBDD_93_num_sample_100-2

>  <s_m_source_file>  (1) 
generated__ligand_DiffSBDD_2026-05-06_prepared.sdf

>  <GenAI_Model>  (1) 
DiffSBDD

>  <Protein>  (1) 
GPCR_5HT2C

$$$$
DiffSBDD_20_num_sample_100
     RDKit          3D

  0  0  0  0  0  0  0  0  0  0999 V3000
M  V30 BEGIN CTAB
M  V30 COUNTS 55 55 0 0 1
M  V30 BEGIN ATOM
M  V30 1 C 38.070696 32.606627 58.730025 0 CFG=1
M  V30 2 C 37.395846 34.663639 60.411679 0 CFG=2
M  V30 3 C 39.945737 31.368255 61.631643 0
M  V30 4 C 38.305893 32.336008 56.076706 0
M  V30 5 N 37.262883 36.089573 60.169757 0
M  V30 6 C 37.493216 38.464861 60.666903 0
M  V30 7 O 40.148232 27.732649 58.673757 0
M  V30 8 C 41.062793 28.334188 60.782005 0
M  V30 9 C 40.594364 29.520124 63.089263 0
M  V30 10 C 36.839344 37.150741 63.457382 0
M  V30 11 N 39.604917 30.366599 62.442864 0
M  V30 12 O 41.106751 31.739649 61.453240 0
M  V30 13 C 37.649593 31.116137 58.672391 0
M  V30 14 C 38.737506 33.031614 57.382026 0
M  V30 15 C 37.543790 36.994519 61.029711 0
M  V30 16 C 39.882294 28.145044 59.822851 0
M  V30 17 O 40.394838 36.560152 62.253265 0
M  V30 18 N 38.893516 31.888274 60.995275 0
M  V30 19 C 38.875601 34.275409 60.466308 0
M  V30 20 S 36.644123 33.692088 59.072481 0
M  V30 21 C 39.340459 37.229902 62.907657 0
M  V30 22 O 38.744319 28.421702 60.253458 0 CHG=-1
M  V30 23 C 39.036588 32.869191 59.923364 0 CFG=2
M  V30 24 C 37.945093 36.690939 62.492956 0 CFG=1
M  V30 25 C 40.741739 28.201907 62.300746 0
M  V30 26 H 36.874323 34.355179 61.319122 0
M  V30 27 H 38.815319 32.787451 55.225850 0
M  V30 28 H 38.566981 31.277695 56.077171 0
M  V30 29 H 37.238485 32.421399 55.886615 0
M  V30 30 H 38.371919 39.006708 61.008198 0
M  V30 31 H 41.467410 29.310717 60.553153 0
M  V30 32 H 41.835821 27.621700 60.502468 0
M  V30 33 H 41.563833 30.012834 63.181488 0
M  V30 34 H 40.267593 29.308282 64.107303 0
M  V30 35 H 35.894452 36.651871 63.238792 0
M  V30 36 H 37.095478 36.904146 64.488181 0
M  V30 37 H 36.664438 38.223933 63.399361 0
M  V30 38 H 38.635353 30.104936 62.528094 0
M  V30 39 H 38.528860 30.474828 58.634342 0
M  V30 40 H 37.046882 30.817629 59.529372 0
M  V30 41 H 37.066782 30.867645 57.793243 0
M  V30 42 H 38.564449 34.086847 57.232681 0
M  V30 43 H 39.816844 32.916427 57.433312 0
M  V30 44 H 41.208929 36.814168 62.665084 0
M  V30 45 H 37.972224 31.524879 61.181429 0
M  V30 46 H 39.475914 34.945982 59.853513 0
M  V30 47 H 39.290586 34.345098 61.469575 0
M  V30 48 H 39.485764 37.087133 63.979377 0
M  V30 49 H 39.467420 38.293736 62.721444 0
M  V30 50 H 40.051002 32.821810 59.565486 0
M  V30 51 H 38.004103 35.621517 62.653512 0
M  V30 52 H 41.530659 27.624454 62.780875 0
M  V30 53 H 39.831227 27.621437 62.435762 0
M  V30 54 H 37.467425 38.563825 59.583573 0
M  V30 55 H 36.599175 38.936199 61.075213 0
M  V30 END ATOM
M  V30 BEGIN BOND
M  V30 1 1 5 2
M  V30 2 1 11 3
M  V30 3 1 11 9
M  V30 4 2 12 3
M  V30 5 1 1 13 CFG=3
M  V30 6 1 14 1
M  V30 7 1 14 4
M  V30 8 2 15 5
M  V30 9 1 15 6
M  V30 10 2 16 7
M  V30 11 1 16 8
M  V30 12 1 18 3
M  V30 13 1 19 2
M  V30 14 1 20 1
M  V30 15 1 20 2
M  V30 16 1 21 17
M  V30 17 1 22 16
M  V30 18 1 23 1
M  V30 19 1 23 18
M  V30 20 1 23 19
M  V30 21 1 24 10
M  V30 22 1 24 15
M  V30 23 1 24 21
M  V30 24 1 25 8
M  V30 25 1 25 9
M  V30 26 1 2 26 CFG=1
M  V30 27 1 27 4
M  V30 28 1 28 4
M  V30 29 1 29 4
M  V30 30 1 30 6
M  V30 31 1 31 8
M  V30 32 1 32 8
M  V30 33 1 33 9
M  V30 34 1 34 9
M  V30 35 1 35 10
M  V30 36 1 36 10
M  V30 37 1 37 10
M  V30 38 1 38 11
M  V30 39 1 39 13
M  V30 40 1 40 13
M  V30 41 1 41 13
M  V30 42 1 42 14
M  V30 43 1 43 14
M  V30 44 1 44 17
M  V30 45 1 45 18
M  V30 46 1 46 19
M  V30 47 1 47 19
M  V30 48 1 48 21
M  V30 49 1 49 21
M  V30 50 1 23 50 CFG=3
M  V30 51 1 24 51 CFG=3
M  V30 52 1 52 25
M  V30 53 1 53 25
M  V30 54 1 54 6
M  V30 55 1 55 6
M  V30 END BOND
M  V30 END CTAB
M  END
>  <i_epik_Tot_Q>  (1) 
-1

>  <i_epik_Tot_abs_Q>  (1) 
1

>  <i_i_glide_confnum>  (1) 
907

>  <i_i_glide_lignum>  (1) 
53

>  <i_i_glide_posenum>  (1) 
283

>  <i_i_glide_rotatable_bonds>  (1) 
12

>  <i_lp_mmshare_version>  (1) 
72125

>  <i_m_source_file_index>  (1) 
21

>  <i_f3d_flags>  (1) 
0

>  <num_sample>  (1) 
100

>  <b_lp_Chiralities_Consistent>  (1) 
1

>  <r_epik_Charging_Adjusted_Penalty>  (1) 
0.43743025276339675

>  <r_epik_Ionization_Penalty>  (1) 
0.026773266926762091

>  <r_epik_Ionization_Penalty_Charging>  (1) 
0.0015534882308521432

>  <r_epik_Ionization_Penalty_Neutral>  (1) 
0.025219778695909949

>  <r_epik_State_Penalty>  (1) 
0.43587676453254459

>  <r_glide_ring_energy>  (1) 
0

>  <r_i_docking_score>  (1) 
-3.9079837116360561

>  <r_i_glide_ecoul>  (1) 
-1.5644518946801627

>  <r_i_glide_eff_state_penalty>  (1) 
0.43587676453254459

>  <r_i_glide_einternal>  (1) 
8.3468026393355235

>  <r_i_glide_emodel>  (1) 
-33.418036766363656

>  <r_i_glide_emodel_strain>  (1) 
3.4620858122624689

>  <r_i_glide_energy>  (1) 
-31.833884342826124

>  <r_i_glide_erotb>  (1) 
1.2527341714622291

>  <r_i_glide_esite>  (1) 
0

>  <r_i_glide_evdw>  (1) 
-30.269432448145963

>  <r_i_glide_gscore>  (1) 
-4.3438604761686008

>  <r_i_glide_gscore_strain>  (1) 
0

>  <r_i_glide_hbond>  (1) 
-0.042542421238163035

>  <r_i_glide_ligand_efficiency>  (1) 
-0.15631934846544224

>  <r_i_glide_ligand_efficiency_ln>  (1) 
-0.92630925247915841

>  <r_i_glide_ligand_efficiency_sa>  (1) 
-0.45708054773883133

>  <r_i_glide_lipo>  (1) 
-1.3392501882629144

>  <r_i_glide_metal>  (1) 
-0

>  <r_i_glide_rewards>  (1) 
-2.4666626315204301

>  <r_lp_Energy>  (1) 
16.070501

>  <r_lp_tautomer_probability>  (1) 
0.49999399997599986

>  <s_epik_Chemistry_Notes>  (1) 
This compound has an imine and may undergo hydrolysis. This compound contains an acetal/aminal-like group ( X-CH(R)-Y where X, Y are N, S, or O) that may be acid/base labile, releasing an aldehyde.

>  <s_epik_cmdline>  (1) 
J2VwaWtfcHl0aG9uJywgJy1waHQnLCAnMS4wJywgJy1waCcsICc3LjQnLCAnLXRuJywgJzgnLCAnLW1hJywgJzUwMCcsICctaW1hZScsICc8aW5maWxlLm1hZT4nLCAnLW9tYWUnLCAnPG91dGZpbGUubWFlPic=

>  <s_epik_input>  (1) 
W09IXVtDSDJdW0NAQEhdKFtDSDNdKUMoPVtDSDJdKVtOSF1bQ0BASF0oU1tDQEBdMShbQ0gzXSlbQ0gyXVtDSDNdKVtDSDJdW0NASF0xW05IXUMoPU8pW05IXVtDSDJdW0NIMl1bQ0gyXUMoPU8pW09IXQ==

>  <s_glide_docking_method>  (1) 
confgen

>  <s_i_glide_gridfile>  (1) 
gpcr_5ht2c_6bqh_protein_autoprepared_prepared

>  <s_lp_Force_Field>  (1) 
S-OPLS

>  <s_lp_Variant>  (1) 
DiffSBDD_20_num_sample_100-1

>  <s_m_source_file>  (1) 
generated__ligand_DiffSBDD_2026-05-06_prepared.sdf

>  <GenAI_Model>  (1) 
DiffSBDD

>  <Protein>  (1) 
GPCR_5HT2C

$$$$
DiffSBDD_20_num_sample_100
     RDKit          3D

  0  0  0  0  0  0  0  0  0  0999 V3000
M  V30 BEGIN CTAB
M  V30 COUNTS 55 55 0 0 1
M  V30 BEGIN ATOM
M  V30 1 C 36.198225 32.465441 59.875812 0 CFG=1
M  V30 2 C 38.449475 33.178680 61.016037 0 CFG=2
M  V30 3 C 38.519434 30.641325 57.577466 0
M  V30 4 C 34.672157 34.215451 58.712526 0
M  V30 5 N 38.267214 34.484870 61.620616 0
M  V30 6 C 38.847432 36.525260 62.820523 0
M  V30 7 O 37.902641 25.120896 57.784546 0
M  V30 8 C 39.863341 26.459439 57.902581 0
M  V30 9 C 39.538790 28.662597 56.522298 0
M  V30 10 C 41.467385 35.919298 61.397132 0
M  V30 11 N 38.817853 29.332543 57.603982 0
M  V30 12 O 38.829844 31.396056 56.655622 0
M  V30 13 C 35.157305 31.353568 59.696183 0
M  V30 14 C 35.481322 33.845537 59.949983 0
M  V30 15 C 39.177713 35.207623 62.133978 0
M  V30 16 C 38.856918 25.596804 57.131188 0
M  V30 17 O 41.245430 35.433846 64.448141 0
M  V30 18 N 37.846565 31.034740 58.669850 0
M  V30 19 C 38.493440 33.286247 59.474256 0
M  V30 20 S 37.013491 32.185554 61.453509 0
M  V30 21 C 41.243714 34.405308 63.475096 0
M  V30 22 O 39.065076 25.427641 55.909316 0 CHG=-1
M  V30 23 C 37.375462 32.415947 58.866314 0 CFG=2
M  V30 24 C 40.665695 34.835493 62.105616 0 CFG=2
M  V30 25 C 40.505164 27.588553 57.061567 0
M  V30 26 H 39.293010 32.617440 61.414031 0
M  V30 27 H 34.268108 35.221383 58.759643 0
M  V30 28 H 35.325651 34.201272 57.853501 0
M  V30 29 H 33.844263 33.525175 58.563502 0
M  V30 30 H 39.601804 37.288408 62.634143 0
M  V30 31 H 40.648817 25.790500 58.253505 0
M  V30 32 H 39.381153 26.869827 58.790302 0
M  V30 33 H 38.810107 28.217082 55.844439 0
M  V30 34 H 40.112205 29.372700 55.924221 0
M  V30 35 H 40.859007 36.421429 60.653497 0
M  V30 36 H 41.867339 36.664667 62.083176 0
M  V30 37 H 42.267413 35.469901 60.827448 0
M  V30 38 H 38.527875 28.774782 58.392019 0
M  V30 39 H 34.808866 31.186764 58.681769 0
M  V30 40 H 35.524188 30.395427 60.061210 0
M  V30 41 H 34.267419 31.621429 60.253493 0
M  V30 42 H 34.816286 33.861003 60.814384 0
M  V30 43 H 36.190002 34.651796 60.119764 0
M  V30 44 H 41.770488 36.165937 64.153492 0
M  V30 45 H 37.625199 30.358717 59.383114 0
M  V30 46 H 38.313932 34.316432 59.167231 0
M  V30 47 H 39.470434 33.025378 59.077387 0
M  V30 48 H 42.266455 34.046193 63.355164 0
M  V30 49 H 40.670556 33.565247 63.870630 0
M  V30 50 H 37.068821 32.821554 57.901129 0
M  V30 51 H 40.811572 33.980011 61.453449 0
M  V30 52 H 41.047397 27.147060 56.224359 0
M  V30 53 H 41.267748 28.078981 57.667707 0
M  V30 54 H 37.892070 36.908799 62.460128 0
M  V30 55 H 38.762209 36.379893 63.897042 0
M  V30 END ATOM
M  V30 BEGIN BOND
M  V30 1 1 5 2
M  V30 2 1 11 3
M  V30 3 1 11 9
M  V30 4 2 12 3
M  V30 5 1 1 13 CFG=3
M  V30 6 1 14 1
M  V30 7 1 14 4
M  V30 8 2 15 5
M  V30 9 1 15 6
M  V30 10 2 16 7
M  V30 11 1 16 8
M  V30 12 1 18 3
M  V30 13 1 19 2
M  V30 14 1 20 1
M  V30 15 1 20 2
M  V30 16 1 21 17
M  V30 17 1 22 16
M  V30 18 1 23 1
M  V30 19 1 23 18
M  V30 20 1 23 19
M  V30 21 1 24 10
M  V30 22 1 24 15
M  V30 23 1 24 21
M  V30 24 1 25 8
M  V30 25 1 25 9
M  V30 26 1 2 26 CFG=1
M  V30 27 1 27 4
M  V30 28 1 28 4
M  V30 29 1 29 4
M  V30 30 1 30 6
M  V30 31 1 31 8
M  V30 32 1 32 8
M  V30 33 1 33 9
M  V30 34 1 34 9
M  V30 35 1 35 10
M  V30 36 1 36 10
M  V30 37 1 37 10
M  V30 38 1 38 11
M  V30 39 1 39 13
M  V30 40 1 40 13
M  V30 41 1 41 13
M  V30 42 1 42 14
M  V30 43 1 43 14
M  V30 44 1 44 17
M  V30 45 1 45 18
M  V30 46 1 46 19
M  V30 47 1 47 19
M  V30 48 1 48 21
M  V30 49 1 49 21
M  V30 50 1 23 50 CFG=3
M  V30 51 1 24 51 CFG=3
M  V30 52 1 52 25
M  V30 53 1 53 25
M  V30 54 1 54 6
M  V30 55 1 55 6
M  V30 END BOND
M  V30 END CTAB
M  END
>  <i_epik_Tot_Q>  (1) 
-1

>  <i_epik_Tot_abs_Q>  (1) 
1

>  <i_i_glide_confnum>  (1) 
846

>  <i_i_glide_lignum>  (1) 
54

>  <i_i_glide_posenum>  (1) 
190

>  <i_i_glide_rotatable_bonds>  (1) 
12

>  <i_lp_mmshare_version>  (1) 
72125

>  <i_m_source_file_index>  (1) 
21

>  <i_f3d_flags>  (1) 
0

>  <num_sample>  (1) 
100

>  <b_lp_Chiralities_Consistent>  (1) 
1

>  <r_epik_Charging_Adjusted_Penalty>  (1) 
0.43743025276339675

>  <r_epik_Ionization_Penalty>  (1) 
0.026773266926762091

>  <r_epik_Ionization_Penalty_Charging>  (1) 
0.0015534882308521432

>  <r_epik_Ionization_Penalty_Neutral>  (1) 
0.025219778695909949

>  <r_epik_State_Penalty>  (1) 
0.43587676453254459

>  <r_glide_ring_energy>  (1) 
0

>  <r_i_docking_score>  (1) 
-3.8734891439036701

>  <r_i_glide_ecoul>  (1) 
-2.2508628376236341

>  <r_i_glide_eff_state_penalty>  (1) 
0.43587676453254459

>  <r_i_glide_einternal>  (1) 
5.3196839194577219

>  <r_i_glide_emodel>  (1) 
-37.236063384603966

>  <r_i_glide_emodel_strain>  (1) 
1.8208047732911083

>  <r_i_glide_energy>  (1) 
-31.547483338716283

>  <r_i_glide_erotb>  (1) 
1.2527341714622291

>  <r_i_glide_esite>  (1) 
-0.12079785084168369

>  <r_i_glide_evdw>  (1) 
-29.296620501092651

>  <r_i_glide_gscore>  (1) 
-4.3093659084362148

>  <r_i_glide_gscore_strain>  (1) 
0

>  <r_i_glide_hbond>  (1) 
-0.064524502232990208

>  <r_i_glide_ligand_efficiency>  (1) 
-0.15493956575614681

>  <r_i_glide_ligand_efficiency_ln>  (1) 
-0.91813300620780391

>  <r_i_glide_ligand_efficiency_sa>  (1) 
-0.45304603862197201

>  <r_i_glide_lipo>  (1) 
-1.7881954408421716

>  <r_i_glide_metal>  (1) 
-0

>  <r_i_glide_rewards>  (1) 
-1.7861218352834212

>  <r_lp_Energy>  (1) 
20.662696

>  <r_lp_tautomer_probability>  (1) 
0.49999399997599986

>  <s_epik_Chemistry_Notes>  (1) 
This compound has an imine and may undergo hydrolysis. This compound contains an acetal/aminal-like group ( X-CH(R)-Y where X, Y are N, S, or O) that may be acid/base labile, releasing an aldehyde.

>  <s_epik_cmdline>  (1) 
J2VwaWtfcHl0aG9uJywgJy1waHQnLCAnMS4wJywgJy1waCcsICc3LjQnLCAnLXRuJywgJzgnLCAnLW1hJywgJzUwMCcsICctaW1hZScsICc8aW5maWxlLm1hZT4nLCAnLW9tYWUnLCAnPG91dGZpbGUubWFlPic=

>  <s_epik_input>  (1) 
W09IXVtDSDJdW0NAQEhdKFtDSDNdKUMoPVtDSDJdKVtOSF1bQ0BASF0oU1tDQEBdMShbQ0gzXSlbQ0gyXVtDSDNdKVtDSDJdW0NASF0xW05IXUMoPU8pW05IXVtDSDJdW0NIMl1bQ0gyXUMoPU8pW09IXQ==

>  <s_glide_docking_method>  (1) 
confgen

>  <s_i_glide_gridfile>  (1) 
gpcr_5ht2c_6bqh_protein_autoprepared_prepared

>  <s_lp_Force_Field>  (1) 
S-OPLS

>  <s_lp_Variant>  (1) 
DiffSBDD_20_num_sample_100-2

>  <s_m_source_file>  (1) 
generated__ligand_DiffSBDD_2026-05-06_prepared.sdf

>  <GenAI_Model>  (1) 
DiffSBDD

>  <Protein>  (1) 
GPCR_5HT2C

$$$$
DiffSBDD_44_num_sample_100
     RDKit          3D

  0  0  0  0  0  0  0  0  0  0999 V3000
M  V30 BEGIN CTAB
M  V30 COUNTS 58 59 0 0 1
M  V30 BEGIN ATOM
M  V30 1 C 37.208634 30.488579 60.532697 0
M  V30 2 O 39.244522 33.221356 58.346682 0 CHG=-1
M  V30 3 C 38.962185 27.740305 54.352479 0
M  V30 4 C 37.015759 32.914114 60.269684 0 CFG=1
M  V30 5 N 37.332171 32.276652 58.955896 0 CFG=2 CHG=1
M  V30 6 C 39.873172 29.919833 53.549672 0
M  V30 7 N 39.431049 30.639504 56.411948 0
M  V30 8 C 39.467650 28.896322 54.656571 0
M  V30 9 O 39.118618 28.405653 57.076870 0
M  V30 10 C 36.588467 31.744115 61.165428 0 CFG=1
M  V30 11 C 35.067409 31.673012 61.206538 0
M  V30 12 C 38.007464 32.608301 56.467792 0 CFG=1
M  V30 13 C 38.299285 31.147403 56.160805 0
M  V30 14 C 37.894832 30.936589 59.260071 0
M  V30 15 C 39.903185 27.270140 57.430001 0
M  V30 16 C 39.642872 26.829187 52.245780 0
M  V30 17 C 38.015355 33.128734 57.942116 0 CFG=2
M  V30 18 C 39.729802 29.275062 56.115578 0 CFG=2
M  V30 19 F 38.139483 28.463042 51.468660 0
M  V30 20 C 39.434967 28.192362 51.520173 0 CFG=1
M  V30 21 C 38.941823 26.732330 53.555928 0
M  V30 22 C 38.817962 33.501189 55.541853 0
M  V30 23 C 37.147652 30.344168 55.493276 0
M  V30 24 C 38.156569 33.703249 60.963987 0
M  V30 25 C 40.172844 29.426732 52.079807 0
M  V30 26 H 36.458757 29.746653 60.255397 0
M  V30 27 H 37.939095 30.022292 61.189160 0
M  V30 28 H 36.197027 33.619967 60.123391 0
M  V30 29 H 39.084511 30.663380 53.468600 0
M  V30 30 H 40.722938 30.498617 53.905104 0
M  V30 31 H 36.967152 31.874718 62.181727 0
M  V30 32 H 34.667013 31.616193 60.198653 0
M  V30 33 H 34.684230 30.817446 61.764846 0
M  V30 34 H 34.672660 32.584477 61.651803 0
M  V30 35 H 37.067369 32.804003 56.060628 0
M  V30 36 H 37.692473 30.201446 58.481276 0
M  V30 37 H 38.977294 30.968247 59.403317 0
M  V30 38 H 39.326388 26.628019 58.091064 0
M  V30 39 H 40.204737 26.681348 56.563652 0
M  V30 40 H 40.806491 27.574166 57.963692 0
M  V30 41 H 40.657611 26.703434 52.653499 0
M  V30 42 H 39.385520 26.022053 51.572087 0
M  V30 43 H 37.391139 34.026120 57.895727 0
M  V30 44 H 40.805970 29.169295 56.201731 0
M  V30 45 H 39.734151 28.085569 50.476188 0
M  V30 46 H 38.665312 25.745750 53.897157 0
M  V30 47 H 38.667251 33.133930 54.530649 0
M  V30 48 H 38.498670 34.543118 55.582918 0
M  V30 49 H 39.868996 33.440685 55.803948 0
M  V30 50 H 36.149285 30.420905 55.853590 0
M  V30 51 H 37.118470 30.510513 54.417993 0
M  V30 52 H 37.250928 29.284678 55.697312 0
M  V30 53 H 37.843280 34.063927 61.942792 0
M  V30 54 H 39.043964 33.089174 61.120957 0
M  V30 55 H 38.453564 34.587209 60.396132 0
M  V30 56 H 39.974954 30.266651 51.413880 0
M  V30 57 H 41.223002 29.226310 51.864456 0
M  V30 58 H 36.435791 32.084370 58.514615 0
M  V30 END ATOM
M  V30 BEGIN BOND
M  V30 1 1 5 4
M  V30 2 2 8 3
M  V30 3 1 8 6
M  V30 4 1 10 1
M  V30 5 1 10 4
M  V30 6 1 11 10
M  V30 7 2 13 7
M  V30 8 1 13 12
M  V30 9 1 14 1
M  V30 10 1 14 5
M  V30 11 1 15 9
M  V30 12 1 17 2
M  V30 13 1 17 5
M  V30 14 1 17 12
M  V30 15 1 18 7
M  V30 16 1 18 8
M  V30 17 1 18 9
M  V30 18 1 20 16
M  V30 19 1 20 19
M  V30 20 2 21 3
M  V30 21 1 21 16
M  V30 22 1 22 12
M  V30 23 1 23 13
M  V30 24 1 24 4
M  V30 25 1 25 6
M  V30 26 1 25 20
M  V30 27 1 26 1
M  V30 28 1 27 1
M  V30 29 1 4 28 CFG=3
M  V30 30 1 29 6
M  V30 31 1 30 6
M  V30 32 1 10 31 CFG=1
M  V30 33 1 32 11
M  V30 34 1 33 11
M  V30 35 1 34 11
M  V30 36 1 12 35 CFG=3
M  V30 37 1 36 14
M  V30 38 1 37 14
M  V30 39 1 38 15
M  V30 40 1 39 15
M  V30 41 1 40 15
M  V30 42 1 41 16
M  V30 43 1 42 16
M  V30 44 1 17 43 CFG=3
M  V30 45 1 18 44 CFG=1
M  V30 46 1 20 45 CFG=3
M  V30 47 1 46 21
M  V30 48 1 47 22
M  V30 49 1 48 22
M  V30 50 1 49 22
M  V30 51 1 50 23
M  V30 52 1 51 23
M  V30 53 1 52 23
M  V30 54 1 53 24
M  V30 55 1 54 24
M  V30 56 1 55 24
M  V30 57 1 56 25
M  V30 58 1 57 25
M  V30 59 1 5 58 CFG=3
M  V30 END BOND
M  V30 END CTAB
M  END
>  <i_epik_Tot_Q>  (1) 
0

>  <i_epik_Tot_abs_Q>  (1) 
2

>  <i_i_glide_confnum>  (1) 
4

>  <i_i_glide_lignum>  (1) 
109

>  <i_i_glide_posenum>  (1) 
36

>  <i_i_glide_rotatable_bonds>  (1) 
6

>  <i_lp_mmshare_version>  (1) 
72125

>  <i_m_source_file_index>  (1) 
45

>  <i_f3d_flags>  (1) 
0

>  <num_sample>  (1) 
100

>  <b_lp_Chiralities_Consistent>  (1) 
1

>  <r_epik_Charging_Adjusted_Penalty>  (1) 
0.41733257654759531

>  <r_epik_Ionization_Penalty>  (1) 
0.0069177268181324029

>  <r_epik_Ionization_Penalty_Charging>  (1) 
0.0066527375949913311

>  <r_epik_Ionization_Penalty_Neutral>  (1) 
0.00026498922314107146

>  <r_epik_State_Penalty>  (1) 
0.41067983895260396

>  <r_glide_ring_energy>  (1) 
0

>  <r_i_docking_score>  (1) 
-3.86502806156575

>  <r_i_glide_ecoul>  (1) 
-4.1107325266793993

>  <r_i_glide_eff_state_penalty>  (1) 
0.41067983895260396

>  <r_i_glide_einternal>  (1) 
4.0907493412549378

>  <r_i_glide_emodel>  (1) 
-19.627045569934623

>  <r_i_glide_emodel_strain>  (1) 
8.2773925125656547

>  <r_i_glide_energy>  (1) 
-20.43357434799173

>  <r_i_glide_erotb>  (1) 
0.61440649929112812

>  <r_i_glide_esite>  (1) 
-0.25338953643617484

>  <r_i_glide_evdw>  (1) 
-16.322841821312331

>  <r_i_glide_gscore>  (1) 
-4.2757079005183538

>  <r_i_glide_gscore_strain>  (1) 
1.0693481281414137

>  <r_i_glide_hbond>  (1) 
-0.20000000000000001

>  <r_i_glide_ligand_efficiency>  (1) 
-0.15460112246263

>  <r_i_glide_ligand_efficiency_ln>  (1) 
-0.91612747613554013

>  <r_i_glide_ligand_efficiency_sa>  (1) 
-0.4520564244283497

>  <r_i_glide_lipo>  (1) 
-1.8531524694196833

>  <r_i_glide_metal>  (1) 
-0

>  <r_i_glide_rewards>  (1) 
-2.220168552027511

>  <r_lp_Energy>  (1) 
10.776309999999999

>  <r_lp_tautomer_probability>  (1) 
0.49999399997599986

>  <s_epik_Chemistry_Notes>  (1) 
This compound has an imine and may undergo hydrolysis. This compound contains an acetal/aminal-like group ( X-CH(R)-Y where X, Y are N, S, or O) that may be acid/base labile, releasing an aldehyde.

>  <s_epik_cmdline>  (1) 
J2VwaWtfcHl0aG9uJywgJy1waHQnLCAnMS4wJywgJy1waCcsICc3LjQnLCAnLXRuJywgJzgnLCAnLW1hJywgJzUwMCcsICctaW1hZScsICc8aW5maWxlLm1hZT4nLCAnLW9tYWUnLCAnPG91dGZpbGUubWFlPic=

>  <s_epik_input>  (1) 
W0NIM11bQ0BIXTFbQ0gyXVtDSDJdTihbQ0BASF0xW0NIM10pW0NAQEhdKFtPSF0pW0NAQEhdKFtDSDNdKVxDKFtDSDNdKT1OXFtDQEBIXShPW0NIM10pQzI9Qz1bQ0hdW0NIMl1bQ0BASF0oRilbQ0gyXVtDSDJdMg==

>  <s_glide_docking_method>  (1) 
confgen

>  <s_i_glide_gridfile>  (1) 
gpcr_5ht2c_6bqh_protein_autoprepared_prepared

>  <s_lp_Force_Field>  (1) 
S-OPLS

>  <s_lp_Variant>  (1) 
DiffSBDD_44_num_sample_100-2

>  <s_m_source_file>  (1) 
generated__ligand_DiffSBDD_2026-05-06_prepared.sdf

>  <GenAI_Model>  (1) 
DiffSBDD

>  <Protein>  (1) 
GPCR_5HT2C

$$$$
DiffSBDD_96_num_sample_100
     RDKit          3D

  0  0  0  0  0  0  0  0  0  0999 V3000
M  V30 BEGIN CTAB
M  V30 COUNTS 29 28 0 0 1
M  V30 BEGIN ATOM
M  V30 1 C 38.059477 28.587789 53.883862 0
M  V30 2 C 39.556698 27.241590 56.154254 0
M  V30 3 N 37.867403 32.287882 56.640981 0 CHG=1
M  V30 4 C 38.500935 31.125748 55.973271 0
M  V30 5 C 38.898577 29.871623 53.779419 0
M  V30 6 C 38.246354 31.084387 54.454019 0
M  V30 7 C 38.028086 32.253134 58.110088 0
M  V30 8 S 39.467407 26.219246 54.653502 0
M  V30 9 C 38.267404 33.590417 56.066179 0
M  V30 10 O 39.065543 27.209604 52.184840 0
M  V30 11 C 38.853916 27.379513 53.383297 0
M  V30 12 H 37.177487 28.686860 53.249735 0
M  V30 13 H 37.665008 28.433680 54.883670 0
M  V30 14 H 40.136088 26.710736 56.909824 0
M  V30 15 H 38.569169 27.425275 56.576162 0
M  V30 16 H 40.057661 28.189365 55.961554 0
M  V30 17 H 38.111792 30.214093 56.428178 0
M  V30 18 H 39.574309 31.140564 56.169955 0
M  V30 19 H 39.895128 29.721392 54.194495 0
M  V30 20 H 39.062236 30.094206 52.723647 0
M  V30 21 H 38.665682 31.973567 53.983199 0
M  V30 22 H 37.174197 31.104793 54.253501 0
M  V30 23 H 39.067404 32.395954 58.400349 0
M  V30 24 H 37.431719 33.039082 58.575225 0
M  V30 25 H 37.681127 31.301507 58.514392 0
M  V30 26 H 39.350689 33.621430 55.951763 0
M  V30 27 H 37.817695 33.740645 55.085220 0
M  V30 28 H 37.945135 34.420909 56.694827 0
M  V30 29 H 36.852974 32.190693 56.515762 0
M  V30 END ATOM
M  V30 BEGIN BOND
M  V30 1 1 4 3
M  V30 2 1 5 1
M  V30 3 1 6 4
M  V30 4 1 6 5
M  V30 5 1 7 3
M  V30 6 1 8 2
M  V30 7 1 9 3
M  V30 8 1 11 1
M  V30 9 1 11 8
M  V30 10 2 11 10
M  V30 11 1 12 1
M  V30 12 1 13 1
M  V30 13 1 14 2
M  V30 14 1 15 2
M  V30 15 1 16 2
M  V30 16 1 17 4
M  V30 17 1 18 4
M  V30 18 1 19 5
M  V30 19 1 20 5
M  V30 20 1 21 6
M  V30 21 1 22 6
M  V30 22 1 23 7
M  V30 23 1 24 7
M  V30 24 1 25 7
M  V30 25 1 26 9
M  V30 26 1 27 9
M  V30 27 1 28 9
M  V30 28 1 29 3
M  V30 END BOND
M  V30 END CTAB
M  END
>  <i_epik_Tot_Q>  (1) 
1

>  <i_epik_Tot_abs_Q>  (1) 
1

>  <i_i_glide_confnum>  (1) 
34

>  <i_i_glide_lignum>  (1) 
267

>  <i_i_glide_posenum>  (1) 
195

>  <i_i_glide_rotatable_bonds>  (1) 
6

>  <i_lp_mmshare_version>  (1) 
72125

>  <i_m_source_file_index>  (1) 
97

>  <i_f3d_flags>  (1) 
0

>  <num_sample>  (1) 
100

>  <b_lp_Chiralities_Consistent>  (1) 
1

>  <r_epik_Charging_Adjusted_Penalty>  (1) 
0.0098875649971034846

>  <r_epik_Ionization_Penalty>  (1) 
0.0049437824985517501

>  <r_epik_Ionization_Penalty_Charging>  (1) 
0.0049437824985517501

>  <r_epik_Ionization_Penalty_Neutral>  (1) 
0

>  <r_epik_State_Penalty>  (1) 
0.0049437824985517353

>  <r_glide_ring_energy>  (1) 
0

>  <r_i_docking_score>  (1) 
-3.8594560393025552

>  <r_i_glide_ecoul>  (1) 
-3.9433239665588635

>  <r_i_glide_eff_state_penalty>  (1) 
0.0049437824985517353

>  <r_i_glide_einternal>  (1) 
4.6862910718482471

>  <r_i_glide_emodel>  (1) 
-31.371480917909526

>  <r_i_glide_emodel_strain>  (1) 
0.32178829860305669

>  <r_i_glide_energy>  (1) 
-24.953668433678114

>  <r_i_glide_erotb>  (1) 
2.0117858138389204

>  <r_i_glide_esite>  (1) 
-0.10000000000000001

>  <r_i_glide_evdw>  (1) 
-21.01034446711925

>  <r_i_glide_gscore>  (1) 
-3.8643998218011069

>  <r_i_glide_gscore_strain>  (1) 
0

>  <r_i_glide_hbond>  (1) 
-0.24667478046721047

>  <r_i_glide_ligand_efficiency>  (1) 
-0.35085963993659591

>  <r_i_glide_ligand_efficiency_ln>  (1) 
-1.1358372549616755

>  <r_i_glide_ligand_efficiency_sa>  (1) 
-0.78030485380330816

>  <r_i_glide_lipo>  (1) 
-1.1161940185126711

>  <r_i_glide_metal>  (1) 
-0

>  <r_i_glide_rewards>  (1) 
-2.7713010183203539

>  <r_lp_Energy>  (1) 
14.365169999999999

>  <s_epik_cmdline>  (1) 
J2VwaWtfcHl0aG9uJywgJy1waHQnLCAnMS4wJywgJy1waCcsICc3LjQnLCAnLXRuJywgJzgnLCAnLW1hJywgJzUwMCcsICctaW1hZScsICc8aW5maWxlLm1hZT4nLCAnLW9tYWUnLCAnPG91dGZpbGUubWFlPic=

>  <s_epik_input>  (1) 
W0NIM11TQyg9TylbQ0gyXVtDSDJdW0NIMl1bQ0gyXU4oW0NIM10pW0NIM10=

>  <s_glide_docking_method>  (1) 
confgen

>  <s_i_glide_gridfile>  (1) 
gpcr_5ht2c_6bqh_protein_autoprepared_prepared

>  <s_lp_Force_Field>  (1) 
S-OPLS

>  <s_lp_Variant>  (1) 
DiffSBDD_96_num_sample_100-1

>  <s_m_source_file>  (1) 
generated__ligand_DiffSBDD_2026-05-06_prepared.sdf

>  <GenAI_Model>  (1) 
DiffSBDD

>  <Protein>  (1) 
GPCR_5HT2C

$$$$
DiffSBDD_32_num_sample_100
     RDKit          3D

  0  0  0  0  0  0  0  0  0  0999 V3000
M  V30 BEGIN CTAB
M  V30 COUNTS 84 87 0 0 1
M  V30 BEGIN ATOM
M  V30 1 C 39.067402 31.377650 58.853919 0 CFG=2
M  V30 2 O 39.993194 32.230380 63.028519 0 CHG=-1
M  V30 3 O 40.019066 28.025502 51.302888 0
M  V30 4 C 37.346130 28.337338 52.280575 0
M  V30 5 C 41.963844 27.490855 58.235629 0
M  V30 6 C 37.852391 34.276856 61.853501 0
M  V30 7 O 38.986292 28.889748 58.744900 0
M  V30 8 C 37.836753 36.514001 60.700166 0
M  V30 9 C 38.122621 28.802980 55.893197 0 CFG=1
M  V30 10 C 36.274849 31.044780 60.422783 0
M  V30 11 C 38.183342 27.108176 52.571520 0 CFG=2
M  V30 12 C 36.085229 34.004827 60.137873 0
M  V30 13 C 37.823025 31.263749 56.775016 0
M  V30 14 C 37.068008 36.312956 59.639050 0
M  V30 15 O 37.167080 37.180070 58.653970 0
M  V30 16 C 36.096435 35.215099 59.501282 0
M  V30 17 C 39.247569 26.599126 58.957575 0
M  V30 18 C 39.455785 31.199973 62.571973 0
M  V30 19 O 39.551215 30.059388 63.053774 0
M  V30 20 C 38.632252 31.336182 61.276682 0 CFG=2
M  V30 21 O 36.667396 36.193921 62.652604 0
M  V30 22 C 37.148313 29.966124 56.299830 0
M  V30 23 C 37.068812 33.474697 61.112138 0
M  V30 24 C 37.793583 35.751281 61.925138 0 CFG=1
M  V30 25 C 38.180445 27.669420 56.962532 0
M  V30 26 C 39.787009 30.021507 58.563792 0
M  V30 27 N 36.655265 30.810391 59.005858 0 CHG=1
M  V30 28 C 38.706467 27.260910 53.996631 0
M  V30 29 C 37.479327 29.163226 53.518650 0
M  V30 30 C 39.244062 26.859071 51.497726 0
M  V30 31 C 43.324959 27.642959 57.565949 0
M  V30 32 N 37.744589 28.204009 54.593565 0 CFG=2 CHG=1
M  V30 33 C 39.345056 27.748828 57.966013 0 CFG=1
M  V30 34 C 39.459172 31.977516 60.193605 0
M  V30 35 C 40.757812 27.637990 57.280235 0
M  V30 36 C 37.195350 31.936706 61.307051 0 CFG=1
M  V30 37 C 37.694790 31.587123 58.298174 0 CFG=1
M  V30 38 H 39.467252 32.142853 58.202547 0
M  V30 39 H 39.591039 28.584610 50.670266 0
M  V30 40 H 36.302369 28.056795 52.169972 0
M  V30 41 H 37.668034 28.895657 51.412133 0
M  V30 42 H 41.905991 28.186470 59.068472 0
M  V30 43 H 41.950041 26.493911 58.653657 0
M  V30 44 H 38.543470 33.830851 62.529928 0
M  V30 45 H 38.508918 37.358967 60.705594 0
M  V30 46 H 39.112811 29.219962 55.715939 0
M  V30 47 H 36.268896 30.029373 60.816870 0
M  V30 48 H 35.231010 31.355796 60.481449 0
M  V30 49 H 37.481396 26.284939 52.654144 0
M  V30 50 H 35.293691 33.339613 59.843205 0
M  V30 51 H 37.440028 32.113737 56.214801 0
M  V30 52 H 38.839448 31.293645 56.397124 0
M  V30 53 H 37.832232 37.803267 58.901885 0
M  V30 54 H 35.310394 35.369831 58.775363 0
M  V30 55 H 39.568831 25.649677 58.525120 0
M  V30 56 H 39.865043 26.822282 59.826480 0
M  V30 57 H 38.244638 26.474930 59.326159 0
M  V30 58 H 38.525156 30.285286 61.000816 0
M  V30 59 H 36.742898 35.907861 63.553227 0
M  V30 60 H 36.387252 29.620422 56.985730 0
M  V30 61 H 36.501894 30.314670 55.506224 0
M  V30 62 H 38.681766 36.051380 62.483806 0
M  V30 63 H 37.232250 27.644166 57.504051 0
M  V30 64 H 38.219004 26.685377 56.503882 0
M  V30 65 H 40.643287 29.901841 59.223110 0
M  V30 66 H 40.174763 30.083215 57.555284 0
M  V30 67 H 36.914633 29.839486 58.902942 0
M  V30 68 H 39.711235 27.680652 54.019671 0
M  V30 69 H 38.738261 26.291455 54.497433 0
M  V30 70 H 36.531930 29.622118 53.691040 0
M  V30 71 H 38.270896 29.909928 53.432290 0
M  V30 72 H 39.867462 26.023952 51.805060 0
M  V30 73 H 38.793046 26.602490 50.540524 0
M  V30 74 H 44.129854 27.590658 58.288742 0
M  V30 75 H 43.513652 26.826571 56.881037 0
M  V30 76 H 43.412362 28.590386 57.042678 0
M  V30 77 H 40.516151 31.816217 60.394648 0
M  V30 78 H 39.383806 33.061704 60.154253 0
M  V30 79 H 40.744903 26.752102 56.642410 0
M  V30 80 H 40.951922 28.441414 56.578017 0
M  V30 81 H 36.835613 31.796762 62.321119 0
M  V30 82 H 37.435125 32.642677 58.375550 0
M  V30 83 H 36.884277 27.694059 54.735500 0
M  V30 84 H 35.837159 30.998783 58.428345 0
M  V30 END ATOM
M  V30 BEGIN BOND
M  V30 1 1 11 4
M  V30 2 2 14 8
M  V30 3 1 15 14
M  V30 4 2 16 12
M  V30 5 1 16 14
M  V30 6 1 18 2
M  V30 7 2 19 18
M  V30 8 1 20 18
M  V30 9 1 22 9
M  V30 10 1 22 13
M  V30 11 2 23 6
M  V30 12 1 23 12
M  V30 13 1 24 6
M  V30 14 1 24 8
M  V30 15 1 24 21
M  V30 16 1 25 9
M  V30 17 1 26 1
M  V30 18 1 26 7
M  V30 19 1 27 10
M  V30 20 1 28 11
M  V30 21 1 29 4
M  V30 22 1 30 3
M  V30 23 1 30 11
M  V30 24 1 31 5
M  V30 25 1 32 9
M  V30 26 1 32 28
M  V30 27 1 32 29
M  V30 28 1 33 7
M  V30 29 1 33 17 CFG=1
M  V30 30 1 33 25
M  V30 31 1 34 1
M  V30 32 1 34 20
M  V30 33 1 35 5
M  V30 34 1 35 33
M  V30 35 1 36 10
M  V30 36 1 36 20
M  V30 37 1 36 23
M  V30 38 1 37 1
M  V30 39 1 37 13
M  V30 40 1 37 27
M  V30 41 1 1 38 CFG=3
M  V30 42 1 39 3
M  V30 43 1 40 4
M  V30 44 1 41 4
M  V30 45 1 42 5
M  V30 46 1 43 5
M  V30 47 1 44 6
M  V30 48 1 45 8
M  V30 49 1 9 46 CFG=3
M  V30 50 1 47 10
M  V30 51 1 48 10
M  V30 52 1 11 49 CFG=1
M  V30 53 1 50 12
M  V30 54 1 51 13
M  V30 55 1 52 13
M  V30 56 1 53 15
M  V30 57 1 54 16
M  V30 58 1 55 17
M  V30 59 1 56 17
M  V30 60 1 57 17
M  V30 61 1 20 58 CFG=3
M  V30 62 1 59 21
M  V30 63 1 60 22
M  V30 64 1 61 22
M  V30 65 1 24 62 CFG=1
M  V30 66 1 63 25
M  V30 67 1 64 25
M  V30 68 1 65 26
M  V30 69 1 66 26
M  V30 70 1 67 27
M  V30 71 1 68 28
M  V30 72 1 69 28
M  V30 73 1 70 29
M  V30 74 1 71 29
M  V30 75 1 72 30
M  V30 76 1 73 30
M  V30 77 1 74 31
M  V30 78 1 75 31
M  V30 79 1 76 31
M  V30 80 1 77 34
M  V30 81 1 78 34
M  V30 82 1 79 35
M  V30 83 1 80 35
M  V30 84 1 36 81 CFG=1
M  V30 85 1 37 82 CFG=3
M  V30 86 1 32 83 CFG=1
M  V30 87 1 84 27
M  V30 END BOND
M  V30 END CTAB
M  END
>  <i_epik_Tot_Q>  (1) 
1

>  <i_epik_Tot_abs_Q>  (1) 
3

>  <i_i_glide_confnum>  (1) 
72

>  <i_i_glide_lignum>  (1) 
87

>  <i_i_glide_posenum>  (1) 
7

>  <i_i_glide_rotatable_bonds>  (1) 
9

>  <i_lp_mmshare_version>  (1) 
72125

>  <i_m_source_file_index>  (1) 
33

>  <i_f3d_flags>  (1) 
0

>  <num_sample>  (1) 
100

>  <b_lp_Chiralities_Consistent>  (1) 
1

>  <r_epik_Charging_Adjusted_Penalty>  (1) 
0.016900800142501185

>  <r_epik_Ionization_Penalty>  (1) 
0.019380071947909534

>  <r_epik_Ionization_Penalty_Charging>  (1) 
0.016900800142501185

>  <r_epik_Ionization_Penalty_Neutral>  (1) 
0.0024792718054083493

>  <r_epik_State_Penalty>  (1) 
-0

>  <r_glide_ring_energy>  (1) 
0.61486460330699788

>  <r_i_docking_score>  (1) 
-3.8539847779572147

>  <r_i_glide_ecoul>  (1) 
-0.9314624564440992

>  <r_i_glide_eff_state_penalty>  (1) 
-0

>  <r_i_glide_einternal>  (1) 
13.43835873145469

>  <r_i_glide_emodel>  (1) 
-32.659431977709474

>  <r_i_glide_emodel_strain>  (1) 
6.3388659899960658

>  <r_i_glide_energy>  (1) 
-5.0800284341139239

>  <r_i_glide_erotb>  (1) 
0.30428459818937692

>  <r_i_glide_esite>  (1) 
-0.10000000000000001

>  <r_i_glide_evdw>  (1) 
-4.1485659776698247

>  <r_i_glide_gscore>  (1) 
-3.8539847779572147

>  <r_i_glide_gscore_strain>  (1) 
0.58471649749901644

>  <r_i_glide_hbond>  (1) 
-0.30564831358899591

>  <r_i_glide_ligand_efficiency>  (1) 
-0.1041617507556004

>  <r_i_glide_ligand_efficiency_ln>  (1) 
-0.83583894811674697

>  <r_i_glide_ligand_efficiency_sa>  (1) 
-0.34709006197351105

>  <r_i_glide_lipo>  (1) 
-3.0772124688631584

>  <r_i_glide_metal>  (1) 
-0

>  <r_i_glide_rewards>  (1) 
-0.91297742384334757

>  <r_lp_Energy>  (1) 
56.582617999999997

>  <r_lp_tautomer_probability>  (1) 
1

>  <s_epik_cmdline>  (1) 
J2VwaWtfcHl0aG9uJywgJy1waHQnLCAnMS4wJywgJy1waCcsICc3LjQnLCAnLXRuJywgJzgnLCAnLW1hJywgJzUwMCcsICctaW1hZScsICc8aW5maWxlLm1hZT4nLCAnLW9tYWUnLCAnPG91dGZpbGUubWFlPic=

>  <s_epik_input>  (1) 
W09IXUMxPVtDSF1bQ0BASF0oW09IXSlbQ0hdPUMoW0NIXT1bQ0hdMSlbQ0BIXShbQ0BASF0oW0NIMl0yKUMoPU8pW09IXSlbQ0gyXVtOSF1bQ0BASF0oW0NAQEhdMjMpW0NIMl1bQ0gyXVtDQEBIXShbQ0gyXVtDQF0oW0NIM10pKE9bQ0gyXTMpW0NIMl1bQ0gyXVtDSDNdKU4oW0NIMl00KVtDSDJdW0NIMl1bQ0BIXTRbQ0gyXVtPSF0=

>  <s_glide_docking_method>  (1) 
confgen

>  <s_i_glide_gridfile>  (1) 
gpcr_5ht2c_6bqh_protein_autoprepared_prepared

>  <s_lp_Force_Field>  (1) 
S-OPLS

>  <s_lp_Variant>  (1) 
DiffSBDD_32_num_sample_100-2

>  <s_m_source_file>  (1) 
generated__ligand_DiffSBDD_2026-05-06_prepared.sdf

>  <GenAI_Model>  (1) 
DiffSBDD

>  <Protein>  (1) 
GPCR_5HT2C

$$$$
DiffSBDD_29_num_sample_100
     RDKit          3D

  0  0  0  0  0  0  0  0  0  0999 V3000
M  V30 BEGIN CTAB
M  V30 COUNTS 86 90 0 0 1
M  V30 BEGIN ATOM
M  V30 1 F 39.850899 30.657305 53.246999 0
M  V30 2 C 38.825034 32.659910 57.073427 0
M  V30 3 C 39.104635 28.421122 55.011816 0
M  V30 4 C 36.527096 33.860707 61.463126 0 CFG=2
M  V30 5 C 39.953946 33.055033 60.978898 0
M  V30 6 C 35.018472 33.729000 61.771050 0
M  V30 7 C 39.522183 29.200924 51.506950 0
M  V30 8 N 38.132228 31.348687 57.147017 0 CFG=1 CHG=1
M  V30 9 C 36.475330 36.424990 62.603470 0 CFG=1
M  V30 10 C 41.564369 34.694037 62.942600 0
M  V30 11 C 37.490887 29.603536 58.872452 0
M  V30 12 C 40.939583 35.329898 61.706376 0 CFG=2
M  V30 13 C 39.470597 29.461571 52.773067 0
M  V30 14 C 37.701116 30.899876 59.612782 0 CFG=2
M  V30 15 C 38.047561 32.776799 54.677849 0
M  V30 16 C 36.942405 38.875043 61.681031 0
M  V30 17 C 37.208982 35.330845 61.678770 0 CFG=1
M  V30 18 C 36.510333 31.857099 59.652091 0 CFG=1
M  V30 19 C 38.708096 27.195481 52.845398 0
M  V30 20 N 37.469462 31.453736 54.870348 0
M  V30 21 N 39.051311 28.443233 53.556522 0
M  V30 22 F 39.934747 30.075644 50.572976 0
M  V30 23 S 39.772647 36.642130 62.082396 0
M  V30 24 C 38.290609 30.697770 55.810488 0 CFG=2
M  V30 25 C 38.135915 33.527172 56.015778 0
M  V30 26 C 34.786621 38.356806 62.806745 0
M  V30 27 O 35.467485 31.221499 60.336755 0
M  V30 28 C 38.714477 35.161961 62.053076 0 CFG=2
M  V30 29 C 36.720833 33.369415 60.003189 0
M  V30 30 C 41.949798 33.237369 62.615985 0
M  V30 31 C 40.737383 32.418807 62.145796 0
M  V30 32 C 37.951720 29.194898 55.666910 0
M  V30 33 O 37.191164 36.821467 63.759728 0
M  V30 34 C 39.766039 34.557825 61.073829 0 CFG=2
M  V30 35 C 38.525287 30.577026 58.357228 0 CFG=2
M  V30 36 C 35.935751 37.768710 61.959473 0
M  V30 37 O 37.114465 32.821391 62.253098 0
M  V30 38 S 39.067480 27.617866 51.020898 0
M  V30 39 H 38.847964 33.172129 58.026538 0
M  V30 40 H 39.866212 32.509301 56.793030 0
M  V30 41 H 40.074071 28.780127 55.357416 0
M  V30 42 H 39.050022 27.379905 55.334772 0
M  V30 43 H 40.321084 32.821803 59.992847 0
M  V30 44 H 39.014935 32.560368 60.950188 0
M  V30 45 H 34.407928 34.021810 60.920007 0
M  V30 46 H 34.709646 32.709506 61.989269 0
M  V30 47 H 34.681760 34.248919 62.652944 0
M  V30 48 H 35.618689 35.947225 63.055122 0
M  V30 49 H 42.398531 35.289878 63.308737 0
M  V30 50 H 40.873595 34.686233 63.784517 0
M  V30 51 H 37.864145 28.700178 59.349379 0
M  V30 52 H 36.549181 29.492238 58.331695 0
M  V30 53 H 41.664825 35.631376 60.950551 0
M  V30 54 H 38.150401 30.715442 60.585709 0
M  V30 55 H 37.466437 33.345058 53.953508 0
M  V30 56 H 39.044904 32.656312 54.261462 0
M  V30 57 H 36.675862 39.768573 62.252751 0
M  V30 58 H 37.958886 38.557918 61.853299 0
M  V30 59 H 36.916526 39.195672 60.653466 0
M  V30 60 H 37.179493 35.791383 60.691368 0
M  V30 61 H 36.154239 31.888296 58.653505 0
M  V30 62 H 39.334130 26.368978 53.177543 0
M  V30 63 H 37.658368 26.937095 52.985377 0
M  V30 64 H 36.530313 31.578542 55.253868 0
M  V30 65 H 39.337523 30.808931 55.533514 0
M  V30 66 H 37.149273 33.798155 56.380693 0
M  V30 67 H 38.665931 34.463792 55.863297 0
M  V30 68 H 35.150764 38.766621 63.752450 0
M  V30 69 H 34.290175 39.151435 62.253432 0
M  V30 70 H 34.021072 37.625954 63.054750 0
M  V30 71 H 34.667407 31.686211 60.150283 0
M  V30 72 H 38.828438 34.697163 63.026266 0
M  V30 73 H 37.681793 33.697848 59.641307 0
M  V30 74 H 36.030755 33.938927 59.379424 0
M  V30 75 H 42.698866 33.220126 61.826233 0
M  V30 76 H 42.402502 32.766341 63.488583 0
M  V30 77 H 41.040118 31.405005 61.885144 0
M  V30 78 H 40.061268 32.315331 62.992904 0
M  V30 79 H 37.765263 28.709593 56.613338 0
M  V30 80 H 37.050709 29.044237 55.075386 0
M  V30 81 H 36.578548 37.186734 64.378764 0
M  V30 82 H 39.568980 34.962763 60.080596 0
M  V30 83 H 39.573263 30.302596 58.422382 0
M  V30 84 H 35.524531 37.621499 60.961044 0
M  V30 85 H 38.054132 32.913023 62.220942 0
M  V30 86 H 37.138476 31.537459 57.238329 0
M  V30 END ATOM
M  V30 BEGIN BOND
M  V30 1 1 6 4
M  V30 2 1 8 2
M  V30 3 1 12 10
M  V30 4 1 13 1
M  V30 5 2 13 7
M  V30 6 1 14 11
M  V30 7 1 17 4
M  V30 8 1 17 9
M  V30 9 1 18 14
M  V30 10 1 20 15
M  V30 11 1 21 3
M  V30 12 1 21 13
M  V30 13 1 21 19
M  V30 14 1 22 7
M  V30 15 1 23 12
M  V30 16 1 24 8
M  V30 17 1 24 20
M  V30 18 1 25 2
M  V30 19 1 25 15
M  V30 20 1 27 18
M  V30 21 1 28 17
M  V30 22 1 28 23
M  V30 23 1 29 4
M  V30 24 1 29 18
M  V30 25 1 30 10
M  V30 26 1 31 5
M  V30 27 1 31 30
M  V30 28 1 32 3
M  V30 29 1 32 24
M  V30 30 1 33 9
M  V30 31 1 34 5
M  V30 32 1 34 12
M  V30 33 1 34 28
M  V30 34 1 35 8
M  V30 35 1 35 11
M  V30 36 1 35 14
M  V30 37 1 36 9
M  V30 38 1 36 16
M  V30 39 1 36 26
M  V30 40 1 4 37 CFG=1
M  V30 41 1 38 7
M  V30 42 1 38 19
M  V30 43 1 39 2
M  V30 44 1 40 2
M  V30 45 1 41 3
M  V30 46 1 42 3
M  V30 47 1 43 5
M  V30 48 1 44 5
M  V30 49 1 45 6
M  V30 50 1 46 6
M  V30 51 1 47 6
M  V30 52 1 9 48 CFG=1
M  V30 53 1 49 10
M  V30 54 1 50 10
M  V30 55 1 51 11
M  V30 56 1 52 11
M  V30 57 1 12 53 CFG=3
M  V30 58 1 14 54 CFG=1
M  V30 59 1 55 15
M  V30 60 1 56 15
M  V30 61 1 57 16
M  V30 62 1 58 16
M  V30 63 1 59 16
M  V30 64 1 17 60 CFG=3
M  V30 65 1 18 61 CFG=3
M  V30 66 1 62 19
M  V30 67 1 63 19
M  V30 68 1 64 20
M  V30 69 1 24 65 CFG=3
M  V30 70 1 66 25
M  V30 71 1 67 25
M  V30 72 1 68 26
M  V30 73 1 69 26
M  V30 74 1 70 26
M  V30 75 1 71 27
M  V30 76 1 28 72 CFG=1
M  V30 77 1 73 29
M  V30 78 1 74 29
M  V30 79 1 75 30
M  V30 80 1 76 30
M  V30 81 1 77 31
M  V30 82 1 78 31
M  V30 83 1 79 32
M  V30 84 1 80 32
M  V30 85 1 81 33
M  V30 86 1 34 82 CFG=3
M  V30 87 1 35 83 CFG=1
M  V30 88 1 84 36
M  V30 89 1 85 37
M  V30 90 1 8 86 CFG=1
M  V30 END BOND
M  V30 END CTAB
M  END
>  <i_epik_Tot_Q>  (1) 
1

>  <i_epik_Tot_abs_Q>  (1) 
1

>  <i_i_glide_confnum>  (1) 
493

>  <i_i_glide_lignum>  (1) 
75

>  <i_i_glide_posenum>  (1) 
58

>  <i_i_glide_rotatable_bonds>  (1) 
14

>  <i_lp_mmshare_version>  (1) 
72125

>  <i_m_source_file_index>  (1) 
30

>  <i_f3d_flags>  (1) 
0

>  <num_sample>  (1) 
100

>  <b_lp_Chiralities_Consistent>  (1) 
1

>  <r_epik_Charging_Adjusted_Penalty>  (1) 
1.7477768688038313

>  <r_epik_Ionization_Penalty>  (1) 
0.56833185219894722

>  <r_epik_Ionization_Penalty_Charging>  (1) 
0.56833130032608237

>  <r_epik_Ionization_Penalty_Neutral>  (1) 
5.5187286482775955e-07

>  <r_epik_State_Penalty>  (1) 
1.179445568477749

>  <r_glide_ring_energy>  (1) 
2.2046325848137989

>  <r_i_docking_score>  (1) 
-3.8222764574586003

>  <r_i_glide_ecoul>  (1) 
-8.3268502798445354

>  <r_i_glide_eff_state_penalty>  (1) 
1.179445568477749

>  <r_i_glide_einternal>  (1) 
125.01987665649784

>  <r_i_glide_emodel>  (1) 
31.23913477574127

>  <r_i_glide_emodel_strain>  (1) 
17.235134406342553

>  <r_i_glide_energy>  (1) 
-38.371521792045435

>  <r_i_glide_erotb>  (1) 
0.46833353265868582

>  <r_i_glide_esite>  (1) 
-0.15413161994249203

>  <r_i_glide_evdw>  (1) 
-30.0446715122009

>  <r_i_glide_gscore>  (1) 
-5.0017220259363491

>  <r_i_glide_gscore_strain>  (1) 
3.3087836015856382

>  <r_i_glide_hbond>  (1) 
-0.41195804870883146

>  <r_i_glide_ligand_efficiency>  (1) 
-0.10058622256470001

>  <r_i_glide_ligand_efficiency_ln>  (1) 
-0.8241952442095678

>  <r_i_glide_ligand_efficiency_sa>  (1) 
-0.33816840652532842

>  <r_i_glide_lipo>  (1) 
-3.5591160616791573

>  <r_i_glide_metal>  (1) 
-0

>  <r_i_glide_rewards>  (1) 
-1.9023723122634668

>  <r_lp_Energy>  (1) 
40.584823

>  <s_epik_Chemistry_Notes>  (1) 
This compound has an imine and may undergo hydrolysis. This compound contains an acetal/aminal-like group ( X-CH(R)-Y where X, Y are N, S, or O) that may be acid/base labile, releasing an aldehyde.

>  <s_epik_cmdline>  (1) 
J2VwaWtfcHl0aG9uJywgJy1waHQnLCAnMS4wJywgJy1waCcsICc3LjQnLCAnLXRuJywgJzgnLCAnLW1hJywgJzUwMCcsICctaW1hZScsICc8aW5maWxlLm1hZT4nLCAnLW9tYWUnLCAnPG91dGZpbGUubWFlPic=

>  <s_epik_input>  (1) 
RkMxPUMoRilOKFtDSDJdUzEpW0NIMl1bQ0gyXVtDQEhdMltOSF1bQ0gyXVtDSDJdW0NIMl1OMltDQEBIXTNbQ0gyXVtDQEBIXTNbQ0BASF0oW09IXSlbQ0gyXVtDQEBdKFtDSDNdKShbT0hdKVtDQEBIXShbQ0BASF0oW09IXSlbQ0hdKFtDSDNdKVtDSDNdKVtDQEhdKFM0KVtDQEBIXShbQ0BASF00NSlbQ0gyXVtDSDJdW0NIMl1bQ0gyXTU=

>  <s_glide_docking_method>  (1) 
confgen

>  <s_i_glide_gridfile>  (1) 
gpcr_5ht2c_6bqh_protein_autoprepared_prepared

>  <s_lp_Force_Field>  (1) 
S-OPLS

>  <s_lp_Variant>  (1) 
DiffSBDD_29_num_sample_100-5

>  <s_m_source_file>  (1) 
generated__ligand_DiffSBDD_2026-05-06_prepared.sdf

>  <GenAI_Model>  (1) 
DiffSBDD

>  <Protein>  (1) 
GPCR_5HT2C

$$$$
DiffSBDD_8_num_sample_100
     RDKit          3D

  0  0  0  0  0  0  0  0  0  0999 V3000
M  V30 BEGIN CTAB
M  V30 COUNTS 55 55 0 0 1
M  V30 BEGIN ATOM
M  V30 1 C 38.899075 32.927163 58.496037 0
M  V30 2 C 38.564713 31.398474 55.572564 0
M  V30 3 C 38.041980 33.296568 57.282899 0
M  V30 4 C 38.925494 25.920090 58.007280 0
M  V30 5 C 38.549586 26.460668 55.694181 0 CFG=2
M  V30 6 C 37.826731 25.108111 55.751803 0
M  V30 7 N 39.054228 26.728830 54.332646 0 CHG=1
M  V30 8 C 39.661345 26.436186 56.764869 0 CFG=1
M  V30 9 S 37.867372 24.554726 57.466400 0
M  V30 10 C 38.251050 33.347784 59.819771 0
M  V30 11 C 40.345626 27.806286 56.998966 0
M  V30 12 C 39.796805 29.629464 52.262821 0
M  V30 13 C 41.355999 27.857568 58.167336 0
M  V30 14 N 42.651201 27.221425 57.853506 0 CHG=1
M  V30 15 C 39.153872 29.683638 53.664775 0 CFG=2
M  V30 16 C 37.856845 28.841538 53.722450 0
M  V30 17 C 38.632176 32.900954 55.917444 0
M  V30 18 C 38.971889 31.150750 54.105682 0
M  V30 19 C 38.061968 27.341763 53.423097 0
M  V30 20 H 39.867400 33.414960 58.411563 0
M  V30 21 H 39.067418 31.850698 58.506537 0
M  V30 22 H 39.216051 30.838946 56.243453 0
M  V30 23 H 37.549249 31.037625 55.740046 0
M  V30 24 H 37.067410 32.842982 57.406451 0
M  V30 25 H 37.867421 34.373117 57.287952 0
M  V30 26 H 38.280681 26.699470 58.416795 0
M  V30 27 H 39.604585 25.621421 58.801931 0
M  V30 28 H 37.842867 27.237470 55.987065 0
M  V30 29 H 36.798570 25.173882 55.393669 0
M  V30 30 H 38.341697 24.359763 55.147917 0
M  V30 31 H 39.375060 25.858345 53.933316 0
M  V30 32 H 40.415691 25.701529 56.478431 0
M  V30 33 H 38.879486 33.073459 60.667396 0
M  V30 34 H 37.281733 32.865917 59.952311 0
M  V30 35 H 38.094364 34.426409 59.856384 0
M  V30 36 H 40.843230 28.137395 56.088610 0
M  V30 37 H 39.568081 28.546425 57.195905 0
M  V30 38 H 39.098265 29.946753 51.489357 0
M  V30 39 H 40.667167 30.281968 52.196821 0
M  V30 40 H 40.137032 28.627801 52.002193 0
M  V30 41 H 41.560838 28.899014 58.418870 0
M  V30 42 H 40.940409 27.415979 59.070712 0
M  V30 43 H 43.222395 27.216274 58.690157 0
M  V30 44 H 42.546621 26.262591 57.523924 0
M  V30 45 H 39.867416 29.262469 54.367697 0
M  V30 46 H 37.379795 28.964445 54.693656 0
M  V30 47 H 37.134407 29.221434 53.006267 0
M  V30 48 H 38.077115 33.449389 55.154446 0
M  V30 49 H 39.662623 33.248119 55.853460 0
M  V30 50 H 38.267379 31.662633 53.453501 0
M  V30 51 H 39.932660 31.635416 53.950961 0
M  V30 52 H 37.112564 26.807467 53.485494 0
M  V30 53 H 38.404616 27.207372 52.397132 0
M  V30 54 H 43.125379 27.753746 57.138365 0
M  V30 55 H 39.835578 27.363835 54.394200 0
M  V30 END ATOM
M  V30 BEGIN BOND
M  V30 1 1 3 1
M  V30 2 1 6 5
M  V30 3 1 7 5
M  V30 4 1 8 4
M  V30 5 1 8 5
M  V30 6 1 9 4
M  V30 7 1 9 6
M  V30 8 1 10 1
M  V30 9 1 11 8
M  V30 10 1 13 11
M  V30 11 1 14 13
M  V30 12 1 15 12
M  V30 13 1 16 15
M  V30 14 1 17 2
M  V30 15 1 17 3
M  V30 16 1 18 2
M  V30 17 1 18 15
M  V30 18 1 19 7
M  V30 19 1 19 16
M  V30 20 1 20 1
M  V30 21 1 21 1
M  V30 22 1 22 2
M  V30 23 1 23 2
M  V30 24 1 24 3
M  V30 25 1 25 3
M  V30 26 1 26 4
M  V30 27 1 27 4
M  V30 28 1 5 28 CFG=1
M  V30 29 1 29 6
M  V30 30 1 30 6
M  V30 31 1 31 7
M  V30 32 1 8 32 CFG=3
M  V30 33 1 33 10
M  V30 34 1 34 10
M  V30 35 1 35 10
M  V30 36 1 36 11
M  V30 37 1 37 11
M  V30 38 1 38 12
M  V30 39 1 39 12
M  V30 40 1 40 12
M  V30 41 1 41 13
M  V30 42 1 42 13
M  V30 43 1 43 14
M  V30 44 1 44 14
M  V30 45 1 15 45 CFG=1
M  V30 46 1 46 16
M  V30 47 1 47 16
M  V30 48 1 48 17
M  V30 49 1 49 17
M  V30 50 1 50 18
M  V30 51 1 51 18
M  V30 52 1 52 19
M  V30 53 1 53 19
M  V30 54 1 54 14
M  V30 55 1 55 7
M  V30 END BOND
M  V30 END CTAB
M  END
>  <i_epik_Tot_Q>  (1) 
2

>  <i_epik_Tot_abs_Q>  (1) 
2

>  <i_i_glide_confnum>  (1) 
286

>  <i_i_glide_lignum>  (1) 
27

>  <i_i_glide_posenum>  (1) 
159

>  <i_i_glide_rotatable_bonds>  (1) 
11

>  <i_lp_mmshare_version>  (1) 
72125

>  <i_m_source_file_index>  (1) 
9

>  <i_f3d_flags>  (1) 
0

>  <num_sample>  (1) 
100

>  <b_lp_Chiralities_Consistent>  (1) 
1

>  <r_epik_Charging_Adjusted_Penalty>  (1) 
0.011852467883577517

>  <r_epik_Ionization_Penalty>  (1) 
0.0071594001399835584

>  <r_epik_Ionization_Penalty_Charging>  (1) 
0.0071594001399835584

>  <r_epik_Ionization_Penalty_Neutral>  (1) 
0

>  <r_epik_State_Penalty>  (1) 
0.0046930677435939585

>  <r_glide_ring_energy>  (1) 
0

>  <r_i_docking_score>  (1) 
-3.8167694870059665

>  <r_i_glide_ecoul>  (1) 
-5.95999936496756

>  <r_i_glide_eff_state_penalty>  (1) 
0.0046930677435939585

>  <r_i_glide_einternal>  (1) 
9.6751090703717466

>  <r_i_glide_emodel>  (1) 
-43.389069962875823

>  <r_i_glide_emodel_strain>  (1) 
0

>  <r_i_glide_energy>  (1) 
-35.477199342021962

>  <r_i_glide_erotb>  (1) 
3.9335954406400124

>  <r_i_glide_esite>  (1) 
-0.016814711729999054

>  <r_i_glide_evdw>  (1) 
-29.517199977054403

>  <r_i_glide_gscore>  (1) 
-3.8214625547495604

>  <r_i_glide_gscore_strain>  (1) 
0

>  <r_i_glide_hbond>  (1) 
0

>  <r_i_glide_ligand_efficiency>  (1) 
-0.20088260457926141

>  <r_i_glide_ligand_efficiency_ln>  (1) 
-0.96763304164805375

>  <r_i_glide_ligand_efficiency_sa>  (1) 
-0.5360354732588597

>  <r_i_glide_lipo>  (1) 
-3.499916382013819

>  <r_i_glide_metal>  (1) 
-0

>  <r_i_glide_rewards>  (1) 
-1.868466998047901

>  <r_lp_Energy>  (1) 
22.085882999999999

>  <s_epik_cmdline>  (1) 
J2VwaWtfcHl0aG9uJywgJy1waHQnLCAnMS4wJywgJy1waCcsICc3LjQnLCAnLXRuJywgJzgnLCAnLW1hJywgJzUwMCcsICctaW1hZScsICc8aW5maWxlLm1hZT4nLCAnLW9tYWUnLCAnPG91dGZpbGUubWFlPic=

>  <s_epik_input>  (1) 
W0NIM11bQ0gyXVtDSDJdW0NIMl1bQ0gyXVtDSDJdW0NASF0oW0NIM10pW0NIMl1bQ0gyXVtOSF1bQ0BIXTFbQ0gyXVNbQ0gyXVtDQEBIXTFbQ0gyXVtDSDJdW05IMl0=

>  <s_glide_docking_method>  (1) 
confgen

>  <s_i_glide_gridfile>  (1) 
gpcr_5ht2c_6bqh_protein_autoprepared_prepared

>  <s_lp_Force_Field>  (1) 
S-OPLS

>  <s_lp_Variant>  (1) 
DiffSBDD_8_num_sample_100-1

>  <s_m_source_file>  (1) 
generated__ligand_DiffSBDD_2026-05-06_prepared.sdf

>  <GenAI_Model>  (1) 
DiffSBDD

>  <Protein>  (1) 
GPCR_5HT2C

$$$$
DiffSBDD_44_num_sample_100
     RDKit          3D

  0  0  0  0  0  0  0  0  0  0999 V3000
M  V30 BEGIN CTAB
M  V30 COUNTS 58 59 0 0 1
M  V30 BEGIN ATOM
M  V30 1 C 38.795271 29.284913 55.129523 0
M  V30 2 O 39.060180 31.246381 58.902471 0 CHG=-1
M  V30 3 C 39.949477 33.826807 62.692927 0
M  V30 4 C 37.508725 30.139600 57.053287 0 CFG=1
M  V30 5 N 38.820744 29.568110 57.471911 0 CFG=1 CHG=1
M  V30 6 C 40.607386 32.006965 64.221608 0
M  V30 7 N 40.193143 30.315138 61.967733 0
M  V30 8 C 39.946732 32.542509 62.952384 0
M  V30 9 O 38.011317 31.225735 62.251284 0
M  V30 10 C 37.446282 29.909711 55.515022 0 CFG=1
M  V30 11 C 37.145013 31.178068 54.707753 0
M  V30 12 C 39.048452 29.228952 60.012919 0 CFG=1
M  V30 13 C 40.112285 29.336166 61.147395 0
M  V30 14 C 39.703601 29.624788 56.294560 0
M  V30 15 C 37.093970 32.118397 61.629389 0
M  V30 16 C 40.746041 35.507647 64.314925 0
M  V30 17 C 39.466419 30.018916 58.740799 0 CFG=2
M  V30 18 C 39.378536 31.520276 61.965484 0 CFG=2
M  V30 19 F 42.666506 34.144263 64.412793 0
M  V30 20 C 41.534765 34.389153 65.062539 0 CFG=2
M  V30 21 C 40.128110 35.086381 62.992293 0
M  V30 22 C 38.732069 27.750894 59.660160 0
M  V30 23 C 41.081606 28.181666 61.222088 0
M  V30 24 C 36.386150 29.567718 57.939483 0
M  V30 25 C 40.822315 33.034244 65.374263 0
M  V30 26 H 39.201316 29.631667 54.178641 0
M  V30 27 H 38.686816 28.201707 55.056579 0
M  V30 28 H 37.479767 31.219979 57.186285 0
M  V30 29 H 40.010938 31.175100 64.599127 0
M  V30 30 H 41.573338 31.588996 63.941228 0
M  V30 31 H 36.667664 29.220642 55.232848 0
M  V30 32 H 37.441177 32.094700 55.218073 0
M  V30 33 H 37.662707 31.178043 53.754467 0
M  V30 34 H 36.075447 31.225705 54.506079 0
M  V30 35 H 38.121562 29.633418 60.409713 0
M  V30 36 H 40.089546 30.640527 56.186229 0
M  V30 37 H 40.543403 28.931584 56.370280 0
M  V30 38 H 36.070700 31.839831 61.875745 0
M  V30 39 H 37.247435 33.150691 61.944504 0
M  V30 40 H 37.176613 32.076805 60.544423 0
M  V30 41 H 41.404438 36.356368 64.131844 0
M  V30 42 H 39.950024 35.883661 64.956723 0
M  V30 43 H 40.513636 29.739785 58.604981 0
M  V30 44 H 39.473259 32.034258 61.020206 0
M  V30 45 H 41.860554 34.817146 66.010772 0
M  V30 46 H 39.810058 35.875560 62.326261 0
M  V30 47 H 38.267440 27.271249 60.510187 0
M  V30 48 H 38.023800 27.637474 58.847308 0
M  V30 49 H 39.600923 27.163303 59.364910 0
M  V30 50 H 40.561141 27.278295 61.530396 0
M  V30 51 H 41.548939 28.019207 60.251670 0
M  V30 52 H 41.866641 28.378810 61.953326 0
M  V30 53 H 35.425317 30.021376 57.764440 0
M  V30 54 H 36.280714 28.490401 57.853492 0
M  V30 55 H 36.569600 29.790803 58.984930 0
M  V30 56 H 39.867409 33.221521 65.853597 0
M  V30 57 H 41.412747 32.522956 66.137051 0
M  V30 58 H 38.651179 28.584538 57.606038 0
M  V30 END ATOM
M  V30 BEGIN BOND
M  V30 1 1 5 4
M  V30 2 2 8 3
M  V30 3 1 8 6
M  V30 4 1 10 1
M  V30 5 1 10 4
M  V30 6 1 11 10
M  V30 7 2 13 7
M  V30 8 1 13 12
M  V30 9 1 14 1
M  V30 10 1 14 5
M  V30 11 1 15 9
M  V30 12 1 17 2
M  V30 13 1 17 5
M  V30 14 1 17 12
M  V30 15 1 18 7
M  V30 16 1 18 8
M  V30 17 1 18 9
M  V30 18 1 20 16
M  V30 19 1 20 19
M  V30 20 2 21 3
M  V30 21 1 21 16
M  V30 22 1 22 12
M  V30 23 1 23 13
M  V30 24 1 24 4
M  V30 25 1 25 6
M  V30 26 1 25 20
M  V30 27 1 26 1
M  V30 28 1 27 1
M  V30 29 1 4 28 CFG=3
M  V30 30 1 29 6
M  V30 31 1 30 6
M  V30 32 1 10 31 CFG=1
M  V30 33 1 32 11
M  V30 34 1 33 11
M  V30 35 1 34 11
M  V30 36 1 12 35 CFG=1
M  V30 37 1 36 14
M  V30 38 1 37 14
M  V30 39 1 38 15
M  V30 40 1 39 15
M  V30 41 1 40 15
M  V30 42 1 41 16
M  V30 43 1 42 16
M  V30 44 1 17 43 CFG=3
M  V30 45 1 18 44 CFG=3
M  V30 46 1 20 45 CFG=1
M  V30 47 1 46 21
M  V30 48 1 47 22
M  V30 49 1 48 22
M  V30 50 1 49 22
M  V30 51 1 50 23
M  V30 52 1 51 23
M  V30 53 1 52 23
M  V30 54 1 53 24
M  V30 55 1 54 24
M  V30 56 1 55 24
M  V30 57 1 56 25
M  V30 58 1 57 25
M  V30 59 1 5 58 CFG=1
M  V30 END BOND
M  V30 END CTAB
M  END
>  <i_epik_Tot_Q>  (1) 
0

>  <i_epik_Tot_abs_Q>  (1) 
2

>  <i_i_glide_confnum>  (1) 
31

>  <i_i_glide_lignum>  (1) 
118

>  <i_i_glide_posenum>  (1) 
316

>  <i_i_glide_rotatable_bonds>  (1) 
6

>  <i_lp_mmshare_version>  (1) 
72125

>  <i_m_source_file_index>  (1) 
45

>  <i_f3d_flags>  (1) 
0

>  <num_sample>  (1) 
100

>  <b_lp_Chiralities_Consistent>  (1) 
1

>  <r_epik_Charging_Adjusted_Penalty>  (1) 
0.41733257654759531

>  <r_epik_Ionization_Penalty>  (1) 
0.0069177268181324029

>  <r_epik_Ionization_Penalty_Charging>  (1) 
0.0066527375949913311

>  <r_epik_Ionization_Penalty_Neutral>  (1) 
0.00026498922314107146

>  <r_epik_State_Penalty>  (1) 
0.41067983895260396

>  <r_glide_ring_energy>  (1) 
0

>  <r_i_docking_score>  (1) 
-3.8153664288248481

>  <r_i_glide_ecoul>  (1) 
-2.536382251300112

>  <r_i_glide_eff_state_penalty>  (1) 
0.41067983895260396

>  <r_i_glide_einternal>  (1) 
7.2747414165242219

>  <r_i_glide_emodel>  (1) 
-19.494544287953403

>  <r_i_glide_emodel_strain>  (1) 
5.1269096028220318

>  <r_i_glide_energy>  (1) 
-19.281025426734004

>  <r_i_glide_erotb>  (1) 
0.61440649929112812

>  <r_i_glide_esite>  (1) 
-0.0032337154210674707

>  <r_i_glide_evdw>  (1) 
-16.744643175433893

>  <r_i_glide_gscore>  (1) 
-4.226046267777452

>  <r_i_glide_gscore_strain>  (1) 
0.28172740070550795

>  <r_i_glide_hbond>  (1) 
-0.18455931127071129

>  <r_i_glide_ligand_efficiency>  (1) 
-0.15261465715299394

>  <r_i_glide_ligand_efficiency_ln>  (1) 
-0.90435618093690662

>  <r_i_glide_ligand_efficiency_sa>  (1) 
-0.4462479646266293

>  <r_i_glide_lipo>  (1) 
-1.8165248837451056

>  <r_i_glide_metal>  (1) 
-0

>  <r_i_glide_rewards>  (1) 
-1.9001727608704924

>  <r_lp_Energy>  (1) 
7.5226449999999998

>  <r_lp_tautomer_probability>  (1) 
0.49999399997599986

>  <s_epik_Chemistry_Notes>  (1) 
This compound has an imine and may undergo hydrolysis. This compound contains an acetal/aminal-like group ( X-CH(R)-Y where X, Y are N, S, or O) that may be acid/base labile, releasing an aldehyde.

>  <s_epik_cmdline>  (1) 
J2VwaWtfcHl0aG9uJywgJy1waHQnLCAnMS4wJywgJy1waCcsICc3LjQnLCAnLXRuJywgJzgnLCAnLW1hJywgJzUwMCcsICctaW1hZScsICc8aW5maWxlLm1hZT4nLCAnLW9tYWUnLCAnPG91dGZpbGUubWFlPic=

>  <s_epik_input>  (1) 
W0NIM11bQ0BIXTFbQ0gyXVtDSDJdTihbQ0BASF0xW0NIM10pW0NAQEhdKFtPSF0pW0NAQEhdKFtDSDNdKS9DKFtDSDNdKT1OXFtDQEBIXShPW0NIM10pQzI9Qz1bQ0hdW0NIMl1bQ0BASF0oRilbQ0gyXVtDSDJdMg==

>  <s_glide_docking_method>  (1) 
confgen

>  <s_i_glide_gridfile>  (1) 
gpcr_5ht2c_6bqh_protein_autoprepared_prepared

>  <s_lp_Force_Field>  (1) 
S-OPLS

>  <s_lp_Variant>  (1) 
DiffSBDD_44_num_sample_100-11

>  <s_m_source_file>  (1) 
generated__ligand_DiffSBDD_2026-05-06_prepared.sdf

>  <GenAI_Model>  (1) 
DiffSBDD

>  <Protein>  (1) 
GPCR_5HT2C

$$$$
DiffSBDD_96_num_sample_100
     RDKit          3D

  0  0  0  0  0  0  0  0  0  0999 V3000
M  V30 BEGIN CTAB
M  V30 COUNTS 29 28 0 0 1
M  V30 BEGIN ATOM
M  V30 1 C 38.060259 27.529834 55.403886 0
M  V30 2 C 37.012860 25.530105 57.315370 0
M  V30 3 N 37.867403 32.067602 56.378004 0 CHG=1
M  V30 4 C 38.493022 30.753828 56.073594 0
M  V30 5 C 38.584661 28.692423 54.535664 0
M  V30 6 C 37.911076 30.047983 54.827713 0
M  V30 7 C 38.309292 32.606912 57.682167 0
M  V30 8 S 38.626944 25.020480 56.653500 0
M  V30 9 C 38.018615 33.067586 55.299240 0
M  V30 10 O 39.867415 26.160911 54.560969 0
M  V30 11 C 38.964228 26.286797 55.385880 0
M  V30 12 H 37.068425 27.242434 55.053501 0
M  V30 13 H 37.973479 27.877578 56.430841 0
M  V30 14 H 36.667491 24.778852 58.023647 0
M  V30 15 H 36.267420 25.608626 56.524179 0
M  V30 16 H 37.075459 26.474588 57.853501 0
M  V30 17 H 38.362457 30.105603 56.940563 0
M  V30 18 H 39.568583 30.893604 55.951991 0
M  V30 19 H 39.663494 28.803714 54.653505 0
M  V30 20 H 38.423905 28.436133 53.487265 0
M  V30 21 H 38.065327 30.675565 53.950498 0
M  V30 22 H 36.831691 29.922052 54.927478 0
M  V30 23 H 39.374915 32.838975 57.670799 0
M  V30 24 H 37.762139 33.519190 57.924212 0
M  V30 25 H 38.118370 31.891229 58.482468 0
M  V30 26 H 39.068001 33.221427 55.053842 0
M  V30 27 H 37.485052 32.771006 54.396977 0
M  V30 28 H 37.597858 34.021738 55.609181 0
M  V30 29 H 36.856069 31.923103 56.493073 0
M  V30 END ATOM
M  V30 BEGIN BOND
M  V30 1 1 4 3
M  V30 2 1 5 1
M  V30 3 1 6 4
M  V30 4 1 6 5
M  V30 5 1 7 3
M  V30 6 1 8 2
M  V30 7 1 9 3
M  V30 8 1 11 1
M  V30 9 1 11 8
M  V30 10 2 11 10
M  V30 11 1 12 1
M  V30 12 1 13 1
M  V30 13 1 14 2
M  V30 14 1 15 2
M  V30 15 1 16 2
M  V30 16 1 17 4
M  V30 17 1 18 4
M  V30 18 1 19 5
M  V30 19 1 20 5
M  V30 20 1 21 6
M  V30 21 1 22 6
M  V30 22 1 23 7
M  V30 23 1 24 7
M  V30 24 1 25 7
M  V30 25 1 26 9
M  V30 26 1 27 9
M  V30 27 1 28 9
M  V30 28 1 29 3
M  V30 END BOND
M  V30 END CTAB
M  END
>  <i_epik_Tot_Q>  (1) 
1

>  <i_epik_Tot_abs_Q>  (1) 
1

>  <i_i_glide_confnum>  (1) 
34

>  <i_i_glide_lignum>  (1) 
267

>  <i_i_glide_posenum>  (1) 
195

>  <i_i_glide_rotatable_bonds>  (1) 
6

>  <i_lp_mmshare_version>  (1) 
72125

>  <i_m_source_file_index>  (1) 
97

>  <i_f3d_flags>  (1) 
0

>  <num_sample>  (1) 
100

>  <b_lp_Chiralities_Consistent>  (1) 
1

>  <r_epik_Charging_Adjusted_Penalty>  (1) 
0.0098875649971034846

>  <r_epik_Ionization_Penalty>  (1) 
0.0049437824985517501

>  <r_epik_Ionization_Penalty_Charging>  (1) 
0.0049437824985517501

>  <r_epik_Ionization_Penalty_Neutral>  (1) 
0

>  <r_epik_State_Penalty>  (1) 
0.0049437824985517353

>  <r_glide_ring_energy>  (1) 
0

>  <r_i_docking_score>  (1) 
-3.7886081919261811

>  <r_i_glide_ecoul>  (1) 
-4.4363516781161705

>  <r_i_glide_eff_state_penalty>  (1) 
0.0049437824985517353

>  <r_i_glide_einternal>  (1) 
4.5939309568464815

>  <r_i_glide_emodel>  (1) 
-32.070584321609914

>  <r_i_glide_emodel_strain>  (1) 
0.15017879556622837

>  <r_i_glide_energy>  (1) 
-25.601500508551556

>  <r_i_glide_erotb>  (1) 
2.0117858138389204

>  <r_i_glide_esite>  (1) 
-0.10000000000000001

>  <r_i_glide_evdw>  (1) 
-21.165148830435385

>  <r_i_glide_gscore>  (1) 
-3.7935519744247328

>  <r_i_glide_gscore_strain>  (1) 
0

>  <r_i_glide_hbond>  (1) 
-0.20000000000000001

>  <r_i_glide_ligand_efficiency>  (1) 
-0.34441892653874373

>  <r_i_glide_ligand_efficiency_ln>  (1) 
-1.1149867455467617

>  <r_i_glide_ligand_efficiency_sa>  (1) 
-0.76598083543742179

>  <r_i_glide_lipo>  (1) 
-1.1326392569064767

>  <r_i_glide_metal>  (1) 
-0

>  <r_i_glide_rewards>  (1) 
-2.6489883381179813

>  <r_lp_Energy>  (1) 
14.365169999999999

>  <s_epik_cmdline>  (1) 
J2VwaWtfcHl0aG9uJywgJy1waHQnLCAnMS4wJywgJy1waCcsICc3LjQnLCAnLXRuJywgJzgnLCAnLW1hJywgJzUwMCcsICctaW1hZScsICc8aW5maWxlLm1hZT4nLCAnLW9tYWUnLCAnPG91dGZpbGUubWFlPic=

>  <s_epik_input>  (1) 
W0NIM11TQyg9TylbQ0gyXVtDSDJdW0NIMl1bQ0gyXU4oW0NIM10pW0NIM10=

>  <s_glide_docking_method>  (1) 
confgen

>  <s_i_glide_gridfile>  (1) 
gpcr_5ht2c_6bqh_protein_autoprepared_prepared

>  <s_lp_Force_Field>  (1) 
S-OPLS

>  <s_lp_Variant>  (1) 
DiffSBDD_96_num_sample_100-1

>  <s_m_source_file>  (1) 
generated__ligand_DiffSBDD_2026-05-06_prepared.sdf

>  <GenAI_Model>  (1) 
DiffSBDD

>  <Protein>  (1) 
GPCR_5HT2C

$$$$
DiffSBDD_93_num_sample_100
     RDKit          3D

  0  0  0  0  0  0  0  0  0  0999 V3000
M  V30 BEGIN CTAB
M  V30 COUNTS 74 77 0 0 1
M  V30 BEGIN ATOM
M  V30 1 C 38.613852 29.443030 56.634931 0
M  V30 2 S 39.264072 32.479844 61.997456 0
M  V30 3 C 39.731822 31.488573 55.597480 0 CFG=2
M  V30 4 O 41.795066 28.665771 64.389438 0
M  V30 5 C 39.699901 36.021460 60.932276 0
M  V30 6 C 40.291375 29.296121 61.953272 0 CFG=1
M  V30 7 C 37.092936 35.220847 59.396576 0
M  V30 8 C 38.051998 32.959841 59.541093 0
M  V30 9 C 38.932602 31.213975 54.321453 0
M  V30 10 N 38.016309 30.587374 60.458608 0 CHG=1
M  V30 11 C 38.674897 36.992865 61.480733 0
M  V30 12 C 39.562045 30.403748 56.666498 0
M  V30 13 C 38.489647 28.427481 57.732263 0
M  V30 14 C 39.155363 30.054135 59.676717 0 CFG=2
M  V30 15 C 37.554955 30.715257 54.708226 0
M  V30 16 Cl 38.033764 28.090061 54.284855 0
M  V30 17 O 36.812708 38.401193 61.313069 0
M  V30 18 C 37.655305 29.391301 55.451891 0 CFG=1
M  V30 19 C 38.046906 27.019108 57.374123 0
M  V30 20 C 39.331535 31.221320 63.256404 0
M  V30 21 C 41.272237 28.155375 62.111622 0
M  V30 22 C 38.752869 28.706207 59.057467 0
M  V30 23 C 36.558958 36.261259 60.346084 0
M  V30 24 C 40.534974 30.314246 63.092810 0 CFG=1
M  V30 25 C 37.951987 32.031709 60.800408 0 CFG=1
M  V30 26 C 37.517389 37.410739 60.592125 0 CFG=2
M  V30 27 C 40.819766 29.682967 64.476645 0
M  V30 28 C 41.353019 27.620079 63.548415 0
M  V30 29 C 39.438137 34.887281 60.253500 0
M  V30 30 S 36.281247 32.141162 61.453490 0 CHG=-1
M  V30 31 N 38.186130 34.377170 59.873948 0
M  V30 32 C 39.360862 32.859055 56.187285 0
M  V30 33 C 40.444596 29.904282 60.520639 0
M  V30 34 H 40.775353 31.519458 55.300404 0
M  V30 35 H 40.729893 36.257225 61.160280 0
M  V30 36 H 39.299349 28.859559 62.077019 0
M  V30 37 H 37.412780 35.707001 58.475764 0
M  V30 38 H 36.250856 34.590990 59.109330 0
M  V30 39 H 37.214920 32.771738 58.866837 0
M  V30 40 H 38.944081 32.758687 58.959692 0
M  V30 41 H 38.852188 32.107246 53.705167 0
M  V30 42 H 39.444427 30.470705 53.710109 0
M  V30 43 H 37.918577 30.059744 61.310939 0
M  V30 44 H 39.234627 37.888535 61.754905 0
M  V30 45 H 38.305774 36.577912 62.419404 0
M  V30 46 H 40.267383 30.421394 57.453800 0
M  V30 47 H 39.274069 30.834661 58.979179 0
M  V30 48 H 37.067390 31.457777 55.337679 0
M  V30 49 H 36.914945 30.593043 53.853503 0
M  V30 50 H 36.411416 37.992937 62.065014 0
M  V30 51 H 36.667442 29.221651 55.828865 0
M  V30 52 H 37.992371 26.372212 58.250004 0
M  V30 53 H 37.067450 27.015742 56.909818 0
M  V30 54 H 38.754792 26.569235 56.677109 0
M  V30 55 H 39.467426 31.769323 64.184860 0
M  V30 56 H 38.395155 30.667947 63.324415 0
M  V30 57 H 42.267336 28.494309 61.853583 0
M  V30 58 H 40.957472 27.421173 61.375836 0
M  V30 59 H 38.651052 27.900160 59.770597 0
M  V30 60 H 36.267410 35.781635 61.280228 0
M  V30 61 H 35.669813 36.661758 59.854739 0
M  V30 62 H 41.416675 30.909330 62.847665 0
M  V30 63 H 37.867417 37.838522 59.652632 0
M  V30 64 H 41.195534 30.447709 65.157818 0
M  V30 65 H 39.918375 29.290241 64.946477 0
M  V30 66 H 42.087896 26.821529 63.624654 0
M  V30 67 H 40.398770 27.221530 63.892987 0
M  V30 68 H 40.250174 34.238127 59.969532 0
M  V30 69 H 39.992775 33.121735 57.029744 0
M  V30 70 H 39.467165 33.654794 55.453483 0
M  V30 71 H 38.330164 32.886513 56.541394 0
M  V30 72 H 40.951576 30.864006 60.596832 0
M  V30 73 H 41.134059 29.303672 59.924273 0
M  V30 74 H 37.182914 30.434223 59.907722 0
M  V30 END ATOM
M  V30 BEGIN BOND
M  V30 1 1 9 3
M  V30 2 1 11 5
M  V30 3 2 12 1
M  V30 4 1 12 3
M  V30 5 1 13 1
M  V30 6 1 14 10
M  V30 7 1 15 9
M  V30 8 1 18 1
M  V30 9 1 18 15
M  V30 10 1 18 16
M  V30 11 1 19 13
M  V30 12 1 20 2
M  V30 13 1 21 6
M  V30 14 2 22 13
M  V30 15 1 22 14
M  V30 16 1 23 7
M  V30 17 1 24 6
M  V30 18 1 24 20
M  V30 19 1 25 2
M  V30 20 1 25 8
M  V30 21 1 25 10
M  V30 22 1 26 11
M  V30 23 1 26 17
M  V30 24 1 26 23
M  V30 25 1 27 4
M  V30 26 1 27 24
M  V30 27 1 28 4
M  V30 28 1 28 21
M  V30 29 2 29 5
M  V30 30 1 25 30 CFG=1
M  V30 31 1 31 7
M  V30 32 1 31 8
M  V30 33 1 31 29
M  V30 34 1 32 3
M  V30 35 1 33 6
M  V30 36 1 33 14
M  V30 37 1 3 34 CFG=3
M  V30 38 1 35 5
M  V30 39 1 6 36 CFG=3
M  V30 40 1 37 7
M  V30 41 1 38 7
M  V30 42 1 39 8
M  V30 43 1 40 8
M  V30 44 1 41 9
M  V30 45 1 42 9
M  V30 46 1 43 10
M  V30 47 1 44 11
M  V30 48 1 45 11
M  V30 49 1 46 12
M  V30 50 1 14 47 CFG=3
M  V30 51 1 48 15
M  V30 52 1 49 15
M  V30 53 1 50 17
M  V30 54 1 18 51 CFG=1
M  V30 55 1 52 19
M  V30 56 1 53 19
M  V30 57 1 54 19
M  V30 58 1 55 20
M  V30 59 1 56 20
M  V30 60 1 57 21
M  V30 61 1 58 21
M  V30 62 1 59 22
M  V30 63 1 60 23
M  V30 64 1 61 23
M  V30 65 1 24 62 CFG=3
M  V30 66 1 26 63 CFG=3
M  V30 67 1 64 27
M  V30 68 1 65 27
M  V30 69 1 66 28
M  V30 70 1 67 28
M  V30 71 1 68 29
M  V30 72 1 69 32
M  V30 73 1 70 32
M  V30 74 1 71 32
M  V30 75 1 72 33
M  V30 76 1 73 33
M  V30 77 1 74 10
M  V30 END BOND
M  V30 END CTAB
M  END
>  <i_epik_Tot_Q>  (1) 
0

>  <i_epik_Tot_abs_Q>  (1) 
2

>  <i_i_glide_confnum>  (1) 
67

>  <i_i_glide_lignum>  (1) 
264

>  <i_i_glide_posenum>  (1) 
354

>  <i_i_glide_rotatable_bonds>  (1) 
5

>  <i_lp_mmshare_version>  (1) 
72125

>  <i_m_source_file_index>  (1) 
94

>  <i_f3d_flags>  (1) 
0

>  <num_sample>  (1) 
100

>  <b_lp_Chiralities_Consistent>  (1) 
1

>  <r_epik_Charging_Adjusted_Penalty>  (1) 
0.80501984278308969

>  <r_epik_Ionization_Penalty>  (1) 
0.072421558423421364

>  <r_epik_Ionization_Penalty_Charging>  (1) 
0.072408791886815996

>  <r_epik_Ionization_Penalty_Neutral>  (1) 
1.2766536605372598e-05

>  <r_epik_State_Penalty>  (1) 
0.73261105089627365

>  <r_glide_ring_energy>  (1) 
0.87711550699273244

>  <r_i_docking_score>  (1) 
-3.7844354047593023

>  <r_i_glide_ecoul>  (1) 
-1.4436764084392189

>  <r_i_glide_eff_state_penalty>  (1) 
0.73261105089627365

>  <r_i_glide_einternal>  (1) 
8.1378307747183101

>  <r_i_glide_emodel>  (1) 
-22.522062620566192

>  <r_i_glide_emodel_strain>  (1) 
2.6153682280842787

>  <r_i_glide_energy>  (1) 
-23.699298875456055

>  <r_i_glide_erotb>  (1) 
0.31140238833871409

>  <r_i_glide_esite>  (1) 
0

>  <r_i_glide_evdw>  (1) 
-22.255622467016835

>  <r_i_glide_gscore>  (1) 
-4.5170464556555761

>  <r_i_glide_gscore_strain>  (1) 
0

>  <r_i_glide_hbond>  (1) 
-0.11430672923443591

>  <r_i_glide_ligand_efficiency>  (1) 
-0.11467986075028189

>  <r_i_glide_ligand_efficiency_ln>  (1) 
-0.84163883926063188

>  <r_i_glide_ligand_efficiency_sa>  (1) 
-0.3678395903156701

>  <r_i_glide_lipo>  (1) 
-2.6044950521453911

>  <r_i_glide_metal>  (1) 
-0

>  <r_i_glide_rewards>  (1) 
-0.78031447799773845

>  <r_lp_Energy>  (1) 
39.978631999999998

>  <s_epik_Chemistry_Notes>  (1) 
This compound has an imine and may undergo hydrolysis.

>  <s_epik_cmdline>  (1) 
J2VwaWtfcHl0aG9uJywgJy1waHQnLCAnMS4wJywgJy1waCcsICc3LjQnLCAnLXRuJywgJzgnLCAnLW1hJywgJzUwMCcsICctaW1hZScsICc8aW5maWxlLm1hZT4nLCAnLW9tYWUnLCAnPG91dGZpbGUubWFlPic=

>  <s_epik_input>  (1) 
Q2xbQ0BIXTFbQ0gyXVtDSDJdW0NAQEhdKFtDSDNdKVtDSF09QzEvQyhbQ0gzXSk9W0NIXVxbQ0BASF0oW0NIMl0yKVtOSF1bQ0BAXShbU0hdKShTW0NIMl1bQ0BIXShbQ0BASF0yMylbQ0gyXU9bQ0gyXVtDSDJdMylbQ0gyXU4oW0NIMl1bQ0gyXTQpW0NIXT1bQ0hdW0NIMl1bQ0BASF00W09IXQ==

>  <s_glide_docking_method>  (1) 
confgen

>  <s_i_glide_gridfile>  (1) 
gpcr_5ht2c_6bqh_protein_autoprepared_prepared

>  <s_lp_Force_Field>  (1) 
S-OPLS

>  <s_lp_Variant>  (1) 
DiffSBDD_93_num_sample_100-16

>  <s_m_source_file>  (1) 
generated__ligand_DiffSBDD_2026-05-06_prepared.sdf

>  <GenAI_Model>  (1) 
DiffSBDD

>  <Protein>  (1) 
GPCR_5HT2C

$$$$
DiffSBDD_93_num_sample_100
     RDKit          3D

  0  0  0  0  0  0  0  0  0  0999 V3000
M  V30 BEGIN CTAB
M  V30 COUNTS 74 77 0 0 1
M  V30 BEGIN ATOM
M  V30 1 C 38.468124 31.364471 57.661979 0
M  V30 2 S 38.022745 26.185749 55.880691 0
M  V30 3 C 37.267474 32.365657 59.675037 0 CFG=2
M  V30 4 O 39.353024 28.006029 60.246528 0
M  V30 5 C 39.467228 30.862142 52.349772 0
M  V30 6 C 40.967159 27.684901 57.940174 0 CFG=1
M  V30 7 C 38.893270 28.010190 51.195449 0
M  V30 8 C 37.931236 27.521853 53.419997 0
M  V30 9 C 36.904694 30.933900 60.094185 0
M  V30 10 N 39.468427 28.331483 54.898447 0
M  V30 11 C 40.375447 30.780810 51.157716 0
M  V30 12 C 38.236109 32.408191 58.496416 0
M  V30 13 C 39.415259 31.549566 56.493297 0
M  V30 14 C 39.956651 28.998275 56.071386 0 CFG=2
M  V30 15 C 36.540291 30.099739 58.876069 0
M  V30 16 Cl 37.067229 29.621912 56.289541 0
M  V30 17 O 39.892394 29.631901 49.100153 0
M  V30 18 C 37.695282 30.093899 57.870844 0 CFG=1
M  V30 19 C 39.687583 32.943782 56.018913 0
M  V30 20 C 39.314329 25.784790 57.120980 0
M  V30 21 C 41.143210 28.823008 58.957002 0
M  V30 22 C 40.044099 30.509402 55.808160 0
M  V30 23 C 40.357259 28.199871 50.931760 0
M  V30 24 C 39.576216 26.995990 58.032691 0 CFG=1
M  V30 25 C 38.931898 27.031496 54.548486 0 CFG=1
M  V30 26 C 40.603813 29.554099 50.305225 0 CFG=2
M  V30 27 C 39.239649 26.820259 59.451126 0
M  V30 28 C 40.698054 28.421600 60.353751 0
M  V30 29 C 38.676850 29.883779 52.883214 0
M  V30 30 S 40.267137 26.023578 53.853776 0
M  V30 31 N 38.513290 28.528980 52.485211 0
M  V30 32 C 37.828186 33.132702 60.873433 0
M  V30 33 C 41.206616 28.246324 56.551390 0
M  V30 34 H 36.361815 32.866494 59.328996 0
M  V30 35 H 39.446929 31.832734 52.829290 0
M  V30 36 H 41.723126 26.929383 58.162690 0
M  V30 37 H 38.665458 26.945611 51.157351 0
M  V30 38 H 38.271917 28.440883 50.414721 0
M  V30 39 H 37.047798 27.965115 53.894309 0
M  V30 40 H 37.536742 26.658112 52.883858 0
M  V30 41 H 37.758534 30.468431 60.590145 0
M  V30 42 H 36.077632 30.939275 60.803464 0
M  V30 43 H 39.247504 28.964595 54.136866 0
M  V30 44 H 41.315994 31.093007 51.610803 0
M  V30 45 H 40.126378 31.624041 50.514210 0
M  V30 46 H 38.752569 33.339911 58.351584 0
M  V30 47 H 39.213253 28.901443 56.740413 0
M  V30 48 H 36.334846 29.079205 59.173112 0
M  V30 49 H 35.604238 30.419088 58.429870 0
M  V30 50 H 38.959212 29.733656 49.266403 0
M  V30 51 H 38.377566 29.415068 58.339538 0
M  V30 52 H 39.001090 33.691282 56.390253 0
M  V30 53 H 40.714035 33.220688 56.253656 0
M  V30 54 H 39.467758 32.958056 54.951909 0
M  V30 55 H 38.931486 24.954318 57.713056 0
M  V30 56 H 40.221134 25.411422 56.657702 0
M  V30 57 H 40.539378 29.668833 58.652857 0
M  V30 58 H 42.177088 29.160403 58.961993 0
M  V30 59 H 40.689647 30.777027 54.985147 0
M  V30 60 H 40.665495 27.428748 50.229660 0
M  V30 61 H 40.954684 28.043072 51.832387 0
M  V30 62 H 38.693349 27.561648 57.833270 0
M  V30 63 H 41.638398 29.637091 50.008863 0
M  V30 64 H 38.235896 26.445361 59.453634 0
M  V30 65 H 39.867231 25.993859 59.705320 0
M  V30 66 H 40.755328 29.276353 61.025765 0
M  V30 67 H 41.331015 27.634330 60.766792 0
M  V30 68 H 38.089652 30.118941 53.760847 0
M  V30 69 H 41.004475 25.963132 54.967155 0
M  V30 70 H 38.069283 34.162285 60.610723 0
M  V30 71 H 37.104111 33.154416 61.687988 0
M  V30 72 H 38.736808 32.655316 61.245662 0
M  V30 73 H 42.125829 28.819523 56.481515 0
M  V30 74 H 41.410171 27.385735 55.931542 0
M  V30 END ATOM
M  V30 BEGIN BOND
M  V30 1 1 9 3
M  V30 2 1 11 5
M  V30 3 2 12 1
M  V30 4 1 12 3
M  V30 5 1 13 1
M  V30 6 1 14 10
M  V30 7 1 15 9
M  V30 8 1 18 1
M  V30 9 1 18 15
M  V30 10 1 18 16
M  V30 11 1 19 13
M  V30 12 1 20 2
M  V30 13 1 21 6
M  V30 14 2 22 13
M  V30 15 1 22 14
M  V30 16 1 23 7
M  V30 17 1 24 6
M  V30 18 1 24 20
M  V30 19 1 25 2
M  V30 20 1 25 8
M  V30 21 1 25 10
M  V30 22 1 26 11
M  V30 23 1 26 17
M  V30 24 1 26 23
M  V30 25 1 27 4
M  V30 26 1 27 24
M  V30 27 1 28 4
M  V30 28 1 28 21
M  V30 29 2 29 5
M  V30 30 1 25 30 CFG=3
M  V30 31 1 31 7
M  V30 32 1 31 8
M  V30 33 1 31 29
M  V30 34 1 32 3
M  V30 35 1 33 6
M  V30 36 1 33 14
M  V30 37 1 3 34 CFG=3
M  V30 38 1 35 5
M  V30 39 1 6 36 CFG=1
M  V30 40 1 37 7
M  V30 41 1 38 7
M  V30 42 1 39 8
M  V30 43 1 40 8
M  V30 44 1 41 9
M  V30 45 1 42 9
M  V30 46 1 43 10
M  V30 47 1 44 11
M  V30 48 1 45 11
M  V30 49 1 46 12
M  V30 50 1 14 47 CFG=1
M  V30 51 1 48 15
M  V30 52 1 49 15
M  V30 53 1 50 17
M  V30 54 1 18 51 CFG=1
M  V30 55 1 52 19
M  V30 56 1 53 19
M  V30 57 1 54 19
M  V30 58 1 55 20
M  V30 59 1 56 20
M  V30 60 1 57 21
M  V30 61 1 58 21
M  V30 62 1 59 22
M  V30 63 1 60 23
M  V30 64 1 61 23
M  V30 65 1 24 62 CFG=3
M  V30 66 1 26 63 CFG=3
M  V30 67 1 64 27
M  V30 68 1 65 27
M  V30 69 1 66 28
M  V30 70 1 67 28
M  V30 71 1 68 29
M  V30 72 1 69 30
M  V30 73 1 70 32
M  V30 74 1 71 32
M  V30 75 1 72 32
M  V30 76 1 73 33
M  V30 77 1 74 33
M  V30 END BOND
M  V30 END CTAB
M  END
>  <i_epik_Tot_Q>  (1) 
0

>  <i_epik_Tot_abs_Q>  (1) 
0

>  <i_i_glide_confnum>  (1) 
71

>  <i_i_glide_lignum>  (1) 
256

>  <i_i_glide_posenum>  (1) 
86

>  <i_i_glide_rotatable_bonds>  (1) 
6

>  <i_lp_mmshare_version>  (1) 
72125

>  <i_m_source_file_index>  (1) 
94

>  <i_f3d_flags>  (1) 
0

>  <num_sample>  (1) 
100

>  <b_lp_Chiralities_Consistent>  (1) 
1

>  <r_epik_Charging_Adjusted_Penalty>  (1) 
0.20325292957253988

>  <r_epik_Ionization_Penalty>  (1) 
0.031936562948065232

>  <r_epik_Ionization_Penalty_Charging>  (1) 
3.6030848355623751e-07

>  <r_epik_Ionization_Penalty_Neutral>  (1) 
0.031936202639581676

>  <r_epik_State_Penalty>  (1) 
0.20325256926405633

>  <r_glide_ring_energy>  (1) 
0

>  <r_i_docking_score>  (1) 
-3.7594084167854236

>  <r_i_glide_ecoul>  (1) 
-5.2778012195663733

>  <r_i_glide_eff_state_penalty>  (1) 
0.20325256926405633

>  <r_i_glide_einternal>  (1) 
49.071462752420999

>  <r_i_glide_emodel>  (1) 
31.782527968402508

>  <r_i_glide_emodel_strain>  (1) 
12.834610813912974

>  <r_i_glide_energy>  (1) 
-2.0646745881935051

>  <r_i_glide_erotb>  (1) 
0.31140238833871409

>  <r_i_glide_esite>  (1) 
0

>  <r_i_glide_evdw>  (1) 
3.2131266313728681

>  <r_i_glide_gscore>  (1) 
-3.9626609860494799

>  <r_i_glide_gscore_strain>  (1) 
2.2086527034782435

>  <r_i_glide_hbond>  (1) 
-0.32000000000000001

>  <r_i_glide_ligand_efficiency>  (1) 
-0.11392146717531587

>  <r_i_glide_ligand_efficiency_ln>  (1) 
-0.83607296671804987

>  <r_i_glide_ligand_efficiency_sa>  (1) 
-0.36540701688831834

>  <r_i_glide_lipo>  (1) 
-4.2118624619412195

>  <r_i_glide_metal>  (1) 
-0

>  <r_i_glide_rewards>  (1) 
-1.3198397645589055

>  <r_lp_Energy>  (1) 
35.986021999999998

>  <s_epik_Chemistry_Notes>  (1) 
This compound has an imine and may undergo hydrolysis.

>  <s_epik_cmdline>  (1) 
J2VwaWtfcHl0aG9uJywgJy1waHQnLCAnMS4wJywgJy1waCcsICc3LjQnLCAnLXRuJywgJzgnLCAnLW1hJywgJzUwMCcsICctaW1hZScsICc8aW5maWxlLm1hZT4nLCAnLW9tYWUnLCAnPG91dGZpbGUubWFlPic=

>  <s_epik_input>  (1) 
Q2xbQ0BIXTFbQ0gyXVtDSDJdW0NAQEhdKFtDSDNdKVtDSF09QzEvQyhbQ0gzXSk9W0NIXVxbQ0BASF0oW0NIMl0yKVtOSF1bQ0BAXShbU0hdKShTW0NIMl1bQ0BIXShbQ0BASF0yMylbQ0gyXU9bQ0gyXVtDSDJdMylbQ0gyXU4oW0NIMl1bQ0gyXTQpW0NIXT1bQ0hdW0NIMl1bQ0BASF00W09IXQ==

>  <s_glide_docking_method>  (1) 
confgen

>  <s_i_glide_gridfile>  (1) 
gpcr_5ht2c_6bqh_protein_autoprepared_prepared

>  <s_lp_Force_Field>  (1) 
S-OPLS

>  <s_lp_Variant>  (1) 
DiffSBDD_93_num_sample_100-8

>  <s_m_source_file>  (1) 
generated__ligand_DiffSBDD_2026-05-06_prepared.sdf

>  <GenAI_Model>  (1) 
DiffSBDD

>  <Protein>  (1) 
GPCR_5HT2C

$$$$
DiffSBDD_93_num_sample_100
     RDKit          3D

  0  0  0  0  0  0  0  0  0  0999 V3000
M  V30 BEGIN CTAB
M  V30 COUNTS 74 77 0 0 1
M  V30 BEGIN ATOM
M  V30 1 C 39.094452 30.185819 53.521490 0
M  V30 2 S 39.419466 28.387493 59.672966 0
M  V30 3 C 40.383596 29.728204 51.358280 0 CFG=2
M  V30 4 O 39.177099 24.421412 56.311306 0
M  V30 5 C 35.573550 32.365351 61.423023 0
M  V30 6 C 39.533285 27.244140 56.346007 0 CFG=1
M  V30 7 C 38.083511 33.207752 59.764515 0
M  V30 8 C 38.835409 30.925466 60.341100 0
M  V30 9 C 39.898076 28.268904 51.437812 0
M  V30 10 N 39.067362 30.347860 57.967079 0
M  V30 11 C 34.977196 33.164971 60.281552 0
M  V30 12 C 39.863507 30.621480 52.490791 0
M  V30 13 C 38.596388 31.177130 54.519790 0
M  V30 14 C 38.781570 29.676699 56.683695 0 CFG=1
M  V30 15 C 38.552591 28.148625 52.124494 0
M  V30 16 Cl 37.067488 28.473785 54.237132 0
M  V30 17 O 34.950178 34.820817 58.653535 0
M  V30 18 C 38.644820 28.740044 53.536103 0 CFG=2
M  V30 19 C 38.210562 32.542240 54.053644 0
M  V30 20 C 38.537358 27.134848 58.718999 0
M  V30 21 C 40.327157 26.318123 55.413726 0
M  V30 22 C 38.442836 30.929620 55.857175 0
M  V30 23 C 36.983908 33.657941 58.832790 0
M  V30 24 C 39.346189 26.440285 57.652989 0 CFG=1
M  V30 25 C 38.497687 29.874471 59.224108 0 CFG=1
M  V30 26 C 35.809647 34.238695 59.600891 0 CFG=2
M  V30 27 C 38.528897 25.175749 57.302669 0
M  V30 28 C 39.418158 25.122482 55.105710 0
M  V30 29 C 36.821211 31.842198 61.460379 0
M  V30 30 S 36.670018 29.741630 59.053331 0
M  V30 31 N 37.826080 31.972360 60.500854 0
M  V30 32 C 40.112375 30.362969 49.987995 0
M  V30 33 C 40.001555 28.733190 56.415030 0
M  V30 34 H 41.466868 29.683083 51.453313 0
M  V30 35 H 34.896336 32.149368 62.236483 0
M  V30 36 H 38.533692 27.289499 55.933276 0
M  V30 37 H 38.317958 33.997135 60.480128 0
M  V30 38 H 38.988530 33.081319 59.169186 0
M  V30 39 H 39.829649 31.355068 60.219323 0
M  V30 40 H 38.895059 30.399424 61.295256 0
M  V30 41 H 39.870462 27.797917 50.454593 0
M  V30 42 H 40.599932 27.690889 52.033455 0
M  V30 43 H 38.745639 31.299285 57.876752 0
M  V30 44 H 34.067483 33.621379 60.669241 0
M  V30 45 H 34.631656 32.435931 59.544037 0
M  V30 46 H 40.149696 31.654972 52.440496 0
M  V30 47 H 37.851301 29.122431 56.760978 0
M  V30 48 H 37.790276 28.663647 51.541015 0
M  V30 49 H 38.253043 27.100661 52.174572 0
M  V30 50 H 34.802479 34.190925 57.962701 0
M  V30 51 H 39.358643 28.158802 54.047055 0
M  V30 52 H 37.165277 32.705574 54.311070 0
M  V30 53 H 38.788914 33.237359 54.653559 0
M  V30 54 H 38.267391 32.730070 52.986231 0
M  V30 55 H 38.267377 26.389931 59.453444 0
M  V30 56 H 37.615973 27.472825 58.253754 0
M  V30 57 H 41.240259 26.021253 55.911527 0
M  V30 58 H 40.667607 26.754424 54.483778 0
M  V30 59 H 38.033304 31.743239 56.443180 0
M  V30 60 H 36.667872 32.821388 58.222332 0
M  V30 61 H 37.391160 34.412648 58.157938 0
M  V30 62 H 40.315412 26.150069 58.063747 0
M  V30 63 H 36.125857 35.003773 60.312373 0
M  V30 64 H 38.385577 24.537594 58.173131 0
M  V30 65 H 37.529014 25.433709 56.948474 0
M  V30 66 H 39.867398 24.447072 54.390812 0
M  V30 67 H 38.473732 25.442151 54.661326 0
M  V30 68 H 37.120707 31.219308 62.280017 0
M  V30 69 H 36.437955 31.015856 58.712492 0
M  V30 70 H 40.710719 31.263714 49.853956 0
M  V30 71 H 40.368101 29.687254 49.171196 0
M  V30 72 H 39.067818 30.645605 49.882798 0
M  V30 73 H 40.766194 28.817264 57.188747 0
M  V30 74 H 40.535209 29.052562 55.523239 0
M  V30 END ATOM
M  V30 BEGIN BOND
M  V30 1 1 9 3
M  V30 2 1 11 5
M  V30 3 2 12 1
M  V30 4 1 12 3
M  V30 5 1 13 1
M  V30 6 1 14 10
M  V30 7 1 15 9
M  V30 8 1 18 1
M  V30 9 1 18 15
M  V30 10 1 18 16
M  V30 11 1 19 13
M  V30 12 1 20 2
M  V30 13 1 21 6
M  V30 14 2 22 13
M  V30 15 1 22 14
M  V30 16 1 23 7
M  V30 17 1 24 6
M  V30 18 1 24 20
M  V30 19 1 25 2
M  V30 20 1 25 8
M  V30 21 1 25 10
M  V30 22 1 26 11
M  V30 23 1 26 17
M  V30 24 1 26 23
M  V30 25 1 27 4
M  V30 26 1 27 24
M  V30 27 1 28 4
M  V30 28 1 28 21
M  V30 29 2 29 5
M  V30 30 1 25 30 CFG=3
M  V30 31 1 31 7
M  V30 32 1 31 8
M  V30 33 1 31 29
M  V30 34 1 32 3
M  V30 35 1 33 6
M  V30 36 1 33 14
M  V30 37 1 3 34 CFG=1
M  V30 38 1 35 5
M  V30 39 1 6 36 CFG=3
M  V30 40 1 37 7
M  V30 41 1 38 7
M  V30 42 1 39 8
M  V30 43 1 40 8
M  V30 44 1 41 9
M  V30 45 1 42 9
M  V30 46 1 43 10
M  V30 47 1 44 11
M  V30 48 1 45 11
M  V30 49 1 46 12
M  V30 50 1 14 47 CFG=1
M  V30 51 1 48 15
M  V30 52 1 49 15
M  V30 53 1 50 17
M  V30 54 1 18 51 CFG=1
M  V30 55 1 52 19
M  V30 56 1 53 19
M  V30 57 1 54 19
M  V30 58 1 55 20
M  V30 59 1 56 20
M  V30 60 1 57 21
M  V30 61 1 58 21
M  V30 62 1 59 22
M  V30 63 1 60 23
M  V30 64 1 61 23
M  V30 65 1 24 62 CFG=1
M  V30 66 1 26 63 CFG=1
M  V30 67 1 64 27
M  V30 68 1 65 27
M  V30 69 1 66 28
M  V30 70 1 67 28
M  V30 71 1 68 29
M  V30 72 1 69 30
M  V30 73 1 70 32
M  V30 74 1 71 32
M  V30 75 1 72 32
M  V30 76 1 73 33
M  V30 77 1 74 33
M  V30 END BOND
M  V30 END CTAB
M  END
>  <i_epik_Tot_Q>  (1) 
0

>  <i_epik_Tot_abs_Q>  (1) 
0

>  <i_i_glide_confnum>  (1) 
80

>  <i_i_glide_lignum>  (1) 
250

>  <i_i_glide_posenum>  (1) 
22

>  <i_i_glide_rotatable_bonds>  (1) 
6

>  <i_lp_mmshare_version>  (1) 
72125

>  <i_m_source_file_index>  (1) 
94

>  <i_f3d_flags>  (1) 
0

>  <num_sample>  (1) 
100

>  <b_lp_Chiralities_Consistent>  (1) 
1

>  <r_epik_Charging_Adjusted_Penalty>  (1) 
0.20325292957253988

>  <r_epik_Ionization_Penalty>  (1) 
0.031936562948065232

>  <r_epik_Ionization_Penalty_Charging>  (1) 
3.6030848355623751e-07

>  <r_epik_Ionization_Penalty_Neutral>  (1) 
0.031936202639581676

>  <r_epik_State_Penalty>  (1) 
0.20325256926405633

>  <r_glide_ring_energy>  (1) 
1.1916073689223343

>  <r_i_docking_score>  (1) 
-3.7580441566543437

>  <r_i_glide_ecoul>  (1) 
0.30876989617680417

>  <r_i_glide_eff_state_penalty>  (1) 
0.20325256926405633

>  <r_i_glide_einternal>  (1) 
11.873030301474898

>  <r_i_glide_emodel>  (1) 
-17.478795613058168

>  <r_i_glide_emodel_strain>  (1) 
15.383538713458861

>  <r_i_glide_energy>  (1) 
-32.680793801568683

>  <r_i_glide_erotb>  (1) 
0.31140238833871409

>  <r_i_glide_esite>  (1) 
-0.062443365895532336

>  <r_i_glide_evdw>  (1) 
-32.989563697745488

>  <r_i_glide_gscore>  (1) 
-3.9612967259184

>  <r_i_glide_gscore_strain>  (1) 
2.8458846783647154

>  <r_i_glide_hbond>  (1) 
-0.040877961074550523

>  <r_i_glide_ligand_efficiency>  (1) 
-0.11388012595922253

>  <r_i_glide_ligand_efficiency_ln>  (1) 
-0.83576956232865862

>  <r_i_glide_ligand_efficiency_sa>  (1) 
-0.36527441351845519

>  <r_i_glide_lipo>  (1) 
-4.5092972702534206

>  <r_i_glide_metal>  (1) 
-0

>  <r_i_glide_rewards>  (1) 
-0.90280249493757214

>  <r_lp_Energy>  (1) 
33.420006000000001

>  <s_epik_Chemistry_Notes>  (1) 
This compound has an imine and may undergo hydrolysis.

>  <s_epik_cmdline>  (1) 
J2VwaWtfcHl0aG9uJywgJy1waHQnLCAnMS4wJywgJy1waCcsICc3LjQnLCAnLXRuJywgJzgnLCAnLW1hJywgJzUwMCcsICctaW1hZScsICc8aW5maWxlLm1hZT4nLCAnLW9tYWUnLCAnPG91dGZpbGUubWFlPic=

>  <s_epik_input>  (1) 
Q2xbQ0BIXTFbQ0gyXVtDSDJdW0NAQEhdKFtDSDNdKVtDSF09QzEvQyhbQ0gzXSk9W0NIXVxbQ0BASF0oW0NIMl0yKVtOSF1bQ0BAXShbU0hdKShTW0NIMl1bQ0BIXShbQ0BASF0yMylbQ0gyXU9bQ0gyXVtDSDJdMylbQ0gyXU4oW0NIMl1bQ0gyXTQpW0NIXT1bQ0hdW0NIMl1bQ0BASF00W09IXQ==

>  <s_glide_docking_method>  (1) 
confgen

>  <s_i_glide_gridfile>  (1) 
gpcr_5ht2c_6bqh_protein_autoprepared_prepared

>  <s_lp_Force_Field>  (1) 
S-OPLS

>  <s_lp_Variant>  (1) 
DiffSBDD_93_num_sample_100-2

>  <s_m_source_file>  (1) 
generated__ligand_DiffSBDD_2026-05-06_prepared.sdf

>  <GenAI_Model>  (1) 
DiffSBDD

>  <Protein>  (1) 
GPCR_5HT2C

$$$$
DiffSBDD_34_num_sample_100
     RDKit          3D

  0  0  0  0  0  0  0  0  0  0999 V3000
M  V30 BEGIN CTAB
M  V30 COUNTS 20 19 0 0 1
M  V30 BEGIN ATOM
M  V30 1 O 39.866642 26.020677 55.249173 0 CHG=-1
M  V30 2 C 38.574214 27.419424 52.777053 0
M  V30 3 O 38.522900 24.662847 56.393663 0
M  V30 4 C 38.747662 25.533342 55.524412 0
M  V30 5 C 38.775026 28.824165 52.210887 0
M  V30 6 C 37.538158 26.043463 54.726660 0
M  V30 7 C 37.741137 27.429460 54.073595 0
M  V30 8 S 39.867409 28.821482 50.766332 0
M  V30 9 C 40.055136 30.604630 50.499642 0
M  V30 10 H 38.067987 26.821449 52.022679 0
M  V30 11 H 39.545966 26.956423 52.944625 0
M  V30 12 H 39.195713 29.483643 52.970695 0
M  V30 13 H 37.807421 29.221429 51.916664 0
M  V30 14 H 36.700024 26.097753 55.422463 0
M  V30 15 H 37.264667 25.302604 53.975426 0
M  V30 16 H 38.195753 28.107523 54.797817 0
M  V30 17 H 36.760679 27.851433 53.851330 0
M  V30 18 H 40.744469 30.790668 49.676139 0
M  V30 19 H 40.451668 31.087988 51.393025 0
M  V30 20 H 39.095519 31.058006 50.253451 0
M  V30 END ATOM
M  V30 BEGIN BOND
M  V30 1 1 4 1
M  V30 2 2 4 3
M  V30 3 1 5 2
M  V30 4 1 6 4
M  V30 5 1 7 2
M  V30 6 1 7 6
M  V30 7 1 8 5
M  V30 8 1 9 8
M  V30 9 1 10 2
M  V30 10 1 11 2
M  V30 11 1 12 5
M  V30 12 1 13 5
M  V30 13 1 14 6
M  V30 14 1 15 6
M  V30 15 1 16 7
M  V30 16 1 17 7
M  V30 17 1 18 9
M  V30 18 1 19 9
M  V30 19 1 20 9
M  V30 END BOND
M  V30 END CTAB
M  END
>  <i_epik_Tot_Q>  (1) 
-1

>  <i_epik_Tot_abs_Q>  (1) 
1

>  <i_i_glide_confnum>  (1) 
20

>  <i_i_glide_lignum>  (1) 
89

>  <i_i_glide_posenum>  (1) 
172

>  <i_i_glide_rotatable_bonds>  (1) 
5

>  <i_lp_mmshare_version>  (1) 
72125

>  <i_m_source_file_index>  (1) 
35

>  <i_f3d_flags>  (1) 
0

>  <num_sample>  (1) 
100

>  <b_lp_Chiralities_Consistent>  (1) 
1

>  <r_epik_Charging_Adjusted_Penalty>  (1) 
0.0016234785268329083

>  <r_epik_Ionization_Penalty>  (1) 
0.0016234785268329083

>  <r_epik_Ionization_Penalty_Charging>  (1) 
0.0016234785268329083

>  <r_epik_Ionization_Penalty_Neutral>  (1) 
0

>  <r_epik_State_Penalty>  (1) 
-0

>  <r_glide_ring_energy>  (1) 
0

>  <r_i_docking_score>  (1) 
-3.7329704471292597

>  <r_i_glide_ecoul>  (1) 
0.041821606325400065

>  <r_i_glide_eff_state_penalty>  (1) 
-0

>  <r_i_glide_einternal>  (1) 
0.4516831692702945

>  <r_i_glide_emodel>  (1) 
-24.805601476795328

>  <r_i_glide_emodel_strain>  (1) 
0.54781908864525164

>  <r_i_glide_energy>  (1) 
-19.992497094639656

>  <r_i_glide_erotb>  (1) 
2.0195253186786486

>  <r_i_glide_esite>  (1) 
0

>  <r_i_glide_evdw>  (1) 
-20.034318700965056

>  <r_i_glide_gscore>  (1) 
-3.7329704471292597

>  <r_i_glide_gscore_strain>  (1) 
0

>  <r_i_glide_hbond>  (1) 
0

>  <r_i_glide_ligand_efficiency>  (1) 
-0.41477449412547329

>  <r_i_glide_ligand_efficiency_ln>  (1) 
-1.1675659175119313

>  <r_i_glide_ligand_efficiency_sa>  (1) 
-0.86276571544493419

>  <r_i_glide_lipo>  (1) 
-1.8570530717084655

>  <r_i_glide_metal>  (1) 
-0

>  <r_i_glide_rewards>  (1) 
-2.8999999999999999

>  <r_lp_Energy>  (1) 
4.7762899999999995

>  <r_lp_tautomer_probability>  (1) 
1

>  <s_epik_cmdline>  (1) 
J2VwaWtfcHl0aG9uJywgJy1waHQnLCAnMS4wJywgJy1waCcsICc3LjQnLCAnLXRuJywgJzgnLCAnLW1hJywgJzUwMCcsICctaW1hZScsICc8aW5maWxlLm1hZT4nLCAnLW9tYWUnLCAnPG91dGZpbGUubWFlPic=

>  <s_epik_input>  (1) 
W09IXUMoPU8pW0NIMl1bQ0gyXVtDSDJdW0NIMl1TW0NIM10=

>  <s_glide_docking_method>  (1) 
confgen

>  <s_i_glide_gridfile>  (1) 
gpcr_5ht2c_6bqh_protein_autoprepared_prepared

>  <s_lp_Force_Field>  (1) 
S-OPLS

>  <s_lp_Variant>  (1) 
DiffSBDD_34_num_sample_100-1

>  <s_m_source_file>  (1) 
generated__ligand_DiffSBDD_2026-05-06_prepared.sdf

>  <GenAI_Model>  (1) 
DiffSBDD

>  <Protein>  (1) 
GPCR_5HT2C

$$$$
DiffSBDD_34_num_sample_100
     RDKit          3D

  0  0  0  0  0  0  0  0  0  0999 V3000
M  V30 BEGIN CTAB
M  V30 COUNTS 20 19 0 0 1
M  V30 BEGIN ATOM
M  V30 1 O 37.467403 25.709565 54.894606 0 CHG=-1
M  V30 2 C 38.975001 27.402751 52.685295 0
M  V30 3 O 39.052602 24.932583 56.249750 0
M  V30 4 C 38.571519 25.788424 55.475269 0
M  V30 5 C 38.814568 28.443331 51.563544 0
M  V30 6 C 39.414747 27.047602 55.223187 0
M  V30 7 C 38.888876 27.987869 54.110107 0
M  V30 8 S 40.267401 29.529477 51.433724 0
M  V30 9 C 39.968867 30.378346 49.863242 0
M  V30 10 H 38.194805 26.650965 52.575221 0
M  V30 11 H 39.918935 26.875553 52.553540 0
M  V30 12 H 37.916841 29.040206 51.720930 0
M  V30 13 H 38.690702 27.926310 50.611942 0
M  V30 14 H 40.436778 26.739515 55.001769 0
M  V30 15 H 39.459607 27.598670 56.162559 0
M  V30 16 H 39.467402 28.909732 54.157947 0
M  V30 17 H 37.860794 28.285521 54.322360 0
M  V30 18 H 40.807102 31.037453 49.635265 0
M  V30 19 H 39.067415 30.986666 49.915121 0
M  V30 20 H 39.867374 29.655462 49.053754 0
M  V30 END ATOM
M  V30 BEGIN BOND
M  V30 1 1 4 1
M  V30 2 2 4 3
M  V30 3 1 5 2
M  V30 4 1 6 4
M  V30 5 1 7 2
M  V30 6 1 7 6
M  V30 7 1 8 5
M  V30 8 1 9 8
M  V30 9 1 10 2
M  V30 10 1 11 2
M  V30 11 1 12 5
M  V30 12 1 13 5
M  V30 13 1 14 6
M  V30 14 1 15 6
M  V30 15 1 16 7
M  V30 16 1 17 7
M  V30 17 1 18 9
M  V30 18 1 19 9
M  V30 19 1 20 9
M  V30 END BOND
M  V30 END CTAB
M  END
>  <i_epik_Tot_Q>  (1) 
-1

>  <i_epik_Tot_abs_Q>  (1) 
1

>  <i_i_glide_confnum>  (1) 
8

>  <i_i_glide_lignum>  (1) 
89

>  <i_i_glide_posenum>  (1) 
174

>  <i_i_glide_rotatable_bonds>  (1) 
5

>  <i_lp_mmshare_version>  (1) 
72125

>  <i_m_source_file_index>  (1) 
35

>  <i_f3d_flags>  (1) 
0

>  <num_sample>  (1) 
100

>  <b_lp_Chiralities_Consistent>  (1) 
1

>  <r_epik_Charging_Adjusted_Penalty>  (1) 
0.0016234785268329083

>  <r_epik_Ionization_Penalty>  (1) 
0.0016234785268329083

>  <r_epik_Ionization_Penalty_Charging>  (1) 
0.0016234785268329083

>  <r_epik_Ionization_Penalty_Neutral>  (1) 
0

>  <r_epik_State_Penalty>  (1) 
-0

>  <r_glide_ring_energy>  (1) 
0

>  <r_i_docking_score>  (1) 
-3.7229540427604415

>  <r_i_glide_ecoul>  (1) 
-0.38728662021740845

>  <r_i_glide_eff_state_penalty>  (1) 
-0

>  <r_i_glide_einternal>  (1) 
1.9509913156073764

>  <r_i_glide_emodel>  (1) 
-23.385576853764448

>  <r_i_glide_emodel_strain>  (1) 
0.062532142754348485

>  <r_i_glide_energy>  (1) 
-18.851830153647398

>  <r_i_glide_erotb>  (1) 
2.0195253186786486

>  <r_i_glide_esite>  (1) 
0

>  <r_i_glide_evdw>  (1) 
-18.464543533429989

>  <r_i_glide_gscore>  (1) 
-3.7229540427604415

>  <r_i_glide_gscore_strain>  (1) 
0

>  <r_i_glide_hbond>  (1) 
0

>  <r_i_glide_ligand_efficiency>  (1) 
-0.41366156030671575

>  <r_i_glide_ligand_efficiency_ln>  (1) 
-1.164433073970123

>  <r_i_glide_ligand_efficiency_sa>  (1) 
-0.86045071981240917

>  <r_i_glide_lipo>  (1) 
-1.7963828856091129

>  <r_i_glide_metal>  (1) 
-0

>  <r_i_glide_rewards>  (1) 
-2.9647763061258674

>  <r_lp_Energy>  (1) 
4.7762899999999995

>  <r_lp_tautomer_probability>  (1) 
1

>  <s_epik_cmdline>  (1) 
J2VwaWtfcHl0aG9uJywgJy1waHQnLCAnMS4wJywgJy1waCcsICc3LjQnLCAnLXRuJywgJzgnLCAnLW1hJywgJzUwMCcsICctaW1hZScsICc8aW5maWxlLm1hZT4nLCAnLW9tYWUnLCAnPG91dGZpbGUubWFlPic=

>  <s_epik_input>  (1) 
W09IXUMoPU8pW0NIMl1bQ0gyXVtDSDJdW0NIMl1TW0NIM10=

>  <s_glide_docking_method>  (1) 
confgen

>  <s_i_glide_gridfile>  (1) 
gpcr_5ht2c_6bqh_protein_autoprepared_prepared

>  <s_lp_Force_Field>  (1) 
S-OPLS

>  <s_lp_Variant>  (1) 
DiffSBDD_34_num_sample_100-1

>  <s_m_source_file>  (1) 
generated__ligand_DiffSBDD_2026-05-06_prepared.sdf

>  <GenAI_Model>  (1) 
DiffSBDD

>  <Protein>  (1) 
GPCR_5HT2C

$$$$
DiffSBDD_34_num_sample_100
     RDKit          3D

  0  0  0  0  0  0  0  0  0  0999 V3000
M  V30 BEGIN CTAB
M  V30 COUNTS 20 19 0 0 1
M  V30 BEGIN ATOM
M  V30 1 O 36.549381 23.845817 55.456827 0 CHG=-1
M  V30 2 C 38.856799 27.067948 53.580671 0
M  V30 3 O 37.605993 24.420471 57.334820 0
M  V30 4 C 37.461746 24.421442 56.091696 0
M  V30 5 C 38.214616 28.213616 52.792071 0
M  V30 6 C 38.498026 25.191129 55.273418 0
M  V30 7 C 37.829482 26.234530 54.357421 0
M  V30 8 S 39.467431 29.219846 51.952458 0
M  V30 9 C 39.609570 28.336681 50.384062 0
M  V30 10 H 39.418816 26.422700 52.905696 0
M  V30 11 H 39.578023 27.487025 54.283608 0
M  V30 12 H 37.667712 28.862536 53.476474 0
M  V30 13 H 37.491853 27.836113 52.067268 0
M  V30 14 H 39.073560 24.478783 54.682691 0
M  V30 15 H 39.199061 25.675641 55.954800 0
M  V30 16 H 37.209353 26.897735 54.962100 0
M  V30 17 H 37.153620 25.745897 53.652609 0
M  V30 18 H 40.352611 28.818970 49.752485 0
M  V30 19 H 38.665983 28.375063 49.854622 0
M  V30 20 H 39.878241 27.292208 50.541974 0
M  V30 END ATOM
M  V30 BEGIN BOND
M  V30 1 1 4 1
M  V30 2 2 4 3
M  V30 3 1 5 2
M  V30 4 1 6 4
M  V30 5 1 7 2
M  V30 6 1 7 6
M  V30 7 1 8 5
M  V30 8 1 9 8
M  V30 9 1 10 2
M  V30 10 1 11 2
M  V30 11 1 12 5
M  V30 12 1 13 5
M  V30 13 1 14 6
M  V30 14 1 15 6
M  V30 15 1 16 7
M  V30 16 1 17 7
M  V30 17 1 18 9
M  V30 18 1 19 9
M  V30 19 1 20 9
M  V30 END BOND
M  V30 END CTAB
M  END
>  <i_epik_Tot_Q>  (1) 
-1

>  <i_epik_Tot_abs_Q>  (1) 
1

>  <i_i_glide_confnum>  (1) 
16

>  <i_i_glide_lignum>  (1) 
89

>  <i_i_glide_posenum>  (1) 
64

>  <i_i_glide_rotatable_bonds>  (1) 
5

>  <i_lp_mmshare_version>  (1) 
72125

>  <i_m_source_file_index>  (1) 
35

>  <i_f3d_flags>  (1) 
0

>  <num_sample>  (1) 
100

>  <b_lp_Chiralities_Consistent>  (1) 
1

>  <r_epik_Charging_Adjusted_Penalty>  (1) 
0.0016234785268329083

>  <r_epik_Ionization_Penalty>  (1) 
0.0016234785268329083

>  <r_epik_Ionization_Penalty_Charging>  (1) 
0.0016234785268329083

>  <r_epik_Ionization_Penalty_Neutral>  (1) 
0

>  <r_epik_State_Penalty>  (1) 
-0

>  <r_glide_ring_energy>  (1) 
0

>  <r_i_docking_score>  (1) 
-3.7224967908088802

>  <r_i_glide_ecoul>  (1) 
-0.74784466918630998

>  <r_i_glide_eff_state_penalty>  (1) 
-0

>  <r_i_glide_einternal>  (1) 
3.7295523885230253

>  <r_i_glide_emodel>  (1) 
-22.960162082432234

>  <r_i_glide_emodel_strain>  (1) 
0.12125048282485396

>  <r_i_glide_energy>  (1) 
-19.37509858229603

>  <r_i_glide_erotb>  (1) 
2.0195253186786486

>  <r_i_glide_esite>  (1) 
0

>  <r_i_glide_evdw>  (1) 
-18.627253913109719

>  <r_i_glide_gscore>  (1) 
-3.7224967908088802

>  <r_i_glide_gscore_strain>  (1) 
0

>  <r_i_glide_hbond>  (1) 
0

>  <r_i_glide_ligand_efficiency>  (1) 
-0.41361075453432

>  <r_i_glide_ligand_efficiency_ln>  (1) 
-1.1642900586953118

>  <r_i_glide_ligand_efficiency_sa>  (1) 
-0.86034503954713126

>  <r_i_glide_lipo>  (1) 
-1.9287828049347291

>  <r_i_glide_metal>  (1) 
-0

>  <r_i_glide_rewards>  (1) 
-2.7696999085193674

>  <r_lp_Energy>  (1) 
4.7762899999999995

>  <r_lp_tautomer_probability>  (1) 
1

>  <s_epik_cmdline>  (1) 
J2VwaWtfcHl0aG9uJywgJy1waHQnLCAnMS4wJywgJy1waCcsICc3LjQnLCAnLXRuJywgJzgnLCAnLW1hJywgJzUwMCcsICctaW1hZScsICc8aW5maWxlLm1hZT4nLCAnLW9tYWUnLCAnPG91dGZpbGUubWFlPic=

>  <s_epik_input>  (1) 
W09IXUMoPU8pW0NIMl1bQ0gyXVtDSDJdW0NIMl1TW0NIM10=

>  <s_glide_docking_method>  (1) 
confgen

>  <s_i_glide_gridfile>  (1) 
gpcr_5ht2c_6bqh_protein_autoprepared_prepared

>  <s_lp_Force_Field>  (1) 
S-OPLS

>  <s_lp_Variant>  (1) 
DiffSBDD_34_num_sample_100-1

>  <s_m_source_file>  (1) 
generated__ligand_DiffSBDD_2026-05-06_prepared.sdf

>  <GenAI_Model>  (1) 
DiffSBDD

>  <Protein>  (1) 
GPCR_5HT2C

$$$$
DiffSBDD_29_num_sample_100
     RDKit          3D

  0  0  0  0  0  0  0  0  0  0999 V3000
M  V30 BEGIN CTAB
M  V30 COUNTS 85 89 0 0 1
M  V30 BEGIN ATOM
M  V30 1 F 37.491552 37.625405 61.132855 0
M  V30 2 C 37.063426 31.389884 58.970418 0
M  V30 3 C 37.298275 34.756563 61.511950 0
M  V30 4 C 39.954957 28.047699 55.980707 0 CFG=2
M  V30 5 C 39.889817 30.404583 52.670374 0
M  V30 6 C 41.292106 27.890279 56.737706 0
M  V30 7 C 39.608984 37.459439 61.998714 0
M  V30 8 N 38.368583 32.071045 58.969751 0
M  V30 9 C 39.247731 25.696600 54.896809 0 CFG=1
M  V30 10 C 39.695873 29.031321 49.950998 0
M  V30 11 C 38.115343 33.024930 56.565584 0
M  V30 12 C 39.058289 28.518789 51.220660 0 CFG=1
M  V30 13 C 38.495546 36.905838 61.660570 0
M  V30 14 C 39.114619 31.884612 56.506920 0 CFG=2
M  V30 15 C 37.297655 31.271301 61.471603 0
M  V30 16 C 36.904127 26.707707 55.053523 0
M  V30 17 C 39.867308 27.117368 54.654393 0 CFG=1
M  V30 18 C 38.777241 30.393584 56.546061 0 CFG=1
M  V30 19 C 39.640858 34.961440 62.464332 0
M  V30 20 N 38.516524 32.050680 61.319267 0
M  V30 21 N 38.430714 35.584608 61.864205 0
M  V30 22 F 39.867329 38.768416 61.853462 0
M  V30 23 S 39.366605 26.841232 51.794527 0
M  V30 24 C 38.509713 32.919701 60.140884 0 CFG=2
M  V30 25 C 37.009737 30.484145 60.195024 0
M  V30 26 C 37.144555 24.196041 54.995593 0
M  V30 27 O 37.467347 30.181258 56.020854 0
M  V30 28 C 39.256070 27.794700 53.342571 0 CFG=2
M  V30 29 C 39.721678 29.552057 55.686564 0
M  V30 30 C 39.862170 30.551848 50.045062 0
M  V30 31 C 40.346874 31.084125 51.392418 0
M  V30 32 C 37.469121 34.076998 60.166281 0
M  V30 33 O 39.521034 25.206140 56.191987 0
M  V30 34 C 39.867344 28.923587 52.439692 0 CFG=2
M  V30 35 C 38.935341 32.713523 57.773054 0 CFG=2
M  V30 36 C 37.743042 25.545731 54.552566 0
M  V30 37 O 39.063923 27.670704 57.028912 0
M  V30 38 S 40.836153 36.421730 62.653334 0
M  V30 39 H 36.219276 32.069687 58.950032 0
M  V30 40 H 36.895457 30.743333 58.134115 0
M  V30 41 H 36.401888 35.374805 61.492541 0
M  V30 42 H 37.109468 33.991432 62.253358 0
M  V30 43 H 40.610028 30.688472 53.436378 0
M  V30 44 H 38.918702 30.772819 53.002439 0
M  V30 45 H 42.105530 28.421363 56.253509 0
M  V30 46 H 41.242618 28.313499 57.743261 0
M  V30 47 H 41.580441 26.844810 56.849033 0
M  V30 48 H 39.786735 25.003497 54.253484 0
M  V30 49 H 40.664143 28.579134 49.791288 0
M  V30 50 H 39.090677 28.821521 49.086191 0
M  V30 51 H 38.365176 33.926280 56.006975 0
M  V30 52 H 37.067416 32.821473 56.621809 0
M  V30 53 H 37.997482 28.760234 51.311197 0
M  V30 54 H 40.002247 32.116999 55.923296 0
M  V30 55 H 36.457626 31.918199 61.724498 0
M  V30 56 H 37.467949 30.578236 62.291917 0
M  V30 57 H 36.267521 26.370121 55.868196 0
M  V30 58 H 37.467280 27.540058 55.423729 0
M  V30 59 H 36.327120 27.221402 54.276068 0
M  V30 60 H 40.889379 26.821402 54.436155 0
M  V30 61 H 38.862138 30.046207 57.571519 0
M  V30 62 H 39.458446 34.531622 63.446261 0
M  V30 63 H 40.110005 34.212695 61.832183 0
M  V30 64 H 38.704308 32.578250 62.158199 0
M  V30 65 H 39.505402 33.359454 60.092857 0
M  V30 66 H 36.027257 30.019228 60.252694 0
M  V30 67 H 37.735144 29.679332 60.078116 0
M  V30 68 H 37.078963 24.117502 56.081456 0
M  V30 69 H 36.136750 24.070450 54.598880 0
M  V30 70 H 37.748317 23.360762 54.653359 0
M  V30 71 H 36.864528 30.830695 56.384543 0
M  V30 72 H 38.217804 28.081670 53.480858 0
M  V30 73 H 40.667382 30.046298 55.499213 0
M  V30 74 H 39.197440 29.631331 54.770723 0
M  V30 75 H 40.539829 30.910563 49.279312 0
M  V30 76 H 38.908334 31.034633 49.853161 0
M  V30 77 H 41.427261 31.219076 51.382660 0
M  V30 78 H 39.871849 32.021399 51.474207 0
M  V30 79 H 37.717607 34.815185 59.404171 0
M  V30 80 H 36.467297 33.751818 59.913773 0
M  V30 81 H 39.337790 25.925339 56.792313 0
M  V30 82 H 40.886654 28.695421 52.143188 0
M  V30 83 H 39.760697 33.398676 57.934315 0
M  V30 84 H 37.632649 25.591432 53.473488 0
M  V30 85 H 38.229626 28.094293 56.870750 0
M  V30 END ATOM
M  V30 BEGIN BOND
M  V30 1 1 6 4
M  V30 2 1 8 2
M  V30 3 1 12 10
M  V30 4 1 13 1
M  V30 5 2 13 7
M  V30 6 1 14 11
M  V30 7 1 17 4
M  V30 8 1 17 9
M  V30 9 1 18 14
M  V30 10 1 20 15
M  V30 11 1 21 3
M  V30 12 1 21 13
M  V30 13 1 21 19
M  V30 14 1 22 7
M  V30 15 1 23 12
M  V30 16 1 24 8
M  V30 17 1 24 20
M  V30 18 1 25 2
M  V30 19 1 25 15
M  V30 20 1 27 18
M  V30 21 1 28 17
M  V30 22 1 28 23
M  V30 23 1 29 4
M  V30 24 1 29 18
M  V30 25 1 30 10
M  V30 26 1 31 5
M  V30 27 1 31 30
M  V30 28 1 32 3
M  V30 29 1 32 24
M  V30 30 1 33 9
M  V30 31 1 34 5
M  V30 32 1 34 12
M  V30 33 1 34 28
M  V30 34 1 35 8
M  V30 35 1 35 11
M  V30 36 1 35 14
M  V30 37 1 36 9
M  V30 38 1 36 16
M  V30 39 1 36 26
M  V30 40 1 4 37 CFG=1
M  V30 41 1 38 7
M  V30 42 1 38 19
M  V30 43 1 39 2
M  V30 44 1 40 2
M  V30 45 1 41 3
M  V30 46 1 42 3
M  V30 47 1 43 5
M  V30 48 1 44 5
M  V30 49 1 45 6
M  V30 50 1 46 6
M  V30 51 1 47 6
M  V30 52 1 9 48 CFG=3
M  V30 53 1 49 10
M  V30 54 1 50 10
M  V30 55 1 51 11
M  V30 56 1 52 11
M  V30 57 1 12 53 CFG=1
M  V30 58 1 14 54 CFG=3
M  V30 59 1 55 15
M  V30 60 1 56 15
M  V30 61 1 57 16
M  V30 62 1 58 16
M  V30 63 1 59 16
M  V30 64 1 17 60 CFG=3
M  V30 65 1 18 61 CFG=1
M  V30 66 1 62 19
M  V30 67 1 63 19
M  V30 68 1 64 20
M  V30 69 1 24 65 CFG=3
M  V30 70 1 66 25
M  V30 71 1 67 25
M  V30 72 1 68 26
M  V30 73 1 69 26
M  V30 74 1 70 26
M  V30 75 1 71 27
M  V30 76 1 28 72 CFG=1
M  V30 77 1 73 29
M  V30 78 1 74 29
M  V30 79 1 75 30
M  V30 80 1 76 30
M  V30 81 1 77 31
M  V30 82 1 78 31
M  V30 83 1 79 32
M  V30 84 1 80 32
M  V30 85 1 81 33
M  V30 86 1 34 82 CFG=3
M  V30 87 1 35 83 CFG=1
M  V30 88 1 84 36
M  V30 89 1 85 37
M  V30 END BOND
M  V30 END CTAB
M  END
>  <i_epik_Tot_Q>  (1) 
0

>  <i_epik_Tot_abs_Q>  (1) 
0

>  <i_i_glide_confnum>  (1) 
1882

>  <i_i_glide_lignum>  (1) 
74

>  <i_i_glide_posenum>  (1) 
91

>  <i_i_glide_rotatable_bonds>  (1) 
14

>  <i_lp_mmshare_version>  (1) 
72125

>  <i_m_source_file_index>  (1) 
30

>  <i_f3d_flags>  (1) 
0

>  <num_sample>  (1) 
100

>  <b_lp_Chiralities_Consistent>  (1) 
1

>  <r_epik_Charging_Adjusted_Penalty>  (1) 
0.89739717629826321

>  <r_epik_Ionization_Penalty>  (1) 
1.0966562263345743

>  <r_epik_Ionization_Penalty_Charging>  (1) 
8.0809776118824917e-09

>  <r_epik_Ionization_Penalty_Neutral>  (1) 
1.0966562182535966

>  <r_epik_State_Penalty>  (1) 
0.89739716821728555

>  <r_glide_ring_energy>  (1) 
1.6720993256358943

>  <r_i_docking_score>  (1) 
-3.7215498945578207

>  <r_i_glide_ecoul>  (1) 
-3.1836501074881696

>  <r_i_glide_eff_state_penalty>  (1) 
0.89739716821728555

>  <r_i_glide_einternal>  (1) 
84.814830893961172

>  <r_i_glide_emodel>  (1) 
28.635602585555311

>  <r_i_glide_emodel_strain>  (1) 
12.655781315431938

>  <r_i_glide_energy>  (1) 
-19.183390797164051

>  <r_i_glide_erotb>  (1) 
0.47112220270256994

>  <r_i_glide_esite>  (1) 
-0.017183112145331244

>  <r_i_glide_evdw>  (1) 
-15.99974068967588

>  <r_i_glide_gscore>  (1) 
-4.6189470627751064

>  <r_i_glide_gscore_strain>  (1) 
2.1639453288579844

>  <r_i_glide_hbond>  (1) 
0

>  <r_i_glide_ligand_efficiency>  (1) 
-0.097935523540995287

>  <r_i_glide_ligand_efficiency_ln>  (1) 
-0.80247563417288392

>  <r_i_glide_ligand_efficiency_sa>  (1) 
-0.32925682159680714

>  <r_i_glide_lipo>  (1) 
-4.6669243568303944

>  <r_i_glide_metal>  (1) 
-0

>  <r_i_glide_rewards>  (1) 
-1.2923725747529149

>  <r_lp_Energy>  (1) 
34.086382999999998

>  <s_epik_Chemistry_Notes>  (1) 
This compound has an imine and may undergo hydrolysis. This compound contains an acetal/aminal-like group ( X-CH(R)-Y where X, Y are N, S, or O) that may be acid/base labile, releasing an aldehyde.

>  <s_epik_cmdline>  (1) 
J2VwaWtfcHl0aG9uJywgJy1waHQnLCAnMS4wJywgJy1waCcsICc3LjQnLCAnLXRuJywgJzgnLCAnLW1hJywgJzUwMCcsICctaW1hZScsICc8aW5maWxlLm1hZT4nLCAnLW9tYWUnLCAnPG91dGZpbGUubWFlPic=

>  <s_epik_input>  (1) 
RkMxPUMoRilOKFtDSDJdUzEpW0NIMl1bQ0gyXVtDQEhdMltOSF1bQ0gyXVtDSDJdW0NIMl1OMltDQEBIXTNbQ0gyXVtDQEBIXTNbQ0BASF0oW09IXSlbQ0gyXVtDQEBdKFtDSDNdKShbT0hdKVtDQEBIXShbQ0BASF0oW09IXSlbQ0hdKFtDSDNdKVtDSDNdKVtDQEhdKFM0KVtDQEBIXShbQ0BASF00NSlbQ0gyXVtDSDJdW0NIMl1bQ0gyXTU=

>  <s_glide_docking_method>  (1) 
confgen

>  <s_i_glide_gridfile>  (1) 
gpcr_5ht2c_6bqh_protein_autoprepared_prepared

>  <s_lp_Force_Field>  (1) 
S-OPLS

>  <s_lp_Variant>  (1) 
DiffSBDD_29_num_sample_100-4

>  <s_m_source_file>  (1) 
generated__ligand_DiffSBDD_2026-05-06_prepared.sdf

>  <GenAI_Model>  (1) 
DiffSBDD

>  <Protein>  (1) 
GPCR_5HT2C

$$$$
DiffSBDD_29_num_sample_100
     RDKit          3D

  0  0  0  0  0  0  0  0  0  0999 V3000
M  V30 BEGIN CTAB
M  V30 COUNTS 86 90 0 0 1
M  V30 BEGIN ATOM
M  V30 1 F 37.467319 36.468282 59.596628 0
M  V30 2 C 35.027467 32.220672 60.552042 0
M  V30 3 C 39.385368 34.277434 60.185977 0
M  V30 4 C 38.110997 27.820763 57.582021 0 CFG=2
M  V30 5 C 37.543925 27.911600 52.784836 0
M  V30 6 C 39.041610 27.548938 58.798756 0
M  V30 7 C 37.982190 37.263878 61.683438 0
M  V30 8 N 36.422355 32.177380 60.050686 0 CFG=1 CHG=1
M  V30 9 C 38.269774 25.932999 55.731239 0 CFG=1
M  V30 10 C 39.676715 30.073848 52.483892 0
M  V30 11 C 38.698791 30.958810 60.782504 0
M  V30 12 C 38.665439 30.076947 53.639458 0 CFG=2
M  V30 13 C 38.130170 36.372307 60.761291 0
M  V30 14 C 37.716964 30.186972 59.939944 0 CFG=2
M  V30 15 C 34.661610 34.172720 59.046507 0
M  V30 16 C 37.455307 24.244915 57.653721 0
M  V30 17 C 38.808312 27.324870 56.242527 0 CFG=1
M  V30 18 C 37.875765 30.314962 58.414433 0 CFG=1
M  V30 19 C 39.654312 35.474849 62.383293 0
M  V30 20 N 36.042454 34.021404 58.653473 0
M  V30 21 N 38.989092 35.368416 61.064469 0
M  V30 22 F 37.178437 38.334295 61.569303 0
M  V30 23 S 39.498773 30.002117 55.234629 0
M  V30 24 C 36.888505 33.553172 59.746377 0 CFG=2
M  V30 25 C 34.106499 32.824389 59.487500 0
M  V30 26 C 39.867419 24.389216 57.053847 0
M  V30 27 O 39.220713 30.421321 58.088692 0
M  V30 28 C 39.006700 28.284858 55.004808 0 CFG=2
M  V30 29 C 37.299955 29.161614 57.604863 0
M  V30 30 C 39.333614 29.091668 51.346980 0
M  V30 31 C 38.723647 27.749875 51.806488 0
M  V30 32 C 38.323349 33.735388 59.199829 0
M  V30 33 O 38.999913 25.621422 54.579084 0
M  V30 34 C 37.910323 28.765009 53.995458 0 CFG=2
M  V30 35 C 37.225677 31.267462 60.897803 0 CFG=2
M  V30 36 C 38.453729 24.615043 56.551103 0
M  V30 37 O 37.067410 26.951349 57.850218 0
M  V30 38 S 38.896825 37.046045 63.140791 0
M  V30 39 H 34.685526 31.221474 60.811984 0
M  V30 40 H 34.987599 32.814171 61.466757 0
M  V30 41 H 39.745207 33.486763 60.838599 0
M  V30 42 H 40.257331 34.616337 59.625770 0
M  V30 43 H 36.714447 28.381578 52.254566 0
M  V30 44 H 37.174832 26.934347 53.094587 0
M  V30 45 H 39.961990 28.130888 58.766356 0
M  V30 46 H 38.579476 27.693370 59.765545 0
M  V30 47 H 39.338501 26.513641 58.856949 0
M  V30 48 H 37.226770 26.034431 55.424526 0
M  V30 49 H 39.791402 31.079092 52.079134 0
M  V30 50 H 40.667265 29.825524 52.848274 0
M  V30 51 H 39.150550 30.411975 61.607645 0
M  V30 52 H 39.398509 31.591803 60.260543 0
M  V30 53 H 37.981640 30.925414 53.617150 0
M  V30 54 H 37.367140 29.221350 60.253453 0
M  V30 55 H 34.073877 34.611599 58.240350 0
M  V30 56 H 34.667515 34.865220 59.865915 0
M  V30 57 H 37.694551 24.701268 58.613776 0
M  V30 58 H 36.446848 24.517030 57.348360 0
M  V30 59 H 37.467224 23.173167 57.846887 0
M  V30 60 H 39.834639 27.119541 56.547577 0
M  V30 61 H 37.399572 31.211673 58.032020 0
M  V30 62 H 39.447083 34.607858 63.011542 0
M  V30 63 H 40.732000 35.585980 62.260770 0
M  V30 64 H 36.084736 33.397597 57.847030 0
M  V30 65 H 36.731797 34.178332 60.624014 0
M  V30 66 H 34.011897 32.136090 58.653583 0
M  V30 67 H 33.092611 32.966547 59.853465 0
M  V30 68 H 40.207057 25.040470 57.845711 0
M  V30 69 H 39.867509 23.377992 57.453477 0
M  V30 70 H 40.593003 24.461445 56.253734 0
M  V30 71 H 39.297544 30.424181 57.140324 0
M  V30 72 H 39.829367 27.882041 54.416082 0
M  V30 73 H 37.122279 29.514920 56.596146 0
M  V30 74 H 36.283343 29.037501 57.989396 0
M  V30 75 H 38.663714 29.586497 50.653766 0
M  V30 76 H 40.229108 28.891879 50.759783 0
M  V30 77 H 38.393838 27.184221 50.935432 0
M  V30 78 H 39.499766 27.138417 52.264937 0
M  V30 79 H 38.695838 32.854112 58.696059 0
M  V30 80 H 38.267289 34.421365 58.366014 0
M  V30 81 H 39.888545 25.423172 54.830677 0
M  V30 82 H 37.003837 29.013927 54.543975 0
M  V30 83 H 36.752696 30.982999 61.832052 0
M  V30 84 H 38.262198 23.821641 55.824974 0
M  V30 85 H 37.402071 26.065673 57.845689 0
M  V30 86 H 36.362730 31.716938 59.152685 0
M  V30 END ATOM
M  V30 BEGIN BOND
M  V30 1 1 6 4
M  V30 2 1 8 2
M  V30 3 1 12 10
M  V30 4 1 13 1
M  V30 5 2 13 7
M  V30 6 1 14 11
M  V30 7 1 17 4
M  V30 8 1 17 9
M  V30 9 1 18 14
M  V30 10 1 20 15
M  V30 11 1 21 3
M  V30 12 1 21 13
M  V30 13 1 21 19
M  V30 14 1 22 7
M  V30 15 1 23 12
M  V30 16 1 24 8
M  V30 17 1 24 20
M  V30 18 1 25 2
M  V30 19 1 25 15
M  V30 20 1 27 18
M  V30 21 1 28 17
M  V30 22 1 28 23
M  V30 23 1 29 4
M  V30 24 1 29 18
M  V30 25 1 30 10
M  V30 26 1 31 5
M  V30 27 1 31 30
M  V30 28 1 32 3
M  V30 29 1 32 24
M  V30 30 1 33 9
M  V30 31 1 34 5
M  V30 32 1 34 12
M  V30 33 1 34 28
M  V30 34 1 35 8
M  V30 35 1 35 11
M  V30 36 1 35 14
M  V30 37 1 36 9
M  V30 38 1 36 16
M  V30 39 1 36 26
M  V30 40 1 4 37 CFG=1
M  V30 41 1 38 7
M  V30 42 1 38 19
M  V30 43 1 39 2
M  V30 44 1 40 2
M  V30 45 1 41 3
M  V30 46 1 42 3
M  V30 47 1 43 5
M  V30 48 1 44 5
M  V30 49 1 45 6
M  V30 50 1 46 6
M  V30 51 1 47 6
M  V30 52 1 9 48 CFG=3
M  V30 53 1 49 10
M  V30 54 1 50 10
M  V30 55 1 51 11
M  V30 56 1 52 11
M  V30 57 1 12 53 CFG=1
M  V30 58 1 14 54 CFG=3
M  V30 59 1 55 15
M  V30 60 1 56 15
M  V30 61 1 57 16
M  V30 62 1 58 16
M  V30 63 1 59 16
M  V30 64 1 17 60 CFG=1
M  V30 65 1 18 61 CFG=3
M  V30 66 1 62 19
M  V30 67 1 63 19
M  V30 68 1 64 20
M  V30 69 1 24 65 CFG=1
M  V30 70 1 66 25
M  V30 71 1 67 25
M  V30 72 1 68 26
M  V30 73 1 69 26
M  V30 74 1 70 26
M  V30 75 1 71 27
M  V30 76 1 28 72 CFG=3
M  V30 77 1 73 29
M  V30 78 1 74 29
M  V30 79 1 75 30
M  V30 80 1 76 30
M  V30 81 1 77 31
M  V30 82 1 78 31
M  V30 83 1 79 32
M  V30 84 1 80 32
M  V30 85 1 81 33
M  V30 86 1 34 82 CFG=1
M  V30 87 1 35 83 CFG=1
M  V30 88 1 84 36
M  V30 89 1 85 37
M  V30 90 1 8 86 CFG=3
M  V30 END BOND
M  V30 END CTAB
M  END
>  <i_epik_Tot_Q>  (1) 
1

>  <i_epik_Tot_abs_Q>  (1) 
1

>  <i_i_glide_confnum>  (1) 
1200

>  <i_i_glide_lignum>  (1) 
75

>  <i_i_glide_posenum>  (1) 
185

>  <i_i_glide_rotatable_bonds>  (1) 
14

>  <i_lp_mmshare_version>  (1) 
72125

>  <i_m_source_file_index>  (1) 
30

>  <i_f3d_flags>  (1) 
0

>  <num_sample>  (1) 
100

>  <b_lp_Chiralities_Consistent>  (1) 
1

>  <r_epik_Charging_Adjusted_Penalty>  (1) 
1.7477768688038313

>  <r_epik_Ionization_Penalty>  (1) 
0.56833185219894722

>  <r_epik_Ionization_Penalty_Charging>  (1) 
0.56833130032608237

>  <r_epik_Ionization_Penalty_Neutral>  (1) 
5.5187286482775955e-07

>  <r_epik_State_Penalty>  (1) 
1.179445568477749

>  <r_glide_ring_energy>  (1) 
2.2046325848137989

>  <r_i_docking_score>  (1) 
-3.7135371479953418

>  <r_i_glide_ecoul>  (1) 
-2.3242795882446847

>  <r_i_glide_eff_state_penalty>  (1) 
1.179445568477749

>  <r_i_glide_einternal>  (1) 
34.832390000689763

>  <r_i_glide_emodel>  (1) 
-9.7998629910799799

>  <r_i_glide_emodel_strain>  (1) 
16.330523397695373

>  <r_i_glide_energy>  (1) 
-33.632491224055897

>  <r_i_glide_erotb>  (1) 
0.46833353265868582

>  <r_i_glide_esite>  (1) 
-0.10022836645643898

>  <r_i_glide_evdw>  (1) 
-31.308211635811215

>  <r_i_glide_gscore>  (1) 
-4.8929827164730906

>  <r_i_glide_gscore_strain>  (1) 
3.0826308494238432

>  <r_i_glide_hbond>  (1) 
-0.15089747561088251

>  <r_i_glide_ligand_efficiency>  (1) 
-0.097724661789351103

>  <r_i_glide_ligand_efficiency_ln>  (1) 
-0.80074785030289075

>  <r_i_glide_ligand_efficiency_sa>  (1) 
-0.32854790957354485

>  <r_i_glide_lipo>  (1) 
-4.99437180153926

>  <r_i_glide_metal>  (1) 
-0

>  <r_i_glide_rewards>  (1) 
-1.2843969349217743

>  <r_lp_Energy>  (1) 
40.584823

>  <s_epik_Chemistry_Notes>  (1) 
This compound has an imine and may undergo hydrolysis. This compound contains an acetal/aminal-like group ( X-CH(R)-Y where X, Y are N, S, or O) that may be acid/base labile, releasing an aldehyde.

>  <s_epik_cmdline>  (1) 
J2VwaWtfcHl0aG9uJywgJy1waHQnLCAnMS4wJywgJy1waCcsICc3LjQnLCAnLXRuJywgJzgnLCAnLW1hJywgJzUwMCcsICctaW1hZScsICc8aW5maWxlLm1hZT4nLCAnLW9tYWUnLCAnPG91dGZpbGUubWFlPic=

>  <s_epik_input>  (1) 
RkMxPUMoRilOKFtDSDJdUzEpW0NIMl1bQ0gyXVtDQEhdMltOSF1bQ0gyXVtDSDJdW0NIMl1OMltDQEBIXTNbQ0gyXVtDQEBIXTNbQ0BASF0oW09IXSlbQ0gyXVtDQEBdKFtDSDNdKShbT0hdKVtDQEBIXShbQ0BASF0oW09IXSlbQ0hdKFtDSDNdKVtDSDNdKVtDQEhdKFM0KVtDQEBIXShbQ0BASF00NSlbQ0gyXVtDSDJdW0NIMl1bQ0gyXTU=

>  <s_glide_docking_method>  (1) 
confgen

>  <s_i_glide_gridfile>  (1) 
gpcr_5ht2c_6bqh_protein_autoprepared_prepared

>  <s_lp_Force_Field>  (1) 
S-OPLS

>  <s_lp_Variant>  (1) 
DiffSBDD_29_num_sample_100-5

>  <s_m_source_file>  (1) 
generated__ligand_DiffSBDD_2026-05-06_prepared.sdf

>  <GenAI_Model>  (1) 
DiffSBDD

>  <Protein>  (1) 
GPCR_5HT2C

$$$$
DiffSBDD_29_num_sample_100
     RDKit          3D

  0  0  0  0  0  0  0  0  0  0999 V3000
M  V30 BEGIN CTAB
M  V30 COUNTS 85 89 0 0 1
M  V30 BEGIN ATOM
M  V30 1 F 39.306338 35.618127 61.112428 0
M  V30 2 C 36.248022 33.402901 59.211557 0
M  V30 3 C 39.644469 32.762986 61.610352 0
M  V30 4 C 37.639961 29.894959 55.978109 0 CFG=2
M  V30 5 C 39.081300 27.869930 52.370562 0
M  V30 6 C 36.837195 29.621442 57.275021 0
M  V30 7 C 40.445169 35.949343 63.075614 0
M  V30 8 N 37.104642 32.211217 59.410301 0
M  V30 9 C 38.878855 27.667439 56.602252 0 CFG=1
M  V30 10 C 40.121023 30.665857 51.310578 0
M  V30 11 C 38.984119 33.519028 58.326021 0
M  V30 12 C 40.301748 30.001066 52.632082 0 CFG=1
M  V30 13 C 39.991408 35.150252 62.170181 0
M  V30 14 C 38.856271 32.361735 57.372756 0 CFG=2
M  V30 15 C 35.154542 32.953474 61.344388 0
M  V30 16 C 41.326918 27.453886 57.395495 0
M  V30 17 C 38.996996 29.153662 56.032746 0 CFG=1
M  V30 18 C 37.920767 32.567651 56.239738 0 CFG=1
M  V30 19 C 40.972552 33.516783 63.619441 0
M  V30 20 N 35.945518 31.741411 61.453427 0
M  V30 21 N 40.228129 33.840951 62.384009 0
M  V30 22 F 40.268135 37.278518 63.053263 0
M  V30 23 S 40.467741 30.821509 54.253482 0
M  V30 24 C 37.258040 31.860471 60.829168 0 CFG=2
M  V30 25 C 34.888553 33.188193 59.871555 0
M  V30 26 C 40.466128 26.011181 55.407585 0
M  V30 27 O 38.423041 33.608594 55.453037 0
M  V30 28 C 39.806252 29.208105 54.736414 0 CFG=2
M  V30 29 C 37.535892 31.342672 55.393711 0
M  V30 30 C 39.750838 29.489252 50.352352 0
M  V30 31 C 38.781707 28.390728 50.940935 0
M  V30 32 C 38.103227 32.843488 61.679423 0
M  V30 33 O 37.898188 26.879425 55.940736 0
M  V30 34 C 39.257185 29.102277 53.231342 0 CFG=2
M  V30 35 C 38.461068 32.209325 58.838899 0 CFG=2
M  V30 36 C 40.128586 26.759953 56.712240 0
M  V30 37 O 37.059605 29.221361 54.923254 0
M  V30 38 S 41.294510 35.228741 64.408007 0
M  V30 39 H 36.707780 34.299611 59.626935 0
M  V30 40 H 36.041466 33.625800 58.176704 0
M  V30 41 H 39.992820 31.796817 61.976104 0
M  V30 42 H 40.040494 32.879102 60.607489 0
M  V30 43 H 38.262883 27.243070 52.728279 0
M  V30 44 H 39.975976 27.251472 52.359698 0
M  V30 45 H 37.344211 30.003733 58.151546 0
M  V30 46 H 35.841392 30.021414 57.261853 0
M  V30 47 H 36.667487 28.571913 57.481354 0
M  V30 48 H 38.558902 27.742864 57.640121 0
M  V30 49 H 39.466912 31.519255 51.335758 0
M  V30 50 H 41.067611 31.091157 50.977046 0
M  V30 51 H 39.961504 33.834887 58.657090 0
M  V30 52 H 38.267350 34.320597 58.142443 0
M  V30 53 H 41.067398 29.322650 52.323529 0
M  V30 54 H 39.792111 31.906204 57.056091 0
M  V30 55 H 35.664241 33.811910 61.777916 0
M  V30 56 H 34.261752 32.823927 61.936012 0
M  V30 57 H 41.836027 28.172177 56.758343 0
M  V30 58 H 41.008962 27.976187 58.297215 0
M  V30 59 H 42.077971 26.735389 57.709447 0
M  V30 60 H 39.585860 29.673488 56.787102 0
M  V30 61 H 37.067433 33.032853 56.651170 0
M  V30 62 H 40.370551 32.896828 64.283296 0
M  V30 63 H 41.908757 33.010657 63.383662 0
M  V30 64 H 36.102030 31.676885 62.440372 0
M  V30 65 H 37.712560 30.872667 60.890807 0
M  V30 66 H 34.255221 34.062309 59.730345 0
M  V30 67 H 34.367020 32.342888 59.421733 0
M  V30 68 H 40.414579 26.616125 54.510873 0
M  V30 69 H 41.467183 25.621411 55.453799 0
M  V30 70 H 39.806580 25.157571 55.253625 0
M  V30 71 H 37.695653 33.930957 54.941485 0
M  V30 72 H 40.667327 28.654137 55.053465 0
M  V30 73 H 38.020263 31.426831 54.431486 0
M  V30 74 H 36.517419 31.495201 55.053405 0
M  V30 75 H 39.467278 29.871171 49.375338 0
M  V30 76 H 40.667177 28.950906 50.129841 0
M  V30 77 H 37.799694 28.821726 51.053815 0
M  V30 78 H 38.690703 27.549455 50.254116 0
M  V30 79 H 37.778794 33.857313 61.470667 0
M  V30 80 H 37.852156 32.677464 62.720201 0
M  V30 81 H 38.338906 26.346090 55.294158 0
M  V30 82 H 38.359576 29.701897 53.104365 0
M  V30 83 H 39.157080 31.503278 59.282126 0
M  V30 84 H 39.851652 25.963530 57.406258 0
M  V30 85 H 37.146711 28.292856 55.120076 0
M  V30 END ATOM
M  V30 BEGIN BOND
M  V30 1 1 6 4
M  V30 2 1 8 2
M  V30 3 1 12 10
M  V30 4 1 13 1
M  V30 5 2 13 7
M  V30 6 1 14 11
M  V30 7 1 17 4
M  V30 8 1 17 9
M  V30 9 1 18 14
M  V30 10 1 20 15
M  V30 11 1 21 3
M  V30 12 1 21 13
M  V30 13 1 21 19
M  V30 14 1 22 7
M  V30 15 1 23 12
M  V30 16 1 24 8
M  V30 17 1 24 20
M  V30 18 1 25 2
M  V30 19 1 25 15
M  V30 20 1 27 18
M  V30 21 1 28 17
M  V30 22 1 28 23
M  V30 23 1 29 4
M  V30 24 1 29 18
M  V30 25 1 30 10
M  V30 26 1 31 5
M  V30 27 1 31 30
M  V30 28 1 32 3
M  V30 29 1 32 24
M  V30 30 1 33 9
M  V30 31 1 34 5
M  V30 32 1 34 12
M  V30 33 1 34 28
M  V30 34 1 35 8
M  V30 35 1 35 11
M  V30 36 1 35 14
M  V30 37 1 36 9
M  V30 38 1 36 16
M  V30 39 1 36 26
M  V30 40 1 4 37 CFG=3
M  V30 41 1 38 7
M  V30 42 1 38 19
M  V30 43 1 39 2
M  V30 44 1 40 2
M  V30 45 1 41 3
M  V30 46 1 42 3
M  V30 47 1 43 5
M  V30 48 1 44 5
M  V30 49 1 45 6
M  V30 50 1 46 6
M  V30 51 1 47 6
M  V30 52 1 9 48 CFG=1
M  V30 53 1 49 10
M  V30 54 1 50 10
M  V30 55 1 51 11
M  V30 56 1 52 11
M  V30 57 1 12 53 CFG=3
M  V30 58 1 14 54 CFG=3
M  V30 59 1 55 15
M  V30 60 1 56 15
M  V30 61 1 57 16
M  V30 62 1 58 16
M  V30 63 1 59 16
M  V30 64 1 17 60 CFG=1
M  V30 65 1 18 61 CFG=1
M  V30 66 1 62 19
M  V30 67 1 63 19
M  V30 68 1 64 20
M  V30 69 1 24 65 CFG=3
M  V30 70 1 66 25
M  V30 71 1 67 25
M  V30 72 1 68 26
M  V30 73 1 69 26
M  V30 74 1 70 26
M  V30 75 1 71 27
M  V30 76 1 28 72 CFG=1
M  V30 77 1 73 29
M  V30 78 1 74 29
M  V30 79 1 75 30
M  V30 80 1 76 30
M  V30 81 1 77 31
M  V30 82 1 78 31
M  V30 83 1 79 32
M  V30 84 1 80 32
M  V30 85 1 81 33
M  V30 86 1 34 82 CFG=1
M  V30 87 1 35 83 CFG=1
M  V30 88 1 84 36
M  V30 89 1 85 37
M  V30 END BOND
M  V30 END CTAB
M  END
>  <i_epik_Tot_Q>  (1) 
0

>  <i_epik_Tot_abs_Q>  (1) 
0

>  <i_i_glide_confnum>  (1) 
1474

>  <i_i_glide_lignum>  (1) 
74

>  <i_i_glide_posenum>  (1) 
351

>  <i_i_glide_rotatable_bonds>  (1) 
14

>  <i_lp_mmshare_version>  (1) 
72125

>  <i_m_source_file_index>  (1) 
30

>  <i_f3d_flags>  (1) 
0

>  <num_sample>  (1) 
100

>  <b_lp_Chiralities_Consistent>  (1) 
1

>  <r_epik_Charging_Adjusted_Penalty>  (1) 
0.89739717629826321

>  <r_epik_Ionization_Penalty>  (1) 
1.0966562263345743

>  <r_epik_Ionization_Penalty_Charging>  (1) 
8.0809776118824917e-09

>  <r_epik_Ionization_Penalty_Neutral>  (1) 
1.0966562182535966

>  <r_epik_State_Penalty>  (1) 
0.89739716821728555

>  <r_glide_ring_energy>  (1) 
1.6720993256358943

>  <r_i_docking_score>  (1) 
-3.7002850619870018

>  <r_i_glide_ecoul>  (1) 
4.0550016591678846

>  <r_i_glide_eff_state_penalty>  (1) 
0.89739716821728555

>  <r_i_glide_einternal>  (1) 
100.8937182242984

>  <r_i_glide_emodel>  (1) 
33.501941690818768

>  <r_i_glide_emodel_strain>  (1) 
7.7669357324174655

>  <r_i_glide_energy>  (1) 
-17.501000832182164

>  <r_i_glide_erotb>  (1) 
0.47112220270256994

>  <r_i_glide_esite>  (1) 
-0.014379562097787846

>  <r_i_glide_evdw>  (1) 
-21.55600249135005

>  <r_i_glide_gscore>  (1) 
-4.5976822302042875

>  <r_i_glide_gscore_strain>  (1) 
0.94173393310436637

>  <r_i_glide_hbond>  (1) 
-0.32000000000000001

>  <r_i_glide_ligand_efficiency>  (1) 
-0.097375922683868466

>  <r_i_glide_ligand_efficiency_ln>  (1) 
-0.79789031072261873

>  <r_i_glide_ligand_efficiency_sa>  (1) 
-0.32737545727752315

>  <r_i_glide_lipo>  (1) 
-3.8185701987863663

>  <r_i_glide_metal>  (1) 
-0

>  <r_i_glide_rewards>  (1) 
-1.3880387294347485

>  <r_lp_Energy>  (1) 
34.086382999999998

>  <s_epik_Chemistry_Notes>  (1) 
This compound has an imine and may undergo hydrolysis. This compound contains an acetal/aminal-like group ( X-CH(R)-Y where X, Y are N, S, or O) that may be acid/base labile, releasing an aldehyde.

>  <s_epik_cmdline>  (1) 
J2VwaWtfcHl0aG9uJywgJy1waHQnLCAnMS4wJywgJy1waCcsICc3LjQnLCAnLXRuJywgJzgnLCAnLW1hJywgJzUwMCcsICctaW1hZScsICc8aW5maWxlLm1hZT4nLCAnLW9tYWUnLCAnPG91dGZpbGUubWFlPic=

>  <s_epik_input>  (1) 
RkMxPUMoRilOKFtDSDJdUzEpW0NIMl1bQ0gyXVtDQEhdMltOSF1bQ0gyXVtDSDJdW0NIMl1OMltDQEBIXTNbQ0gyXVtDQEBIXTNbQ0BASF0oW09IXSlbQ0gyXVtDQEBdKFtDSDNdKShbT0hdKVtDQEBIXShbQ0BASF0oW09IXSlbQ0hdKFtDSDNdKVtDSDNdKVtDQEhdKFM0KVtDQEBIXShbQ0BASF00NSlbQ0gyXVtDSDJdW0NIMl1bQ0gyXTU=

>  <s_glide_docking_method>  (1) 
confgen

>  <s_i_glide_gridfile>  (1) 
gpcr_5ht2c_6bqh_protein_autoprepared_prepared

>  <s_lp_Force_Field>  (1) 
S-OPLS

>  <s_lp_Variant>  (1) 
DiffSBDD_29_num_sample_100-4

>  <s_m_source_file>  (1) 
generated__ligand_DiffSBDD_2026-05-06_prepared.sdf

>  <GenAI_Model>  (1) 
DiffSBDD

>  <Protein>  (1) 
GPCR_5HT2C

$$$$
DiffSBDD_31_num_sample_100
     RDKit          3D

  0  0  0  0  0  0  0  0  0  0999 V3000
M  V30 BEGIN CTAB
M  V30 COUNTS 22 22 0 0 1
M  V30 BEGIN ATOM
M  V30 1 O 36.831361 31.621428 61.853496 0
M  V30 2 C 37.147235 30.986970 59.578100 0 CFG=1
M  V30 3 C 37.738100 30.007084 57.236876 0
M  V30 4 O 36.667498 32.207664 59.053499 0
M  V30 5 C 37.983971 30.878775 54.731719 0 CFG=2
M  V30 6 O 38.875900 30.993202 61.231603 0 CHG=-1
M  V30 7 C 37.935992 31.125877 56.224842 0 CFG=2
M  V30 8 C 38.223451 30.381966 58.647540 0
M  V30 9 C 37.664671 31.221454 61.010341 0
M  V30 10 S 37.867625 29.187508 54.063334 0
M  V30 11 C 39.236628 31.281342 55.481659 0
M  V30 12 H 36.303914 30.299432 59.646054 0
M  V30 13 H 38.296280 29.133767 56.901974 0
M  V30 14 H 36.687507 29.715411 57.256598 0
M  V30 15 H 36.218388 32.021927 58.216671 0
M  V30 16 H 37.505010 31.631813 54.110506 0
M  V30 17 H 37.467408 32.062770 56.516740 0
M  V30 18 H 39.068742 31.061423 58.569454 0
M  V30 19 H 38.603758 29.472961 59.115470 0
M  V30 20 H 36.610507 28.943248 54.441639 0
M  V30 21 H 39.607335 32.295201 55.344881 0
M  V30 22 H 39.999685 30.522177 55.638097 0
M  V30 END ATOM
M  V30 BEGIN BOND
M  V30 1 1 4 2
M  V30 2 1 7 3
M  V30 3 1 7 5
M  V30 4 1 8 2
M  V30 5 1 8 3
M  V30 6 2 9 1
M  V30 7 1 9 2
M  V30 8 1 9 6
M  V30 9 1 10 5
M  V30 10 1 11 5
M  V30 11 1 11 7
M  V30 12 1 2 12 CFG=1
M  V30 13 1 13 3
M  V30 14 1 14 3
M  V30 15 1 15 4
M  V30 16 1 5 16 CFG=3
M  V30 17 1 7 17 CFG=3
M  V30 18 1 18 8
M  V30 19 1 19 8
M  V30 20 1 20 10
M  V30 21 1 21 11
M  V30 22 1 22 11
M  V30 END BOND
M  V30 END CTAB
M  END
>  <i_epik_Tot_Q>  (1) 
-1

>  <i_epik_Tot_abs_Q>  (1) 
1

>  <i_i_glide_confnum>  (1) 
24

>  <i_i_glide_lignum>  (1) 
85

>  <i_i_glide_posenum>  (1) 
367

>  <i_i_glide_rotatable_bonds>  (1) 
6

>  <i_lp_mmshare_version>  (1) 
72125

>  <i_m_source_file_index>  (1) 
32

>  <i_f3d_flags>  (1) 
0

>  <num_sample>  (1) 
100

>  <b_lp_Chiralities_Consistent>  (1) 
1

>  <r_epik_Charging_Adjusted_Penalty>  (1) 
0.00018608046313999227

>  <r_epik_Ionization_Penalty>  (1) 
0.0019748008794804291

>  <r_epik_Ionization_Penalty_Charging>  (1) 
0.00018608046313999227

>  <r_epik_Ionization_Penalty_Neutral>  (1) 
0.0017887204163404367

>  <r_epik_State_Penalty>  (1) 
-0

>  <r_glide_ring_energy>  (1) 
0

>  <r_i_docking_score>  (1) 
-3.6890180503134697

>  <r_i_glide_ecoul>  (1) 
-8.6097025438388712

>  <r_i_glide_eff_state_penalty>  (1) 
-0

>  <r_i_glide_einternal>  (1) 
5.2410594387938358

>  <r_i_glide_emodel>  (1) 
-24.236190070069725

>  <r_i_glide_emodel_strain>  (1) 
0.25689703950852838

>  <r_i_glide_energy>  (1) 
-21.802576558755014

>  <r_i_glide_erotb>  (1) 
1.524023084200782

>  <r_i_glide_esite>  (1) 
0

>  <r_i_glide_evdw>  (1) 
-13.192874014916143

>  <r_i_glide_gscore>  (1) 
-3.6890180503134697

>  <r_i_glide_gscore_strain>  (1) 
0

>  <r_i_glide_hbond>  (1) 
-0.32000000000000001

>  <r_i_glide_ligand_efficiency>  (1) 
-0.33536527730122451

>  <r_i_glide_ligand_efficiency_ln>  (1) 
-1.0856773838339466

>  <r_i_glide_ligand_efficiency_sa>  (1) 
-0.74584569978618098

>  <r_i_glide_lipo>  (1) 
-0.053838572000069154

>  <r_i_glide_metal>  (1) 
-0

>  <r_i_glide_rewards>  (1) 
-2.8881034801925449

>  <r_lp_Energy>  (1) 
14.639012999999998

>  <r_lp_tautomer_probability>  (1) 
1

>  <s_epik_cmdline>  (1) 
J2VwaWtfcHl0aG9uJywgJy1waHQnLCAnMS4wJywgJy1waCcsICc3LjQnLCAnLXRuJywgJzgnLCAnLW1hJywgJzUwMCcsICctaW1hZScsICc8aW5maWxlLm1hZT4nLCAnLW9tYWUnLCAnPG91dGZpbGUubWFlPic=

>  <s_epik_input>  (1) 
Tz1DKFtPSF0pW0NAQEhdKFtPSF0pW0NIMl1bQ0gyXVtDQEBIXShbQ0gyXTEpW0NAQEhdMVtTSF0=

>  <s_glide_docking_method>  (1) 
confgen

>  <s_i_glide_gridfile>  (1) 
gpcr_5ht2c_6bqh_protein_autoprepared_prepared

>  <s_lp_Force_Field>  (1) 
S-OPLS

>  <s_lp_Variant>  (1) 
DiffSBDD_31_num_sample_100-1

>  <s_m_source_file>  (1) 
generated__ligand_DiffSBDD_2026-05-06_prepared.sdf

>  <GenAI_Model>  (1) 
DiffSBDD

>  <Protein>  (1) 
GPCR_5HT2C

$$$$
DiffSBDD_90_num_sample_100
     RDKit          3D

  0  0  0  0  0  0  0  0  0  0999 V3000
M  V30 BEGIN CTAB
M  V30 COUNTS 85 88 0 0 1
M  V30 BEGIN ATOM
M  V30 1 C 37.872012 33.514272 56.031092 0
M  V30 2 O 39.787480 25.729801 56.018493 0
M  V30 3 F 35.481360 37.244443 60.218073 0
M  V30 4 C 39.584293 32.812032 61.734655 0 CFG=1
M  V30 5 C 38.592849 27.494441 58.223474 0 CFG=2
M  V30 6 C 40.257925 28.815527 57.204417 0 CFG=1
M  V30 7 C 39.678694 30.073910 63.122648 0
M  V30 8 C 40.160415 30.107869 55.060585 0
M  V30 9 C 40.827668 32.088755 62.347702 0
M  V30 10 N 39.849821 25.397382 57.429638 0
M  V30 11 C 35.475651 35.108239 59.060912 0
M  V30 12 C 42.096059 32.290779 61.516967 0
M  V30 13 C 38.786132 28.463158 57.117165 0
M  V30 14 C 40.997022 27.589408 57.779883 0
M  V30 15 O 37.529309 29.255218 59.486258 0
M  V30 16 N 38.189979 32.668176 57.181198 0 CFG=2 CHG=1
M  V30 17 C 40.683088 29.146163 55.829112 0
M  V30 18 F 36.377184 37.151279 58.318781 0
M  V30 19 C 37.461814 35.130598 61.188490 0 CFG=1
M  V30 20 N 38.391724 33.468015 58.475174 0
M  V30 21 C 35.513198 33.962577 60.078969 0
M  V30 22 C 39.316721 31.815751 56.783257 0
M  V30 23 O 40.677750 30.673146 62.313528 0
M  V30 24 C 41.146813 32.553294 63.788950 0
M  V30 25 C 37.496131 32.729121 54.750226 0
M  V30 26 C 37.504051 36.233176 60.135847 0
M  V30 27 C 39.029104 31.013973 55.476357 0 CFG=1
M  V30 28 C 39.879310 26.634683 58.221723 0 CFG=1
M  V30 29 C 39.889597 34.291056 61.433877 0
M  V30 30 O 39.265127 28.230835 60.423843 0 CHG=-1
M  V30 31 C 37.834753 32.843506 59.694173 0 CFG=1
M  V30 32 C 38.699121 31.948027 54.342002 0
M  V30 33 O 37.457774 26.735204 57.852246 0
M  V30 34 C 38.937387 32.096292 60.505455 0
M  V30 35 C 36.936273 33.750072 60.630848 0 CFG=1
M  V30 36 C 38.799034 35.200892 61.956943 0
M  V30 37 C 36.180856 36.447930 59.429727 0
M  V30 38 C 38.449667 28.405222 59.494553 0
M  V30 39 H 38.650964 34.240805 55.830307 0
M  V30 40 H 37.061907 34.043259 56.429674 0
M  V30 41 H 40.628245 25.421362 55.712800 0
M  V30 42 H 38.834182 32.783077 62.524274 0
M  V30 43 H 40.511391 29.606927 57.904908 0
M  V30 44 H 39.761300 28.999113 62.969584 0
M  V30 45 H 39.830671 30.262493 64.184412 0
M  V30 46 H 38.666019 30.379244 62.857653 0
M  V30 47 H 40.559879 30.265028 54.068113 0
M  V30 48 H 39.027751 24.827404 57.573449 0
M  V30 49 H 34.469642 35.269424 58.678304 0
M  V30 50 H 36.036679 34.689368 58.248818 0
M  V30 51 H 42.374164 33.326616 61.359645 0
M  V30 52 H 42.947079 31.836138 62.020978 0
M  V30 53 H 41.967605 31.822082 60.550440 0
M  V30 54 H 38.119753 29.312093 57.215589 0
M  V30 55 H 38.559794 28.014084 56.149652 0
M  V30 56 H 41.579467 27.893767 58.650015 0
M  V30 57 H 41.714512 27.136578 57.095282 0
M  V30 58 H 41.467452 28.559061 55.453204 0
M  V30 59 H 36.699467 35.459806 61.896238 0
M  V30 60 H 37.850235 34.290010 58.237399 0
M  V30 61 H 34.796422 34.109141 60.887317 0
M  V30 62 H 35.165895 33.059043 59.577131 0
M  V30 63 H 39.462207 31.203487 57.647573 0
M  V30 64 H 40.211934 32.423357 56.641359 0
M  V30 65 H 41.494164 33.585489 63.811822 0
M  V30 66 H 40.283660 32.492193 64.450020 0
M  V30 67 H 41.942576 31.946858 64.226311 0
M  V30 68 H 37.197206 33.401170 53.952176 0
M  V30 69 H 36.683213 32.016944 54.882067 0
M  V30 70 H 37.825146 37.187086 60.560495 0
M  V30 71 H 38.263351 35.945760 59.453509 0
M  V30 72 H 38.130003 30.401500 55.551052 0
M  V30 73 H 40.047856 26.304685 59.236712 0
M  V30 74 H 40.797571 34.627861 61.928590 0
M  V30 75 H 40.056296 34.460217 60.371046 0
M  V30 76 H 37.174361 32.056365 59.318729 0
M  V30 77 H 39.466685 32.673371 54.264655 0
M  V30 78 H 38.587781 31.445276 53.381047 0
M  V30 79 H 37.637152 26.415207 56.978312 0
M  V30 80 H 38.443887 31.201320 60.880478 0
M  V30 81 H 39.707966 31.713300 59.855834 0
M  V30 82 H 36.756724 33.120442 61.502575 0
M  V30 83 H 38.674606 35.053092 63.023911 0
M  V30 84 H 39.190300 36.218810 61.910599 0
M  V30 85 H 37.360344 32.098134 57.330737 0
M  V30 END ATOM
M  V30 BEGIN BOND
M  V30 1 1 9 4
M  V30 2 1 10 2
M  V30 3 1 12 9
M  V30 4 1 13 5
M  V30 5 1 13 6
M  V30 6 1 14 6
M  V30 7 1 16 1
M  V30 8 1 17 6
M  V30 9 2 17 8
M  V30 10 1 20 16
M  V30 11 1 21 11
M  V30 12 1 22 16
M  V30 13 1 23 7
M  V30 14 1 23 9
M  V30 15 1 24 9
M  V30 16 1 25 1
M  V30 17 1 26 19
M  V30 18 1 27 8
M  V30 19 1 27 22
M  V30 20 1 28 5
M  V30 21 1 28 10
M  V30 22 1 28 14
M  V30 23 1 29 4
M  V30 24 1 31 20
M  V30 25 1 32 25
M  V30 26 1 32 27
M  V30 27 1 5 33 CFG=3
M  V30 28 1 34 4
M  V30 29 1 34 31
M  V30 30 1 35 19
M  V30 31 1 35 21
M  V30 32 1 35 31
M  V30 33 1 36 19
M  V30 34 1 36 29
M  V30 35 1 37 3
M  V30 36 1 37 11
M  V30 37 1 37 18
M  V30 38 1 37 26
M  V30 39 1 38 5
M  V30 40 2 38 15
M  V30 41 1 38 30
M  V30 42 1 39 1
M  V30 43 1 40 1
M  V30 44 1 41 2
M  V30 45 1 4 42 CFG=1
M  V30 46 1 6 43 CFG=1
M  V30 47 1 44 7
M  V30 48 1 45 7
M  V30 49 1 46 7
M  V30 50 1 47 8
M  V30 51 1 48 10
M  V30 52 1 49 11
M  V30 53 1 50 11
M  V30 54 1 51 12
M  V30 55 1 52 12
M  V30 56 1 53 12
M  V30 57 1 54 13
M  V30 58 1 55 13
M  V30 59 1 56 14
M  V30 60 1 57 14
M  V30 61 1 58 17
M  V30 62 1 19 59 CFG=1
M  V30 63 1 60 20
M  V30 64 1 61 21
M  V30 65 1 62 21
M  V30 66 1 63 22
M  V30 67 1 64 22
M  V30 68 1 65 24
M  V30 69 1 66 24
M  V30 70 1 67 24
M  V30 71 1 68 25
M  V30 72 1 69 25
M  V30 73 1 70 26
M  V30 74 1 71 26
M  V30 75 1 27 72 CFG=1
M  V30 76 1 28 73 CFG=1
M  V30 77 1 74 29
M  V30 78 1 75 29
M  V30 79 1 31 76 CFG=3
M  V30 80 1 77 32
M  V30 81 1 78 32
M  V30 82 1 79 33
M  V30 83 1 80 34
M  V30 84 1 81 34
M  V30 85 1 35 82 CFG=1
M  V30 86 1 83 36
M  V30 87 1 84 36
M  V30 88 1 16 85 CFG=1
M  V30 END BOND
M  V30 END CTAB
M  END
>  <i_epik_Tot_Q>  (1) 
0

>  <i_epik_Tot_abs_Q>  (1) 
2

>  <i_i_glide_confnum>  (1) 
863

>  <i_i_glide_lignum>  (1) 
242

>  <i_i_glide_posenum>  (1) 
392

>  <i_i_glide_rotatable_bonds>  (1) 
10

>  <i_lp_mmshare_version>  (1) 
72125

>  <i_m_source_file_index>  (1) 
91

>  <i_f3d_flags>  (1) 
0

>  <num_sample>  (1) 
100

>  <b_lp_Chiralities_Consistent>  (1) 
1

>  <r_epik_Charging_Adjusted_Penalty>  (1) 
1.5083745474312953

>  <r_epik_Ionization_Penalty>  (1) 
0.65750586125956467

>  <r_epik_Ionization_Penalty_Charging>  (1) 
0.6544614066189578

>  <r_epik_Ionization_Penalty_Neutral>  (1) 
0.0030444546406068235

>  <r_epik_State_Penalty>  (1) 
0.8539131408123376

>  <r_glide_ring_energy>  (1) 
0.76850257944793787

>  <r_i_docking_score>  (1) 
-3.6761294824965041

>  <r_i_glide_ecoul>  (1) 
-5.923846405523709

>  <r_i_glide_eff_state_penalty>  (1) 
0.8539131408123376

>  <r_i_glide_einternal>  (1) 
8.6436927174117919

>  <r_i_glide_emodel>  (1) 
-2.0143797832239851

>  <r_i_glide_emodel_strain>  (1) 
0.46959619142485565

>  <r_i_glide_energy>  (1) 
-3.2580612417428347

>  <r_i_glide_erotb>  (1) 
0.42002339013477186

>  <r_i_glide_esite>  (1) 
-0.11364158871697452

>  <r_i_glide_evdw>  (1) 
2.6657851637808743

>  <r_i_glide_gscore>  (1) 
-4.5300426233088418

>  <r_i_glide_gscore_strain>  (1) 
0

>  <r_i_glide_hbond>  (1) 
-0.17526884260235809

>  <r_i_glide_ligand_efficiency>  (1) 
-0.096740249539381692

>  <r_i_glide_ligand_efficiency_ln>  (1) 
-0.79268165719931183

>  <r_i_glide_ligand_efficiency_sa>  (1) 
-0.32523833979899602

>  <r_i_glide_lipo>  (1) 
-2.8019822831567338

>  <r_i_glide_metal>  (1) 
-0

>  <r_i_glide_rewards>  (1) 
-1.1038855963280345

>  <r_lp_Energy>  (1) 
47.513490999999995

>  <s_epik_Chemistry_Notes>  (1) 
This compound has a N-S or N-O group and may undergo hydrolysis at high or low pH.

>  <s_epik_cmdline>  (1) 
J2VwaWtfcHl0aG9uJywgJy1waHQnLCAnMS4wJywgJy1waCcsICc3LjQnLCAnLXRuJywgJzgnLCAnLW1hJywgJzUwMCcsICctaW1hZScsICc8aW5maWxlLm1hZT4nLCAnLW9tYWUnLCAnPG91dGZpbGUubWFlPic=

>  <s_epik_input>  (1) 
RkMoRikoW0NIMl0xKVtDSDJdW0NIMl1bQ0BIXShbQ0BASF0xMilbQ0BIXShbQ0gyXVtDQEhdKFtDSDJdW0NIMl0yKUMoW0NIM10pKFtDSDNdKU9bQ0gzXSlbTkhdTjNbQ0gyXVtDSDJdW0NIMl1bQ0BIXShbQ0gyXTMpL1tDSF09W0NIXVxbQ0BASF0oW0NIMl1bQ0BdNChbT0hdKUMoPU8pW09IXSlbQ0gyXVtDQEBIXTRbTkhdW09IXQ==

>  <s_glide_docking_method>  (1) 
confgen

>  <s_i_glide_gridfile>  (1) 
gpcr_5ht2c_6bqh_protein_autoprepared_prepared

>  <s_lp_Force_Field>  (1) 
S-OPLS

>  <s_lp_Variant>  (1) 
DiffSBDD_90_num_sample_100-14

>  <s_m_source_file>  (1) 
generated__ligand_DiffSBDD_2026-05-06_prepared.sdf

>  <GenAI_Model>  (1) 
DiffSBDD

>  <Protein>  (1) 
GPCR_5HT2C

$$$$
DiffSBDD_45_num_sample_100
     RDKit          3D

  0  0  0  0  0  0  0  0  0  0999 V3000
M  V30 BEGIN CTAB
M  V30 COUNTS 30 30 0 0 1
M  V30 BEGIN ATOM
M  V30 1 O 36.371308 31.588979 59.453537 0
M  V30 2 C 37.657761 31.172758 59.062863 0
M  V30 3 C 37.534002 29.786635 58.425065 0
M  V30 4 C 40.242682 30.015709 51.257500 0
M  V30 5 C 38.763523 28.251042 52.876809 0
M  V30 6 S 37.862636 27.139343 53.898748 0
M  V30 7 C 39.875648 28.745682 50.768167 0
M  V30 8 C 39.864095 30.405472 52.557284 0
M  V30 9 C 39.804126 27.480394 56.248428 0
M  V30 10 C 39.137799 27.861660 51.578591 0
M  V30 11 C 39.117377 29.524464 53.366751 0
M  V30 12 C 38.641191 27.903772 57.155089 0
M  V30 13 S 39.289181 26.216404 55.051661 0
M  V30 14 C 38.847228 29.269550 57.823802 0
M  V30 15 H 35.860172 31.684132 58.653547 0
M  V30 16 H 38.063429 31.897217 58.355978 0
M  V30 17 H 38.316574 31.147808 59.931268 0
M  V30 18 H 37.174862 29.079279 59.171860 0
M  V30 19 H 36.773018 29.822779 57.642306 0
M  V30 20 H 40.814115 30.690863 50.636165 0
M  V30 21 H 40.165852 28.448495 49.776823 0
M  V30 22 H 40.143057 31.378022 52.931849 0
M  V30 23 H 40.190278 28.333854 55.692586 0
M  V30 24 H 40.634671 27.098895 56.842476 0
M  V30 25 H 38.864077 26.884824 51.205157 0
M  V30 26 H 38.826120 29.821718 54.363502 0
M  V30 27 H 38.462466 27.136182 57.909659 0
M  V30 28 H 37.726961 27.957767 56.566346 0
M  V30 29 H 39.202699 29.991485 57.084715 0
M  V30 30 H 39.620578 29.199256 58.591073 0
M  V30 END ATOM
M  V30 BEGIN BOND
M  V30 1 1 2 1
M  V30 2 1 3 2
M  V30 3 1 6 5
M  V30 4 2 7 4
M  V30 5 1 8 4
M  V30 6 2 10 5
M  V30 7 1 10 7
M  V30 8 1 11 5
M  V30 9 2 11 8
M  V30 10 1 12 9
M  V30 11 1 13 6
M  V30 12 1 13 9
M  V30 13 1 14 3
M  V30 14 1 14 12
M  V30 15 1 15 1
M  V30 16 1 16 2
M  V30 17 1 17 2
M  V30 18 1 18 3
M  V30 19 1 19 3
M  V30 20 1 20 4
M  V30 21 1 21 7
M  V30 22 1 22 8
M  V30 23 1 23 9
M  V30 24 1 24 9
M  V30 25 1 25 10
M  V30 26 1 26 11
M  V30 27 1 27 12
M  V30 28 1 28 12
M  V30 29 1 29 14
M  V30 30 1 30 14
M  V30 END BOND
M  V30 END CTAB
M  END
>  <i_epik_Tot_Q>  (1) 
0

>  <i_epik_Tot_abs_Q>  (1) 
0

>  <i_i_glide_confnum>  (1) 
58

>  <i_i_glide_lignum>  (1) 
124

>  <i_i_glide_posenum>  (1) 
43

>  <i_i_glide_rotatable_bonds>  (1) 
8

>  <i_lp_mmshare_version>  (1) 
72125

>  <i_m_source_file_index>  (1) 
46

>  <i_f3d_flags>  (1) 
0

>  <num_sample>  (1) 
100

>  <b_lp_Chiralities_Consistent>  (1) 
1

>  <r_epik_Charging_Adjusted_Penalty>  (1) 
0

>  <r_epik_Ionization_Penalty>  (1) 
2.3568832338971596e-07

>  <r_epik_Ionization_Penalty_Charging>  (1) 
0

>  <r_epik_Ionization_Penalty_Neutral>  (1) 
2.3568832338971596e-07

>  <r_epik_State_Penalty>  (1) 
-0

>  <r_glide_ring_energy>  (1) 
0

>  <r_i_docking_score>  (1) 
-3.6749894472491809

>  <r_i_glide_ecoul>  (1) 
-4.3816065085815774

>  <r_i_glide_eff_state_penalty>  (1) 
-0

>  <r_i_glide_einternal>  (1) 
3.5157806592657268

>  <r_i_glide_emodel>  (1) 
-40.008215593593086

>  <r_i_glide_emodel_strain>  (1) 
0.21168538669617609

>  <r_i_glide_energy>  (1) 
-33.741942835575138

>  <r_i_glide_erotb>  (1) 
3.9203098885211913

>  <r_i_glide_esite>  (1) 
0

>  <r_i_glide_evdw>  (1) 
-29.360336326993561

>  <r_i_glide_gscore>  (1) 
-3.6749894472491809

>  <r_i_glide_gscore_strain>  (1) 
0

>  <r_i_glide_hbond>  (1) 
-0.16

>  <r_i_glide_ligand_efficiency>  (1) 
-0.26249924623208437

>  <r_i_glide_ligand_efficiency_ln>  (1) 
-1.0098740180160122

>  <r_i_glide_ligand_efficiency_sa>  (1) 
-0.632660527658087

>  <r_i_glide_lipo>  (1) 
-2.9212778083105753

>  <r_i_glide_metal>  (1) 
-0

>  <r_i_glide_rewards>  (1) 
-2.388763734822883

>  <r_lp_Energy>  (1) 
5.2512449999999999

>  <r_lp_tautomer_probability>  (1) 
1

>  <s_epik_cmdline>  (1) 
J2VwaWtfcHl0aG9uJywgJy1waHQnLCAnMS4wJywgJy1waCcsICc3LjQnLCAnLXRuJywgJzgnLCAnLW1hJywgJzUwMCcsICctaW1hZScsICc8aW5maWxlLm1hZT4nLCAnLW9tYWUnLCAnPG91dGZpbGUubWFlPic=

>  <s_epik_input>  (1) 
W09IXVtDSDJdW0NIMl1bQ0gyXVtDSDJdW0NIMl1TU2MxW2NIXVtjSF1bY0hdW2NIXVtjSF0x

>  <s_glide_docking_method>  (1) 
confgen

>  <s_i_glide_gridfile>  (1) 
gpcr_5ht2c_6bqh_protein_autoprepared_prepared

>  <s_lp_Force_Field>  (1) 
S-OPLS

>  <s_lp_Variant>  (1) 
DiffSBDD_45_num_sample_100-1

>  <s_m_source_file>  (1) 
generated__ligand_DiffSBDD_2026-05-06_prepared.sdf

>  <GenAI_Model>  (1) 
DiffSBDD

>  <Protein>  (1) 
GPCR_5HT2C

$$$$
DiffSBDD_30_num_sample_100
     RDKit          3D

  0  0  0  0  0  0  0  0  0  0999 V3000
M  V30 BEGIN CTAB
M  V30 COUNTS 70 73 0 0 1
M  V30 BEGIN ATOM
M  V30 1 C 45.306866 32.821432 66.511754 0
M  V30 2 C 40.904013 30.964976 65.859519 0 CFG=1
M  V30 3 O 45.149014 30.684499 65.453484 0
M  V30 4 C 38.345304 30.416231 57.432640 0
M  V30 5 C 38.383029 31.005080 56.156773 0
M  V30 6 N 42.634053 33.355694 65.846031 0
M  V30 7 C 38.267432 33.218693 57.172517 0
M  V30 8 C 43.057237 31.956010 65.595975 0 CFG=1
M  V30 9 O 40.943113 29.487150 62.581475 0
M  V30 10 O 39.067404 29.621429 66.653511 0
M  V30 11 C 35.636758 33.304103 59.464117 0
M  V30 12 C 40.257659 29.896733 66.748603 0
M  V30 13 C 41.157660 29.196221 67.772427 0
M  V30 14 C 35.078869 31.956812 59.853768 0
M  V30 15 C 37.540669 34.888159 59.827804 0 CFG=2
M  V30 16 C 41.507564 35.259158 62.917124 0
M  V30 17 N 41.962729 35.130328 64.324420 0 CHG=1
M  V30 18 C 34.354534 33.221433 60.253547 0
M  V30 19 C 39.505493 35.143905 61.305816 0 CFG=1
M  V30 20 C 38.344082 32.403846 56.026617 0
M  V30 21 C 38.105287 35.701800 60.979102 0
M  V30 22 N 36.818766 33.697936 60.267282 0 CFG=2 CHG=1
M  V30 23 C 38.272135 31.224127 58.583856 0
M  V30 24 C 41.568985 33.857512 64.967659 0
M  V30 25 C 38.233598 32.639370 58.463167 0
M  V30 26 C 39.981874 35.411612 62.752175 0
M  V30 27 C 41.206446 29.580787 63.960110 0
M  V30 28 C 44.428981 31.606139 66.245107 0 CFG=2
M  V30 29 C 38.146144 33.517944 59.690677 0 CFG=1
M  V30 30 O 38.240487 30.636848 59.818180 0
M  V30 31 S 39.462579 33.361345 60.932411 0
M  V30 32 O 42.243950 31.011485 66.205310 0
M  V30 33 O 40.649880 30.746615 64.493553 0
M  V30 34 H 44.861122 33.460683 67.273268 0
M  V30 35 H 46.267398 32.508645 66.906333 0
M  V30 36 H 45.467438 33.408433 65.609698 0
M  V30 37 H 40.433157 31.906337 66.129588 0
M  V30 38 H 45.920058 30.396365 65.925853 0
M  V30 39 H 38.373292 29.340965 57.529919 0
M  V30 40 H 38.438316 30.382056 55.275963 0
M  V30 41 H 42.379729 33.463991 66.824097 0
M  V30 42 H 38.232016 34.291470 57.061409 0
M  V30 43 H 43.088350 31.770626 64.520818 0
M  V30 44 H 40.046217 29.199840 62.487204 0
M  V30 45 H 35.616086 33.625388 58.424610 0
M  V30 46 H 41.902489 29.875671 68.185120 0
M  V30 47 H 40.594457 28.821520 68.618737 0
M  V30 48 H 41.674519 28.359034 67.304632 0
M  V30 49 H 34.655552 31.354365 59.053502 0
M  V30 50 H 35.581756 31.393663 60.637620 0
M  V30 51 H 37.030782 35.388144 59.005282 0
M  V30 52 H 41.866690 34.391008 62.362479 0
M  V30 53 H 41.996821 36.126769 62.476229 0
M  V30 54 H 42.972343 35.157914 64.316587 0
M  V30 55 H 34.377729 33.503948 61.304180 0
M  V30 56 H 33.426524 33.447293 59.730988 0
M  V30 57 H 40.207170 35.596757 60.602522 0
M  V30 58 H 38.367633 32.854542 55.045133 0
M  V30 59 H 37.437194 35.638683 61.839547 0
M  V30 60 H 38.167361 36.753001 60.692844 0
M  V30 61 H 40.656467 34.020709 65.537037 0
M  V30 62 H 41.336004 33.127989 64.191204 0
M  V30 63 H 39.692232 36.417159 63.062131 0
M  V30 64 H 39.467372 34.724972 63.419573 0
M  V30 65 H 42.290945 29.577735 64.081641 0
M  V30 66 H 40.794401 28.681852 64.422023 0
M  V30 67 H 44.251568 31.131470 67.212709 0
M  V30 68 H 38.649097 31.154584 60.493829 0
M  V30 69 H 41.638524 35.921407 64.866334 0
M  V30 70 H 36.777938 33.570492 61.267081 0
M  V30 END ATOM
M  V30 BEGIN BOND
M  V30 1 1 5 4
M  V30 2 1 8 6
M  V30 3 1 12 2
M  V30 4 2 12 10
M  V30 5 1 13 12
M  V30 6 1 14 11
M  V30 7 1 17 16
M  V30 8 1 18 11
M  V30 9 1 18 14
M  V30 10 2 20 5
M  V30 11 1 20 7
M  V30 12 1 21 15
M  V30 13 1 21 19
M  V30 14 1 22 11
M  V30 15 1 22 15
M  V30 16 2 23 4
M  V30 17 1 24 6
M  V30 18 1 24 17
M  V30 19 2 25 7
M  V30 20 1 25 23
M  V30 21 1 26 16
M  V30 22 1 26 19
M  V30 23 1 27 9
M  V30 24 1 28 1
M  V30 25 1 28 3
M  V30 26 1 28 8
M  V30 27 1 29 15
M  V30 28 1 29 22
M  V30 29 1 29 25 CFG=3
M  V30 30 1 30 23
M  V30 31 1 31 19
M  V30 32 1 31 29
M  V30 33 1 32 2
M  V30 34 1 32 8
M  V30 35 1 33 2
M  V30 36 1 33 27
M  V30 37 1 34 1
M  V30 38 1 35 1
M  V30 39 1 36 1
M  V30 40 1 2 37 CFG=1
M  V30 41 1 38 3
M  V30 42 1 39 4
M  V30 43 1 40 5
M  V30 44 1 41 6
M  V30 45 1 42 7
M  V30 46 1 8 43 CFG=3
M  V30 47 1 44 9
M  V30 48 1 45 11
M  V30 49 1 46 13
M  V30 50 1 47 13
M  V30 51 1 48 13
M  V30 52 1 49 14
M  V30 53 1 50 14
M  V30 54 1 15 51 CFG=3
M  V30 55 1 52 16
M  V30 56 1 53 16
M  V30 57 1 54 17
M  V30 58 1 55 18
M  V30 59 1 56 18
M  V30 60 1 19 57 CFG=3
M  V30 61 1 58 20
M  V30 62 1 59 21
M  V30 63 1 60 21
M  V30 64 1 61 24
M  V30 65 1 62 24
M  V30 66 1 63 26
M  V30 67 1 64 26
M  V30 68 1 65 27
M  V30 69 1 66 27
M  V30 70 1 28 67 CFG=1
M  V30 71 1 68 30
M  V30 72 1 69 17
M  V30 73 1 22 70 CFG=1
M  V30 END BOND
M  V30 END CTAB
M  END
>  <i_epik_Tot_Q>  (1) 
2

>  <i_epik_Tot_abs_Q>  (1) 
2

>  <i_i_glide_confnum>  (1) 
4886

>  <i_i_glide_lignum>  (1) 
82

>  <i_i_glide_posenum>  (1) 
359

>  <i_i_glide_rotatable_bonds>  (1) 
17

>  <i_lp_mmshare_version>  (1) 
72125

>  <i_m_source_file_index>  (1) 
31

>  <i_f3d_flags>  (1) 
0

>  <num_sample>  (1) 
100

>  <b_lp_Chiralities_Consistent>  (1) 
1

>  <r_epik_Charging_Adjusted_Penalty>  (1) 
1.979093595035226

>  <r_epik_Ionization_Penalty>  (1) 
0.79989620662071081

>  <r_epik_Ionization_Penalty_Charging>  (1) 
0.66086891892205935

>  <r_epik_Ionization_Penalty_Neutral>  (1) 
0.13902728769865147

>  <r_epik_State_Penalty>  (1) 
1.3182246761131666

>  <r_glide_ring_energy>  (1) 
0

>  <r_i_docking_score>  (1) 
-3.6308659219111115

>  <r_i_glide_ecoul>  (1) 
-5.0249423737184244

>  <r_i_glide_eff_state_penalty>  (1) 
1.3182246761131666

>  <r_i_glide_einternal>  (1) 
10.884288333247248

>  <r_i_glide_emodel>  (1) 
-57.350740091310357

>  <r_i_glide_emodel_strain>  (1) 
2.4336110042187755

>  <r_i_glide_energy>  (1) 
-47.603984029022648

>  <r_i_glide_erotb>  (1) 
1.1283805066766976

>  <r_i_glide_esite>  (1) 
-0.011000747839379762

>  <r_i_glide_evdw>  (1) 
-42.579041655304223

>  <r_i_glide_gscore>  (1) 
-4.9490905980242781

>  <r_i_glide_gscore_strain>  (1) 
0

>  <r_i_glide_hbond>  (1) 
-0.13738375806744527

>  <r_i_glide_ligand_efficiency>  (1) 
-0.11002624005791246

>  <r_i_glide_ligand_efficiency_ln>  (1) 
-0.80748578141542138

>  <r_i_glide_ligand_efficiency_sa>  (1) 
-0.35291294218611624

>  <r_i_glide_lipo>  (1) 
-1.4435582019015509

>  <r_i_glide_metal>  (1) 
-0

>  <r_i_glide_rewards>  (1) 
-1.6028349580696251

>  <r_lp_Energy>  (1) 
33.25723

>  <r_lp_tautomer_probability>  (1) 
0.99999996999736518

>  <s_epik_Chemistry_Notes>  (1) 
This compound contains an acetal/aminal-like group ( X-CH(R)-Y where X, Y are N, S, or O) that may be acid/base labile, releasing an aldehyde.

>  <s_epik_cmdline>  (1) 
J2VwaWtfcHl0aG9uJywgJy1waHQnLCAnMS4wJywgJy1waCcsICc3LjQnLCAnLXRuJywgJzgnLCAnLW1hJywgJzUwMCcsICctaW1hZScsICc8aW5maWxlLm1hZT4nLCAnLW9tYWUnLCAnPG91dGZpbGUubWFlPic=

>  <s_epik_input>  (1) 
W09IXVtDSDJdT1tDQEBIXShDKD1PKVtDSDNdKU9bQ0BIXShbQ0BIXShbQ0gzXSlbT0hdKVtOSF1bQ0gyXVtOSF1bQ0gyXVtDSDJdW0NAQEhdKFMxKVtDSDJdW0NASF0oTjJbQ0hdM1tDSDJdW0NIMl0zKVtDQEBdMTJjNFtjSF1bY0hdW2NIXVtjSF1jNFtPSF0=

>  <s_glide_docking_method>  (1) 
confgen

>  <s_i_glide_gridfile>  (1) 
gpcr_5ht2c_6bqh_protein_autoprepared_prepared

>  <s_lp_Force_Field>  (1) 
S-OPLS

>  <s_lp_Variant>  (1) 
DiffSBDD_30_num_sample_100-4

>  <s_m_source_file>  (1) 
generated__ligand_DiffSBDD_2026-05-06_prepared.sdf

>  <GenAI_Model>  (1) 
DiffSBDD

>  <Protein>  (1) 
GPCR_5HT2C

$$$$
DiffSBDD_34_num_sample_100
     RDKit          3D

  0  0  0  0  0  0  0  0  0  0999 V3000
M  V30 BEGIN CTAB
M  V30 COUNTS 20 19 0 0 1
M  V30 BEGIN ATOM
M  V30 1 O 37.242746 25.221594 55.359027 0 CHG=-1
M  V30 2 C 39.086862 27.156199 53.657563 0
M  V30 3 O 38.257859 24.421544 57.170946 0
M  V30 4 C 38.146398 25.229097 56.223344 0
M  V30 5 C 39.001542 28.403623 52.763544 0
M  V30 6 C 39.217860 26.323962 56.118782 0
M  V30 7 C 38.886188 27.483338 55.149445 0
M  V30 8 S 39.467387 28.021451 51.053508 0
M  V30 9 C 39.910400 29.668946 50.442517 0
M  V30 10 H 38.351421 26.421452 53.328595 0
M  V30 11 H 40.062686 26.688259 53.524745 0
M  V30 12 H 39.671900 29.178078 53.137428 0
M  V30 13 H 37.994603 28.821977 52.776815 0
M  V30 14 H 40.168186 25.861053 55.851013 0
M  V30 15 H 39.351260 26.732760 57.120781 0
M  V30 16 H 39.532499 28.322101 55.409655 0
M  V30 17 H 37.867541 27.835770 55.317516 0
M  V30 18 H 40.199846 29.611792 49.393311 0
M  V30 19 H 40.747475 30.076984 51.009421 0
M  V30 20 H 39.067424 30.351552 50.526209 0
M  V30 END ATOM
M  V30 BEGIN BOND
M  V30 1 1 4 1
M  V30 2 2 4 3
M  V30 3 1 5 2
M  V30 4 1 6 4
M  V30 5 1 7 2
M  V30 6 1 7 6
M  V30 7 1 8 5
M  V30 8 1 9 8
M  V30 9 1 10 2
M  V30 10 1 11 2
M  V30 11 1 12 5
M  V30 12 1 13 5
M  V30 13 1 14 6
M  V30 14 1 15 6
M  V30 15 1 16 7
M  V30 16 1 17 7
M  V30 17 1 18 9
M  V30 18 1 19 9
M  V30 19 1 20 9
M  V30 END BOND
M  V30 END CTAB
M  END
>  <i_epik_Tot_Q>  (1) 
-1

>  <i_epik_Tot_abs_Q>  (1) 
1

>  <i_i_glide_confnum>  (1) 
20

>  <i_i_glide_lignum>  (1) 
89

>  <i_i_glide_posenum>  (1) 
172

>  <i_i_glide_rotatable_bonds>  (1) 
5

>  <i_lp_mmshare_version>  (1) 
72125

>  <i_m_source_file_index>  (1) 
35

>  <i_f3d_flags>  (1) 
0

>  <num_sample>  (1) 
100

>  <b_lp_Chiralities_Consistent>  (1) 
1

>  <r_epik_Charging_Adjusted_Penalty>  (1) 
0.0016234785268329083

>  <r_epik_Ionization_Penalty>  (1) 
0.0016234785268329083

>  <r_epik_Ionization_Penalty_Charging>  (1) 
0.0016234785268329083

>  <r_epik_Ionization_Penalty_Neutral>  (1) 
0

>  <r_epik_State_Penalty>  (1) 
-0

>  <r_glide_ring_energy>  (1) 
0

>  <r_i_docking_score>  (1) 
-3.6297472421380923

>  <r_i_glide_ecoul>  (1) 
0.016861805241642991

>  <r_i_glide_eff_state_penalty>  (1) 
-0

>  <r_i_glide_einternal>  (1) 
1.5033045880991764

>  <r_i_glide_emodel>  (1) 
-23.249825995486535

>  <r_i_glide_emodel_strain>  (1) 
0.50370437263261225

>  <r_i_glide_energy>  (1) 
-19.072901496364913

>  <r_i_glide_erotb>  (1) 
2.0195253186786486

>  <r_i_glide_esite>  (1) 
0

>  <r_i_glide_evdw>  (1) 
-19.089763301606556

>  <r_i_glide_gscore>  (1) 
-3.6297472421380923

>  <r_i_glide_gscore_strain>  (1) 
0

>  <r_i_glide_hbond>  (1) 
0

>  <r_i_glide_ligand_efficiency>  (1) 
-0.40330524912645471

>  <r_i_glide_ligand_efficiency_ln>  (1) 
-1.1352806643198743

>  <r_i_glide_ligand_efficiency_sa>  (1) 
-0.83890872445985665

>  <r_i_glide_lipo>  (1) 
-1.7129706909963784

>  <r_i_glide_metal>  (1) 
-0

>  <r_i_glide_rewards>  (1) 
-2.9843429755262814

>  <r_lp_Energy>  (1) 
4.7762899999999995

>  <r_lp_tautomer_probability>  (1) 
1

>  <s_epik_cmdline>  (1) 
J2VwaWtfcHl0aG9uJywgJy1waHQnLCAnMS4wJywgJy1waCcsICc3LjQnLCAnLXRuJywgJzgnLCAnLW1hJywgJzUwMCcsICctaW1hZScsICc8aW5maWxlLm1hZT4nLCAnLW9tYWUnLCAnPG91dGZpbGUubWFlPic=

>  <s_epik_input>  (1) 
W09IXUMoPU8pW0NIMl1bQ0gyXVtDSDJdW0NIMl1TW0NIM10=

>  <s_glide_docking_method>  (1) 
confgen

>  <s_i_glide_gridfile>  (1) 
gpcr_5ht2c_6bqh_protein_autoprepared_prepared

>  <s_lp_Force_Field>  (1) 
S-OPLS

>  <s_lp_Variant>  (1) 
DiffSBDD_34_num_sample_100-1

>  <s_m_source_file>  (1) 
generated__ligand_DiffSBDD_2026-05-06_prepared.sdf

>  <GenAI_Model>  (1) 
DiffSBDD

>  <Protein>  (1) 
GPCR_5HT2C

$$$$
DiffSBDD_34_num_sample_100
     RDKit          3D

  0  0  0  0  0  0  0  0  0  0999 V3000
M  V30 BEGIN CTAB
M  V30 COUNTS 20 19 0 0 1
M  V30 BEGIN ATOM
M  V30 1 O 36.667437 24.294005 55.853537 0 CHG=-1
M  V30 2 C 38.953815 27.211854 53.642792 0
M  V30 3 O 37.849935 24.752966 57.684493 0
M  V30 4 C 37.629020 24.821427 56.455604 0
M  V30 5 C 38.291777 27.947005 52.468610 0
M  V30 6 C 38.632288 25.615138 55.613074 0
M  V30 7 C 37.961009 26.346655 54.433450 0
M  V30 8 S 39.469834 28.977035 51.547597 0
M  V30 9 C 39.725232 30.344551 52.718239 0
M  V30 10 H 39.763463 26.585158 53.266649 0
M  V30 11 H 39.409842 27.933298 54.320412 0
M  V30 12 H 37.466323 28.569629 52.814906 0
M  V30 13 H 37.868376 27.221427 51.773994 0
M  V30 14 H 39.393604 24.925447 55.247445 0
M  V30 15 H 39.138748 26.333609 56.258674 0
M  V30 16 H 37.152020 26.975262 54.807932 0
M  V30 17 H 37.495682 25.621796 53.764298 0
M  V30 18 H 40.292109 31.144878 52.242143 0
M  V30 19 H 40.271224 30.020553 53.601648 0
M  V30 20 H 38.772592 30.751164 53.053510 0
M  V30 END ATOM
M  V30 BEGIN BOND
M  V30 1 1 4 1
M  V30 2 2 4 3
M  V30 3 1 5 2
M  V30 4 1 6 4
M  V30 5 1 7 2
M  V30 6 1 7 6
M  V30 7 1 8 5
M  V30 8 1 9 8
M  V30 9 1 10 2
M  V30 10 1 11 2
M  V30 11 1 12 5
M  V30 12 1 13 5
M  V30 13 1 14 6
M  V30 14 1 15 6
M  V30 15 1 16 7
M  V30 16 1 17 7
M  V30 17 1 18 9
M  V30 18 1 19 9
M  V30 19 1 20 9
M  V30 END BOND
M  V30 END CTAB
M  END
>  <i_epik_Tot_Q>  (1) 
-1

>  <i_epik_Tot_abs_Q>  (1) 
1

>  <i_i_glide_confnum>  (1) 
16

>  <i_i_glide_lignum>  (1) 
89

>  <i_i_glide_posenum>  (1) 
64

>  <i_i_glide_rotatable_bonds>  (1) 
5

>  <i_lp_mmshare_version>  (1) 
72125

>  <i_m_source_file_index>  (1) 
35

>  <i_f3d_flags>  (1) 
0

>  <num_sample>  (1) 
100

>  <b_lp_Chiralities_Consistent>  (1) 
1

>  <r_epik_Charging_Adjusted_Penalty>  (1) 
0.0016234785268329083

>  <r_epik_Ionization_Penalty>  (1) 
0.0016234785268329083

>  <r_epik_Ionization_Penalty_Charging>  (1) 
0.0016234785268329083

>  <r_epik_Ionization_Penalty_Neutral>  (1) 
0

>  <r_epik_State_Penalty>  (1) 
-0

>  <r_glide_ring_energy>  (1) 
0

>  <r_i_docking_score>  (1) 
-3.6143376177171298

>  <r_i_glide_ecoul>  (1) 
-0.68231568839999768

>  <r_i_glide_eff_state_penalty>  (1) 
-0

>  <r_i_glide_einternal>  (1) 
2.953898795595908

>  <r_i_glide_emodel>  (1) 
-23.535573228202189

>  <r_i_glide_emodel_strain>  (1) 
0.026876334753432429

>  <r_i_glide_energy>  (1) 
-19.630179844985168

>  <r_i_glide_erotb>  (1) 
2.0195253186786486

>  <r_i_glide_esite>  (1) 
0

>  <r_i_glide_evdw>  (1) 
-18.947864156585169

>  <r_i_glide_gscore>  (1) 
-3.6143376177171298

>  <r_i_glide_gscore_strain>  (1) 
0

>  <r_i_glide_hbond>  (1) 
0

>  <r_i_glide_ligand_efficiency>  (1) 
-0.40159306863523664

>  <r_i_glide_ligand_efficiency_ln>  (1) 
-1.1304609764786775

>  <r_i_glide_ligand_efficiency_sa>  (1) 
-0.83534724551792894

>  <r_i_glide_lipo>  (1) 
-1.8841223753065202

>  <r_i_glide_metal>  (1) 
-0

>  <r_i_glide_rewards>  (1) 
-2.7000000000000002

>  <r_lp_Energy>  (1) 
4.7762899999999995

>  <r_lp_tautomer_probability>  (1) 
1

>  <s_epik_cmdline>  (1) 
J2VwaWtfcHl0aG9uJywgJy1waHQnLCAnMS4wJywgJy1waCcsICc3LjQnLCAnLXRuJywgJzgnLCAnLW1hJywgJzUwMCcsICctaW1hZScsICc8aW5maWxlLm1hZT4nLCAnLW9tYWUnLCAnPG91dGZpbGUubWFlPic=

>  <s_epik_input>  (1) 
W09IXUMoPU8pW0NIMl1bQ0gyXVtDSDJdW0NIMl1TW0NIM10=

>  <s_glide_docking_method>  (1) 
confgen

>  <s_i_glide_gridfile>  (1) 
gpcr_5ht2c_6bqh_protein_autoprepared_prepared

>  <s_lp_Force_Field>  (1) 
S-OPLS

>  <s_lp_Variant>  (1) 
DiffSBDD_34_num_sample_100-1

>  <s_m_source_file>  (1) 
generated__ligand_DiffSBDD_2026-05-06_prepared.sdf

>  <GenAI_Model>  (1) 
DiffSBDD

>  <Protein>  (1) 
GPCR_5HT2C

$$$$
DiffSBDD_93_num_sample_100
     RDKit          3D

  0  0  0  0  0  0  0  0  0  0999 V3000
M  V30 BEGIN CTAB
M  V30 COUNTS 74 77 0 0 1
M  V30 BEGIN ATOM
M  V30 1 C 37.331465 33.032379 60.486005 0
M  V30 2 S 41.067427 29.221044 59.536993 0
M  V30 3 C 38.017685 35.142331 61.757085 0 CFG=2
M  V30 4 O 39.466749 27.378058 55.030776 0
M  V30 5 C 43.970354 29.600543 63.891193 0
M  V30 6 C 38.430085 28.999862 57.201300 0 CFG=1
M  V30 7 C 40.924219 29.561964 64.305053 0
M  V30 8 C 40.835413 30.639443 62.060058 0
M  V30 9 C 38.933320 35.490446 60.596805 0
M  V30 10 N 38.956688 30.513291 60.596774 0
M  V30 11 C 43.753454 28.300797 64.662799 0
M  V30 12 C 37.109855 33.952397 61.457254 0
M  V30 13 C 36.325934 31.951640 60.300152 0
M  V30 14 C 38.025103 30.138300 59.525889 0 CFG=1
M  V30 15 C 39.560044 34.220828 60.024853 0
M  V30 16 Cl 37.868232 33.621436 57.930455 0
M  V30 17 O 42.635780 26.869043 66.190268 0
M  V30 18 C 38.523676 33.203988 59.533223 0 CFG=2
M  V30 19 C 34.886726 32.244063 60.625250 0
M  V30 20 C 40.192114 27.859442 58.705751 0
M  V30 21 C 38.127099 29.286604 55.716337 0
M  V30 22 C 36.640223 30.697974 59.839157 0
M  V30 23 C 41.236381 28.150009 64.777929 0
M  V30 24 C 39.775580 28.242349 57.277672 0 CFG=1
M  V30 25 C 40.099271 29.715158 60.996732 0 CFG=1
M  V30 26 C 42.534725 28.134291 65.567567 0 CFG=2
M  V30 27 C 39.718126 26.994297 56.376729 0
M  V30 28 C 38.203171 28.006235 54.865854 0
M  V30 29 C 43.026538 30.298441 63.211292 0
M  V30 30 S 39.467528 28.339267 61.853465 0
M  V30 31 N 41.665825 30.021349 63.127075 0
M  V30 32 C 37.213830 36.371798 62.204820 0
M  V30 33 C 38.420401 30.304546 58.028412 0
M  V30 34 H 38.667151 34.835624 62.581952 0
M  V30 35 H 44.991589 29.949819 63.853830 0
M  V30 36 H 37.635618 28.348769 57.570254 0
M  V30 37 H 41.112854 30.265713 65.117699 0
M  V30 38 H 39.859258 29.653680 64.135380 0
M  V30 39 H 40.091818 31.239101 62.588013 0
M  V30 40 H 41.428413 31.378559 61.519716 0
M  V30 41 H 38.344947 36.018777 59.853495 0
M  V30 42 H 39.710445 36.176294 60.934955 0
M  V30 43 H 38.407892 30.668818 61.428961 0
M  V30 44 H 44.647272 28.171701 65.273413 0
M  V30 45 H 43.785182 27.491214 63.931326 0
M  V30 46 H 36.246086 33.849698 62.095936 0
M  V30 47 H 37.866550 29.074672 59.690081 0
M  V30 48 H 40.267403 34.427612 59.225991 0
M  V30 49 H 40.148393 33.755636 60.817031 0
M  V30 50 H 43.430782 26.844127 66.699623 0
M  V30 51 H 39.147985 32.372123 59.312160 0
M  V30 52 H 34.261503 31.735925 59.893360 0
M  V30 53 H 34.667768 31.876718 61.627711 0
M  V30 54 H 34.645591 33.306524 60.562140 0
M  V30 55 H 40.916096 27.048083 58.654644 0
M  V30 56 H 39.348660 27.473394 59.273396 0
M  V30 57 H 38.838932 30.019744 55.332126 0
M  V30 58 H 37.136981 29.733289 55.614895 0
M  V30 59 H 35.832742 29.995019 59.702686 0
M  V30 60 H 41.265385 27.445027 63.946037 0
M  V30 61 H 40.422258 27.826447 65.429478 0
M  V30 62 H 40.559047 28.881107 56.866804 0
M  V30 63 H 42.526947 28.895015 66.350863 0
M  V30 64 H 40.668449 26.461079 56.406301 0
M  V30 65 H 38.955429 26.295385 56.721319 0
M  V30 66 H 38.065676 28.248463 53.811285 0
M  V30 67 H 37.413689 27.305607 55.135770 0
M  V30 68 H 43.302630 31.173222 62.653495 0
M  V30 69 H 39.001952 28.965684 62.939519 0
M  V30 70 H 36.525524 36.134594 63.016900 0
M  V30 71 H 37.878549 37.163816 62.551763 0
M  V30 72 H 36.627631 36.773603 61.379333 0
M  V30 73 H 39.375895 30.806359 57.891645 0
M  V30 74 H 37.688237 30.967476 57.569618 0
M  V30 END ATOM
M  V30 BEGIN BOND
M  V30 1 1 9 3
M  V30 2 1 11 5
M  V30 3 2 12 1
M  V30 4 1 12 3
M  V30 5 1 13 1
M  V30 6 1 14 10
M  V30 7 1 15 9
M  V30 8 1 18 1
M  V30 9 1 18 15
M  V30 10 1 18 16
M  V30 11 1 19 13
M  V30 12 1 20 2
M  V30 13 1 21 6
M  V30 14 2 22 13
M  V30 15 1 22 14
M  V30 16 1 23 7
M  V30 17 1 24 6
M  V30 18 1 24 20
M  V30 19 1 25 2
M  V30 20 1 25 8
M  V30 21 1 25 10
M  V30 22 1 26 11
M  V30 23 1 26 17
M  V30 24 1 26 23
M  V30 25 1 27 4
M  V30 26 1 27 24
M  V30 27 1 28 4
M  V30 28 1 28 21
M  V30 29 2 29 5
M  V30 30 1 25 30 CFG=1
M  V30 31 1 31 7
M  V30 32 1 31 8
M  V30 33 1 31 29
M  V30 34 1 32 3
M  V30 35 1 33 6
M  V30 36 1 33 14
M  V30 37 1 3 34 CFG=1
M  V30 38 1 35 5
M  V30 39 1 6 36 CFG=1
M  V30 40 1 37 7
M  V30 41 1 38 7
M  V30 42 1 39 8
M  V30 43 1 40 8
M  V30 44 1 41 9
M  V30 45 1 42 9
M  V30 46 1 43 10
M  V30 47 1 44 11
M  V30 48 1 45 11
M  V30 49 1 46 12
M  V30 50 1 14 47 CFG=3
M  V30 51 1 48 15
M  V30 52 1 49 15
M  V30 53 1 50 17
M  V30 54 1 18 51 CFG=3
M  V30 55 1 52 19
M  V30 56 1 53 19
M  V30 57 1 54 19
M  V30 58 1 55 20
M  V30 59 1 56 20
M  V30 60 1 57 21
M  V30 61 1 58 21
M  V30 62 1 59 22
M  V30 63 1 60 23
M  V30 64 1 61 23
M  V30 65 1 24 62 CFG=3
M  V30 66 1 26 63 CFG=1
M  V30 67 1 64 27
M  V30 68 1 65 27
M  V30 69 1 66 28
M  V30 70 1 67 28
M  V30 71 1 68 29
M  V30 72 1 69 30
M  V30 73 1 70 32
M  V30 74 1 71 32
M  V30 75 1 72 32
M  V30 76 1 73 33
M  V30 77 1 74 33
M  V30 END BOND
M  V30 END CTAB
M  END
>  <i_epik_Tot_Q>  (1) 
0

>  <i_epik_Tot_abs_Q>  (1) 
0

>  <i_i_glide_confnum>  (1) 
176

>  <i_i_glide_lignum>  (1) 
250

>  <i_i_glide_posenum>  (1) 
165

>  <i_i_glide_rotatable_bonds>  (1) 
6

>  <i_lp_mmshare_version>  (1) 
72125

>  <i_m_source_file_index>  (1) 
94

>  <i_f3d_flags>  (1) 
0

>  <num_sample>  (1) 
100

>  <b_lp_Chiralities_Consistent>  (1) 
1

>  <r_epik_Charging_Adjusted_Penalty>  (1) 
0.20325292957253988

>  <r_epik_Ionization_Penalty>  (1) 
0.031936562948065232

>  <r_epik_Ionization_Penalty_Charging>  (1) 
3.6030848355623751e-07

>  <r_epik_Ionization_Penalty_Neutral>  (1) 
0.031936202639581676

>  <r_epik_State_Penalty>  (1) 
0.20325256926405633

>  <r_glide_ring_energy>  (1) 
0

>  <r_i_docking_score>  (1) 
-3.604902205756102

>  <r_i_glide_ecoul>  (1) 
-1.1440711881299472

>  <r_i_glide_eff_state_penalty>  (1) 
0.20325256926405633

>  <r_i_glide_einternal>  (1) 
21.972452722039879

>  <r_i_glide_emodel>  (1) 
-12.432974768612908

>  <r_i_glide_emodel_strain>  (1) 
3.8504626927321226

>  <r_i_glide_energy>  (1) 
-21.388129429154262

>  <r_i_glide_erotb>  (1) 
0.31140238833871409

>  <r_i_glide_esite>  (1) 
-0.033245217552972287

>  <r_i_glide_evdw>  (1) 
-20.244058241024316

>  <r_i_glide_gscore>  (1) 
-3.8081547750201583

>  <r_i_glide_gscore_strain>  (1) 
0

>  <r_i_glide_hbond>  (1) 
0

>  <r_i_glide_ligand_efficiency>  (1) 
-0.10923946078048793

>  <r_i_glide_ligand_efficiency_ln>  (1) 
-0.80171158537547482

>  <r_i_glide_ligand_efficiency_sa>  (1) 
-0.35038932064364775

>  <r_i_glide_lipo>  (1) 
-2.2729617693097381

>  <r_i_glide_metal>  (1) 
-0

>  <r_i_glide_rewards>  (1) 
-0.62953658622545372

>  <r_lp_Energy>  (1) 
33.420006000000001

>  <s_epik_Chemistry_Notes>  (1) 
This compound has an imine and may undergo hydrolysis.

>  <s_epik_cmdline>  (1) 
J2VwaWtfcHl0aG9uJywgJy1waHQnLCAnMS4wJywgJy1waCcsICc3LjQnLCAnLXRuJywgJzgnLCAnLW1hJywgJzUwMCcsICctaW1hZScsICc8aW5maWxlLm1hZT4nLCAnLW9tYWUnLCAnPG91dGZpbGUubWFlPic=

>  <s_epik_input>  (1) 
Q2xbQ0BIXTFbQ0gyXVtDSDJdW0NAQEhdKFtDSDNdKVtDSF09QzEvQyhbQ0gzXSk9W0NIXVxbQ0BASF0oW0NIMl0yKVtOSF1bQ0BAXShbU0hdKShTW0NIMl1bQ0BIXShbQ0BASF0yMylbQ0gyXU9bQ0gyXVtDSDJdMylbQ0gyXU4oW0NIMl1bQ0gyXTQpW0NIXT1bQ0hdW0NIMl1bQ0BASF00W09IXQ==

>  <s_glide_docking_method>  (1) 
confgen

>  <s_i_glide_gridfile>  (1) 
gpcr_5ht2c_6bqh_protein_autoprepared_prepared

>  <s_lp_Force_Field>  (1) 
S-OPLS

>  <s_lp_Variant>  (1) 
DiffSBDD_93_num_sample_100-2

>  <s_m_source_file>  (1) 
generated__ligand_DiffSBDD_2026-05-06_prepared.sdf

>  <GenAI_Model>  (1) 
DiffSBDD

>  <Protein>  (1) 
GPCR_5HT2C

$$$$
DiffSBDD_93_num_sample_100
     RDKit          3D

  0  0  0  0  0  0  0  0  0  0999 V3000
M  V30 BEGIN CTAB
M  V30 COUNTS 74 77 0 0 1
M  V30 BEGIN ATOM
M  V30 1 C 41.241300 31.065410 64.498640 0
M  V30 2 S 36.921492 31.021887 60.505556 0
M  V30 3 C 42.298628 31.714485 66.727397 0 CFG=2
M  V30 4 O 38.271624 28.276201 56.160386 0
M  V30 5 C 36.924575 36.520970 62.533279 0
M  V30 6 C 39.261630 29.349276 58.658991 0 CFG=1
M  V30 7 C 39.571944 35.069504 61.751089 0
M  V30 8 C 38.057866 33.101845 61.851322 0
M  V30 9 C 41.790029 30.375264 67.284265 0
M  V30 10 N 39.467424 31.892075 60.253534 0 CHG=1
M  V30 11 C 37.928677 37.093926 63.502392 0
M  V30 12 C 42.086156 31.842385 65.223401 0
M  V30 13 C 41.133180 31.276117 63.033344 0
M  V30 14 C 40.065199 30.628137 60.792355 0 CFG=1
M  V30 15 C 40.406010 30.057012 66.726330 0
M  V30 16 Cl 41.067567 28.354501 64.748957 0
M  V30 17 O 39.451174 38.011418 61.854078 0
M  V30 18 C 40.426369 29.965445 65.193456 0 CFG=2
M  V30 19 C 42.023972 32.313243 62.344143 0
M  V30 20 C 36.872946 30.552507 58.754478 0
M  V30 21 C 39.898052 28.128236 57.961021 0
M  V30 22 C 40.245917 30.537536 62.307466 0
M  V30 23 C 40.082716 35.909099 62.920994 0
M  V30 24 C 37.760937 29.393702 58.258108 0 CFG=1
M  V30 25 C 38.114294 32.393777 60.491957 0 CFG=1
M  V30 26 C 39.373647 37.257812 63.047382 0 CFG=2
M  V30 27 C 37.706841 29.457549 56.715397 0
M  V30 28 C 39.662481 28.162837 56.439948 0
M  V30 29 C 37.079018 35.373037 61.850253 0
M  V30 30 S 37.925475 33.596141 59.140807 0 CHG=-1
M  V30 31 N 38.204980 34.554563 61.853500 0
M  V30 32 C 43.771452 31.947116 67.096323 0
M  V30 33 C 39.534088 29.306861 60.184781 0
M  V30 34 H 41.717422 32.516826 67.183698 0
M  V30 35 H 35.991846 37.057462 62.455572 0
M  V30 36 H 39.752602 30.218200 58.227118 0
M  V30 37 H 40.250577 34.233468 61.612620 0
M  V30 38 H 39.647882 35.639298 60.825468 0
M  V30 39 H 38.744648 32.665714 62.573038 0
M  V30 40 H 37.070615 32.912714 62.272822 0
M  V30 41 H 42.480144 29.570901 67.027546 0
M  V30 42 H 41.751528 30.406598 68.373016 0
M  V30 43 H 39.478337 31.813604 59.247143 0
M  V30 44 H 37.910358 36.464327 64.391709 0
M  V30 45 H 37.489062 38.021422 63.838747 0
M  V30 46 H 42.662448 32.609545 64.733857 0
M  V30 47 H 41.081018 30.652196 60.408321 0
M  V30 48 H 40.021946 29.129085 67.154074 0
M  V30 49 H 39.712060 30.835349 67.035363 0
M  V30 50 H 38.925785 37.570761 61.201508 0
M  V30 51 H 39.390271 30.021528 64.870595 0
M  V30 52 H 41.888769 33.292739 62.802603 0
M  V30 53 H 43.067269 32.030243 62.468690 0
M  V30 54 H 41.858348 32.446449 61.279646 0
M  V30 55 H 35.833537 30.285217 58.562771 0
M  V30 56 H 37.067479 31.421878 58.144045 0
M  V30 57 H 39.478922 27.206986 58.368865 0
M  V30 58 H 40.971056 28.093970 58.156285 0
M  V30 59 H 39.617448 29.816813 62.804443 0
M  V30 60 H 41.147055 36.096394 62.773265 0
M  V30 61 H 40.008030 35.345146 63.850878 0
M  V30 62 H 37.294378 28.466249 58.586732 0
M  V30 63 H 39.878109 37.834360 63.821212 0
M  V30 64 H 36.686490 29.618826 56.364620 0
M  V30 65 H 38.257085 30.325045 56.349000 0
M  V30 66 H 40.044442 27.252188 55.976356 0
M  V30 67 H 40.199574 28.996760 55.983322 0
M  V30 68 H 36.274771 34.978852 61.244122 0
M  V30 69 H 44.110517 32.928494 66.763814 0
M  V30 70 H 43.918562 31.898547 68.176606 0
M  V30 71 H 44.419761 31.199092 66.637492 0
M  V30 72 H 38.666935 28.938293 60.725065 0
M  V30 73 H 40.291807 28.547611 60.389891 0
M  V30 74 H 40.073952 32.661512 60.492081 0
M  V30 END ATOM
M  V30 BEGIN BOND
M  V30 1 1 9 3
M  V30 2 1 11 5
M  V30 3 2 12 1
M  V30 4 1 12 3
M  V30 5 1 13 1
M  V30 6 1 14 10
M  V30 7 1 15 9
M  V30 8 1 18 1
M  V30 9 1 18 15
M  V30 10 1 18 16
M  V30 11 1 19 13
M  V30 12 1 20 2
M  V30 13 1 21 6
M  V30 14 2 22 13
M  V30 15 1 22 14
M  V30 16 1 23 7
M  V30 17 1 24 6
M  V30 18 1 24 20
M  V30 19 1 25 2
M  V30 20 1 25 8
M  V30 21 1 25 10
M  V30 22 1 26 11
M  V30 23 1 26 17
M  V30 24 1 26 23
M  V30 25 1 27 4
M  V30 26 1 27 24
M  V30 27 1 28 4
M  V30 28 1 28 21
M  V30 29 2 29 5
M  V30 30 1 25 30 CFG=3
M  V30 31 1 31 7
M  V30 32 1 31 8
M  V30 33 1 31 29
M  V30 34 1 32 3
M  V30 35 1 33 6
M  V30 36 1 33 14
M  V30 37 1 3 34 CFG=1
M  V30 38 1 35 5
M  V30 39 1 6 36 CFG=3
M  V30 40 1 37 7
M  V30 41 1 38 7
M  V30 42 1 39 8
M  V30 43 1 40 8
M  V30 44 1 41 9
M  V30 45 1 42 9
M  V30 46 1 43 10
M  V30 47 1 44 11
M  V30 48 1 45 11
M  V30 49 1 46 12
M  V30 50 1 14 47 CFG=3
M  V30 51 1 48 15
M  V30 52 1 49 15
M  V30 53 1 50 17
M  V30 54 1 18 51 CFG=3
M  V30 55 1 52 19
M  V30 56 1 53 19
M  V30 57 1 54 19
M  V30 58 1 55 20
M  V30 59 1 56 20
M  V30 60 1 57 21
M  V30 61 1 58 21
M  V30 62 1 59 22
M  V30 63 1 60 23
M  V30 64 1 61 23
M  V30 65 1 24 62 CFG=1
M  V30 66 1 26 63 CFG=1
M  V30 67 1 64 27
M  V30 68 1 65 27
M  V30 69 1 66 28
M  V30 70 1 67 28
M  V30 71 1 68 29
M  V30 72 1 69 32
M  V30 73 1 70 32
M  V30 74 1 71 32
M  V30 75 1 72 33
M  V30 76 1 73 33
M  V30 77 1 74 10
M  V30 END BOND
M  V30 END CTAB
M  END
>  <i_epik_Tot_Q>  (1) 
0

>  <i_epik_Tot_abs_Q>  (1) 
2

>  <i_i_glide_confnum>  (1) 
46

>  <i_i_glide_lignum>  (1) 
257

>  <i_i_glide_posenum>  (1) 
385

>  <i_i_glide_rotatable_bonds>  (1) 
5

>  <i_lp_mmshare_version>  (1) 
72125

>  <i_m_source_file_index>  (1) 
94

>  <i_f3d_flags>  (1) 
0

>  <num_sample>  (1) 
100

>  <b_lp_Chiralities_Consistent>  (1) 
1

>  <r_epik_Charging_Adjusted_Penalty>  (1) 
0.80501984278308969

>  <r_epik_Ionization_Penalty>  (1) 
0.072421558423421364

>  <r_epik_Ionization_Penalty_Charging>  (1) 
0.072408791886815996

>  <r_epik_Ionization_Penalty_Neutral>  (1) 
1.2766536605372598e-05

>  <r_epik_State_Penalty>  (1) 
0.73261105089627365

>  <r_glide_ring_energy>  (1) 
0

>  <r_i_docking_score>  (1) 
-3.6003489265399229

>  <r_i_glide_ecoul>  (1) 
-1.2133401911286814

>  <r_i_glide_eff_state_penalty>  (1) 
0.73261105089627365

>  <r_i_glide_einternal>  (1) 
12.785074360427434

>  <r_i_glide_emodel>  (1) 
-23.357503682583591

>  <r_i_glide_emodel_strain>  (1) 
6.0414987603061405

>  <r_i_glide_energy>  (1) 
-30.276025937181899

>  <r_i_glide_erotb>  (1) 
0.31140238833871409

>  <r_i_glide_esite>  (1) 
0

>  <r_i_glide_evdw>  (1) 
-29.062685746053219

>  <r_i_glide_gscore>  (1) 
-4.3329599774361967

>  <r_i_glide_gscore_strain>  (1) 
0.51037469007653513

>  <r_i_glide_hbond>  (1) 
0

>  <r_i_glide_ligand_efficiency>  (1) 
-0.10910148262242191

>  <r_i_glide_ligand_efficiency_ln>  (1) 
-0.80069895965341464

>  <r_i_glide_ligand_efficiency_sa>  (1) 
-0.34994675096486139

>  <r_i_glide_lipo>  (1) 
-3.1078790973157742

>  <r_i_glide_metal>  (1) 
-0

>  <r_i_glide_rewards>  (1) 
-0.411722642563709

>  <r_lp_Energy>  (1) 
37.065154999999997

>  <s_epik_Chemistry_Notes>  (1) 
This compound has an imine and may undergo hydrolysis.

>  <s_epik_cmdline>  (1) 
J2VwaWtfcHl0aG9uJywgJy1waHQnLCAnMS4wJywgJy1waCcsICc3LjQnLCAnLXRuJywgJzgnLCAnLW1hJywgJzUwMCcsICctaW1hZScsICc8aW5maWxlLm1hZT4nLCAnLW9tYWUnLCAnPG91dGZpbGUubWFlPic=

>  <s_epik_input>  (1) 
Q2xbQ0BIXTFbQ0gyXVtDSDJdW0NAQEhdKFtDSDNdKVtDSF09QzEvQyhbQ0gzXSk9W0NIXS9bQ0BASF0oW0NIMl0yKVtOSF1bQ0BAXShbU0hdKShTW0NIMl1bQ0BIXShbQ0BASF0yMylbQ0gyXU9bQ0gyXVtDSDJdMylbQ0gyXU4oW0NIMl1bQ0gyXTQpW0NIXT1bQ0hdW0NIMl1bQ0BASF00W09IXQ==

>  <s_glide_docking_method>  (1) 
confgen

>  <s_i_glide_gridfile>  (1) 
gpcr_5ht2c_6bqh_protein_autoprepared_prepared

>  <s_lp_Force_Field>  (1) 
S-OPLS

>  <s_lp_Variant>  (1) 
DiffSBDD_93_num_sample_100-9

>  <s_m_source_file>  (1) 
generated__ligand_DiffSBDD_2026-05-06_prepared.sdf

>  <GenAI_Model>  (1) 
DiffSBDD

>  <Protein>  (1) 
GPCR_5HT2C

$$$$
DiffSBDD_58_num_sample_100
     RDKit          3D

  0  0  0  0  0  0  0  0  0  0999 V3000
M  V30 BEGIN CTAB
M  V30 COUNTS 29 28 0 0 1
M  V30 BEGIN ATOM
M  V30 1 S 40.667395 28.886271 51.053506 0
M  V30 2 C 37.790533 30.531229 54.769106 0
M  V30 3 C 38.654589 31.295424 55.775512 0
M  V30 4 C 37.738756 28.418354 53.321688 0
M  V30 5 S 39.049342 27.650987 50.954557 0
M  V30 6 Cl 39.867402 30.779121 50.698352 0
M  V30 7 O 36.381959 32.863351 59.053582 0
M  V30 8 C 38.428753 32.727100 57.780860 0
M  V30 9 N 37.867403 32.320946 56.479951 0 CHG=1
M  V30 10 C 38.557555 27.301237 52.670966 0
M  V30 11 C 37.449184 33.631243 58.534526 0
M  V30 12 C 38.607206 29.461420 54.036111 0
M  V30 13 H 36.958561 30.064307 55.298891 0
M  V30 14 H 37.351744 31.221882 54.049784 0
M  V30 15 H 39.504796 31.769270 55.282458 0
M  V30 16 H 39.059581 30.585247 56.498285 0
M  V30 17 H 37.078626 27.965181 54.062428 0
M  V30 18 H 37.080264 28.860587 52.577505 0
M  V30 19 H 35.867404 32.483779 58.337151 0
M  V30 20 H 39.372615 33.240593 57.603825 0
M  V30 21 H 38.659773 31.851684 58.389733 0
M  V30 22 H 36.917052 31.971464 56.653510 0
M  V30 23 H 39.431979 27.034934 53.264993 0
M  V30 24 H 37.922211 26.421416 52.653500 0
M  V30 25 H 37.067415 34.421486 57.890517 0
M  V30 26 H 37.956256 34.112881 59.370923 0
M  V30 27 H 39.282364 29.947459 53.335564 0
M  V30 28 H 39.241418 28.939753 54.754463 0
M  V30 29 H 37.746859 33.127187 55.883025 0
M  V30 END ATOM
M  V30 BEGIN BOND
M  V30 1 1 3 2
M  V30 2 1 5 1
M  V30 3 1 6 1
M  V30 4 1 9 3
M  V30 5 1 9 8
M  V30 6 1 10 4
M  V30 7 1 10 5
M  V30 8 1 11 7
M  V30 9 1 11 8
M  V30 10 1 12 2
M  V30 11 1 12 4
M  V30 12 1 13 2
M  V30 13 1 14 2
M  V30 14 1 15 3
M  V30 15 1 16 3
M  V30 16 1 17 4
M  V30 17 1 18 4
M  V30 18 1 19 7
M  V30 19 1 20 8
M  V30 20 1 21 8
M  V30 21 1 22 9
M  V30 22 1 23 10
M  V30 23 1 24 10
M  V30 24 1 25 11
M  V30 25 1 26 11
M  V30 26 1 27 12
M  V30 27 1 28 12
M  V30 28 1 29 9
M  V30 END BOND
M  V30 END CTAB
M  END
>  <i_epik_Tot_Q>  (1) 
1

>  <i_epik_Tot_abs_Q>  (1) 
1

>  <i_i_glide_confnum>  (1) 
68

>  <i_i_glide_lignum>  (1) 
147

>  <i_i_glide_posenum>  (1) 
228

>  <i_i_glide_rotatable_bonds>  (1) 
10

>  <i_lp_mmshare_version>  (1) 
72125

>  <i_m_source_file_index>  (1) 
59

>  <i_f3d_flags>  (1) 
0

>  <num_sample>  (1) 
100

>  <b_lp_Chiralities_Consistent>  (1) 
1

>  <r_epik_Charging_Adjusted_Penalty>  (1) 
0.014760532929550717

>  <r_epik_Ionization_Penalty>  (1) 
0.0073815081172038301

>  <r_epik_Ionization_Penalty_Charging>  (1) 
0.0073802664647753631

>  <r_epik_Ionization_Penalty_Neutral>  (1) 
1.241652428467383e-06

>  <r_epik_State_Penalty>  (1) 
0.0073802664647753553

>  <r_glide_ring_energy>  (1) 
0

>  <r_i_docking_score>  (1) 
-3.5307450692789906

>  <r_i_glide_ecoul>  (1) 
-9.1876934178486582

>  <r_i_glide_eff_state_penalty>  (1) 
0.0073802664647753553

>  <r_i_glide_einternal>  (1) 
6.234574678984087

>  <r_i_glide_emodel>  (1) 
-36.169078047348364

>  <r_i_glide_emodel_strain>  (1) 
0.22823233943175891

>  <r_i_glide_energy>  (1) 
-29.723448789783816

>  <r_i_glide_erotb>  (1) 
3.5940222146810656

>  <r_i_glide_esite>  (1) 
-0.10000000000000001

>  <r_i_glide_evdw>  (1) 
-20.53575537193516

>  <r_i_glide_gscore>  (1) 
-3.5381253357437661

>  <r_i_glide_gscore_strain>  (1) 
0

>  <r_i_glide_hbond>  (1) 
-0.35999999999999999

>  <r_i_glide_ligand_efficiency>  (1) 
-0.2942287557732492

>  <r_i_glide_ligand_efficiency_ln>  (1) 
-1.0131534138780385

>  <r_i_glide_ligand_efficiency_sa>  (1) 
-0.67361569460476856

>  <r_i_glide_lipo>  (1) 
-1.7050507715484235

>  <r_i_glide_metal>  (1) 
-0

>  <r_i_glide_rewards>  (1) 
-2.562154997602351

>  <r_lp_Energy>  (1) 
0.71688799999999997

>  <s_epik_cmdline>  (1) 
J2VwaWtfcHl0aG9uJywgJy1waHQnLCAnMS4wJywgJy1waCcsICc3LjQnLCAnLXRuJywgJzgnLCAnLW1hJywgJzUwMCcsICctaW1hZScsICc8aW5maWxlLm1hZT4nLCAnLW9tYWUnLCAnPG91dGZpbGUubWFlPic=

>  <s_epik_input>  (1) 
Q2xTU1tDSDJdW0NIMl1bQ0gyXVtDSDJdW0NIMl1bTkhdW0NIMl1bQ0gyXVtPSF0=

>  <s_glide_docking_method>  (1) 
confgen

>  <s_i_glide_gridfile>  (1) 
gpcr_5ht2c_6bqh_protein_autoprepared_prepared

>  <s_lp_Force_Field>  (1) 
S-OPLS

>  <s_lp_Variant>  (1) 
DiffSBDD_58_num_sample_100-1

>  <s_m_source_file>  (1) 
generated__ligand_DiffSBDD_2026-05-06_prepared.sdf

>  <GenAI_Model>  (1) 
DiffSBDD

>  <Protein>  (1) 
GPCR_5HT2C

$$$$
DiffSBDD_29_num_sample_100
     RDKit          3D

  0  0  0  0  0  0  0  0  0  0999 V3000
M  V30 BEGIN CTAB
M  V30 COUNTS 86 90 0 0 1
M  V30 BEGIN ATOM
M  V30 1 F 38.379445 36.994999 62.085190 0
M  V30 2 C 35.221146 32.999443 59.755758 0
M  V30 3 C 39.689469 35.187720 60.253516 0
M  V30 4 C 39.416180 28.913726 56.464106 0 CFG=2
M  V30 5 C 40.440625 28.208324 51.794528 0
M  V30 6 C 40.853857 28.419182 56.647213 0
M  V30 7 C 39.823036 36.170120 63.682022 0
M  V30 8 N 36.678556 32.833157 59.577925 0
M  V30 9 C 37.477793 28.675121 54.859032 0 CFG=1
M  V30 10 C 39.733458 30.791502 50.379267 0
M  V30 11 C 38.483998 30.864009 60.040880 0
M  V30 12 C 40.071694 30.741136 51.889260 0 CFG=1
M  V30 13 C 39.360578 36.157123 62.471118 0
M  V30 14 C 37.530172 30.482928 58.959659 0 CFG=2
M  V30 15 C 35.549183 35.446544 59.210097 0
M  V30 16 C 37.422703 26.067061 54.204333 0
M  V30 17 C 39.013446 28.784851 54.965992 0 CFG=1
M  V30 18 C 37.873522 30.850490 57.491087 0 CFG=1
M  V30 19 C 40.961866 34.401593 62.250690 0
M  V30 20 N 36.961387 35.136746 59.057211 0 CHG=1
M  V30 21 N 39.923625 35.269718 61.659072 0
M  V30 22 F 39.380898 36.986813 64.653932 0
M  V30 23 S 39.104723 31.279833 53.410904 0
M  V30 24 C 37.412501 34.052891 59.967008 0 CFG=2
M  V30 25 C 34.695443 34.211646 58.959639 0
M  V30 26 C 37.200492 27.999742 52.632618 0
M  V30 27 O 37.928177 32.238786 57.176554 0
M  V30 28 C 39.774481 29.694771 53.925084 0 CFG=2
M  V30 29 C 39.225253 30.358555 56.915780 0
M  V30 30 C 40.268499 29.522867 49.633224 0
M  V30 31 C 39.972906 28.148446 50.335523 0
M  V30 32 C 38.940402 33.935361 59.830410 0
M  V30 33 O 36.791968 29.904118 54.662531 0
M  V30 34 C 39.783509 29.385044 52.417508 0 CFG=2
M  V30 35 C 37.082941 31.486856 60.040519 0 CFG=2
M  V30 36 C 36.931619 27.543803 53.993108 0
M  V30 37 O 38.759771 28.038993 57.380635 0
M  V30 38 S 41.097897 35.047247 64.045385 0
M  V30 39 H 34.695605 32.103797 59.420382 0
M  V30 40 H 34.966673 33.129215 60.809552 0
M  V30 41 H 40.667894 35.205704 59.773932 0
M  V30 42 H 39.160515 36.063841 59.891662 0
M  V30 43 H 40.239477 27.304766 52.375682 0
M  V30 44 H 41.509673 28.310662 51.796813 0
M  V30 45 H 41.506500 28.755822 55.853657 0
M  V30 46 H 41.255713 28.764988 57.596930 0
M  V30 47 H 40.901270 27.333291 56.636022 0
M  V30 48 H 37.077944 28.389719 55.787486 0
M  V30 49 H 38.680773 30.822076 50.235184 0
M  V30 50 H 40.104385 31.682171 49.887057 0
M  V30 51 H 38.680102 30.126306 60.815168 0
M  V30 52 H 39.382269 31.292379 59.623633 0
M  V30 53 H 41.071120 31.051318 52.054461 0
M  V30 54 H 37.093148 29.488088 59.068752 0
M  V30 55 H 35.232303 36.294040 58.607825 0
M  V30 56 H 35.543206 35.764078 60.235652 0
M  V30 57 H 38.506272 25.941303 54.063912 0
M  V30 58 H 37.179160 25.667841 55.190074 0
M  V30 59 H 36.955370 25.366796 53.502317 0
M  V30 60 H 39.381080 27.803675 54.707609 0
M  V30 61 H 37.058307 30.433007 56.923254 0
M  V30 62 H 40.669008 33.351357 62.230213 0
M  V30 63 H 41.879143 34.516507 61.688449 0
M  V30 64 H 37.114531 34.880740 58.095014 0
M  V30 65 H 37.159036 34.322996 60.996922 0
M  V30 66 H 34.740031 34.049633 57.892235 0
M  V30 67 H 33.640809 34.400060 59.171743 0
M  V30 68 H 38.115063 27.596307 52.251574 0
M  V30 69 H 36.648491 27.679486 51.870706 0
M  V30 70 H 36.962418 29.048213 52.484766 0
M  V30 71 H 37.012436 32.511086 56.993622 0
M  V30 72 H 40.754651 29.993916 54.261037 0
M  V30 73 H 40.043821 30.626834 57.541512 0
M  V30 74 H 39.442269 30.961031 56.043735 0
M  V30 75 H 39.857710 29.477018 48.629774 0
M  V30 76 H 41.339973 29.667449 49.489299 0
M  V30 77 H 38.894514 27.928320 50.299364 0
M  V30 78 H 40.438470 27.281499 49.854366 0
M  V30 79 H 39.333720 33.138271 60.439983 0
M  V30 80 H 39.193917 33.720566 58.792322 0
M  V30 81 H 36.944267 30.535878 55.350847 0
M  V30 82 H 38.794255 29.440047 52.016798 0
M  V30 83 H 36.476584 31.072087 60.840095 0
M  V30 84 H 35.867605 27.621465 54.165205 0
M  V30 85 H 37.900458 28.363908 57.602160 0
M  V30 86 H 37.460489 35.987214 59.275247 0
M  V30 END ATOM
M  V30 BEGIN BOND
M  V30 1 1 6 4
M  V30 2 1 8 2
M  V30 3 1 12 10
M  V30 4 1 13 1
M  V30 5 2 13 7
M  V30 6 1 14 11
M  V30 7 1 17 4
M  V30 8 1 17 9
M  V30 9 1 18 14
M  V30 10 1 20 15
M  V30 11 1 21 3
M  V30 12 1 21 13
M  V30 13 1 21 19
M  V30 14 1 22 7
M  V30 15 1 23 12
M  V30 16 1 24 8
M  V30 17 1 24 20
M  V30 18 1 25 2
M  V30 19 1 25 15
M  V30 20 1 27 18
M  V30 21 1 28 17
M  V30 22 1 28 23
M  V30 23 1 29 4
M  V30 24 1 29 18
M  V30 25 1 30 10
M  V30 26 1 31 5
M  V30 27 1 31 30
M  V30 28 1 32 3
M  V30 29 1 32 24
M  V30 30 1 33 9
M  V30 31 1 34 5
M  V30 32 1 34 12
M  V30 33 1 34 28
M  V30 34 1 35 8
M  V30 35 1 35 11
M  V30 36 1 35 14
M  V30 37 1 36 9
M  V30 38 1 36 16
M  V30 39 1 36 26
M  V30 40 1 4 37 CFG=1
M  V30 41 1 38 7
M  V30 42 1 38 19
M  V30 43 1 39 2
M  V30 44 1 40 2
M  V30 45 1 41 3
M  V30 46 1 42 3
M  V30 47 1 43 5
M  V30 48 1 44 5
M  V30 49 1 45 6
M  V30 50 1 46 6
M  V30 51 1 47 6
M  V30 52 1 9 48 CFG=1
M  V30 53 1 49 10
M  V30 54 1 50 10
M  V30 55 1 51 11
M  V30 56 1 52 11
M  V30 57 1 12 53 CFG=3
M  V30 58 1 14 54 CFG=3
M  V30 59 1 55 15
M  V30 60 1 56 15
M  V30 61 1 57 16
M  V30 62 1 58 16
M  V30 63 1 59 16
M  V30 64 1 17 60 CFG=3
M  V30 65 1 18 61 CFG=3
M  V30 66 1 62 19
M  V30 67 1 63 19
M  V30 68 1 64 20
M  V30 69 1 24 65 CFG=1
M  V30 70 1 66 25
M  V30 71 1 67 25
M  V30 72 1 68 26
M  V30 73 1 69 26
M  V30 74 1 70 26
M  V30 75 1 71 27
M  V30 76 1 28 72 CFG=1
M  V30 77 1 73 29
M  V30 78 1 74 29
M  V30 79 1 75 30
M  V30 80 1 76 30
M  V30 81 1 77 31
M  V30 82 1 78 31
M  V30 83 1 79 32
M  V30 84 1 80 32
M  V30 85 1 81 33
M  V30 86 1 34 82 CFG=3
M  V30 87 1 35 83 CFG=1
M  V30 88 1 84 36
M  V30 89 1 85 37
M  V30 90 1 86 20
M  V30 END BOND
M  V30 END CTAB
M  END
>  <i_epik_Tot_Q>  (1) 
1

>  <i_epik_Tot_abs_Q>  (1) 
1

>  <i_i_glide_confnum>  (1) 
1806

>  <i_i_glide_lignum>  (1) 
72

>  <i_i_glide_posenum>  (1) 
55

>  <i_i_glide_rotatable_bonds>  (1) 
14

>  <i_lp_mmshare_version>  (1) 
72125

>  <i_m_source_file_index>  (1) 
30

>  <i_f3d_flags>  (1) 
0

>  <num_sample>  (1) 
100

>  <b_lp_Chiralities_Consistent>  (1) 
1

>  <r_epik_Charging_Adjusted_Penalty>  (1) 
0.43533657855592212

>  <r_epik_Ionization_Penalty>  (1) 
0.17417288321429925

>  <r_epik_Ionization_Penalty_Charging>  (1) 
0.17415579174197784

>  <r_epik_Ionization_Penalty_Neutral>  (1) 
1.7091472321405907e-05

>  <r_epik_State_Penalty>  (1) 
0.2611807868139443

>  <r_glide_ring_energy>  (1) 
0.53215094814158026

>  <r_i_docking_score>  (1) 
-3.4859430624834742

>  <r_i_glide_ecoul>  (1) 
-4.0825038185038069

>  <r_i_glide_eff_state_penalty>  (1) 
0.2611807868139443

>  <r_i_glide_einternal>  (1) 
17.457818387274088

>  <r_i_glide_emodel>  (1) 
9.3589549135486969

>  <r_i_glide_emodel_strain>  (1) 
12.668713885477842

>  <r_i_glide_energy>  (1) 
-2.8436480942478499

>  <r_i_glide_erotb>  (1) 
0.46833353265868582

>  <r_i_glide_esite>  (1) 
-0.025609044647490461

>  <r_i_glide_evdw>  (1) 
1.238855724255957

>  <r_i_glide_gscore>  (1) 
-3.7471238492974184

>  <r_i_glide_gscore_strain>  (1) 
2.1671784713694606

>  <r_i_glide_hbond>  (1) 
-0.1350480467956687

>  <r_i_glide_ligand_efficiency>  (1) 
-0.091735343749565115

>  <r_i_glide_ligand_efficiency_ln>  (1) 
-0.75167187032685612

>  <r_i_glide_ligand_efficiency_sa>  (1) 
-0.30841196962028694

>  <r_i_glide_lipo>  (1) 
-4.151210057645522

>  <r_i_glide_metal>  (1) 
-0

>  <r_i_glide_rewards>  (1) 
-1.5203359176741098

>  <r_lp_Energy>  (1) 
47.870706999999996

>  <s_epik_Chemistry_Notes>  (1) 
This compound has an imine and may undergo hydrolysis. This compound contains an acetal/aminal-like group ( X-CH(R)-Y where X, Y are N, S, or O) that may be acid/base labile, releasing an aldehyde.

>  <s_epik_cmdline>  (1) 
J2VwaWtfcHl0aG9uJywgJy1waHQnLCAnMS4wJywgJy1waCcsICc3LjQnLCAnLXRuJywgJzgnLCAnLW1hJywgJzUwMCcsICctaW1hZScsICc8aW5maWxlLm1hZT4nLCAnLW9tYWUnLCAnPG91dGZpbGUubWFlPic=

>  <s_epik_input>  (1) 
RkMxPUMoRilOKFtDSDJdUzEpW0NIMl1bQ0gyXVtDQEhdMltOSF1bQ0gyXVtDSDJdW0NIMl1OMltDQEBIXTNbQ0gyXVtDQEBIXTNbQ0BASF0oW09IXSlbQ0gyXVtDQEBdKFtDSDNdKShbT0hdKVtDQEBIXShbQ0BASF0oW09IXSlbQ0hdKFtDSDNdKVtDSDNdKVtDQEhdKFM0KVtDQEBIXShbQ0BASF00NSlbQ0gyXVtDSDJdW0NIMl1bQ0gyXTU=

>  <s_glide_docking_method>  (1) 
confgen

>  <s_i_glide_gridfile>  (1) 
gpcr_5ht2c_6bqh_protein_autoprepared_prepared

>  <s_lp_Force_Field>  (1) 
S-OPLS

>  <s_lp_Variant>  (1) 
DiffSBDD_29_num_sample_100-2

>  <s_m_source_file>  (1) 
generated__ligand_DiffSBDD_2026-05-06_prepared.sdf

>  <GenAI_Model>  (1) 
DiffSBDD

>  <Protein>  (1) 
GPCR_5HT2C

$$$$
DiffSBDD_8_num_sample_100
     RDKit          3D

  0  0  0  0  0  0  0  0  0  0999 V3000
M  V30 BEGIN CTAB
M  V30 COUNTS 55 55 0 0 1
M  V30 BEGIN ATOM
M  V30 1 C 39.747436 30.790002 50.083121 0
M  V30 2 C 38.537870 28.903519 52.304661 0
M  V30 3 C 40.263633 30.744539 51.514666 0
M  V30 4 C 38.092997 32.091463 60.917824 0
M  V30 5 C 37.806399 30.766326 58.874540 0 CFG=2
M  V30 6 C 38.885108 29.943164 59.608859 0
M  V30 7 N 37.867357 30.663381 57.389677 0 CHG=1
M  V30 8 C 37.962324 32.214779 59.391120 0 CFG=1
M  V30 9 S 39.076691 30.621371 61.273766 0
M  V30 10 C 40.237395 29.621353 49.225186 0
M  V30 11 C 36.817974 33.156115 58.969174 0
M  V30 12 C 38.129674 26.605794 55.472581 0
M  V30 13 C 36.892554 34.552223 59.606306 0
M  V30 14 N 35.867714 35.447800 59.053568 0 CHG=1
M  V30 15 C 38.564846 27.885955 54.732670 0 CFG=2
M  V30 16 C 37.935887 29.176819 55.333264 0
M  V30 17 C 39.984189 29.430511 52.275491 0
M  V30 18 C 38.293839 27.691178 53.218334 0
M  V30 19 C 38.098876 29.292787 56.863801 0
M  V30 20 H 40.047115 31.725135 49.613291 0
M  V30 21 H 38.667410 30.821087 50.120075 0
M  V30 22 H 37.868315 29.668839 52.653504 0
M  V30 23 H 38.216404 28.648123 51.294483 0
M  V30 24 H 41.337262 30.917339 51.453551 0
M  V30 25 H 39.852741 31.588978 52.068440 0
M  V30 26 H 37.113346 31.953074 61.374173 0
M  V30 27 H 38.549152 32.971688 61.370835 0
M  V30 28 H 36.830940 30.386712 59.183982 0
M  V30 29 H 38.624582 28.886427 59.671041 0
M  V30 30 H 39.852203 30.021014 59.112654 0
M  V30 31 H 38.592060 31.271082 57.038986 0
M  V30 32 H 38.901729 32.621013 59.009986 0
M  V30 33 H 39.732406 29.621449 48.262479 0
M  V30 34 H 40.021620 28.656895 49.681186 0
M  V30 35 H 41.309768 29.688594 49.053623 0
M  V30 36 H 36.840651 33.263601 57.883290 0
M  V30 37 H 35.857991 32.697497 59.214015 0
M  V30 38 H 37.049822 26.459835 55.430423 0
M  V30 39 H 38.594204 25.726953 55.024022 0
M  V30 40 H 38.428011 26.613056 56.520119 0
M  V30 41 H 36.740446 34.488674 60.684162 0
M  V30 42 H 37.868641 35.004998 59.452650 0
M  V30 43 H 35.893811 36.329963 59.543973 0
M  V30 44 H 36.021985 35.621146 58.059471 0
M  V30 45 H 39.643897 27.970486 54.865800 0
M  V30 46 H 38.415099 30.042744 54.876284 0
M  V30 47 H 36.881719 29.246943 55.061636 0
M  V30 48 H 40.636241 28.652890 51.873226 0
M  V30 49 H 40.267506 29.621575 53.307371 0
M  V30 50 H 37.250617 27.396064 53.092645 0
M  V30 51 H 38.878527 26.847608 52.849816 0
M  V30 52 H 37.409181 28.607498 57.357434 0
M  V30 53 H 39.108554 28.977464 57.131074 0
M  V30 54 H 34.954201 35.030023 59.171280 0
M  V30 55 H 36.965298 31.009654 57.053541 0
M  V30 END ATOM
M  V30 BEGIN BOND
M  V30 1 1 3 1
M  V30 2 1 6 5
M  V30 3 1 7 5
M  V30 4 1 8 4
M  V30 5 1 8 5
M  V30 6 1 9 4
M  V30 7 1 9 6
M  V30 8 1 10 1
M  V30 9 1 11 8
M  V30 10 1 13 11
M  V30 11 1 14 13
M  V30 12 1 15 12
M  V30 13 1 16 15
M  V30 14 1 17 2
M  V30 15 1 17 3
M  V30 16 1 18 2
M  V30 17 1 18 15
M  V30 18 1 19 7
M  V30 19 1 19 16
M  V30 20 1 20 1
M  V30 21 1 21 1
M  V30 22 1 22 2
M  V30 23 1 23 2
M  V30 24 1 24 3
M  V30 25 1 25 3
M  V30 26 1 26 4
M  V30 27 1 27 4
M  V30 28 1 5 28 CFG=1
M  V30 29 1 29 6
M  V30 30 1 30 6
M  V30 31 1 31 7
M  V30 32 1 8 32 CFG=3
M  V30 33 1 33 10
M  V30 34 1 34 10
M  V30 35 1 35 10
M  V30 36 1 36 11
M  V30 37 1 37 11
M  V30 38 1 38 12
M  V30 39 1 39 12
M  V30 40 1 40 12
M  V30 41 1 41 13
M  V30 42 1 42 13
M  V30 43 1 43 14
M  V30 44 1 44 14
M  V30 45 1 15 45 CFG=3
M  V30 46 1 46 16
M  V30 47 1 47 16
M  V30 48 1 48 17
M  V30 49 1 49 17
M  V30 50 1 50 18
M  V30 51 1 51 18
M  V30 52 1 52 19
M  V30 53 1 53 19
M  V30 54 1 54 14
M  V30 55 1 55 7
M  V30 END BOND
M  V30 END CTAB
M  END
>  <i_epik_Tot_Q>  (1) 
2

>  <i_epik_Tot_abs_Q>  (1) 
2

>  <i_i_glide_confnum>  (1) 
363

>  <i_i_glide_lignum>  (1) 
27

>  <i_i_glide_posenum>  (1) 
167

>  <i_i_glide_rotatable_bonds>  (1) 
11

>  <i_lp_mmshare_version>  (1) 
72125

>  <i_m_source_file_index>  (1) 
9

>  <i_f3d_flags>  (1) 
0

>  <num_sample>  (1) 
100

>  <b_lp_Chiralities_Consistent>  (1) 
1

>  <r_epik_Charging_Adjusted_Penalty>  (1) 
0.011852467883577517

>  <r_epik_Ionization_Penalty>  (1) 
0.0071594001399835584

>  <r_epik_Ionization_Penalty_Charging>  (1) 
0.0071594001399835584

>  <r_epik_Ionization_Penalty_Neutral>  (1) 
0

>  <r_epik_State_Penalty>  (1) 
0.0046930677435939585

>  <r_glide_ring_energy>  (1) 
0

>  <r_i_docking_score>  (1) 
-3.4821906831547018

>  <r_i_glide_ecoul>  (1) 
-7.949475769520232

>  <r_i_glide_eff_state_penalty>  (1) 
0.0046930677435939585

>  <r_i_glide_einternal>  (1) 
7.4317480485749297

>  <r_i_glide_emodel>  (1) 
-36.465072750248076

>  <r_i_glide_emodel_strain>  (1) 
0.31607443939800106

>  <r_i_glide_energy>  (1) 
-28.863840782887209

>  <r_i_glide_erotb>  (1) 
3.9335954406400124

>  <r_i_glide_esite>  (1) 
-0.14507471962769294

>  <r_i_glide_evdw>  (1) 
-20.914365013366979

>  <r_i_glide_gscore>  (1) 
-3.4868837508982957

>  <r_i_glide_gscore_strain>  (1) 
0

>  <r_i_glide_hbond>  (1) 
-0.20000000000000001

>  <r_i_glide_ligand_efficiency>  (1) 
-0.18327319385024746

>  <r_i_glide_ligand_efficiency_ln>  (1) 
-0.88281012877795284

>  <r_i_glide_ligand_efficiency_sa>  (1) 
-0.48904649263653704

>  <r_i_glide_lipo>  (1) 
-2.6030596765926801

>  <r_i_glide_metal>  (1) 
-0

>  <r_i_glide_rewards>  (1) 
-2.2342051792215512

>  <r_lp_Energy>  (1) 
22.085882999999999

>  <s_epik_cmdline>  (1) 
J2VwaWtfcHl0aG9uJywgJy1waHQnLCAnMS4wJywgJy1waCcsICc3LjQnLCAnLXRuJywgJzgnLCAnLW1hJywgJzUwMCcsICctaW1hZScsICc8aW5maWxlLm1hZT4nLCAnLW9tYWUnLCAnPG91dGZpbGUubWFlPic=

>  <s_epik_input>  (1) 
W0NIM11bQ0gyXVtDSDJdW0NIMl1bQ0gyXVtDSDJdW0NASF0oW0NIM10pW0NIMl1bQ0gyXVtOSF1bQ0BIXTFbQ0gyXVNbQ0gyXVtDQEBIXTFbQ0gyXVtDSDJdW05IMl0=

>  <s_glide_docking_method>  (1) 
confgen

>  <s_i_glide_gridfile>  (1) 
gpcr_5ht2c_6bqh_protein_autoprepared_prepared

>  <s_lp_Force_Field>  (1) 
S-OPLS

>  <s_lp_Variant>  (1) 
DiffSBDD_8_num_sample_100-1

>  <s_m_source_file>  (1) 
generated__ligand_DiffSBDD_2026-05-06_prepared.sdf

>  <GenAI_Model>  (1) 
DiffSBDD

>  <Protein>  (1) 
GPCR_5HT2C

$$$$
DiffSBDD_90_num_sample_100
     RDKit          3D

  0  0  0  0  0  0  0  0  0  0999 V3000
M  V30 BEGIN CTAB
M  V30 COUNTS 85 88 0 0 1
M  V30 BEGIN ATOM
M  V30 1 C 40.939763 28.293942 61.174565 0
M  V30 2 O 38.347997 33.583820 55.817043 0
M  V30 3 F 42.695093 31.660309 67.539905 0
M  V30 4 C 39.613068 33.530493 61.541246 0 CFG=1
M  V30 5 C 38.212850 30.706044 54.634478 0 CFG=2
M  V30 6 C 38.518778 28.851656 56.070061 0 CFG=1
M  V30 7 C 36.131901 33.792183 61.225496 0
M  V30 8 C 38.113330 27.382742 58.118363 0
M  V30 9 C 38.506157 34.335422 60.769941 0
M  V30 10 N 38.267406 32.349840 56.571410 0
M  V30 11 C 41.373055 30.322812 66.151811 0
M  V30 12 C 38.904876 35.801323 60.542245 0
M  V30 13 C 37.471824 29.499049 55.193739 0
M  V30 14 C 39.127902 30.105955 56.748555 0
M  V30 15 O 40.241163 30.821487 53.346585 0
M  V30 16 N 39.806515 29.189225 60.997025 0
M  V30 17 C 37.853043 27.722123 56.850413 0
M  V30 18 F 40.667781 32.306620 67.186681 0
M  V30 19 C 41.185180 32.649664 64.311383 0 CFG=2
M  V30 20 N 39.467477 29.800546 62.270115 0 CHG=1
M  V30 21 C 40.394485 30.337816 64.963968 0
M  V30 22 C 38.673286 28.488404 60.380646 0
M  V30 23 O 37.328471 34.484085 61.566828 0
M  V30 24 C 38.251747 33.684768 59.390351 0
M  V30 25 C 41.402300 27.852953 59.782577 0
M  V30 26 C 42.219837 32.608251 65.456306 0
M  V30 27 C 39.133321 28.045522 58.993447 0 CFG=1
M  V30 28 C 38.988573 31.308631 55.826015 0 CFG=1
M  V30 29 C 40.432806 34.367316 62.553634 0
M  V30 30 O 38.704655 29.345994 52.706604 0 CHG=-1
M  V30 31 C 40.086572 31.135012 62.464992 0 CFG=1
M  V30 32 C 40.282751 27.113725 59.036740 0
M  V30 33 O 37.245596 31.621541 54.253507 0
M  V30 34 C 39.045006 32.237818 62.174697 0
M  V30 35 C 40.910931 31.214067 63.792419 0 CFG=1
M  V30 36 C 41.616356 33.638265 63.213615 0
M  V30 37 C 41.732428 31.737829 66.622009 0
M  V30 38 C 39.132879 30.256595 53.455292 0
M  V30 39 H 41.752320 28.802173 61.694207 0
M  V30 40 H 40.650372 27.441480 61.785759 0
M  V30 41 H 38.735061 34.179258 56.441867 0
M  V30 42 H 40.331679 33.227410 60.779745 0
M  V30 43 H 39.281181 28.382477 55.446717 0
M  V30 44 H 35.377422 34.006326 61.983251 0
M  V30 45 H 35.728742 34.124075 60.267686 0
M  V30 46 H 36.269407 32.712066 61.200592 0
M  V30 47 H 37.571066 26.562206 58.558523 0
M  V30 48 H 37.261025 32.180668 56.653556 0
M  V30 49 H 42.285139 29.801105 65.859303 0
M  V30 50 H 40.948377 29.752230 66.978504 0
M  V30 51 H 39.895814 35.864732 60.097274 0
M  V30 52 H 38.198096 36.306642 59.882528 0
M  V30 53 H 38.922047 36.371279 61.472325 0
M  V30 54 H 37.068359 28.822166 54.440332 0
M  V30 55 H 36.630537 29.833333 55.803323 0
M  V30 56 H 40.186199 29.964842 56.966044 0
M  V30 57 H 38.575720 30.329511 57.663903 0
M  V30 58 H 37.109799 27.154158 56.313872 0
M  V30 59 H 40.267354 33.033529 64.752812 0
M  V30 60 H 38.461894 29.863305 62.314752 0
M  V30 61 H 40.267583 29.301111 64.657868 0
M  V30 62 H 39.422468 30.689174 65.303430 0
M  V30 63 H 37.837131 29.178363 60.253672 0
M  V30 64 H 38.357864 27.621550 60.965091 0
M  V30 65 H 39.173427 33.639731 58.808900 0
M  V30 66 H 37.881614 32.662817 59.462604 0
M  V30 67 H 37.529057 34.251728 58.801985 0
M  V30 68 H 41.734962 28.720816 59.209522 0
M  V30 69 H 42.267907 27.221463 59.844318 0
M  V30 70 H 43.166082 32.216343 65.081964 0
M  V30 71 H 42.424657 33.615428 65.823588 0
M  V30 72 H 39.593743 28.906556 58.596028 0
M  V30 73 H 39.973196 31.693002 55.555304 0
M  V30 74 H 40.879467 35.220675 62.044854 0
M  V30 75 H 39.774746 34.789586 63.312836 0
M  V30 76 H 40.834163 31.237512 61.676498 0
M  V30 77 H 39.867447 26.192336 59.453502 0
M  V30 78 H 40.629833 26.871764 58.030266 0
M  V30 79 H 37.345856 32.381796 54.820952 0
M  V30 80 H 38.329563 31.818909 61.469720 0
M  V30 81 H 38.461890 32.481672 63.053397 0
M  V30 82 H 41.883270 30.789186 63.533545 0
M  V30 83 H 42.251825 33.154726 62.469738 0
M  V30 84 H 42.243455 34.410714 63.662739 0
M  V30 85 H 39.781603 29.160892 62.988668 0
M  V30 END ATOM
M  V30 BEGIN BOND
M  V30 1 1 9 4
M  V30 2 1 10 2
M  V30 3 1 12 9
M  V30 4 1 13 5
M  V30 5 1 13 6
M  V30 6 1 14 6
M  V30 7 1 16 1
M  V30 8 1 17 6
M  V30 9 2 17 8
M  V30 10 1 20 16
M  V30 11 1 21 11
M  V30 12 1 22 16
M  V30 13 1 23 7
M  V30 14 1 23 9
M  V30 15 1 24 9
M  V30 16 1 25 1
M  V30 17 1 26 19
M  V30 18 1 27 8
M  V30 19 1 27 22
M  V30 20 1 28 5
M  V30 21 1 28 10
M  V30 22 1 28 14
M  V30 23 1 29 4
M  V30 24 1 31 20
M  V30 25 1 32 25
M  V30 26 1 32 27
M  V30 27 1 5 33 CFG=3
M  V30 28 1 34 4
M  V30 29 1 34 31
M  V30 30 1 35 19
M  V30 31 1 35 21
M  V30 32 1 35 31
M  V30 33 1 36 19
M  V30 34 1 36 29
M  V30 35 1 37 3
M  V30 36 1 37 11
M  V30 37 1 37 18
M  V30 38 1 37 26
M  V30 39 1 38 5
M  V30 40 2 38 15
M  V30 41 1 38 30
M  V30 42 1 39 1
M  V30 43 1 40 1
M  V30 44 1 41 2
M  V30 45 1 4 42 CFG=3
M  V30 46 1 6 43 CFG=3
M  V30 47 1 44 7
M  V30 48 1 45 7
M  V30 49 1 46 7
M  V30 50 1 47 8
M  V30 51 1 48 10
M  V30 52 1 49 11
M  V30 53 1 50 11
M  V30 54 1 51 12
M  V30 55 1 52 12
M  V30 56 1 53 12
M  V30 57 1 54 13
M  V30 58 1 55 13
M  V30 59 1 56 14
M  V30 60 1 57 14
M  V30 61 1 58 17
M  V30 62 1 19 59 CFG=1
M  V30 63 1 60 20
M  V30 64 1 61 21
M  V30 65 1 62 21
M  V30 66 1 63 22
M  V30 67 1 64 22
M  V30 68 1 65 24
M  V30 69 1 66 24
M  V30 70 1 67 24
M  V30 71 1 68 25
M  V30 72 1 69 25
M  V30 73 1 70 26
M  V30 74 1 71 26
M  V30 75 1 27 72 CFG=3
M  V30 76 1 28 73 CFG=3
M  V30 77 1 74 29
M  V30 78 1 75 29
M  V30 79 1 31 76 CFG=3
M  V30 80 1 77 32
M  V30 81 1 78 32
M  V30 82 1 79 33
M  V30 83 1 80 34
M  V30 84 1 81 34
M  V30 85 1 35 82 CFG=3
M  V30 86 1 83 36
M  V30 87 1 84 36
M  V30 88 1 85 20
M  V30 END BOND
M  V30 END CTAB
M  END
>  <i_epik_Tot_Q>  (1) 
0

>  <i_epik_Tot_abs_Q>  (1) 
2

>  <i_i_glide_confnum>  (1) 
869

>  <i_i_glide_lignum>  (1) 
233

>  <i_i_glide_posenum>  (1) 
368

>  <i_i_glide_rotatable_bonds>  (1) 
10

>  <i_lp_mmshare_version>  (1) 
72125

>  <i_m_source_file_index>  (1) 
91

>  <i_f3d_flags>  (1) 
0

>  <num_sample>  (1) 
100

>  <b_lp_Chiralities_Consistent>  (1) 
1

>  <r_epik_Charging_Adjusted_Penalty>  (1) 
1.3235823108087639

>  <r_epik_Ionization_Penalty>  (1) 
0.58520961668590687

>  <r_epik_Ionization_Penalty_Charging>  (1) 
0.5818654171532841

>  <r_epik_Ionization_Penalty_Neutral>  (1) 
0.0033441995326227757

>  <r_epik_State_Penalty>  (1) 
0.74171689365547977

>  <r_glide_ring_energy>  (1) 
0.52270073413304585

>  <r_i_docking_score>  (1) 
-3.4728954717288909

>  <r_i_glide_ecoul>  (1) 
-5.3942906201699259

>  <r_i_glide_eff_state_penalty>  (1) 
0.74171689365547977

>  <r_i_glide_einternal>  (1) 
17.667018641521349

>  <r_i_glide_emodel>  (1) 
-13.043627536143653

>  <r_i_glide_emodel_strain>  (1) 
10.124360354518728

>  <r_i_glide_energy>  (1) 
-28.72788803460336

>  <r_i_glide_erotb>  (1) 
0.42002339013477186

>  <r_i_glide_esite>  (1) 
-0.13978620886647081

>  <r_i_glide_evdw>  (1) 
-23.333597414433434

>  <r_i_glide_gscore>  (1) 
-4.2146123653843706

>  <r_i_glide_gscore_strain>  (1) 
1.5310900886296821

>  <r_i_glide_hbond>  (1) 
-0.20310925623820514

>  <r_i_glide_ligand_efficiency>  (1) 
-0.091391986098128708

>  <r_i_glide_ligand_efficiency_ln>  (1) 
-0.74885842593893481

>  <r_i_glide_ligand_efficiency_sa>  (1) 
-0.30725760964042154

>  <r_i_glide_lipo>  (1) 
-3.0175574154985494

>  <r_i_glide_metal>  (1) 
-0

>  <r_i_glide_rewards>  (1) 
-0.82944949979843796

>  <r_lp_Energy>  (1) 
57.623837999999999

>  <s_epik_Chemistry_Notes>  (1) 
This compound has a N-S or N-O group and may undergo hydrolysis at high or low pH.

>  <s_epik_cmdline>  (1) 
J2VwaWtfcHl0aG9uJywgJy1waHQnLCAnMS4wJywgJy1waCcsICc3LjQnLCAnLXRuJywgJzgnLCAnLW1hJywgJzUwMCcsICctaW1hZScsICc8aW5maWxlLm1hZT4nLCAnLW9tYWUnLCAnPG91dGZpbGUubWFlPic=

>  <s_epik_input>  (1) 
RkMoRikoW0NIMl0xKVtDSDJdW0NIMl1bQ0BIXShbQ0BASF0xMilbQ0BIXShbQ0gyXVtDQEhdKFtDSDJdW0NIMl0yKUMoW0NIM10pKFtDSDNdKU9bQ0gzXSlbTkhdTjNbQ0gyXVtDSDJdW0NIMl1bQ0BIXShbQ0gyXTMpL1tDSF09W0NIXVxbQ0BASF0oW0NIMl1bQ0BdNChbT0hdKUMoPU8pW09IXSlbQ0gyXVtDQEBIXTRbTkhdW09IXQ==

>  <s_glide_docking_method>  (1) 
confgen

>  <s_i_glide_gridfile>  (1) 
gpcr_5ht2c_6bqh_protein_autoprepared_prepared

>  <s_lp_Force_Field>  (1) 
S-OPLS

>  <s_lp_Variant>  (1) 
DiffSBDD_90_num_sample_100-5

>  <s_m_source_file>  (1) 
generated__ligand_DiffSBDD_2026-05-06_prepared.sdf

>  <GenAI_Model>  (1) 
DiffSBDD

>  <Protein>  (1) 
GPCR_5HT2C

$$$$
DiffSBDD_29_num_sample_100
     RDKit          3D

  0  0  0  0  0  0  0  0  0  0999 V3000
M  V30 BEGIN CTAB
M  V30 COUNTS 86 90 0 0 1
M  V30 BEGIN ATOM
M  V30 1 F 36.710202 35.733054 59.069801 0
M  V30 2 C 40.537078 31.238481 62.887505 0
M  V30 3 C 37.285743 34.086584 61.427026 0
M  V30 4 C 39.922933 27.603041 57.074700 0 CFG=2
M  V30 5 C 39.909874 28.214014 51.978898 0
M  V30 6 C 41.404989 27.225538 56.939774 0
M  V30 7 C 34.784370 34.481368 58.856004 0
M  V30 8 N 39.817203 31.040954 61.597173 0 CFG=2 CHG=1
M  V30 9 C 37.768108 27.294175 55.563403 0 CFG=1
M  V30 10 C 39.855183 31.272645 52.099735 0
M  V30 11 C 39.560191 28.526285 61.814119 0
M  V30 12 C 40.031527 30.409608 53.327727 0 CFG=1
M  V30 13 C 35.924731 34.708053 59.440363 0
M  V30 14 C 39.128212 28.881477 60.403487 0 CFG=2
M  V30 15 C 40.856768 33.662139 62.253733 0
M  V30 16 C 36.712451 25.773250 57.439147 0
M  V30 17 C 39.273124 27.575720 55.617900 0 CFG=1
M  V30 18 C 40.200733 29.047996 59.333288 0 CFG=1
M  V30 19 C 35.187815 32.858441 60.757007 0
M  V30 20 N 40.169441 33.363970 61.003419 0
M  V30 21 N 36.223108 33.869591 60.457884 0
M  V30 22 F 34.267394 35.221427 57.865414 0
M  V30 23 S 39.022256 30.496730 54.867488 0
M  V30 24 C 39.173071 32.296416 61.088189 0 CFG=2
M  V30 25 C 41.544346 32.391181 62.757303 0
M  V30 26 C 38.041179 24.683709 55.540178 0
M  V30 27 O 41.280967 28.221907 59.652432 0
M  V30 28 C 39.730942 28.789789 54.751879 0 CFG=2
M  V30 29 C 39.722964 28.942983 57.854460 0
M  V30 30 C 39.931341 30.481192 50.756636 0
M  V30 31 C 39.412376 29.014493 50.765530 0
M  V30 32 C 37.968633 32.785003 61.929436 0
M  V30 33 O 37.238355 27.466613 54.253558 0
M  V30 34 C 39.467096 28.997613 53.211661 0 CFG=2
M  V30 35 C 38.910012 29.861147 61.568382 0 CFG=2
M  V30 36 C 37.204954 25.892008 55.991559 0
M  V30 37 O 39.447044 26.570865 57.905905 0
M  V30 38 S 33.864310 33.216134 59.453471 0
M  V30 39 H 39.830738 31.425963 63.694921 0
M  V30 40 H 41.086273 30.339365 63.166514 0
M  V30 41 H 36.800701 34.601773 62.253030 0
M  V30 42 H 38.018000 34.794339 61.039053 0
M  V30 43 H 39.492758 27.207433 51.971223 0
M  V30 44 H 40.987036 28.129639 51.853571 0
M  V30 45 H 42.026646 28.063770 56.633910 0
M  V30 46 H 41.863664 26.817286 57.836722 0
M  V30 47 H 41.467321 26.422309 56.218239 0
M  V30 48 H 37.467213 28.103232 56.211178 0
M  V30 49 H 39.067385 31.998465 52.203469 0
M  V30 50 H 40.668049 31.958420 52.045450 0
M  V30 51 H 38.981153 27.721510 62.253922 0
M  V30 52 H 40.618540 28.495887 62.057087 0
M  V30 53 H 41.067042 30.457584 53.637056 0
M  V30 54 H 38.264042 28.323980 60.056655 0
M  V30 55 H 40.160411 34.058349 62.993209 0
M  V30 56 H 41.586653 34.449793 62.067300 0
M  V30 57 H 37.399839 25.236547 58.088288 0
M  V30 58 H 36.524941 26.760676 57.853484 0
M  V30 59 H 35.777302 25.222536 57.478785 0
M  V30 60 H 39.698277 26.713825 55.106860 0
M  V30 61 H 40.633110 30.021239 59.453587 0
M  V30 62 H 35.561679 31.843720 60.616305 0
M  V30 63 H 34.783956 32.972011 61.766046 0
M  V30 64 H 40.839894 33.157850 60.275744 0
M  V30 65 H 38.822552 32.098812 60.074386 0
M  V30 66 H 42.011695 32.585296 63.721473 0
M  V30 67 H 42.351680 32.114879 62.076625 0
M  V30 68 H 38.982713 24.605218 56.083944 0
M  V30 69 H 37.492260 23.753471 55.693343 0
M  V30 70 H 38.272372 24.755296 54.480108 0
M  V30 71 H 41.013808 27.326261 59.496368 0
M  V30 72 H 40.742895 28.977750 55.053511 0
M  V30 73 H 40.263653 29.715776 57.311227 0
M  V30 74 H 38.678363 29.248799 57.804191 0
M  V30 75 H 39.454975 31.053239 49.958477 0
M  V30 76 H 40.981419 30.429537 50.472320 0
M  V30 77 H 38.322329 29.004900 50.764607 0
M  V30 78 H 39.708316 28.514147 49.846342 0
M  V30 79 H 37.224610 32.004229 62.032542 0
M  V30 80 H 38.297867 32.935552 62.951170 0
M  V30 81 H 37.588434 26.798553 53.683470 0
M  V30 82 H 38.394192 29.110120 53.038135 0
M  V30 83 H 37.941644 30.021491 62.028658 0
M  V30 84 H 36.270529 25.769835 55.454016 0
M  V30 85 H 39.558023 25.746953 57.457596 0
M  V30 86 H 40.542281 30.818892 60.932206 0
M  V30 END ATOM
M  V30 BEGIN BOND
M  V30 1 1 6 4
M  V30 2 1 8 2
M  V30 3 1 12 10
M  V30 4 1 13 1
M  V30 5 2 13 7
M  V30 6 1 14 11
M  V30 7 1 17 4
M  V30 8 1 17 9
M  V30 9 1 18 14
M  V30 10 1 20 15
M  V30 11 1 21 3
M  V30 12 1 21 13
M  V30 13 1 21 19
M  V30 14 1 22 7
M  V30 15 1 23 12
M  V30 16 1 24 8
M  V30 17 1 24 20
M  V30 18 1 25 2
M  V30 19 1 25 15
M  V30 20 1 27 18
M  V30 21 1 28 17
M  V30 22 1 28 23
M  V30 23 1 29 4
M  V30 24 1 29 18
M  V30 25 1 30 10
M  V30 26 1 31 5
M  V30 27 1 31 30
M  V30 28 1 32 3
M  V30 29 1 32 24
M  V30 30 1 33 9
M  V30 31 1 34 5
M  V30 32 1 34 12
M  V30 33 1 34 28
M  V30 34 1 35 8
M  V30 35 1 35 11
M  V30 36 1 35 14
M  V30 37 1 36 9
M  V30 38 1 36 16
M  V30 39 1 36 26
M  V30 40 1 4 37 CFG=1
M  V30 41 1 38 7
M  V30 42 1 38 19
M  V30 43 1 39 2
M  V30 44 1 40 2
M  V30 45 1 41 3
M  V30 46 1 42 3
M  V30 47 1 43 5
M  V30 48 1 44 5
M  V30 49 1 45 6
M  V30 50 1 46 6
M  V30 51 1 47 6
M  V30 52 1 9 48 CFG=1
M  V30 53 1 49 10
M  V30 54 1 50 10
M  V30 55 1 51 11
M  V30 56 1 52 11
M  V30 57 1 12 53 CFG=1
M  V30 58 1 14 54 CFG=3
M  V30 59 1 55 15
M  V30 60 1 56 15
M  V30 61 1 57 16
M  V30 62 1 58 16
M  V30 63 1 59 16
M  V30 64 1 17 60 CFG=3
M  V30 65 1 18 61 CFG=3
M  V30 66 1 62 19
M  V30 67 1 63 19
M  V30 68 1 64 20
M  V30 69 1 24 65 CFG=3
M  V30 70 1 66 25
M  V30 71 1 67 25
M  V30 72 1 68 26
M  V30 73 1 69 26
M  V30 74 1 70 26
M  V30 75 1 71 27
M  V30 76 1 28 72 CFG=3
M  V30 77 1 73 29
M  V30 78 1 74 29
M  V30 79 1 75 30
M  V30 80 1 76 30
M  V30 81 1 77 31
M  V30 82 1 78 31
M  V30 83 1 79 32
M  V30 84 1 80 32
M  V30 85 1 81 33
M  V30 86 1 34 82 CFG=1
M  V30 87 1 35 83 CFG=1
M  V30 88 1 84 36
M  V30 89 1 85 37
M  V30 90 1 8 86 CFG=3
M  V30 END BOND
M  V30 END CTAB
M  END
>  <i_epik_Tot_Q>  (1) 
1

>  <i_epik_Tot_abs_Q>  (1) 
1

>  <i_i_glide_confnum>  (1) 
228

>  <i_i_glide_lignum>  (1) 
78

>  <i_i_glide_posenum>  (1) 
198

>  <i_i_glide_rotatable_bonds>  (1) 
14

>  <i_lp_mmshare_version>  (1) 
72125

>  <i_m_source_file_index>  (1) 
30

>  <i_f3d_flags>  (1) 
0

>  <num_sample>  (1) 
100

>  <b_lp_Chiralities_Consistent>  (1) 
1

>  <r_epik_Charging_Adjusted_Penalty>  (1) 
1.7477768688038313

>  <r_epik_Ionization_Penalty>  (1) 
0.56833185219894722

>  <r_epik_Ionization_Penalty_Charging>  (1) 
0.56833130032608237

>  <r_epik_Ionization_Penalty_Neutral>  (1) 
5.5187286482775955e-07

>  <r_epik_State_Penalty>  (1) 
1.179445568477749

>  <r_glide_ring_energy>  (1) 
2.3029442833191154

>  <r_i_docking_score>  (1) 
-3.4618890075480193

>  <r_i_glide_ecoul>  (1) 
3.5719062302065896

>  <r_i_glide_eff_state_penalty>  (1) 
1.179445568477749

>  <r_i_glide_einternal>  (1) 
12.813453743676209

>  <r_i_glide_emodel>  (1) 
-13.168612673712268

>  <r_i_glide_emodel_strain>  (1) 
10.971499160308326

>  <r_i_glide_energy>  (1) 
-19.899669659650534

>  <r_i_glide_erotb>  (1) 
0.46833353265868582

>  <r_i_glide_esite>  (1) 
-0.043449905355418088

>  <r_i_glide_evdw>  (1) 
-23.471575889857125

>  <r_i_glide_gscore>  (1) 
-4.641334576025768

>  <r_i_glide_gscore_strain>  (1) 
1.7428747900770816

>  <r_i_glide_hbond>  (1) 
0

>  <r_i_glide_ligand_efficiency>  (1) 
-0.091102342303895245

>  <r_i_glide_ligand_efficiency_ln>  (1) 
-0.74648510848416638

>  <r_i_glide_ligand_efficiency_sa>  (1) 
-0.30628383432747669

>  <r_i_glide_lipo>  (1) 
-4.9943358806949059

>  <r_i_glide_metal>  (1) 
-0

>  <r_i_glide_rewards>  (1) 
-1.1769642527493436

>  <r_lp_Energy>  (1) 
47.259627999999999

>  <s_epik_Chemistry_Notes>  (1) 
This compound has an imine and may undergo hydrolysis. This compound contains an acetal/aminal-like group ( X-CH(R)-Y where X, Y are N, S, or O) that may be acid/base labile, releasing an aldehyde.

>  <s_epik_cmdline>  (1) 
J2VwaWtfcHl0aG9uJywgJy1waHQnLCAnMS4wJywgJy1waCcsICc3LjQnLCAnLXRuJywgJzgnLCAnLW1hJywgJzUwMCcsICctaW1hZScsICc8aW5maWxlLm1hZT4nLCAnLW9tYWUnLCAnPG91dGZpbGUubWFlPic=

>  <s_epik_input>  (1) 
RkMxPUMoRilOKFtDSDJdUzEpW0NIMl1bQ0gyXVtDQEhdMltOSF1bQ0gyXVtDSDJdW0NIMl1OMltDQEBIXTNbQ0gyXVtDQEBIXTNbQ0BASF0oW09IXSlbQ0gyXVtDQEBdKFtDSDNdKShbT0hdKVtDQEBIXShbQ0BASF0oW09IXSlbQ0hdKFtDSDNdKVtDSDNdKVtDQEhdKFM0KVtDQEBIXShbQ0BASF00NSlbQ0gyXVtDSDJdW0NIMl1bQ0gyXTU=

>  <s_glide_docking_method>  (1) 
confgen

>  <s_i_glide_gridfile>  (1) 
gpcr_5ht2c_6bqh_protein_autoprepared_prepared

>  <s_lp_Force_Field>  (1) 
S-OPLS

>  <s_lp_Variant>  (1) 
DiffSBDD_29_num_sample_100-8

>  <s_m_source_file>  (1) 
generated__ligand_DiffSBDD_2026-05-06_prepared.sdf

>  <GenAI_Model>  (1) 
DiffSBDD

>  <Protein>  (1) 
GPCR_5HT2C

$$$$
DiffSBDD_8_num_sample_100
     RDKit          3D

  0  0  0  0  0  0  0  0  0  0999 V3000
M  V30 BEGIN CTAB
M  V30 COUNTS 55 55 0 0 1
M  V30 BEGIN ATOM
M  V30 1 C 39.977141 30.077363 50.702350 0
M  V30 2 C 38.765134 28.470045 53.120921 0
M  V30 3 C 40.118093 28.574601 50.947491 0
M  V30 4 C 37.996888 32.646708 61.212022 0
M  V30 5 C 37.629536 31.046424 59.346226 0 CFG=2
M  V30 6 C 38.731251 30.333866 60.151718 0
M  V30 7 N 37.707325 30.792939 57.882769 0 CHG=1
M  V30 8 C 37.776262 32.544605 59.691101 0 CFG=1
M  V30 9 S 38.862009 31.155547 61.755841 0
M  V30 10 C 41.174191 30.620836 49.925910 0
M  V30 11 C 36.653037 33.466139 59.168204 0
M  V30 12 C 37.732712 26.566322 56.375389 0
M  V30 13 C 35.234092 33.140058 59.676672 0
M  V30 14 N 34.239551 34.021425 59.053522 0 CHG=1
M  V30 15 C 38.311003 27.734465 55.546311 0 CFG=2
M  V30 16 C 37.866950 29.157357 55.982924 0
M  V30 17 C 38.939629 27.932701 51.691820 0
M  V30 18 C 38.040821 27.484188 54.049285 0
M  V30 19 C 37.818563 29.364854 57.504855 0
M  V30 20 H 39.883680 30.618159 51.644332 0
M  V30 21 H 39.067488 30.276328 50.143796 0
M  V30 22 H 39.740497 28.697343 53.542463 0
M  V30 23 H 38.232385 29.420891 53.095838 0
M  V30 24 H 40.231871 28.066959 49.990263 0
M  V30 25 H 41.047235 28.406774 51.490299 0
M  V30 26 H 37.057738 32.688568 61.760918 0
M  V30 27 H 38.567356 33.537078 61.479420 0
M  V30 28 H 36.668653 30.676095 59.703864 0
M  V30 29 H 38.526368 29.271671 60.289902 0
M  V30 30 H 39.697516 30.421447 59.655172 0
M  V30 31 H 38.500913 31.286286 57.501304 0
M  V30 32 H 38.703757 32.886836 59.227698 0
M  V30 33 H 40.962016 31.621421 49.567733 0
M  V30 34 H 41.397838 30.012830 49.053477 0
M  V30 35 H 42.069336 30.656269 50.546770 0
M  V30 36 H 36.897257 34.495623 59.435684 0
M  V30 37 H 36.667466 33.444845 58.077713 0
M  V30 38 H 36.667526 26.421256 56.208779 0
M  V30 39 H 38.215629 25.629328 56.095687 0
M  V30 40 H 37.897474 26.685777 57.445691 0
M  V30 41 H 34.955476 32.111024 59.451587 0
M  V30 42 H 35.160505 33.265498 60.756363 0
M  V30 43 H 33.319067 33.817417 59.416481 0
M  V30 44 H 34.459864 34.987954 59.249078 0
M  V30 45 H 39.391270 27.688548 55.696335 0
M  V30 46 H 38.574675 29.870282 55.557365 0
M  V30 47 H 36.907365 29.422406 55.539955 0
M  V30 48 H 38.013807 28.056507 51.128509 0
M  V30 49 H 39.125837 26.858518 51.722325 0
M  V30 50 H 36.969806 27.505702 53.842111 0
M  V30 51 H 38.368150 26.470112 53.815676 0
M  V30 52 H 36.975631 28.818873 57.931256 0
M  V30 53 H 38.729952 28.946294 57.932067 0
M  V30 54 H 34.247161 33.871041 58.054285 0
M  V30 55 H 36.861400 31.179123 57.453436 0
M  V30 END ATOM
M  V30 BEGIN BOND
M  V30 1 1 3 1
M  V30 2 1 6 5
M  V30 3 1 7 5
M  V30 4 1 8 4
M  V30 5 1 8 5
M  V30 6 1 9 4
M  V30 7 1 9 6
M  V30 8 1 10 1
M  V30 9 1 11 8
M  V30 10 1 13 11
M  V30 11 1 14 13
M  V30 12 1 15 12
M  V30 13 1 16 15
M  V30 14 1 17 2
M  V30 15 1 17 3
M  V30 16 1 18 2
M  V30 17 1 18 15
M  V30 18 1 19 7
M  V30 19 1 19 16
M  V30 20 1 20 1
M  V30 21 1 21 1
M  V30 22 1 22 2
M  V30 23 1 23 2
M  V30 24 1 24 3
M  V30 25 1 25 3
M  V30 26 1 26 4
M  V30 27 1 27 4
M  V30 28 1 5 28 CFG=1
M  V30 29 1 29 6
M  V30 30 1 30 6
M  V30 31 1 31 7
M  V30 32 1 8 32 CFG=3
M  V30 33 1 33 10
M  V30 34 1 34 10
M  V30 35 1 35 10
M  V30 36 1 36 11
M  V30 37 1 37 11
M  V30 38 1 38 12
M  V30 39 1 39 12
M  V30 40 1 40 12
M  V30 41 1 41 13
M  V30 42 1 42 13
M  V30 43 1 43 14
M  V30 44 1 44 14
M  V30 45 1 15 45 CFG=3
M  V30 46 1 46 16
M  V30 47 1 47 16
M  V30 48 1 48 17
M  V30 49 1 49 17
M  V30 50 1 50 18
M  V30 51 1 51 18
M  V30 52 1 52 19
M  V30 53 1 53 19
M  V30 54 1 54 14
M  V30 55 1 55 7
M  V30 END BOND
M  V30 END CTAB
M  END
>  <i_epik_Tot_Q>  (1) 
2

>  <i_epik_Tot_abs_Q>  (1) 
2

>  <i_i_glide_confnum>  (1) 
324

>  <i_i_glide_lignum>  (1) 
27

>  <i_i_glide_posenum>  (1) 
341

>  <i_i_glide_rotatable_bonds>  (1) 
11

>  <i_lp_mmshare_version>  (1) 
72125

>  <i_m_source_file_index>  (1) 
9

>  <i_f3d_flags>  (1) 
0

>  <num_sample>  (1) 
100

>  <b_lp_Chiralities_Consistent>  (1) 
1

>  <r_epik_Charging_Adjusted_Penalty>  (1) 
0.011852467883577517

>  <r_epik_Ionization_Penalty>  (1) 
0.0071594001399835584

>  <r_epik_Ionization_Penalty_Charging>  (1) 
0.0071594001399835584

>  <r_epik_Ionization_Penalty_Neutral>  (1) 
0

>  <r_epik_State_Penalty>  (1) 
0.0046930677435939585

>  <r_glide_ring_energy>  (1) 
0

>  <r_i_docking_score>  (1) 
-3.4360241664073787

>  <r_i_glide_ecoul>  (1) 
-5.0300880511232471

>  <r_i_glide_eff_state_penalty>  (1) 
0.0046930677435939585

>  <r_i_glide_einternal>  (1) 
9.2070576968838136

>  <r_i_glide_emodel>  (1) 
-38.493453004075064

>  <r_i_glide_emodel_strain>  (1) 
1.0330084283663226

>  <r_i_glide_energy>  (1) 
-32.650833745545029

>  <r_i_glide_erotb>  (1) 
3.9335954406400124

>  <r_i_glide_esite>  (1) 
-0.096071626439128144

>  <r_i_glide_evdw>  (1) 
-27.620745694421778

>  <r_i_glide_gscore>  (1) 
-3.4407172341509726

>  <r_i_glide_gscore_strain>  (1) 
0

>  <r_i_glide_hbond>  (1) 
-0.20000000000000001

>  <r_i_glide_ligand_efficiency>  (1) 
-0.18084337717933571

>  <r_i_glide_ligand_efficiency_ln>  (1) 
-0.87110592521664454

>  <r_i_glide_ligand_efficiency_sa>  (1) 
-0.48256276582578406

>  <r_i_glide_lipo>  (1) 
-2.7635188030638815

>  <r_i_glide_metal>  (1) 
-0

>  <r_i_glide_rewards>  (1) 
-2.1791717528983989

>  <r_lp_Energy>  (1) 
22.085882999999999

>  <s_epik_cmdline>  (1) 
J2VwaWtfcHl0aG9uJywgJy1waHQnLCAnMS4wJywgJy1waCcsICc3LjQnLCAnLXRuJywgJzgnLCAnLW1hJywgJzUwMCcsICctaW1hZScsICc8aW5maWxlLm1hZT4nLCAnLW9tYWUnLCAnPG91dGZpbGUubWFlPic=

>  <s_epik_input>  (1) 
W0NIM11bQ0gyXVtDSDJdW0NIMl1bQ0gyXVtDSDJdW0NASF0oW0NIM10pW0NIMl1bQ0gyXVtOSF1bQ0BIXTFbQ0gyXVNbQ0gyXVtDQEBIXTFbQ0gyXVtDSDJdW05IMl0=

>  <s_glide_docking_method>  (1) 
confgen

>  <s_i_glide_gridfile>  (1) 
gpcr_5ht2c_6bqh_protein_autoprepared_prepared

>  <s_lp_Force_Field>  (1) 
S-OPLS

>  <s_lp_Variant>  (1) 
DiffSBDD_8_num_sample_100-1

>  <s_m_source_file>  (1) 
generated__ligand_DiffSBDD_2026-05-06_prepared.sdf

>  <GenAI_Model>  (1) 
DiffSBDD

>  <Protein>  (1) 
GPCR_5HT2C

$$$$
DiffSBDD_8_num_sample_100
     RDKit          3D

  0  0  0  0  0  0  0  0  0  0999 V3000
M  V30 BEGIN CTAB
M  V30 COUNTS 55 55 0 0 1
M  V30 BEGIN ATOM
M  V30 1 C 40.376107 29.108552 51.097929 0
M  V30 2 C 38.015594 28.681106 53.181078 0
M  V30 3 C 39.250178 28.058632 51.031588 0
M  V30 4 C 36.996116 34.296024 61.358681 0
M  V30 5 C 37.636049 32.985454 59.373507 0 CFG=2
M  V30 6 C 36.937704 34.184709 58.719950 0
M  V30 7 N 37.467405 31.748418 58.584573 0 CHG=1
M  V30 8 C 37.011471 32.871566 60.775840 0 CFG=1
M  V30 9 S 36.803984 35.463189 59.986100 0
M  V30 10 C 40.547320 29.887966 49.789792 0
M  V30 11 C 37.616045 31.797857 61.716304 0
M  V30 12 C 39.515655 31.167322 54.653833 0
M  V30 13 C 39.121553 31.900804 62.034448 0
M  V30 14 N 39.556246 30.821427 62.947403 0 CHG=1
M  V30 15 C 38.329304 30.311961 55.146752 0 CFG=2
M  V30 16 C 38.186966 30.341898 56.678700 0
M  V30 17 C 38.783567 27.586952 52.417790 0
M  V30 18 C 38.445840 28.855224 54.647451 0
M  V30 19 C 38.131971 31.758512 57.268763 0
M  V30 20 H 41.307784 28.621788 51.384044 0
M  V30 21 H 40.187504 29.833273 51.885156 0
M  V30 22 H 38.134956 29.621432 52.655895 0
M  V30 23 H 36.944344 28.481396 53.132987 0
M  V30 24 H 38.391948 28.458045 50.495000 0
M  V30 25 H 39.591710 27.202812 50.447968 0
M  V30 26 H 37.935843 34.536557 61.853480 0
M  V30 27 H 36.190668 34.429440 62.082088 0
M  V30 28 H 38.700242 33.205646 59.470141 0
M  V30 29 H 37.466259 34.560755 57.846661 0
M  V30 30 H 35.927400 33.920702 58.403136 0
M  V30 31 H 36.479182 31.621462 58.366744 0
M  V30 32 H 35.964114 32.597746 60.630648 0
M  V30 33 H 41.418422 30.542787 49.836260 0
M  V30 34 H 39.676149 30.514071 49.595102 0
M  V30 35 H 40.667373 29.221418 48.937390 0
M  V30 36 H 37.067426 31.845853 62.653482 0
M  V30 37 H 37.409113 30.811421 61.299553 0
M  V30 38 H 40.466465 30.786627 55.027450 0
M  V30 39 H 39.570663 31.187188 53.567190 0
M  V30 40 H 39.428489 32.207404 54.966204 0
M  V30 41 H 39.714023 31.838474 61.121353 0
M  V30 42 H 39.354457 32.857296 62.502798 0
M  V30 43 H 40.544201 30.911963 63.138655 0
M  V30 44 H 39.056736 30.874187 63.824428 0
M  V30 45 H 37.412645 30.741912 54.737512 0
M  V30 46 H 37.266685 29.812788 56.933603 0
M  V30 47 H 38.999297 29.783640 57.146126 0
M  V30 48 H 38.119335 26.734088 52.300477 0
M  V30 49 H 39.641981 27.222351 52.981967 0
M  V30 50 H 37.835988 28.187984 55.257580 0
M  V30 51 H 39.473694 28.522934 54.794063 0
M  V30 52 H 39.140045 32.165579 57.353935 0
M  V30 53 H 37.571863 32.421836 56.606906 0
M  V30 54 H 39.384532 29.912845 62.538739 0
M  V30 55 H 37.798818 30.955836 59.111362 0
M  V30 END ATOM
M  V30 BEGIN BOND
M  V30 1 1 3 1
M  V30 2 1 6 5
M  V30 3 1 7 5
M  V30 4 1 8 4
M  V30 5 1 8 5
M  V30 6 1 9 4
M  V30 7 1 9 6
M  V30 8 1 10 1
M  V30 9 1 11 8
M  V30 10 1 13 11
M  V30 11 1 14 13
M  V30 12 1 15 12
M  V30 13 1 16 15
M  V30 14 1 17 2
M  V30 15 1 17 3
M  V30 16 1 18 2
M  V30 17 1 18 15
M  V30 18 1 19 7
M  V30 19 1 19 16
M  V30 20 1 20 1
M  V30 21 1 21 1
M  V30 22 1 22 2
M  V30 23 1 23 2
M  V30 24 1 24 3
M  V30 25 1 25 3
M  V30 26 1 26 4
M  V30 27 1 27 4
M  V30 28 1 5 28 CFG=1
M  V30 29 1 29 6
M  V30 30 1 30 6
M  V30 31 1 31 7
M  V30 32 1 8 32 CFG=3
M  V30 33 1 33 10
M  V30 34 1 34 10
M  V30 35 1 35 10
M  V30 36 1 36 11
M  V30 37 1 37 11
M  V30 38 1 38 12
M  V30 39 1 39 12
M  V30 40 1 40 12
M  V30 41 1 41 13
M  V30 42 1 42 13
M  V30 43 1 43 14
M  V30 44 1 44 14
M  V30 45 1 15 45 CFG=3
M  V30 46 1 46 16
M  V30 47 1 47 16
M  V30 48 1 48 17
M  V30 49 1 49 17
M  V30 50 1 50 18
M  V30 51 1 51 18
M  V30 52 1 52 19
M  V30 53 1 53 19
M  V30 54 1 54 14
M  V30 55 1 55 7
M  V30 END BOND
M  V30 END CTAB
M  END
>  <i_epik_Tot_Q>  (1) 
2

>  <i_epik_Tot_abs_Q>  (1) 
2

>  <i_i_glide_confnum>  (1) 
205

>  <i_i_glide_lignum>  (1) 
27

>  <i_i_glide_posenum>  (1) 
192

>  <i_i_glide_rotatable_bonds>  (1) 
11

>  <i_lp_mmshare_version>  (1) 
72125

>  <i_m_source_file_index>  (1) 
9

>  <i_f3d_flags>  (1) 
0

>  <num_sample>  (1) 
100

>  <b_lp_Chiralities_Consistent>  (1) 
1

>  <r_epik_Charging_Adjusted_Penalty>  (1) 
0.011852467883577517

>  <r_epik_Ionization_Penalty>  (1) 
0.0071594001399835584

>  <r_epik_Ionization_Penalty_Charging>  (1) 
0.0071594001399835584

>  <r_epik_Ionization_Penalty_Neutral>  (1) 
0

>  <r_epik_State_Penalty>  (1) 
0.0046930677435939585

>  <r_glide_ring_energy>  (1) 
0

>  <r_i_docking_score>  (1) 
-3.3897725532042293

>  <r_i_glide_ecoul>  (1) 
-4.0494439181996134

>  <r_i_glide_eff_state_penalty>  (1) 
0.0046930677435939585

>  <r_i_glide_einternal>  (1) 
6.8684173303466611

>  <r_i_glide_emodel>  (1) 
-38.679914503648959

>  <r_i_glide_emodel_strain>  (1) 
3.5263465447299005

>  <r_i_glide_energy>  (1) 
-34.31562097854728

>  <r_i_glide_erotb>  (1) 
3.9335954406400124

>  <r_i_glide_esite>  (1) 
-0.094505498674285981

>  <r_i_glide_evdw>  (1) 
-30.266177060347665

>  <r_i_glide_gscore>  (1) 
-3.3944656209478232

>  <r_i_glide_gscore_strain>  (1) 
0

>  <r_i_glide_hbond>  (1) 
-0.15614683768887527

>  <r_i_glide_ligand_efficiency>  (1) 
-0.17840908174759101

>  <r_i_glide_ligand_efficiency_ln>  (1) 
-0.85938014787607997

>  <r_i_glide_ligand_efficiency_sa>  (1) 
-0.47606708788224017

>  <r_i_glide_lipo>  (1) 
-2.6716320716243924

>  <r_i_glide_metal>  (1) 
-0

>  <r_i_glide_rewards>  (1) 
-2.2850512128529563

>  <r_lp_Energy>  (1) 
22.085882999999999

>  <s_epik_cmdline>  (1) 
J2VwaWtfcHl0aG9uJywgJy1waHQnLCAnMS4wJywgJy1waCcsICc3LjQnLCAnLXRuJywgJzgnLCAnLW1hJywgJzUwMCcsICctaW1hZScsICc8aW5maWxlLm1hZT4nLCAnLW9tYWUnLCAnPG91dGZpbGUubWFlPic=

>  <s_epik_input>  (1) 
W0NIM11bQ0gyXVtDSDJdW0NIMl1bQ0gyXVtDSDJdW0NASF0oW0NIM10pW0NIMl1bQ0gyXVtOSF1bQ0BIXTFbQ0gyXVNbQ0gyXVtDQEBIXTFbQ0gyXVtDSDJdW05IMl0=

>  <s_glide_docking_method>  (1) 
confgen

>  <s_i_glide_gridfile>  (1) 
gpcr_5ht2c_6bqh_protein_autoprepared_prepared

>  <s_lp_Force_Field>  (1) 
S-OPLS

>  <s_lp_Variant>  (1) 
DiffSBDD_8_num_sample_100-1

>  <s_m_source_file>  (1) 
generated__ligand_DiffSBDD_2026-05-06_prepared.sdf

>  <GenAI_Model>  (1) 
DiffSBDD

>  <Protein>  (1) 
GPCR_5HT2C

$$$$
DiffSBDD_90_num_sample_100
     RDKit          3D

  0  0  0  0  0  0  0  0  0  0999 V3000
M  V30 BEGIN CTAB
M  V30 COUNTS 85 88 0 0 1
M  V30 BEGIN ATOM
M  V30 1 C 40.901151 28.468768 60.179741 0
M  V30 2 O 44.919973 32.553780 67.729448 0
M  V30 3 F 39.039878 30.637968 53.655100 0
M  V30 4 C 36.956946 31.907090 59.322969 0 CFG=1
M  V30 5 C 41.968826 32.262259 67.099848 0 CFG=2
M  V30 6 C 41.128713 33.044489 64.944045 0 CFG=1
M  V30 7 C 35.139532 34.355854 59.418175 0
M  V30 8 C 40.150162 31.476797 63.245557 0
M  V30 9 C 36.363320 32.575346 60.586072 0
M  V30 10 N 44.362172 32.528231 66.391682 0
M  V30 11 C 39.438627 28.971588 55.262710 0
M  V30 12 C 35.068084 31.909680 61.038384 0
M  V30 13 C 40.696949 32.666251 66.348478 0
M  V30 14 C 42.491289 33.687731 65.128728 0
M  V30 15 O 41.708954 33.613261 69.055633 0
M  V30 16 N 39.749126 29.354684 60.115043 0
M  V30 17 C 41.145335 31.802444 64.083885 0
M  V30 18 F 41.063543 30.433701 54.348631 0
M  V30 19 C 38.165188 31.449601 56.327193 0 CFG=1
M  V30 20 N 39.410780 29.689155 58.704752 0 CHG=1
M  V30 21 C 38.000630 28.938318 55.813490 0
M  V30 22 C 40.067930 30.562710 60.882618 0
M  V30 23 O 36.119411 33.969885 60.380502 0
M  V30 24 C 37.323230 32.527493 61.751631 0
M  V30 25 C 41.163086 28.093207 61.650816 0
M  V30 26 C 39.596646 31.407062 55.793158 0
M  V30 27 C 40.109539 30.226582 62.378871 0 CFG=1
M  V30 28 C 43.058844 33.178334 66.476738 0 CFG=1
M  V30 29 C 38.145531 32.660007 58.677283 0
M  V30 30 O 41.744235 31.398223 69.315011 0 CHG=-1
M  V30 31 C 37.972258 29.645162 58.341709 0 CFG=1
M  V30 32 C 41.246452 29.246763 62.637784 0
M  V30 33 O 42.209891 30.887462 66.861408 0
M  V30 34 C 37.065699 30.360831 59.379565 0
M  V30 35 C 37.675431 30.045584 56.858399 0 CFG=1
M  V30 36 C 37.998913 32.750400 57.160126 0
M  V30 37 C 39.792373 30.358191 54.715760 0
M  V30 38 C 41.796524 32.442998 68.623733 0
M  V30 39 H 40.688411 27.567629 59.609793 0
M  V30 40 H 41.770867 28.929585 59.716388 0
M  V30 41 H 45.733280 33.019492 67.606803 0
M  V30 42 H 36.141299 32.052494 58.652613 0
M  V30 43 H 40.437837 33.753220 64.493084 0
M  V30 44 H 35.109245 35.443415 59.378813 0
M  V30 45 H 35.371120 34.021989 58.406372 0
M  V30 46 H 34.140636 34.006195 59.684117 0
M  V30 47 H 39.305829 32.133209 63.174498 0
M  V30 48 H 44.236506 31.533340 66.246905 0
M  V30 49 H 39.527441 28.226744 54.473210 0
M  V30 50 H 40.140919 28.688206 56.044749 0
M  V30 51 H 35.221192 30.892262 61.390228 0
M  V30 52 H 34.648640 32.481701 61.863981 0
M  V30 53 H 34.333733 31.864828 60.232865 0
M  V30 54 H 40.263970 33.550423 66.819497 0
M  V30 55 H 39.957223 31.864306 66.289685 0
M  V30 56 H 42.378139 34.770216 65.180641 0
M  V30 57 H 43.067406 33.496648 64.237022 0
M  V30 58 H 42.008603 31.163830 64.176675 0
M  V30 59 H 37.536026 31.637902 55.455222 0
M  V30 60 H 39.734342 30.630902 58.550485 0
M  V30 61 H 37.325202 29.064572 54.963745 0
M  V30 62 H 37.763956 27.947460 56.202907 0
M  V30 63 H 39.305100 31.308835 60.726502 0
M  V30 64 H 41.018750 31.001632 60.583668 0
M  V30 65 H 37.581551 31.502102 61.993744 0
M  V30 66 H 38.219613 33.106004 61.536566 0
M  V30 67 H 36.872574 32.929505 62.652188 0
M  V30 68 H 40.390620 27.409148 61.977087 0
M  V30 69 H 42.123817 27.621934 61.762271 0
M  V30 70 H 39.871745 32.378881 55.388283 0
M  V30 71 H 40.266300 31.206215 56.618215 0
M  V30 72 H 39.176192 29.726583 62.650525 0
M  V30 73 H 43.172439 34.068946 67.092928 0
M  V30 74 H 38.180625 33.683860 59.049175 0
M  V30 75 H 39.117576 32.260672 58.925207 0
M  V30 76 H 37.707515 28.590249 58.435755 0
M  V30 77 H 42.221975 29.723473 62.562488 0
M  V30 78 H 41.184316 28.858495 63.655500 0
M  V30 79 H 42.037484 30.508256 67.720035 0
M  V30 80 H 36.055408 29.972859 59.232418 0
M  V30 81 H 37.318184 30.021979 60.381370 0
M  V30 82 H 36.586314 30.030329 56.836013 0
M  V30 83 H 37.065686 33.234697 56.927466 0
M  V30 84 H 38.695498 33.509751 56.803249 0
M  V30 85 H 39.931315 29.049266 58.125319 0
M  V30 END ATOM
M  V30 BEGIN BOND
M  V30 1 1 9 4
M  V30 2 1 10 2
M  V30 3 1 12 9
M  V30 4 1 13 5
M  V30 5 1 13 6
M  V30 6 1 14 6
M  V30 7 1 16 1
M  V30 8 1 17 6
M  V30 9 2 17 8
M  V30 10 1 20 16
M  V30 11 1 21 11
M  V30 12 1 22 16
M  V30 13 1 23 7
M  V30 14 1 23 9
M  V30 15 1 24 9
M  V30 16 1 25 1
M  V30 17 1 26 19
M  V30 18 1 27 8
M  V30 19 1 27 22
M  V30 20 1 28 5
M  V30 21 1 28 10
M  V30 22 1 28 14
M  V30 23 1 29 4
M  V30 24 1 31 20
M  V30 25 1 32 25
M  V30 26 1 32 27
M  V30 27 1 5 33 CFG=1
M  V30 28 1 34 4
M  V30 29 1 34 31
M  V30 30 1 35 19
M  V30 31 1 35 21
M  V30 32 1 35 31
M  V30 33 1 36 19
M  V30 34 1 36 29
M  V30 35 1 37 3
M  V30 36 1 37 11
M  V30 37 1 37 18
M  V30 38 1 37 26
M  V30 39 1 38 5
M  V30 40 2 38 15
M  V30 41 1 38 30
M  V30 42 1 39 1
M  V30 43 1 40 1
M  V30 44 1 41 2
M  V30 45 1 4 42 CFG=3
M  V30 46 1 6 43 CFG=3
M  V30 47 1 44 7
M  V30 48 1 45 7
M  V30 49 1 46 7
M  V30 50 1 47 8
M  V30 51 1 48 10
M  V30 52 1 49 11
M  V30 53 1 50 11
M  V30 54 1 51 12
M  V30 55 1 52 12
M  V30 56 1 53 12
M  V30 57 1 54 13
M  V30 58 1 55 13
M  V30 59 1 56 14
M  V30 60 1 57 14
M  V30 61 1 58 17
M  V30 62 1 19 59 CFG=3
M  V30 63 1 60 20
M  V30 64 1 61 21
M  V30 65 1 62 21
M  V30 66 1 63 22
M  V30 67 1 64 22
M  V30 68 1 65 24
M  V30 69 1 66 24
M  V30 70 1 67 24
M  V30 71 1 68 25
M  V30 72 1 69 25
M  V30 73 1 70 26
M  V30 74 1 71 26
M  V30 75 1 27 72 CFG=1
M  V30 76 1 28 73 CFG=1
M  V30 77 1 74 29
M  V30 78 1 75 29
M  V30 79 1 31 76 CFG=3
M  V30 80 1 77 32
M  V30 81 1 78 32
M  V30 82 1 79 33
M  V30 83 1 80 34
M  V30 84 1 81 34
M  V30 85 1 35 82 CFG=1
M  V30 86 1 83 36
M  V30 87 1 84 36
M  V30 88 1 85 20
M  V30 END BOND
M  V30 END CTAB
M  END
>  <i_epik_Tot_Q>  (1) 
0

>  <i_epik_Tot_abs_Q>  (1) 
2

>  <i_i_glide_confnum>  (1) 
163

>  <i_i_glide_lignum>  (1) 
236

>  <i_i_glide_posenum>  (1) 
283

>  <i_i_glide_rotatable_bonds>  (1) 
10

>  <i_lp_mmshare_version>  (1) 
72125

>  <i_m_source_file_index>  (1) 
91

>  <i_f3d_flags>  (1) 
0

>  <num_sample>  (1) 
100

>  <b_lp_Chiralities_Consistent>  (1) 
1

>  <r_epik_Charging_Adjusted_Penalty>  (1) 
1.3235823108087639

>  <r_epik_Ionization_Penalty>  (1) 
0.58520961668590687

>  <r_epik_Ionization_Penalty_Charging>  (1) 
0.5818654171532841

>  <r_epik_Ionization_Penalty_Neutral>  (1) 
0.0033441995326227757

>  <r_epik_State_Penalty>  (1) 
0.74171689365547977

>  <r_glide_ring_energy>  (1) 
0.48000684916914799

>  <r_i_docking_score>  (1) 
-3.3597789027042726

>  <r_i_glide_ecoul>  (1) 
-0.44695090586031094

>  <r_i_glide_eff_state_penalty>  (1) 
0.74171689365547977

>  <r_i_glide_einternal>  (1) 
13.245649728695858

>  <r_i_glide_emodel>  (1) 
-33.308388292036099

>  <r_i_glide_emodel_strain>  (1) 
4.0094737297583407

>  <r_i_glide_energy>  (1) 
-26.694948712771101

>  <r_i_glide_erotb>  (1) 
0.42002339013477186

>  <r_i_glide_esite>  (1) 
0

>  <r_i_glide_evdw>  (1) 
-26.247997806910789

>  <r_i_glide_gscore>  (1) 
-4.1014957963597523

>  <r_i_glide_gscore_strain>  (1) 
0.0023684324395851775

>  <r_i_glide_hbond>  (1) 
0

>  <r_i_glide_ligand_efficiency>  (1) 
-0.088415234281691388

>  <r_i_glide_ligand_efficiency_ln>  (1) 
-0.72446716610489825

>  <r_i_glide_ligand_efficiency_sa>  (1) 
-0.29724984324141512

>  <r_i_glide_lipo>  (1) 
-1.9582094267056529

>  <r_i_glide_metal>  (1) 
-0

>  <r_i_glide_rewards>  (1) 
-1.18623566600387

>  <r_lp_Energy>  (1) 
58.928919

>  <s_epik_Chemistry_Notes>  (1) 
This compound has a N-S or N-O group and may undergo hydrolysis at high or low pH.

>  <s_epik_cmdline>  (1) 
J2VwaWtfcHl0aG9uJywgJy1waHQnLCAnMS4wJywgJy1waCcsICc3LjQnLCAnLXRuJywgJzgnLCAnLW1hJywgJzUwMCcsICctaW1hZScsICc8aW5maWxlLm1hZT4nLCAnLW9tYWUnLCAnPG91dGZpbGUubWFlPic=

>  <s_epik_input>  (1) 
RkMoRikoW0NIMl0xKVtDSDJdW0NIMl1bQ0BIXShbQ0BASF0xMilbQ0BIXShbQ0gyXVtDQEhdKFtDSDJdW0NIMl0yKUMoW0NIM10pKFtDSDNdKU9bQ0gzXSlbTkhdTjNbQ0gyXVtDSDJdW0NIMl1bQ0BIXShbQ0gyXTMpL1tDSF09W0NIXS9bQ0BASF0oW0NIMl1bQ0BdNChbT0hdKUMoPU8pW09IXSlbQ0gyXVtDQEBIXTRbTkhdW09IXQ==

>  <s_glide_docking_method>  (1) 
confgen

>  <s_i_glide_gridfile>  (1) 
gpcr_5ht2c_6bqh_protein_autoprepared_prepared

>  <s_lp_Force_Field>  (1) 
S-OPLS

>  <s_lp_Variant>  (1) 
DiffSBDD_90_num_sample_100-8

>  <s_m_source_file>  (1) 
generated__ligand_DiffSBDD_2026-05-06_prepared.sdf

>  <GenAI_Model>  (1) 
DiffSBDD

>  <Protein>  (1) 
GPCR_5HT2C

$$$$
DiffSBDD_90_num_sample_100
     RDKit          3D

  0  0  0  0  0  0  0  0  0  0999 V3000
M  V30 BEGIN CTAB
M  V30 COUNTS 85 88 0 0 1
M  V30 BEGIN ATOM
M  V30 1 C 40.118226 29.365037 59.344061 0
M  V30 2 O 39.867345 37.621381 63.045265 0
M  V30 3 F 38.104112 23.621428 56.229283 0
M  V30 4 C 38.477780 29.342926 54.247579 0 CFG=1
M  V30 5 C 40.204352 34.899014 61.939947 0 CFG=2
M  V30 6 C 38.218573 33.535864 61.174807 0 CFG=1
M  V30 7 C 37.996037 32.561988 54.983568 0
M  V30 8 C 37.371932 31.744491 59.515708 0
M  V30 9 C 39.264172 30.660366 53.945330 0
M  V30 10 N 38.897775 37.095777 62.107852 0
M  V30 11 C 38.045031 25.147188 57.905636 0
M  V30 12 C 40.432888 30.864483 54.936444 0
M  V30 13 C 39.761035 33.625929 61.185080 0
M  V30 14 C 37.793723 34.997232 61.409043 0
M  V30 15 O 40.951877 35.440465 64.148482 0
M  V30 16 N 38.867954 29.301753 58.550348 0 CFG=1 CHG=1
M  V30 17 C 37.646767 33.034953 59.844284 0
M  V30 18 F 39.867319 23.757810 57.453509 0
M  V30 19 C 38.372618 26.018254 55.068900 0 CFG=1
M  V30 20 N 38.982835 28.207615 57.516737 0
M  V30 21 C 36.918450 25.866545 57.165800 0
M  V30 22 C 37.691580 29.246331 59.478572 0
M  V30 23 O 38.387369 31.791209 53.853486 0
M  V30 24 C 39.815666 30.636661 52.500542 0
M  V30 25 C 40.046508 30.488500 60.387663 0
M  V30 26 C 39.532579 25.384041 55.819442 0
M  V30 27 C 37.585720 30.494626 60.401739 0 CFG=1
M  V30 28 C 38.886239 35.642628 62.274701 0 CFG=1
M  V30 29 C 39.364251 28.099015 54.021698 0
M  V30 30 O 41.806928 33.621849 63.187836 0 CHG=-1
M  V30 31 C 37.867467 28.169150 56.571541 0 CFG=1
M  V30 32 C 38.829905 30.394934 61.300244 0
M  V30 33 O 40.973259 35.679452 61.053457 0
M  V30 34 C 37.788137 29.381626 55.628497 0
M  V30 35 C 37.467415 26.758791 56.035115 0 CFG=1
M  V30 36 C 38.679416 26.774436 53.789857 0
M  V30 37 C 38.915019 24.451483 56.866757 0
M  V30 38 C 41.061308 34.627159 63.203692 0
M  V30 39 H 40.963062 29.528671 58.673621 0
M  V30 40 H 40.291077 28.409089 59.840963 0
M  V30 41 H 40.142105 36.855319 63.561936 0
M  V30 42 H 37.681685 29.284189 53.504424 0
M  V30 43 H 37.845547 32.955944 62.017870 0
M  V30 44 H 37.483495 33.453000 54.621239 0
M  V30 45 H 37.279044 32.041871 55.610074 0
M  V30 46 H 38.834291 32.906934 55.587150 0
M  V30 47 H 36.960637 31.550058 58.535690 0
M  V30 48 H 38.033927 37.463720 62.481923 0
M  V30 49 H 37.622585 24.412082 58.589893 0
M  V30 50 H 38.635991 25.823757 58.520241 0
M  V30 51 H 41.038519 29.970668 55.053286 0
M  V30 52 H 41.125328 31.621404 54.596141 0
M  V30 53 H 40.109022 31.140262 55.937689 0
M  V30 54 H 40.190200 32.744095 61.645883 0
M  V30 55 H 40.128886 33.651354 60.160348 0
M  V30 56 H 36.800332 35.079694 61.852721 0
M  V30 57 H 37.752712 35.529395 60.456962 0
M  V30 58 H 37.446001 33.799697 59.108308 0
M  V30 59 H 37.781425 25.192876 54.670911 0
M  V30 60 H 38.929092 27.402757 58.125120 0
M  V30 61 H 36.253931 25.118938 56.731661 0
M  V30 62 H 36.292987 26.429117 57.853631 0
M  V30 63 H 37.867411 28.352249 60.075704 0
M  V30 64 H 36.728917 29.151862 58.982358 0
M  V30 65 H 40.667489 29.982356 52.392772 0
M  V30 66 H 39.080228 30.260167 51.790402 0
M  V30 67 H 40.139138 31.621602 52.170981 0
M  V30 68 H 39.867391 31.413263 59.853574 0
M  V30 69 H 40.971977 30.572202 60.956412 0
M  V30 70 H 40.137387 24.821556 55.118000 0
M  V30 71 H 40.188047 26.124454 56.275942 0
M  V30 72 H 36.692718 30.421353 61.022041 0
M  V30 73 H 38.667458 35.458212 63.321963 0
M  V30 74 H 39.867411 28.209030 53.071937 0
M  V30 75 H 40.092100 27.984673 54.823382 0
M  V30 76 H 37.052389 28.371402 57.228867 0
M  V30 77 H 38.843540 31.125201 62.101353 0
M  V30 78 H 38.845526 29.440798 61.828221 0
M  V30 79 H 40.957209 36.560219 61.406256 0
M  V30 80 H 36.737470 29.621356 55.452066 0
M  V30 81 H 38.141341 30.227765 56.203866 0
M  V30 82 H 36.657111 26.821440 55.339165 0
M  V30 83 H 37.778269 26.914421 53.190630 0
M  V30 84 H 39.340190 26.152217 53.187991 0
M  V30 85 H 38.788766 30.159658 58.020395 0
M  V30 END ATOM
M  V30 BEGIN BOND
M  V30 1 1 9 4
M  V30 2 1 10 2
M  V30 3 1 12 9
M  V30 4 1 13 5
M  V30 5 1 13 6
M  V30 6 1 14 6
M  V30 7 1 16 1
M  V30 8 1 17 6
M  V30 9 2 17 8
M  V30 10 1 20 16
M  V30 11 1 21 11
M  V30 12 1 22 16
M  V30 13 1 23 7
M  V30 14 1 23 9
M  V30 15 1 24 9
M  V30 16 1 25 1
M  V30 17 1 26 19
M  V30 18 1 27 8
M  V30 19 1 27 22
M  V30 20 1 28 5
M  V30 21 1 28 10
M  V30 22 1 28 14
M  V30 23 1 29 4
M  V30 24 1 31 20
M  V30 25 1 32 25
M  V30 26 1 32 27
M  V30 27 1 5 33 CFG=3
M  V30 28 1 34 4
M  V30 29 1 34 31
M  V30 30 1 35 19
M  V30 31 1 35 21
M  V30 32 1 35 31
M  V30 33 1 36 19
M  V30 34 1 36 29
M  V30 35 1 37 3
M  V30 36 1 37 11
M  V30 37 1 37 18
M  V30 38 1 37 26
M  V30 39 1 38 5
M  V30 40 2 38 15
M  V30 41 1 38 30
M  V30 42 1 39 1
M  V30 43 1 40 1
M  V30 44 1 41 2
M  V30 45 1 4 42 CFG=3
M  V30 46 1 6 43 CFG=1
M  V30 47 1 44 7
M  V30 48 1 45 7
M  V30 49 1 46 7
M  V30 50 1 47 8
M  V30 51 1 48 10
M  V30 52 1 49 11
M  V30 53 1 50 11
M  V30 54 1 51 12
M  V30 55 1 52 12
M  V30 56 1 53 12
M  V30 57 1 54 13
M  V30 58 1 55 13
M  V30 59 1 56 14
M  V30 60 1 57 14
M  V30 61 1 58 17
M  V30 62 1 19 59 CFG=3
M  V30 63 1 60 20
M  V30 64 1 61 21
M  V30 65 1 62 21
M  V30 66 1 63 22
M  V30 67 1 64 22
M  V30 68 1 65 24
M  V30 69 1 66 24
M  V30 70 1 67 24
M  V30 71 1 68 25
M  V30 72 1 69 25
M  V30 73 1 70 26
M  V30 74 1 71 26
M  V30 75 1 27 72 CFG=1
M  V30 76 1 28 73 CFG=1
M  V30 77 1 74 29
M  V30 78 1 75 29
M  V30 79 1 31 76 CFG=1
M  V30 80 1 77 32
M  V30 81 1 78 32
M  V30 82 1 79 33
M  V30 83 1 80 34
M  V30 84 1 81 34
M  V30 85 1 35 82 CFG=3
M  V30 86 1 83 36
M  V30 87 1 84 36
M  V30 88 1 16 85 CFG=3
M  V30 END BOND
M  V30 END CTAB
M  END
>  <i_epik_Tot_Q>  (1) 
0

>  <i_epik_Tot_abs_Q>  (1) 
2

>  <i_i_glide_confnum>  (1) 
870

>  <i_i_glide_lignum>  (1) 
241

>  <i_i_glide_posenum>  (1) 
96

>  <i_i_glide_rotatable_bonds>  (1) 
10

>  <i_lp_mmshare_version>  (1) 
72125

>  <i_m_source_file_index>  (1) 
91

>  <i_f3d_flags>  (1) 
0

>  <num_sample>  (1) 
100

>  <b_lp_Chiralities_Consistent>  (1) 
1

>  <r_epik_Charging_Adjusted_Penalty>  (1) 
1.5083745474312953

>  <r_epik_Ionization_Penalty>  (1) 
0.65750586125956467

>  <r_epik_Ionization_Penalty_Charging>  (1) 
0.6544614066189578

>  <r_epik_Ionization_Penalty_Neutral>  (1) 
0.0030444546406068235

>  <r_epik_State_Penalty>  (1) 
0.8539131408123376

>  <r_glide_ring_energy>  (1) 
0

>  <r_i_docking_score>  (1) 
-3.3146948752610164

>  <r_i_glide_ecoul>  (1) 
-0.70719167650465842

>  <r_i_glide_eff_state_penalty>  (1) 
0.8539131408123376

>  <r_i_glide_einternal>  (1) 
21.72936663284532

>  <r_i_glide_emodel>  (1) 
-9.3804708669598149

>  <r_i_glide_emodel_strain>  (1) 
12.91288451366826

>  <r_i_glide_energy>  (1) 
-29.152879459344781

>  <r_i_glide_erotb>  (1) 
0.42002339013477186

>  <r_i_glide_esite>  (1) 
-0.0044251063982671951

>  <r_i_glide_evdw>  (1) 
-28.445687782840125

>  <r_i_glide_gscore>  (1) 
-4.1686080160733541

>  <r_i_glide_gscore_strain>  (1) 
2.228221128417065

>  <r_i_glide_hbond>  (1) 
0

>  <r_i_glide_ligand_efficiency>  (1) 
-0.087228812506868855

>  <r_i_glide_ligand_efficiency_ln>  (1) 
-0.71474572355041288

>  <r_i_glide_ligand_efficiency_sa>  (1) 
-0.29326112241237096

>  <r_i_glide_lipo>  (1) 
-4.3018253843441236

>  <r_i_glide_metal>  (1) 
-0

>  <r_i_glide_rewards>  (1) 
-0.98223890326509511

>  <r_lp_Energy>  (1) 
49.266497000000001

>  <s_epik_Chemistry_Notes>  (1) 
This compound has a N-S or N-O group and may undergo hydrolysis at high or low pH.

>  <s_epik_cmdline>  (1) 
J2VwaWtfcHl0aG9uJywgJy1waHQnLCAnMS4wJywgJy1waCcsICc3LjQnLCAnLXRuJywgJzgnLCAnLW1hJywgJzUwMCcsICctaW1hZScsICc8aW5maWxlLm1hZT4nLCAnLW9tYWUnLCAnPG91dGZpbGUubWFlPic=

>  <s_epik_input>  (1) 
RkMoRikoW0NIMl0xKVtDSDJdW0NIMl1bQ0BIXShbQ0BASF0xMilbQ0BIXShbQ0gyXVtDQEhdKFtDSDJdW0NIMl0yKUMoW0NIM10pKFtDSDNdKU9bQ0gzXSlbTkhdTjNbQ0gyXVtDSDJdW0NIMl1bQ0BIXShbQ0gyXTMpL1tDSF09W0NIXVxbQ0BASF0oW0NIMl1bQ0BdNChbT0hdKUMoPU8pW09IXSlbQ0gyXVtDQEBIXTRbTkhdW09IXQ==

>  <s_glide_docking_method>  (1) 
confgen

>  <s_i_glide_gridfile>  (1) 
gpcr_5ht2c_6bqh_protein_autoprepared_prepared

>  <s_lp_Force_Field>  (1) 
S-OPLS

>  <s_lp_Variant>  (1) 
DiffSBDD_90_num_sample_100-13

>  <s_m_source_file>  (1) 
generated__ligand_DiffSBDD_2026-05-06_prepared.sdf

>  <GenAI_Model>  (1) 
DiffSBDD

>  <Protein>  (1) 
GPCR_5HT2C

$$$$
DiffSBDD_58_num_sample_100
     RDKit          3D

  0  0  0  0  0  0  0  0  0  0999 V3000
M  V30 BEGIN CTAB
M  V30 COUNTS 29 28 0 0 1
M  V30 BEGIN ATOM
M  V30 1 S 38.207164 24.973596 56.297854 0
M  V30 2 C 37.367742 30.408239 54.876278 0
M  V30 3 C 38.459270 31.152101 55.656275 0
M  V30 4 C 38.537690 28.129216 54.839032 0
M  V30 5 S 39.662885 25.607321 55.012066 0
M  V30 6 Cl 37.067377 23.741705 55.053515 0
M  V30 7 O 36.667403 32.805678 59.053503 0
M  V30 8 C 38.577648 32.699154 57.603384 0
M  V30 9 N 37.867404 32.288521 56.380752 0 CHG=1
M  V30 10 C 38.864708 26.885933 54.005796 0
M  V30 11 C 37.681691 33.593581 58.464862 0
M  V30 12 C 37.896846 29.252895 54.010906 0
M  V30 13 H 36.624402 30.021351 55.575023 0
M  V30 14 H 36.831000 31.121781 54.253476 0
M  V30 15 H 39.244920 31.516878 54.993191 0
M  V30 16 H 38.926016 30.467733 56.365583 0
M  V30 17 H 39.454868 28.489800 55.305690 0
M  V30 18 H 37.867114 27.852160 55.652053 0
M  V30 19 H 36.069672 32.480568 58.379943 0
M  V30 20 H 39.488703 33.221431 57.317921 0
M  V30 21 H 38.879491 31.826935 58.185159 0
M  V30 22 H 36.913098 32.021432 56.653491 0
M  V30 23 H 37.960689 26.469635 53.559069 0
M  V30 24 H 39.533245 27.147186 53.185489 0
M  V30 25 H 37.245173 34.409351 57.887584 0
M  V30 26 H 38.267836 34.042213 59.267082 0
M  V30 27 H 37.066708 28.839142 53.437343 0
M  V30 28 H 38.612371 29.629777 53.279044 0
M  V30 29 H 37.752534 33.074562 55.756651 0
M  V30 END ATOM
M  V30 BEGIN BOND
M  V30 1 1 3 2
M  V30 2 1 5 1
M  V30 3 1 6 1
M  V30 4 1 9 3
M  V30 5 1 9 8
M  V30 6 1 10 4
M  V30 7 1 10 5
M  V30 8 1 11 7
M  V30 9 1 11 8
M  V30 10 1 12 2
M  V30 11 1 12 4
M  V30 12 1 13 2
M  V30 13 1 14 2
M  V30 14 1 15 3
M  V30 15 1 16 3
M  V30 16 1 17 4
M  V30 17 1 18 4
M  V30 18 1 19 7
M  V30 19 1 20 8
M  V30 20 1 21 8
M  V30 21 1 22 9
M  V30 22 1 23 10
M  V30 23 1 24 10
M  V30 24 1 25 11
M  V30 25 1 26 11
M  V30 26 1 27 12
M  V30 27 1 28 12
M  V30 28 1 29 9
M  V30 END BOND
M  V30 END CTAB
M  END
>  <i_epik_Tot_Q>  (1) 
1

>  <i_epik_Tot_abs_Q>  (1) 
1

>  <i_i_glide_confnum>  (1) 
68

>  <i_i_glide_lignum>  (1) 
147

>  <i_i_glide_posenum>  (1) 
228

>  <i_i_glide_rotatable_bonds>  (1) 
10

>  <i_lp_mmshare_version>  (1) 
72125

>  <i_m_source_file_index>  (1) 
59

>  <i_f3d_flags>  (1) 
0

>  <num_sample>  (1) 
100

>  <b_lp_Chiralities_Consistent>  (1) 
1

>  <r_epik_Charging_Adjusted_Penalty>  (1) 
0.014760532929550717

>  <r_epik_Ionization_Penalty>  (1) 
0.0073815081172038301

>  <r_epik_Ionization_Penalty_Charging>  (1) 
0.0073802664647753631

>  <r_epik_Ionization_Penalty_Neutral>  (1) 
1.241652428467383e-06

>  <r_epik_State_Penalty>  (1) 
0.0073802664647753553

>  <r_glide_ring_energy>  (1) 
0

>  <r_i_docking_score>  (1) 
-3.3129626807910442

>  <r_i_glide_ecoul>  (1) 
-8.9073316759676295

>  <r_i_glide_eff_state_penalty>  (1) 
0.0073802664647753553

>  <r_i_glide_einternal>  (1) 
5.0225156210855886

>  <r_i_glide_emodel>  (1) 
-35.750428158075657

>  <r_i_glide_emodel_strain>  (1) 
0.45098339685554389

>  <r_i_glide_energy>  (1) 
-29.524195461406848

>  <r_i_glide_erotb>  (1) 
3.5940222146810656

>  <r_i_glide_esite>  (1) 
-0.10000000000000001

>  <r_i_glide_evdw>  (1) 
-20.616863785439218

>  <r_i_glide_gscore>  (1) 
-3.3203429472558197

>  <r_i_glide_gscore_strain>  (1) 
0

>  <r_i_glide_hbond>  (1) 
-0.35999999999999999

>  <r_i_glide_ligand_efficiency>  (1) 
-0.2760802233992537

>  <r_i_glide_ligand_efficiency_ln>  (1) 
-0.95066038024076882

>  <r_i_glide_ligand_efficiency_sa>  (1) 
-0.63206592762486269

>  <r_i_glide_lipo>  (1) 
-1.680305372784932

>  <r_i_glide_metal>  (1) 
-0

>  <r_i_glide_rewards>  (1) 
-2.4071168484848484

>  <r_lp_Energy>  (1) 
0.71688799999999997

>  <s_epik_cmdline>  (1) 
J2VwaWtfcHl0aG9uJywgJy1waHQnLCAnMS4wJywgJy1waCcsICc3LjQnLCAnLXRuJywgJzgnLCAnLW1hJywgJzUwMCcsICctaW1hZScsICc8aW5maWxlLm1hZT4nLCAnLW9tYWUnLCAnPG91dGZpbGUubWFlPic=

>  <s_epik_input>  (1) 
Q2xTU1tDSDJdW0NIMl1bQ0gyXVtDSDJdW0NIMl1bTkhdW0NIMl1bQ0gyXVtPSF0=

>  <s_glide_docking_method>  (1) 
confgen

>  <s_i_glide_gridfile>  (1) 
gpcr_5ht2c_6bqh_protein_autoprepared_prepared

>  <s_lp_Force_Field>  (1) 
S-OPLS

>  <s_lp_Variant>  (1) 
DiffSBDD_58_num_sample_100-1

>  <s_m_source_file>  (1) 
generated__ligand_DiffSBDD_2026-05-06_prepared.sdf

>  <GenAI_Model>  (1) 
DiffSBDD

>  <Protein>  (1) 
GPCR_5HT2C

$$$$
DiffSBDD_93_num_sample_100
     RDKit          3D

  0  0  0  0  0  0  0  0  0  0999 V3000
M  V30 BEGIN CTAB
M  V30 COUNTS 74 77 0 0 1
M  V30 BEGIN ATOM
M  V30 1 C 39.701894 29.863797 52.869501 0
M  V30 2 S 39.120736 29.608064 59.836090 0
M  V30 3 C 40.135631 30.319507 50.412265 0 CFG=2
M  V30 4 O 39.288084 24.760503 57.453664 0
M  V30 5 C 36.374514 34.237323 61.445377 0
M  V30 6 C 39.556780 27.552291 57.100121 0 CFG=1
M  V30 7 C 39.085425 33.190974 60.795749 0
M  V30 8 C 37.978399 32.041397 58.904648 0
M  V30 9 C 39.366772 29.048654 50.144225 0
M  V30 10 N 37.922905 30.070073 57.423237 0 CHG=1
M  V30 11 C 37.419663 35.329698 61.756517 0
M  V30 12 C 40.184832 30.659620 51.881076 0
M  V30 13 C 39.867766 30.266382 54.261283 0
M  V30 14 C 39.240575 30.038740 56.697545 0 CFG=2
M  V30 15 C 39.599644 27.978155 51.178791 0
M  V30 16 Cl 37.325548 28.421382 52.653412 0
M  V30 17 O 37.467404 35.871859 59.453751 0
M  V30 18 C 39.097733 28.495132 52.535462 0 CFG=2
M  V30 19 C 40.959527 31.221424 54.646541 0
M  V30 20 C 38.548238 27.913349 59.419328 0
M  V30 21 C 40.266261 26.550999 56.187902 0
M  V30 22 C 39.077283 29.743279 55.216454 0
M  V30 23 C 39.442708 34.578041 60.300500 0
M  V30 24 C 39.379519 26.989608 58.508285 0 CFG=1
M  V30 25 C 37.864659 30.499345 58.855825 0 CFG=1
M  V30 26 C 38.331754 35.645495 60.556957 0 CFG=2
M  V30 27 C 38.594139 25.671817 58.303658 0
M  V30 28 C 39.449467 25.253649 56.134928 0
M  V30 29 C 36.611125 33.126435 60.707081 0
M  V30 30 S 36.215048 30.052966 59.397019 0 CHG=-1
M  V30 31 N 37.847685 32.740700 60.192825 0
M  V30 32 C 39.603760 31.493130 49.584535 0
M  V30 33 C 40.240068 28.916025 57.092210 0
M  V30 34 H 41.169603 30.143653 50.114817 0
M  V30 35 H 35.371363 34.422235 61.798647 0
M  V30 36 H 38.554519 27.646348 56.682240 0
M  V30 37 H 38.989281 33.180607 61.884166 0
M  V30 38 H 39.889962 32.493544 60.559038 0
M  V30 39 H 37.210825 32.458413 58.249831 0
M  V30 40 H 38.922879 32.342759 58.454007 0
M  V30 41 H 38.317747 29.221039 50.254066 0
M  V30 42 H 39.554302 28.793480 49.111236 0
M  V30 43 H 37.511239 29.151503 57.381994 0
M  V30 44 H 38.032409 35.221455 62.648633 0
M  V30 45 H 36.838519 36.230728 61.952271 0
M  V30 46 H 40.631910 31.607442 52.118817 0
M  V30 47 H 39.708410 31.001031 56.863942 0
M  V30 48 H 39.124450 27.035513 50.902516 0
M  V30 49 H 40.667349 27.820611 51.225911 0
M  V30 50 H 37.010022 35.063738 59.262118 0
M  V30 51 H 39.456826 27.784308 53.278857 0
M  V30 52 H 41.546236 31.621411 53.853570 0
M  V30 53 H 40.667486 32.019315 55.329260 0
M  V30 54 H 41.711469 30.570600 55.053437 0
M  V30 55 H 38.267536 27.430289 60.347016 0
M  V30 56 H 37.644132 28.021436 58.840725 0
M  V30 57 H 41.274792 26.406562 56.566255 0
M  V30 58 H 40.372391 26.945621 55.179403 0
M  V30 59 H 38.289338 29.058170 54.951386 0
M  V30 60 H 39.715732 34.421450 59.260286 0
M  V30 61 H 40.356253 34.890604 60.806227 0
M  V30 62 H 40.347930 26.800760 58.964941 0
M  V30 63 H 38.827859 36.596447 60.748815 0
M  V30 64 H 38.374808 25.221476 59.262437 0
M  V30 65 H 37.612064 25.869577 57.869069 0
M  V30 66 H 39.931829 24.502701 55.518257 0
M  V30 67 H 38.473998 25.429608 55.676763 0
M  V30 68 H 35.811570 32.444278 60.456256 0
M  V30 69 H 40.458157 32.021418 49.205032 0
M  V30 70 H 39.067513 31.221247 48.683494 0
M  V30 71 H 38.972938 32.170098 50.159113 0
M  V30 72 H 40.812642 29.117051 57.992139 0
M  V30 73 H 41.046872 28.840663 56.359533 0
M  V30 74 H 37.285036 30.696931 56.939792 0
M  V30 END ATOM
M  V30 BEGIN BOND
M  V30 1 1 9 3
M  V30 2 1 11 5
M  V30 3 2 12 1
M  V30 4 1 12 3
M  V30 5 1 13 1
M  V30 6 1 14 10
M  V30 7 1 15 9
M  V30 8 1 18 1
M  V30 9 1 18 15
M  V30 10 1 18 16
M  V30 11 1 19 13
M  V30 12 1 20 2
M  V30 13 1 21 6
M  V30 14 2 22 13
M  V30 15 1 22 14
M  V30 16 1 23 7
M  V30 17 1 24 6
M  V30 18 1 24 20
M  V30 19 1 25 2
M  V30 20 1 25 8
M  V30 21 1 25 10
M  V30 22 1 26 11
M  V30 23 1 26 17
M  V30 24 1 26 23
M  V30 25 1 27 4
M  V30 26 1 27 24
M  V30 27 1 28 4
M  V30 28 1 28 21
M  V30 29 2 29 5
M  V30 30 1 25 30 CFG=1
M  V30 31 1 31 7
M  V30 32 1 31 8
M  V30 33 1 31 29
M  V30 34 1 32 3
M  V30 35 1 33 6
M  V30 36 1 33 14
M  V30 37 1 3 34 CFG=3
M  V30 38 1 35 5
M  V30 39 1 6 36 CFG=3
M  V30 40 1 37 7
M  V30 41 1 38 7
M  V30 42 1 39 8
M  V30 43 1 40 8
M  V30 44 1 41 9
M  V30 45 1 42 9
M  V30 46 1 43 10
M  V30 47 1 44 11
M  V30 48 1 45 11
M  V30 49 1 46 12
M  V30 50 1 14 47 CFG=3
M  V30 51 1 48 15
M  V30 52 1 49 15
M  V30 53 1 50 17
M  V30 54 1 18 51 CFG=1
M  V30 55 1 52 19
M  V30 56 1 53 19
M  V30 57 1 54 19
M  V30 58 1 55 20
M  V30 59 1 56 20
M  V30 60 1 57 21
M  V30 61 1 58 21
M  V30 62 1 59 22
M  V30 63 1 60 23
M  V30 64 1 61 23
M  V30 65 1 24 62 CFG=1
M  V30 66 1 26 63 CFG=1
M  V30 67 1 64 27
M  V30 68 1 65 27
M  V30 69 1 66 28
M  V30 70 1 67 28
M  V30 71 1 68 29
M  V30 72 1 69 32
M  V30 73 1 70 32
M  V30 74 1 71 32
M  V30 75 1 72 33
M  V30 76 1 73 33
M  V30 77 1 74 10
M  V30 END BOND
M  V30 END CTAB
M  END
>  <i_epik_Tot_Q>  (1) 
0

>  <i_epik_Tot_abs_Q>  (1) 
2

>  <i_i_glide_confnum>  (1) 
84

>  <i_i_glide_lignum>  (1) 
259

>  <i_i_glide_posenum>  (1) 
68

>  <i_i_glide_rotatable_bonds>  (1) 
5

>  <i_lp_mmshare_version>  (1) 
72125

>  <i_m_source_file_index>  (1) 
94

>  <i_f3d_flags>  (1) 
0

>  <num_sample>  (1) 
100

>  <b_lp_Chiralities_Consistent>  (1) 
1

>  <r_epik_Charging_Adjusted_Penalty>  (1) 
0.80501984278308969

>  <r_epik_Ionization_Penalty>  (1) 
0.072421558423421364

>  <r_epik_Ionization_Penalty_Charging>  (1) 
0.072408791886815996

>  <r_epik_Ionization_Penalty_Neutral>  (1) 
1.2766536605372598e-05

>  <r_epik_State_Penalty>  (1) 
0.73261105089627365

>  <r_glide_ring_energy>  (1) 
0

>  <r_i_docking_score>  (1) 
-3.2733597990366854

>  <r_i_glide_ecoul>  (1) 
-2.6242295199057963

>  <r_i_glide_eff_state_penalty>  (1) 
0.73261105089627365

>  <r_i_glide_einternal>  (1) 
8.2475505682203227

>  <r_i_glide_emodel>  (1) 
1.4433717952370113

>  <r_i_glide_emodel_strain>  (1) 
15.651270274359334

>  <r_i_glide_energy>  (1) 
-18.066677516247836

>  <r_i_glide_erotb>  (1) 
0.31140238833871409

>  <r_i_glide_esite>  (1) 
-0.070190437680345621

>  <r_i_glide_evdw>  (1) 
-15.442447996342038

>  <r_i_glide_gscore>  (1) 
-4.0059708499329592

>  <r_i_glide_gscore_strain>  (1) 
2.9128175685898334

>  <r_i_glide_hbond>  (1) 
-0.091188095603243896

>  <r_i_glide_ligand_efficiency>  (1) 
-0.099192721182929863

>  <r_i_glide_ligand_efficiency_ln>  (1) 
-0.72797827075578625

>  <r_i_glide_ligand_efficiency_sa>  (1) 
-0.31816405847995177

>  <r_i_glide_lipo>  (1) 
-5.0030554457749457

>  <r_i_glide_metal>  (1) 
-0

>  <r_i_glide_rewards>  (1) 
-0.90000000000000002

>  <r_lp_Energy>  (1) 
34.184450999999996

>  <s_epik_Chemistry_Notes>  (1) 
This compound has an imine and may undergo hydrolysis.

>  <s_epik_cmdline>  (1) 
J2VwaWtfcHl0aG9uJywgJy1waHQnLCAnMS4wJywgJy1waCcsICc3LjQnLCAnLXRuJywgJzgnLCAnLW1hJywgJzUwMCcsICctaW1hZScsICc8aW5maWxlLm1hZT4nLCAnLW9tYWUnLCAnPG91dGZpbGUubWFlPic=

>  <s_epik_input>  (1) 
Q2xbQ0BIXTFbQ0gyXVtDSDJdW0NAQEhdKFtDSDNdKVtDSF09QzEvQyhbQ0gzXSk9W0NIXS9bQ0BASF0oW0NIMl0yKVtOSF1bQ0BAXShbU0hdKShTW0NIMl1bQ0BIXShbQ0BASF0yMylbQ0gyXU9bQ0gyXVtDSDJdMylbQ0gyXU4oW0NIMl1bQ0gyXTQpW0NIXT1bQ0hdW0NIMl1bQ0BASF00W09IXQ==

>  <s_glide_docking_method>  (1) 
confgen

>  <s_i_glide_gridfile>  (1) 
gpcr_5ht2c_6bqh_protein_autoprepared_prepared

>  <s_lp_Force_Field>  (1) 
S-OPLS

>  <s_lp_Variant>  (1) 
DiffSBDD_93_num_sample_100-11

>  <s_m_source_file>  (1) 
generated__ligand_DiffSBDD_2026-05-06_prepared.sdf

>  <GenAI_Model>  (1) 
DiffSBDD

>  <Protein>  (1) 
GPCR_5HT2C

$$$$
DiffSBDD_90_num_sample_100
     RDKit          3D

  0  0  0  0  0  0  0  0  0  0999 V3000
M  V30 BEGIN CTAB
M  V30 COUNTS 84 87 0 0 1
M  V30 BEGIN ATOM
M  V30 1 C 38.222326 30.786782 54.636053 0
M  V30 2 O 37.867384 38.471266 59.053502 0
M  V30 3 F 37.067265 25.221415 53.591658 0
M  V30 4 C 39.909126 27.687952 58.804058 0 CFG=1
M  V30 5 C 37.692344 36.348560 61.577492 0 CFG=2
M  V30 6 C 37.169222 34.843455 59.695658 0 CFG=1
M  V30 7 C 37.969662 29.977627 60.257553 0
M  V30 8 C 38.343884 33.047579 58.340531 0
M  V30 9 C 40.003128 28.625391 60.063294 0
M  V30 10 N 37.467438 38.446491 60.394800 0
M  V30 11 C 38.862859 26.735603 53.555665 0
M  V30 12 C 39.660583 28.021635 61.443000 0
M  V30 13 C 38.211141 35.126184 60.786427 0
M  V30 14 C 36.489739 36.195689 59.424756 0
M  V30 15 O 36.684822 36.821535 63.660237 0
M  V30 16 N 38.878993 30.213080 55.810371 0
M  V30 17 C 37.674047 34.206544 58.408025 0
M  V30 18 F 36.667334 27.328036 53.729744 0
M  V30 19 C 38.649467 25.718794 56.358437 0 CFG=1
M  V30 20 N 38.736120 28.806461 55.905727 0
M  V30 21 C 40.015771 26.135935 54.354098 0
M  V30 22 C 38.416659 30.919726 57.006099 0
M  V30 23 O 39.350211 29.888624 59.908135 0
M  V30 24 C 41.467141 28.939709 60.194818 0
M  V30 25 C 38.594483 32.260807 54.487529 0
M  V30 26 C 37.362006 26.179453 55.665195 0
M  V30 27 C 38.813884 32.402994 57.037136 0 CFG=1
M  V30 28 C 36.851297 37.159117 60.593311 0 CFG=1
M  V30 29 C 38.540365 27.046908 58.602881 0
M  V30 30 O 35.867400 35.126863 62.452798 0 CHG=-1
M  V30 31 C 39.962456 28.019368 56.154694 0 CFG=1
M  V30 32 C 38.313641 33.089406 55.754732 0
M  V30 33 O 38.773055 37.018744 62.207800 0
M  V30 34 C 40.573703 28.302346 57.536014 0
M  V30 35 C 39.884769 26.484043 55.842287 0 CFG=1
M  V30 36 C 38.545803 25.685949 57.885170 0
M  V30 37 C 37.482306 26.358675 54.131387 0
M  V30 38 C 36.667404 36.070723 62.653299 0
M  V30 39 H 38.532257 30.240645 53.745683 0
M  V30 40 H 37.139094 30.679011 54.732527 0
M  V30 41 H 38.800254 38.611896 59.132012 0
M  V30 42 H 40.536788 26.830820 59.041861 0
M  V30 43 H 36.419298 34.166019 60.106153 0
M  V30 44 H 37.505429 30.881839 59.877186 0
M  V30 45 H 37.383232 29.155902 59.855101 0
M  V30 46 H 37.867257 30.021639 61.341773 0
M  V30 47 H 38.572988 32.516630 59.246325 0
M  V30 48 H 36.780016 39.195339 60.395949 0
M  V30 49 H 38.925820 26.423196 52.513757 0
M  V30 50 H 38.976874 27.817510 53.527924 0
M  V30 51 H 40.349437 27.221488 61.681633 0
M  V30 52 H 39.745621 28.764547 62.238446 0
M  V30 53 H 38.667366 27.621558 61.523835 0
M  V30 54 H 38.374706 34.256377 61.424581 0
M  V30 55 H 39.167009 35.380469 60.325420 0
M  V30 56 H 35.417909 36.030297 59.381550 0
M  V30 57 H 36.740149 36.567279 58.438984 0
M  V30 58 H 37.467331 34.739161 57.500728 0
M  V30 59 H 38.769118 24.672062 56.073421 0
M  V30 60 H 38.265805 28.470662 55.067880 0
M  V30 61 H 39.970242 25.054467 54.253487 0
M  V30 62 H 40.980899 26.421473 53.944885 0
M  V30 63 H 38.848055 30.430120 57.855821 0
M  V30 64 H 37.336687 30.805042 57.103397 0
M  V30 65 H 42.037628 28.026812 60.037347 0
M  V30 66 H 41.798678 29.671661 59.454153 0
M  V30 67 H 41.657415 29.290650 61.209324 0
M  V30 68 H 39.654675 32.280337 54.272559 0
M  V30 69 H 38.074195 32.699958 53.637890 0
M  V30 70 H 36.543740 25.497263 55.896660 0
M  V30 71 H 37.067374 27.104898 56.123468 0
M  V30 72 H 39.885866 32.465651 57.033230 0
M  V30 73 H 35.897746 37.494406 61.007331 0
M  V30 74 H 38.267404 26.820641 59.615025 0
M  V30 75 H 37.798286 27.737251 58.204112 0
M  V30 76 H 40.688345 28.418931 55.453465 0
M  V30 77 H 37.251317 33.227427 55.858646 0
M  V30 78 H 38.739237 34.086640 55.653866 0
M  V30 79 H 38.348966 37.461687 62.935794 0
M  V30 80 H 41.611391 27.966773 57.509359 0
M  V30 81 H 40.659546 29.377855 57.638561 0
M  V30 82 H 40.751825 26.024370 56.316159 0
M  V30 83 H 39.379722 25.095268 58.253482 0
M  V30 84 H 37.646869 25.134889 58.167819 0
M  V30 END ATOM
M  V30 BEGIN BOND
M  V30 1 1 9 4
M  V30 2 1 10 2
M  V30 3 1 12 9
M  V30 4 1 13 5
M  V30 5 1 13 6
M  V30 6 1 14 6
M  V30 7 1 16 1
M  V30 8 1 17 6
M  V30 9 2 17 8
M  V30 10 1 20 16
M  V30 11 1 21 11
M  V30 12 1 22 16
M  V30 13 1 23 7
M  V30 14 1 23 9
M  V30 15 1 24 9
M  V30 16 1 25 1
M  V30 17 1 26 19
M  V30 18 1 27 8
M  V30 19 1 27 22
M  V30 20 1 28 5
M  V30 21 1 28 10
M  V30 22 1 28 14
M  V30 23 1 29 4
M  V30 24 1 31 20
M  V30 25 1 32 25
M  V30 26 1 32 27
M  V30 27 1 5 33 CFG=1
M  V30 28 1 34 4
M  V30 29 1 34 31
M  V30 30 1 35 19
M  V30 31 1 35 21
M  V30 32 1 35 31
M  V30 33 1 36 19
M  V30 34 1 36 29
M  V30 35 1 37 3
M  V30 36 1 37 11
M  V30 37 1 37 18
M  V30 38 1 37 26
M  V30 39 1 38 5
M  V30 40 2 38 15
M  V30 41 1 38 30
M  V30 42 1 39 1
M  V30 43 1 40 1
M  V30 44 1 41 2
M  V30 45 1 4 42 CFG=1
M  V30 46 1 6 43 CFG=1
M  V30 47 1 44 7
M  V30 48 1 45 7
M  V30 49 1 46 7
M  V30 50 1 47 8
M  V30 51 1 48 10
M  V30 52 1 49 11
M  V30 53 1 50 11
M  V30 54 1 51 12
M  V30 55 1 52 12
M  V30 56 1 53 12
M  V30 57 1 54 13
M  V30 58 1 55 13
M  V30 59 1 56 14
M  V30 60 1 57 14
M  V30 61 1 58 17
M  V30 62 1 19 59 CFG=3
M  V30 63 1 60 20
M  V30 64 1 61 21
M  V30 65 1 62 21
M  V30 66 1 63 22
M  V30 67 1 64 22
M  V30 68 1 65 24
M  V30 69 1 66 24
M  V30 70 1 67 24
M  V30 71 1 68 25
M  V30 72 1 69 25
M  V30 73 1 70 26
M  V30 74 1 71 26
M  V30 75 1 27 72 CFG=1
M  V30 76 1 28 73 CFG=1
M  V30 77 1 74 29
M  V30 78 1 75 29
M  V30 79 1 31 76 CFG=3
M  V30 80 1 77 32
M  V30 81 1 78 32
M  V30 82 1 79 33
M  V30 83 1 80 34
M  V30 84 1 81 34
M  V30 85 1 35 82 CFG=1
M  V30 86 1 83 36
M  V30 87 1 84 36
M  V30 END BOND
M  V30 END CTAB
M  END
>  <i_epik_Tot_Q>  (1) 
-1

>  <i_epik_Tot_abs_Q>  (1) 
1

>  <i_i_glide_confnum>  (1) 
611

>  <i_i_glide_lignum>  (1) 
232

>  <i_i_glide_posenum>  (1) 
306

>  <i_i_glide_rotatable_bonds>  (1) 
10

>  <i_lp_mmshare_version>  (1) 
72125

>  <i_m_source_file_index>  (1) 
91

>  <i_f3d_flags>  (1) 
0

>  <num_sample>  (1) 
100

>  <b_lp_Chiralities_Consistent>  (1) 
1

>  <r_epik_Charging_Adjusted_Penalty>  (1) 
0.43821527866000726

>  <r_epik_Ionization_Penalty>  (1) 
0.52002734918543769

>  <r_epik_Ionization_Penalty_Charging>  (1) 
0.00012691742049533285

>  <r_epik_Ionization_Penalty_Neutral>  (1) 
0.51990043176494238

>  <r_epik_State_Penalty>  (1) 
0.43808836123951195

>  <r_glide_ring_energy>  (1) 
0.69230642483635751

>  <r_i_docking_score>  (1) 
-3.2663332170778028

>  <r_i_glide_ecoul>  (1) 
-2.174408182740811

>  <r_i_glide_eff_state_penalty>  (1) 
0.43808836123951195

>  <r_i_glide_einternal>  (1) 
11.631216301492778

>  <r_i_glide_emodel>  (1) 
10.652743509566537

>  <r_i_glide_emodel_strain>  (1) 
8.3492624802094895

>  <r_i_glide_energy>  (1) 
-0.81374155253286884

>  <r_i_glide_erotb>  (1) 
0.42146348941000378

>  <r_i_glide_esite>  (1) 
-0.0041928827162038109

>  <r_i_glide_evdw>  (1) 
1.3606666302079422

>  <r_i_glide_gscore>  (1) 
-3.7044215783173149

>  <r_i_glide_gscore_strain>  (1) 
1.0873156200523724

>  <r_i_glide_hbond>  (1) 
-0.16685944965966873

>  <r_i_glide_ligand_efficiency>  (1) 
-0.085956137291521129

>  <r_i_glide_ligand_efficiency_ln>  (1) 
-0.7043175273902651

>  <r_i_glide_ligand_efficiency_sa>  (1) 
-0.28898241963752935

>  <r_i_glide_lipo>  (1) 
-4.040702103878659

>  <r_i_glide_metal>  (1) 
-0

>  <r_i_glide_rewards>  (1) 
-0.74331835562443416

>  <r_lp_Energy>  (1) 
49.927557999999998

>  <s_epik_Chemistry_Notes>  (1) 
This compound has a N-S or N-O group and may undergo hydrolysis at high or low pH.

>  <s_epik_cmdline>  (1) 
J2VwaWtfcHl0aG9uJywgJy1waHQnLCAnMS4wJywgJy1waCcsICc3LjQnLCAnLXRuJywgJzgnLCAnLW1hJywgJzUwMCcsICctaW1hZScsICc8aW5maWxlLm1hZT4nLCAnLW9tYWUnLCAnPG91dGZpbGUubWFlPic=

>  <s_epik_input>  (1) 
RkMoRikoW0NIMl0xKVtDSDJdW0NIMl1bQ0BIXShbQ0BASF0xMilbQ0BIXShbQ0gyXVtDQEhdKFtDSDJdW0NIMl0yKUMoW0NIM10pKFtDSDNdKU9bQ0gzXSlbTkhdTjNbQ0gyXVtDSDJdW0NIMl1bQ0BIXShbQ0gyXTMpL1tDSF09W0NIXS9bQ0BASF0oW0NIMl1bQ0BdNChbT0hdKUMoPU8pW09IXSlbQ0gyXVtDQEBIXTRbTkhdW09IXQ==

>  <s_glide_docking_method>  (1) 
confgen

>  <s_i_glide_gridfile>  (1) 
gpcr_5ht2c_6bqh_protein_autoprepared_prepared

>  <s_lp_Force_Field>  (1) 
S-OPLS

>  <s_lp_Variant>  (1) 
DiffSBDD_90_num_sample_100-4

>  <s_m_source_file>  (1) 
generated__ligand_DiffSBDD_2026-05-06_prepared.sdf

>  <GenAI_Model>  (1) 
DiffSBDD

>  <Protein>  (1) 
GPCR_5HT2C

$$$$
DiffSBDD_66_num_sample_100
     RDKit          3D

  0  0  0  0  0  0  0  0  0  0999 V3000
M  V30 BEGIN CTAB
M  V30 COUNTS 111 115 0 0 1
M  V30 BEGIN ATOM
M  V30 1 C 38.861633 26.076017 57.455699 0
M  V30 2 C 42.302177 31.213060 63.053485 0
M  V30 3 C 35.343312 34.352855 59.140579 0
M  V30 4 C 40.909142 33.958389 68.028704 0
M  V30 5 C 43.228226 25.083242 63.966529 0
M  V30 6 C 45.296942 25.919539 62.376482 0
M  V30 7 C 35.969893 32.569752 60.678376 0
M  V30 8 S 41.302478 33.924186 63.823658 0
M  V30 9 C 41.093181 31.610992 62.259566 0 CFG=1
M  V30 10 C 38.612233 26.495460 58.826070 0
M  V30 11 C 39.738903 29.114405 57.607490 0
M  V30 12 C 39.036218 29.020978 58.766102 0
M  V30 13 C 42.613878 26.169761 66.162048 0
M  V30 14 C 38.770797 24.905214 55.685452 0
M  V30 15 C 43.622515 30.135340 66.169770 0 CFG=2
M  V30 16 C 40.340684 27.966964 56.814120 0
M  V30 17 C 38.504463 30.318657 59.449898 0
M  V30 18 O 40.395960 25.648751 65.463528 0
M  V30 19 C 38.404294 32.193510 61.327184 0 CFG=1
M  V30 20 N 38.357889 24.933992 57.004815 0
M  V30 21 C 34.978814 33.280596 59.973399 0
M  V30 22 C 37.329114 32.934095 60.542953 0
M  V30 23 C 43.173382 26.377856 64.765442 0
M  V30 24 C 40.245981 26.365624 54.138207 0
M  V30 25 C 38.694139 27.733677 59.391759 0
M  V30 26 C 43.443633 31.657334 66.480234 0
M  V30 27 C 44.050525 25.104759 62.653493 0 CFG=1
M  V30 28 C 42.712183 29.195094 67.020956 0
M  V30 29 C 39.295149 31.194559 60.506320 0 CFG=1
M  V30 30 C 40.290653 30.499404 61.498780 0 CFG=2
M  V30 31 C 42.789203 34.513578 66.576622 0
M  V30 32 C 41.277258 29.055352 66.504497 0
M  V30 33 N 39.598106 26.752920 56.582309 0
M  V30 34 C 37.684972 34.004688 59.700591 0
M  V30 35 C 39.551845 26.000624 55.397974 0
M  V30 36 C 45.090818 29.808231 66.518079 0
M  V30 37 O 44.267345 23.755703 62.253383 0
M  V30 38 C 43.521911 29.851398 64.648061 0
M  V30 39 C 41.982133 32.112146 66.646734 0
M  V30 40 C 41.610970 33.608945 66.694815 0
M  V30 41 C 40.257227 32.619042 63.053045 0 CFG=2
M  V30 42 N 42.296390 30.261872 63.923585 0 CHG=1
M  V30 43 C 40.620530 27.916411 66.215918 0
M  V30 44 C 40.667541 33.940392 65.539207 0
M  V30 45 C 36.695333 34.715001 59.013215 0
M  V30 46 C 39.585712 29.539449 62.472033 0
M  V30 47 C 43.377403 25.737975 67.182070 0
M  V30 48 C 41.139316 26.473246 66.341875 0 CFG=2
M  V30 49 C 39.259338 33.245697 62.090717 0
M  V30 50 H 43.230263 31.735697 62.902532 0
M  V30 51 H 34.583595 34.900694 58.598349 0
M  V30 52 H 40.021896 33.356094 68.215601 0
M  V30 53 H 40.598607 35.003295 68.046310 0
M  V30 54 H 41.571127 33.806237 68.876991 0
M  V30 55 H 43.467261 24.249092 64.617918 0
M  V30 56 H 42.214577 24.824196 63.683873 0
M  V30 57 H 45.287711 26.897349 62.868100 0
M  V30 58 H 45.411937 26.054896 61.296408 0
M  V30 59 H 46.197823 25.403610 62.651377 0
M  V30 60 H 35.687740 31.751351 61.323587 0
M  V30 61 H 38.272334 25.702251 59.453473 0
M  V30 62 H 39.937638 30.102652 57.208428 0
M  V30 63 H 38.494448 24.082925 55.043017 0
M  V30 64 H 40.587841 28.395670 55.843968 0
M  V30 65 H 41.299558 27.678915 57.261684 0
M  V30 66 H 38.119303 30.966218 58.658220 0
M  V30 67 H 37.605305 29.996534 59.971873 0
M  V30 68 H 40.656193 25.840819 64.576323 0
M  V30 69 H 37.869344 31.605279 62.071465 0
M  V30 70 H 33.939004 33.007597 60.075699 0
M  V30 71 H 44.175749 26.786339 64.864984 0
M  V30 72 H 42.552301 27.100430 64.232878 0
M  V30 73 H 39.960949 25.628760 53.403277 0
M  V30 74 H 41.330345 26.243862 54.197371 0
M  V30 75 H 39.883243 27.302188 53.701447 0
M  V30 76 H 38.405813 27.777493 60.430527 0
M  V30 77 H 43.998398 31.934198 67.375894 0
M  V30 78 H 43.905295 32.222287 65.671234 0
M  V30 79 H 43.467401 25.738221 62.034381 0
M  V30 80 H 43.230843 28.265428 67.182489 0
M  V30 81 H 42.629895 29.599252 68.027305 0
M  V30 82 H 39.862904 31.850077 59.862929 0
M  V30 83 H 40.982971 29.908990 60.893868 0
M  V30 84 H 43.328804 34.338629 65.646081 0
M  V30 85 H 43.466876 34.349758 67.415162 0
M  V30 86 H 42.490875 35.564305 66.567544 0
M  V30 87 H 40.742931 29.970234 66.363659 0
M  V30 88 H 38.719293 34.288411 59.589280 0
M  V30 89 H 45.782573 30.461318 65.986930 0
M  V30 90 H 45.359069 28.788171 66.244735 0
M  V30 91 H 45.307823 29.913838 67.579080 0
M  V30 92 H 43.432081 23.313897 62.232785 0
M  V30 93 H 44.348152 30.355632 64.151426 0
M  V30 94 H 43.688939 28.811022 64.419248 0
M  V30 95 H 41.471186 31.721000 65.778396 0
M  V30 96 H 41.544961 31.638265 67.525321 0
M  V30 97 H 39.723933 32.090631 63.835967 0
M  V30 98 H 39.613261 28.023966 65.858793 0
M  V30 99 H 39.866709 33.216700 65.622480 0
M  V30 100 H 40.268469 34.936799 65.696719 0
M  V30 101 H 36.975281 35.539926 58.372559 0
M  V30 102 H 39.203785 30.047922 63.356104 0
M  V30 103 H 40.261857 28.758320 62.816692 0
M  V30 104 H 38.732824 29.053662 62.012723 0
M  V30 105 H 42.958688 25.594008 68.167994 0
M  V30 106 H 44.426028 25.526618 67.046206 0
M  V30 107 H 40.839035 26.168074 67.346066 0
M  V30 108 H 38.641303 33.941499 62.649275 0
M  V30 109 H 39.819475 33.864635 61.388146 0
M  V30 110 H 41.538660 32.197150 61.453015 0
M  V30 111 H 41.437215 29.749797 64.117182 0
M  V30 END ATOM
M  V30 BEGIN BOND
M  V30 1 1 9 2
M  V30 2 1 10 1
M  V30 3 2 12 11
M  V30 4 1 16 11
M  V30 5 1 17 12
M  V30 6 2 20 1
M  V30 7 1 20 14
M  V30 8 2 21 3
M  V30 9 1 21 7
M  V30 10 2 22 7
M  V30 11 1 22 19
M  V30 12 1 23 5
M  V30 13 1 23 13
M  V30 14 2 25 10
M  V30 15 1 25 12
M  V30 16 1 26 15
M  V30 17 1 27 5
M  V30 18 1 27 6
M  V30 19 1 15 28 CFG=1
M  V30 20 1 29 17
M  V30 21 1 29 19
M  V30 22 1 30 9
M  V30 23 1 30 29
M  V30 24 1 32 28
M  V30 25 1 33 1
M  V30 26 1 33 16
M  V30 27 1 34 22
M  V30 28 2 35 14
M  V30 29 1 35 24
M  V30 30 1 35 33
M  V30 31 1 36 15
M  V30 32 1 37 27
M  V30 33 1 38 15
M  V30 34 1 39 26
M  V30 35 1 40 4
M  V30 36 1 40 31
M  V30 37 1 40 39
M  V30 38 1 41 8
M  V30 39 1 41 9
M  V30 40 2 42 2
M  V30 41 1 42 38
M  V30 42 2 43 32
M  V30 43 1 44 8
M  V30 44 1 44 40
M  V30 45 1 45 3
M  V30 46 2 45 34
M  V30 47 1 46 30
M  V30 48 2 47 13
M  V30 49 1 48 13
M  V30 50 1 48 18
M  V30 51 1 48 43
M  V30 52 1 49 19
M  V30 53 1 49 41
M  V30 54 1 50 2
M  V30 55 1 51 3
M  V30 56 1 52 4
M  V30 57 1 53 4
M  V30 58 1 54 4
M  V30 59 1 55 5
M  V30 60 1 56 5
M  V30 61 1 57 6
M  V30 62 1 58 6
M  V30 63 1 59 6
M  V30 64 1 60 7
M  V30 65 1 61 10
M  V30 66 1 62 11
M  V30 67 1 63 14
M  V30 68 1 64 16
M  V30 69 1 65 16
M  V30 70 1 66 17
M  V30 71 1 67 17
M  V30 72 1 68 18
M  V30 73 1 19 69 CFG=1
M  V30 74 1 70 21
M  V30 75 1 71 23
M  V30 76 1 72 23
M  V30 77 1 73 24
M  V30 78 1 74 24
M  V30 79 1 75 24
M  V30 80 1 76 25
M  V30 81 1 77 26
M  V30 82 1 78 26
M  V30 83 1 27 79 CFG=3
M  V30 84 1 80 28
M  V30 85 1 81 28
M  V30 86 1 29 82 CFG=3
M  V30 87 1 30 83 CFG=3
M  V30 88 1 84 31
M  V30 89 1 85 31
M  V30 90 1 86 31
M  V30 91 1 87 32
M  V30 92 1 88 34
M  V30 93 1 89 36
M  V30 94 1 90 36
M  V30 95 1 91 36
M  V30 96 1 92 37
M  V30 97 1 93 38
M  V30 98 1 94 38
M  V30 99 1 95 39
M  V30 100 1 96 39
M  V30 101 1 41 97 CFG=1
M  V30 102 1 98 43
M  V30 103 1 99 44
M  V30 104 1 100 44
M  V30 105 1 101 45
M  V30 106 1 102 46
M  V30 107 1 103 46
M  V30 108 1 104 46
M  V30 109 1 105 47
M  V30 110 1 106 47
M  V30 111 1 48 107 CFG=1
M  V30 112 1 108 49
M  V30 113 1 109 49
M  V30 114 1 9 110 CFG=3
M  V30 115 1 111 42
M  V30 END BOND
M  V30 END CTAB
M  END
>  <i_epik_Tot_Q>  (1) 
1

>  <i_epik_Tot_abs_Q>  (1) 
1

>  <i_i_glide_confnum>  (1) 
2370

>  <i_i_glide_lignum>  (1) 
171

>  <i_i_glide_posenum>  (1) 
105

>  <i_i_glide_rotatable_bonds>  (1) 
12

>  <i_lp_mmshare_version>  (1) 
72125

>  <i_m_source_file_index>  (1) 
67

>  <i_f3d_flags>  (1) 
0

>  <num_sample>  (1) 
100

>  <b_lp_Chiralities_Consistent>  (1) 
1

>  <r_epik_Charging_Adjusted_Penalty>  (1) 
1.5687136755604401

>  <r_epik_Ionization_Penalty>  (1) 
3.7043048325211916

>  <r_epik_Ionization_Penalty_Charging>  (1) 
0.78327048387713172

>  <r_epik_Ionization_Penalty_Neutral>  (1) 
2.92103434864406

>  <r_epik_State_Penalty>  (1) 
0.78544319168330834

>  <r_glide_ring_energy>  (1) 
0

>  <r_i_docking_score>  (1) 
-3.1485619719326001

>  <r_i_glide_ecoul>  (1) 
-1.3028864847061676

>  <r_i_glide_eff_state_penalty>  (1) 
0.78544319168330834

>  <r_i_glide_einternal>  (1) 
14.59231715160899

>  <r_i_glide_emodel>  (1) 
-4.2667376868696856

>  <r_i_glide_emodel_strain>  (1) 
12.134595743287278

>  <r_i_glide_energy>  (1) 
-8.0698252575276612

>  <r_i_glide_erotb>  (1) 
0.28694684240539414

>  <r_i_glide_esite>  (1) 
-0.0017700671936745718

>  <r_i_glide_evdw>  (1) 
-6.7669387728214936

>  <r_i_glide_gscore>  (1) 
-3.9340051636159084

>  <r_i_glide_gscore_strain>  (1) 
2.0336489358218195

>  <r_i_glide_hbond>  (1) 
0

>  <r_i_glide_ligand_efficiency>  (1) 
-0.064256366774134696

>  <r_i_glide_ligand_efficiency_ln>  (1) 
-0.64363811016293315

>  <r_i_glide_ligand_efficiency_sa>  (1) 
-0.23513368984192148

>  <r_i_glide_lipo>  (1) 
-4.6659997207381796

>  <r_i_glide_metal>  (1) 
-0

>  <r_i_glide_rewards>  (1) 
-1.0530512425642682

>  <r_lp_Energy>  (1) 
62.958435999999999

>  <s_epik_Chemistry_Notes>  (1) 
This compound has an imine and may undergo hydrolysis.

>  <s_epik_cmdline>  (1) 
J2VwaWtfcHl0aG9uJywgJy1waHQnLCAnMS4wJywgJy1waCcsICc3LjQnLCAnLXRuJywgJzgnLCAnLW1hJywgJzUwMCcsICctaW1hZScsICc8aW5maWxlLm1hZT4nLCAnLW9tYWUnLCAnPG91dGZpbGUubWFlPic=

>  <s_epik_input>  (1) 
bjFbY0hdYyhbQ0gzXSluKGMxMilbQ0gyXVtDSF09QyhbQ0hdPVtDSF0yKVtDSDJdW0NASF0oW0NAQEhdM1tDSDNdKVtDQEhdKGM0W2NIXVtjSF1bY0hdW2NIXVtjSF00KVtDSDJdW0NAQEhdKFtDQEhdMzUpU1tDSDJdQyhbQ0gzXSkoW0NIM10pW0NIMl1bQ0gyXVtDQF0oW0NIM10pKFtDSDJdXE49W0NIXVw1KVtDSDJdL1tDSF09W0NIXVxbQ0BASF0oW09IXSlDKD1bQ0gyXSlbQ0gyXVtDSDJdW0NAQEhdKFtDSDNdKVtPSF0=

>  <s_glide_docking_method>  (1) 
confgen

>  <s_i_glide_gridfile>  (1) 
gpcr_5ht2c_6bqh_protein_autoprepared_prepared

>  <s_lp_Force_Field>  (1) 
S-OPLS

>  <s_lp_Variant>  (1) 
DiffSBDD_66_num_sample_100-8

>  <s_m_source_file>  (1) 
generated__ligand_DiffSBDD_2026-05-06_prepared.sdf

>  <GenAI_Model>  (1) 
DiffSBDD

>  <Protein>  (1) 
GPCR_5HT2C

$$$$
DiffSBDD_17_num_sample_100
     RDKit          3D

  0  0  0  0  0  0  0  0  0  0999 V3000
M  V30 BEGIN CTAB
M  V30 COUNTS 106 113 0 0 1
M  V30 BEGIN ATOM
M  V30 1 C 41.922390 29.709045 67.886233 0
M  V30 2 O 42.012817 33.402065 66.921756 0
M  V30 3 C 35.303503 32.560610 60.853385 0
M  V30 4 C 36.333880 36.057595 62.651517 0
M  V30 5 C 37.150212 36.834485 61.904348 0
M  V30 6 C 40.308620 34.509432 61.876274 0 CFG=1
M  V30 7 C 41.929706 30.861149 66.872040 0 CFG=1
M  V30 8 O 41.533649 33.906306 61.671842 0
M  V30 9 C 38.006270 29.228746 54.782182 0
M  V30 10 O 39.786609 36.359055 63.257064 0
M  V30 11 C 36.927052 34.644234 58.632077 0 CFG=1
M  V30 12 O 35.065052 32.110417 59.745627 0
M  V30 13 C 38.296743 28.780011 60.294165 0
M  V30 14 C 37.700238 36.479466 60.527590 0
M  V30 15 C 36.213226 33.822657 61.048295 0 CFG=2
M  V30 16 C 39.861637 28.058886 55.818792 0 CFG=2
M  V30 17 C 42.404368 32.189427 67.555969 0 CFG=1
M  V30 18 N 37.384614 30.379355 54.636458 0
M  V30 19 C 36.005292 34.659167 59.808222 0 CFG=1
M  V30 20 C 39.373605 32.500635 62.672646 0 CFG=2
M  V30 21 C 38.352701 31.260436 60.639684 0
M  V30 22 C 38.236159 31.138395 55.432455 0
M  V30 23 S 38.934550 26.730594 54.823662 0
M  V30 24 N 39.166449 28.606051 59.204591 0
M  V30 25 C 38.096214 32.245320 61.791667 0 CFG=2
M  V30 26 C 41.378748 32.942621 64.715462 0 CFG=2
M  V30 27 C 43.902477 32.262715 67.893607 0
M  V30 28 C 37.711950 27.939863 54.239777 0
M  V30 29 C 41.387607 32.558045 61.265427 0
M  V30 30 N 39.277864 30.468442 55.981877 0
M  V30 31 N 42.411327 28.279020 58.262778 0
M  V30 32 C 34.720524 31.902541 62.088785 0
M  V30 33 O 39.559745 33.891250 62.881833 0
M  V30 34 C 42.458387 33.494413 65.593405 0 CFG=1
M  V30 35 O 42.839675 27.218888 57.456089 0
M  V30 36 C 41.844774 30.491303 64.296965 0
M  V30 37 C 41.731296 31.896359 63.669706 0 CFG=1
M  V30 38 C 41.724608 34.422095 64.679288 0
M  V30 39 O 40.460390 35.891448 62.039406 0
M  V30 40 C 36.753561 35.918922 59.488659 0 CFG=2
M  V30 41 C 42.688483 30.421361 65.581634 0
M  V30 42 C 40.769460 31.859260 62.450744 0 CFG=1
M  V30 43 O 37.602545 33.495088 61.259701 0
M  V30 44 O 41.010481 29.548751 60.174524 0
M  V30 45 C 38.182662 33.812035 58.406484 0
M  V30 46 C 40.411572 29.000094 59.253696 0
M  V30 47 C 35.769069 34.676604 62.248495 0
M  V30 48 C 40.031183 27.672128 57.293492 0 CFG=1
M  V30 49 C 41.030607 28.643902 57.974437 0 CFG=2
M  V30 50 C 37.440007 30.077911 60.263593 0
M  V30 51 C 38.731191 27.782065 58.104806 0
M  V30 52 N 39.034784 29.229289 55.518068 0
M  V30 53 O 36.769338 27.696014 53.491079 0
M  V30 54 H 42.935195 29.451103 68.193575 0
M  V30 55 H 41.352207 29.970365 68.777357 0
M  V30 56 H 41.464904 28.814812 67.460741 0
M  V30 57 H 36.019753 36.421786 63.622696 0
M  V30 58 H 37.470066 37.787024 62.311473 0
M  V30 59 H 39.797810 34.344032 60.945209 0
M  V30 60 H 40.877471 30.995363 66.616920 0
M  V30 61 H 38.876434 36.250835 63.014269 0
M  V30 62 H 36.240858 34.396987 57.843187 0
M  V30 63 H 34.085682 32.598838 62.652472 0
M  V30 64 H 38.862476 28.725879 61.224344 0
M  V30 65 H 37.866344 27.817456 60.360934 0
M  V30 66 H 38.153960 37.387317 60.133458 0
M  V30 67 H 38.507633 35.795923 60.663452 0
M  V30 68 H 40.863202 28.213951 55.453459 0
M  V30 69 H 41.865647 32.252776 68.500089 0
M  V30 70 H 34.950463 34.755026 59.545874 0
M  V30 71 H 39.122491 31.989629 63.576859 0
M  V30 72 H 38.779062 31.730712 59.776851 0
M  V30 73 H 39.193348 30.751235 61.015923 0
M  V30 74 H 38.088730 32.196823 55.604822 0
M  V30 75 H 37.446915 31.792525 62.528419 0
M  V30 76 H 40.439318 32.726622 65.219341 0
M  V30 77 H 44.202639 31.435751 68.533049 0
M  V30 78 H 44.540881 32.244842 67.011614 0
M  V30 79 H 44.113071 33.193497 68.419408 0
M  V30 80 H 40.733388 32.493275 60.398898 0
M  V30 81 H 42.333306 32.101567 60.984544 0
M  V30 82 H 42.541042 27.903948 59.199339 0
M  V30 83 H 34.282995 30.901134 61.983047 0
M  V30 84 H 35.577165 31.622927 62.653479 0
M  V30 85 H 43.506208 33.307959 65.412863 0
M  V30 86 H 43.513975 27.646543 56.947793 0
M  V30 87 H 40.853770 30.073601 64.483057 0
M  V30 88 H 42.302095 29.834692 63.553483 0
M  V30 89 H 42.725322 32.142709 63.301677 0
M  V30 90 H 40.994929 35.098958 65.115858 0
M  V30 91 H 42.269536 34.810546 63.821459 0
M  V30 92 H 36.157065 36.713727 59.047900 0
M  V30 93 H 43.006471 29.383433 65.686176 0
M  V30 94 H 43.616926 30.968909 65.435617 0
M  V30 95 H 40.670418 30.801696 62.246586 0
M  V30 96 H 38.965878 33.975702 59.133356 0
M  V30 97 H 37.868719 32.773557 58.366759 0
M  V30 98 H 38.624686 34.011539 57.427742 0
M  V30 99 H 34.698416 34.789784 62.271840 0
M  V30 100 H 35.860051 34.042044 63.058456 0
M  V30 101 H 40.382419 26.646127 57.383160 0
M  V30 102 H 40.947198 29.601621 57.526179 0
M  V30 103 H 36.614955 30.042034 60.964320 0
M  V30 104 H 36.984376 30.210100 59.283964 0
M  V30 105 H 38.413894 26.809194 58.481635 0
M  V30 106 H 37.885315 28.244494 57.595314 0
M  V30 END ATOM
M  V30 BEGIN BOND
M  V30 1 2 5 4
M  V30 2 1 7 1
M  V30 3 1 8 6
M  V30 4 2 12 3
M  V30 5 1 14 5
M  V30 6 1 15 3
M  V30 7 1 17 2
M  V30 8 1 17 7
M  V30 9 2 18 9
M  V30 10 1 19 11
M  V30 11 1 19 15
M  V30 12 1 22 18
M  V30 13 1 23 16
M  V30 14 1 24 13
M  V30 15 1 25 20
M  V30 16 1 25 21
M  V30 17 1 27 17
M  V30 18 1 28 9
M  V30 19 1 28 23
M  V30 20 1 29 8
M  V30 21 2 30 22
M  V30 22 1 32 3
M  V30 23 1 33 6
M  V30 24 1 33 20
M  V30 25 1 34 2
M  V30 26 1 34 26
M  V30 27 1 35 31
M  V30 28 1 37 26
M  V30 29 1 37 36
M  V30 30 1 38 26
M  V30 31 1 38 34
M  V30 32 1 39 6
M  V30 33 1 39 10
M  V30 34 1 40 11
M  V30 35 1 40 14
M  V30 36 1 40 19
M  V30 37 1 41 7
M  V30 38 1 41 36
M  V30 39 1 42 20
M  V30 40 1 42 29
M  V30 41 1 42 37
M  V30 42 1 15 43 CFG=1
M  V30 43 1 43 25
M  V30 44 1 45 11
M  V30 45 1 46 24
M  V30 46 2 46 44
M  V30 47 1 47 4
M  V30 48 1 47 15
M  V30 49 1 48 16
M  V30 50 1 49 31
M  V30 51 1 49 46
M  V30 52 1 49 48
M  V30 53 1 50 13
M  V30 54 1 50 21
M  V30 55 1 51 24
M  V30 56 1 51 48
M  V30 57 1 52 9
M  V30 58 1 52 16
M  V30 59 1 52 30
M  V30 60 2 53 28
M  V30 61 1 54 1
M  V30 62 1 55 1
M  V30 63 1 56 1
M  V30 64 1 57 4
M  V30 65 1 58 5
M  V30 66 1 6 59 CFG=3
M  V30 67 1 7 60 CFG=3
M  V30 68 1 61 10
M  V30 69 1 11 62 CFG=3
M  V30 70 1 63 32
M  V30 71 1 64 13
M  V30 72 1 65 13
M  V30 73 1 66 14
M  V30 74 1 67 14
M  V30 75 1 16 68 CFG=3
M  V30 76 1 17 69 CFG=1
M  V30 77 1 19 70 CFG=3
M  V30 78 1 20 71 CFG=1
M  V30 79 1 72 21
M  V30 80 1 73 21
M  V30 81 1 74 22
M  V30 82 1 25 75 CFG=1
M  V30 83 1 26 76 CFG=1
M  V30 84 1 77 27
M  V30 85 1 78 27
M  V30 86 1 79 27
M  V30 87 1 80 29
M  V30 88 1 81 29
M  V30 89 1 82 31
M  V30 90 1 83 32
M  V30 91 1 84 32
M  V30 92 1 34 85 CFG=1
M  V30 93 1 86 35
M  V30 94 1 87 36
M  V30 95 1 88 36
M  V30 96 1 37 89 CFG=3
M  V30 97 1 90 38
M  V30 98 1 91 38
M  V30 99 1 40 92 CFG=3
M  V30 100 1 93 41
M  V30 101 1 94 41
M  V30 102 1 42 95 CFG=3
M  V30 103 1 96 45
M  V30 104 1 97 45
M  V30 105 1 98 45
M  V30 106 1 99 47
M  V30 107 1 100 47
M  V30 108 1 48 101 CFG=3
M  V30 109 1 49 102 CFG=3
M  V30 110 1 103 50
M  V30 111 1 104 50
M  V30 112 1 105 51
M  V30 113 1 106 51
M  V30 END BOND
M  V30 END CTAB
M  END
>  <i_epik_Tot_Q>  (1) 
0

>  <i_epik_Tot_abs_Q>  (1) 
0

>  <i_i_glide_confnum>  (1) 
4175

>  <i_i_glide_lignum>  (1) 
39

>  <i_i_glide_posenum>  (1) 
130

>  <i_i_glide_rotatable_bonds>  (1) 
14

>  <i_lp_mmshare_version>  (1) 
72125

>  <i_m_source_file_index>  (1) 
18

>  <i_f3d_flags>  (1) 
0

>  <num_sample>  (1) 
100

>  <b_lp_Chiralities_Consistent>  (1) 
1

>  <r_epik_Charging_Adjusted_Penalty>  (1) 
0

>  <r_epik_Ionization_Penalty>  (1) 
0.00082092263498994861

>  <r_epik_Ionization_Penalty_Charging>  (1) 
0

>  <r_epik_Ionization_Penalty_Neutral>  (1) 
0.00082092263498994861

>  <r_epik_State_Penalty>  (1) 
-0

>  <r_glide_ring_energy>  (1) 
2.4013288792846437

>  <r_i_docking_score>  (1) 
-3.0929312250819674

>  <r_i_glide_ecoul>  (1) 
0.70265527174712283

>  <r_i_glide_eff_state_penalty>  (1) 
-0

>  <r_i_glide_einternal>  (1) 
49.95634150108571

>  <r_i_glide_emodel>  (1) 
38.561620053083864

>  <r_i_glide_emodel_strain>  (1) 
17.735499654935495

>  <r_i_glide_energy>  (1) 
-0.10357521277832693

>  <r_i_glide_erotb>  (1) 
0.15225422609143727

>  <r_i_glide_esite>  (1) 
-0.066120904269560327

>  <r_i_glide_evdw>  (1) 
-0.80623048452544976

>  <r_i_glide_gscore>  (1) 
-3.0929312250819674

>  <r_i_glide_gscore_strain>  (1) 
3.4338749137338738

>  <r_i_glide_hbond>  (1) 
-0.29207060597892404

>  <r_i_glide_ligand_efficiency>  (1) 
-0.058357192926074858

>  <r_i_glide_ligand_efficiency_ln>  (1) 
-0.62228361610888561

>  <r_i_glide_ligand_efficiency_sa>  (1) 
-0.21920629244454573

>  <r_i_glide_lipo>  (1) 
-3.8528427676902961

>  <r_i_glide_metal>  (1) 
-0

>  <r_i_glide_rewards>  (1) 
-2.5331128535042939

>  <r_lp_Energy>  (1) 
36.857391

>  <r_lp_tautomer_probability>  (1) 
1

>  <s_epik_Chemistry_Notes>  (1) 
This compound contains an acetal/aminal-like group ( X-CH(R)-Y where X, Y are N, S, or O) that may be acid/base labile, releasing an aldehyde. This compound has a N-S or N-O group and may undergo hydrolysis at high or low pH.

>  <s_epik_cmdline>  (1) 
J2VwaWtfcHl0aG9uJywgJy1waHQnLCAnMS4wJywgJy1waCcsICc3LjQnLCAnLXRuJywgJzgnLCAnLW1hJywgJzUwMCcsICctaW1hZScsICc8aW5maWxlLm1hZT4nLCAnLW9tYWUnLCAnPG91dGZpbGUubWFlPic=

>  <s_epik_input>  (1) 
W0NAQEhdMTJbQ0BASF0oW0NIMl0yKU9bQ0BIXShbQ0gzXSlbQ0BIXShbQ0gzXSlbQ0gyXVtDSDJdW0NASF0xW0NASF0oW0NIMl1PW0NAQEhdM09bT0hdKVtDQEBIXShPMylbQ0BASF0oT1tDQEBdNChDKFtPSF0pPVtDSDJdKVtDSDJdW0NIXT1bQ0hdW0NIMl1bQ0BIXShbQ0BIXTQ1KVtDSF01W0NIM10pW0NIMl1bQ0gyXVtDSDJdTjZDKD1PKVtDQEBIXShbTkhdW09IXSlbQ0BASF0oW0NIMl02KVtDQEBIXShTQzc9TyluKGM3OCluW2NIXW44

>  <s_glide_docking_method>  (1) 
confgen

>  <s_i_glide_gridfile>  (1) 
gpcr_5ht2c_6bqh_protein_autoprepared_prepared

>  <s_lp_Force_Field>  (1) 
S-OPLS

>  <s_lp_Variant>  (1) 
DiffSBDD_17_num_sample_100-1

>  <s_m_source_file>  (1) 
generated__ligand_DiffSBDD_2026-05-06_prepared.sdf

>  <GenAI_Model>  (1) 
DiffSBDD

>  <Protein>  (1) 
GPCR_5HT2C

$$$$
DiffSBDD_58_num_sample_100
     RDKit          3D

  0  0  0  0  0  0  0  0  0  0999 V3000
M  V30 BEGIN CTAB
M  V30 COUNTS 29 28 0 0 1
M  V30 BEGIN ATOM
M  V30 1 S 39.189897 25.818398 55.637101 0
M  V30 2 C 37.143280 30.125629 54.975975 0
M  V30 3 C 38.335223 31.021157 55.323607 0
M  V30 4 C 38.527625 28.652892 53.333579 0
M  V30 5 S 40.049544 26.320127 53.853496 0
M  V30 6 Cl 37.819366 24.358189 55.053506 0
M  V30 7 O 37.067400 32.784524 58.791031 0
M  V30 8 C 38.748700 32.697359 57.100893 0
M  V30 9 N 37.867404 32.233667 56.015416 0 CHG=1
M  V30 10 C 38.806252 27.213670 52.863329 0
M  V30 11 C 37.981710 33.587174 58.079504 0
M  V30 12 C 37.554363 28.717008 54.520268 0
M  V30 13 H 36.518430 30.020900 55.863593 0
M  V30 14 H 36.501130 30.618120 54.253503 0
M  V30 15 H 38.891902 31.312249 54.432050 0
M  V30 16 H 39.021491 30.456155 55.955887 0
M  V30 17 H 38.091059 29.206628 52.501752 0
M  V30 18 H 39.467403 29.150936 53.569505 0
M  V30 19 H 36.376727 32.481533 58.199757 0
M  V30 20 H 39.597430 33.221367 56.663773 0
M  V30 21 H 39.149643 31.847525 57.653573 0
M  V30 22 H 36.949353 32.021430 56.418465 0
M  V30 23 H 37.885520 26.631300 52.819263 0
M  V30 24 H 39.190282 27.248235 51.843142 0
M  V30 25 H 37.467545 34.405875 57.575622 0
M  V30 26 H 38.669142 34.021430 58.804834 0
M  V30 27 H 37.989823 28.218717 55.381470 0
M  V30 28 H 36.667404 28.146170 54.253511 0
M  V30 29 H 37.699140 32.976254 55.351511 0
M  V30 END ATOM
M  V30 BEGIN BOND
M  V30 1 1 3 2
M  V30 2 1 5 1
M  V30 3 1 6 1
M  V30 4 1 9 3
M  V30 5 1 9 8
M  V30 6 1 10 4
M  V30 7 1 10 5
M  V30 8 1 11 7
M  V30 9 1 11 8
M  V30 10 1 12 2
M  V30 11 1 12 4
M  V30 12 1 13 2
M  V30 13 1 14 2
M  V30 14 1 15 3
M  V30 15 1 16 3
M  V30 16 1 17 4
M  V30 17 1 18 4
M  V30 18 1 19 7
M  V30 19 1 20 8
M  V30 20 1 21 8
M  V30 21 1 22 9
M  V30 22 1 23 10
M  V30 23 1 24 10
M  V30 24 1 25 11
M  V30 25 1 26 11
M  V30 26 1 27 12
M  V30 27 1 28 12
M  V30 28 1 29 9
M  V30 END BOND
M  V30 END CTAB
M  END
>  <i_epik_Tot_Q>  (1) 
1

>  <i_epik_Tot_abs_Q>  (1) 
1

>  <i_i_glide_confnum>  (1) 
68

>  <i_i_glide_lignum>  (1) 
147

>  <i_i_glide_posenum>  (1) 
228

>  <i_i_glide_rotatable_bonds>  (1) 
10

>  <i_lp_mmshare_version>  (1) 
72125

>  <i_m_source_file_index>  (1) 
59

>  <i_f3d_flags>  (1) 
0

>  <num_sample>  (1) 
100

>  <b_lp_Chiralities_Consistent>  (1) 
1

>  <r_epik_Charging_Adjusted_Penalty>  (1) 
0.014760532929550717

>  <r_epik_Ionization_Penalty>  (1) 
0.0073815081172038301

>  <r_epik_Ionization_Penalty_Charging>  (1) 
0.0073802664647753631

>  <r_epik_Ionization_Penalty_Neutral>  (1) 
1.241652428467383e-06

>  <r_epik_State_Penalty>  (1) 
0.0073802664647753553

>  <r_glide_ring_energy>  (1) 
0

>  <r_i_docking_score>  (1) 
-3.0677360742162514

>  <r_i_glide_ecoul>  (1) 
-8.2120260909900811

>  <r_i_glide_eff_state_penalty>  (1) 
0.0073802664647753553

>  <r_i_glide_einternal>  (1) 
7.4165766570748595

>  <r_i_glide_emodel>  (1) 
-30.699330010568353

>  <r_i_glide_emodel_strain>  (1) 
1.6989794129686819

>  <r_i_glide_energy>  (1) 
-27.596745999661167

>  <r_i_glide_erotb>  (1) 
3.5940222146810656

>  <r_i_glide_esite>  (1) 
-0.10000000000000001

>  <r_i_glide_evdw>  (1) 
-19.384719908671087

>  <r_i_glide_gscore>  (1) 
-3.0751163406810269

>  <r_i_glide_gscore_strain>  (1) 
0

>  <r_i_glide_hbond>  (1) 
-0.36224568114433447

>  <r_i_glide_ligand_efficiency>  (1) 
-0.25564467285135428

>  <r_i_glide_ligand_efficiency_ln>  (1) 
-0.88029218068233561

>  <r_i_glide_ligand_efficiency_sa>  (1) 
-0.58528019609166471

>  <r_i_glide_lipo>  (1) 
-1.6404027833175094

>  <r_i_glide_metal>  (1) 
-0

>  <r_i_glide_rewards>  (1) 
-2.3654501818181819

>  <r_lp_Energy>  (1) 
0.71688799999999997

>  <s_epik_cmdline>  (1) 
J2VwaWtfcHl0aG9uJywgJy1waHQnLCAnMS4wJywgJy1waCcsICc3LjQnLCAnLXRuJywgJzgnLCAnLW1hJywgJzUwMCcsICctaW1hZScsICc8aW5maWxlLm1hZT4nLCAnLW9tYWUnLCAnPG91dGZpbGUubWFlPic=

>  <s_epik_input>  (1) 
Q2xTU1tDSDJdW0NIMl1bQ0gyXVtDSDJdW0NIMl1bTkhdW0NIMl1bQ0gyXVtPSF0=

>  <s_glide_docking_method>  (1) 
confgen

>  <s_i_glide_gridfile>  (1) 
gpcr_5ht2c_6bqh_protein_autoprepared_prepared

>  <s_lp_Force_Field>  (1) 
S-OPLS

>  <s_lp_Variant>  (1) 
DiffSBDD_58_num_sample_100-1

>  <s_m_source_file>  (1) 
generated__ligand_DiffSBDD_2026-05-06_prepared.sdf

>  <GenAI_Model>  (1) 
DiffSBDD

>  <Protein>  (1) 
GPCR_5HT2C

$$$$
DiffSBDD_23_num_sample_100
     RDKit          3D

  0  0  0  0  0  0  0  0  0  0999 V3000
M  V30 BEGIN CTAB
M  V30 COUNTS 83 87 0 0 1
M  V30 BEGIN ATOM
M  V30 1 C 36.781644 34.450286 59.702773 0
M  V30 2 C 40.772869 27.607547 57.262536 0
M  V30 3 C 39.805845 26.463131 53.957042 0
M  V30 4 O 38.417638 30.358110 53.489729 0
M  V30 5 N 38.349751 24.470284 55.076683 0
M  V30 6 C 39.106114 28.557162 59.172453 0
M  V30 7 C 35.909107 30.700732 59.425705 0
M  V30 8 N 39.843760 26.814301 56.428937 0
M  V30 9 C 39.097493 28.590967 54.921784 0
M  V30 10 C 39.517913 26.957444 52.668331 0
M  V30 11 C 36.272428 25.485929 57.853525 0
M  V30 12 C 36.810282 24.876996 56.617085 0
M  V30 13 C 36.445839 32.006166 60.012739 0 CFG=2
M  V30 14 C 36.226169 24.124777 55.784948 0
M  V30 15 N 36.723641 33.113139 59.051215 0 CFG=2 CHG=1
M  V30 16 C 41.535082 29.122983 58.994302 0
M  V30 17 C 39.484969 31.214130 53.134446 0
M  V30 18 C 38.841663 29.082857 53.639408 0
M  V30 19 C 40.284929 28.793185 58.177213 0 CFG=1
M  V30 20 C 40.236461 33.603652 61.133484 0
M  V30 21 C 38.107542 25.051996 56.195187 0
M  V30 22 C 38.614499 30.579508 60.568860 0
M  V30 23 C 39.264850 36.527058 61.639644 0
M  V30 24 O 39.672496 30.472384 61.185312 0
M  V30 25 C 39.031784 35.282651 62.480554 0
M  V30 26 C 39.566027 27.277983 55.093737 0
M  V30 27 C 39.112447 25.836039 57.066594 0
M  V30 28 C 37.780855 32.916471 58.021973 0
M  V30 29 C 37.067694 23.719918 54.653574 0
M  V30 30 C 37.977130 32.886639 61.928789 0
M  V30 31 C 38.176555 34.867723 60.243816 0 CFG=2
M  V30 32 C 39.036805 28.264892 52.510214 0
M  V30 33 C 37.007187 29.862678 58.783570 0
M  V30 34 C 38.813909 34.114151 61.447240 0 CFG=2
M  V30 35 C 38.162971 36.363792 60.603187 0
M  V30 36 O 39.195348 25.621445 58.270907 0
M  V30 37 N 38.267077 29.728952 59.540316 0
M  V30 38 C 37.582666 31.683927 60.989715 0 CFG=1
M  V30 39 H 36.488552 35.173250 58.938743 0
M  V30 40 H 36.020333 34.542515 60.480251 0
M  V30 41 H 41.527983 27.999034 56.578636 0
M  V30 42 H 41.336742 26.893710 57.870053 0
M  V30 43 H 40.212610 25.471275 54.070887 0
M  V30 44 H 39.456930 28.042388 60.069175 0
M  V30 45 H 38.423247 27.850199 58.720851 0
M  V30 46 H 35.473443 30.133014 60.246919 0
M  V30 47 H 35.084617 30.821831 58.727508 0
M  V30 48 H 38.932887 29.225985 55.776631 0
M  V30 49 H 39.685819 26.340569 51.801940 0
M  V30 50 H 36.687013 26.480642 57.994700 0
M  V30 51 H 36.563636 24.821345 58.653464 0
M  V30 52 H 35.197063 25.609730 57.853534 0
M  V30 53 H 35.606408 32.370217 60.609589 0
M  V30 54 H 35.197294 23.806971 55.853386 0
M  V30 55 H 41.754005 28.314206 59.689923 0
M  V30 56 H 41.442339 30.021332 59.585501 0
M  V30 57 H 42.415791 29.221549 58.361907 0
M  V30 58 H 39.067946 32.021456 52.547901 0
M  V30 59 H 40.255365 30.737899 52.522636 0
M  V30 60 H 39.955730 31.620866 54.029913 0
M  V30 61 H 40.041303 29.642462 57.541511 0
M  V30 62 H 40.264375 32.975559 60.248637 0
M  V30 63 H 40.634699 33.015153 61.959930 0
M  V30 64 H 40.939080 34.422373 60.989711 0
M  V30 65 H 40.254292 36.518101 61.184506 0
M  V30 66 H 39.168505 37.446470 62.219690 0
M  V30 67 H 38.165238 35.621407 63.052006 0
M  V30 68 H 39.840671 35.091008 63.187254 0
M  V30 69 H 38.717298 32.557713 58.447939 0
M  V30 70 H 37.981919 33.855530 57.501167 0
M  V30 71 H 37.469265 32.230317 57.239579 0
M  V30 72 H 36.604877 24.170392 53.789300 0
M  V30 73 H 37.190007 22.641535 54.577350 0
M  V30 74 H 38.460013 32.482387 62.817552 0
M  V30 75 H 37.021149 33.287618 62.253557 0
M  V30 76 H 38.894560 34.748601 59.453584 0
M  V30 77 H 38.832261 28.649110 51.522111 0
M  V30 78 H 36.570555 28.881803 58.595366 0
M  V30 79 H 37.251399 30.228775 57.789948 0
M  V30 80 H 37.209977 36.625179 61.068461 0
M  V30 81 H 38.267419 37.014115 59.735150 0
M  V30 82 H 37.057905 31.069158 61.720861 0
M  V30 83 H 35.882347 33.127520 58.483644 0
M  V30 END ATOM
M  V30 BEGIN BOND
M  V30 1 1 8 2
M  V30 2 1 10 3
M  V30 3 1 12 11
M  V30 4 1 13 7
M  V30 5 2 14 12
M  V30 6 1 15 1
M  V30 7 1 15 13
M  V30 8 1 17 4
M  V30 9 1 18 4
M  V30 10 2 18 9
M  V30 11 1 19 2
M  V30 12 1 19 6
M  V30 13 1 19 16
M  V30 14 2 21 5
M  V30 15 1 21 12
M  V30 16 2 24 22
M  V30 17 1 25 23
M  V30 18 2 26 3
M  V30 19 1 26 8
M  V30 20 1 26 9
M  V30 21 1 27 8
M  V30 22 1 27 21
M  V30 23 1 28 15
M  V30 24 1 29 5
M  V30 25 1 29 14
M  V30 26 1 31 1
M  V30 27 2 32 10
M  V30 28 1 32 18
M  V30 29 1 33 7
M  V30 30 1 34 20 CFG=3
M  V30 31 1 34 25
M  V30 32 1 34 30
M  V30 33 1 34 31
M  V30 34 1 35 23
M  V30 35 1 35 31
M  V30 36 2 36 27
M  V30 37 1 37 6
M  V30 38 1 37 22
M  V30 39 1 37 33
M  V30 40 1 38 13
M  V30 41 1 38 22
M  V30 42 1 38 30
M  V30 43 1 39 1
M  V30 44 1 40 1
M  V30 45 1 41 2
M  V30 46 1 42 2
M  V30 47 1 43 3
M  V30 48 1 44 6
M  V30 49 1 45 6
M  V30 50 1 46 7
M  V30 51 1 47 7
M  V30 52 1 48 9
M  V30 53 1 49 10
M  V30 54 1 50 11
M  V30 55 1 51 11
M  V30 56 1 52 11
M  V30 57 1 13 53 CFG=1
M  V30 58 1 54 14
M  V30 59 1 55 16
M  V30 60 1 56 16
M  V30 61 1 57 16
M  V30 62 1 58 17
M  V30 63 1 59 17
M  V30 64 1 60 17
M  V30 65 1 19 61 CFG=3
M  V30 66 1 62 20
M  V30 67 1 63 20
M  V30 68 1 64 20
M  V30 69 1 65 23
M  V30 70 1 66 23
M  V30 71 1 67 25
M  V30 72 1 68 25
M  V30 73 1 69 28
M  V30 74 1 70 28
M  V30 75 1 71 28
M  V30 76 1 72 29
M  V30 77 1 73 29
M  V30 78 1 74 30
M  V30 79 1 75 30
M  V30 80 1 31 76 CFG=3
M  V30 81 1 77 32
M  V30 82 1 78 33
M  V30 83 1 79 33
M  V30 84 1 80 35
M  V30 85 1 81 35
M  V30 86 1 38 82 CFG=1
M  V30 87 1 15 83 CFG=3
M  V30 END BOND
M  V30 END CTAB
M  END
>  <i_epik_Tot_Q>  (1) 
1

>  <i_epik_Tot_abs_Q>  (1) 
1

>  <i_i_glide_confnum>  (1) 
365

>  <i_i_glide_lignum>  (1) 
61

>  <i_i_glide_posenum>  (1) 
251

>  <i_i_glide_rotatable_bonds>  (1) 
8

>  <i_lp_mmshare_version>  (1) 
72125

>  <i_m_source_file_index>  (1) 
24

>  <i_f3d_flags>  (1) 
0

>  <num_sample>  (1) 
100

>  <b_lp_Chiralities_Consistent>  (1) 
1

>  <r_epik_Charging_Adjusted_Penalty>  (1) 
0.0029773975431382485

>  <r_epik_Ionization_Penalty>  (1) 
0.013183626931022738

>  <r_epik_Ionization_Penalty_Charging>  (1) 
0.0029773975431382485

>  <r_epik_Ionization_Penalty_Neutral>  (1) 
0.010206229387884489

>  <r_epik_State_Penalty>  (1) 
-0

>  <r_glide_ring_energy>  (1) 
0

>  <r_i_docking_score>  (1) 
-3.0337693848253

>  <r_i_glide_ecoul>  (1) 
-3.0048803309801908

>  <r_i_glide_eff_state_penalty>  (1) 
-0

>  <r_i_glide_einternal>  (1) 
17.999469330843951

>  <r_i_glide_emodel>  (1) 
-14.933533526977683

>  <r_i_glide_emodel_strain>  (1) 
14.191147435363661

>  <r_i_glide_energy>  (1) 
-36.087216683883625

>  <r_i_glide_erotb>  (1) 
0.5287100460970352

>  <r_i_glide_esite>  (1) 
-0.091803204209762401

>  <r_i_glide_evdw>  (1) 
-33.082336352903432

>  <r_i_glide_gscore>  (1) 
-3.0337693848253

>  <r_i_glide_gscore_strain>  (1) 
2.5477868588409152

>  <r_i_glide_hbond>  (1) 
-0.10972652562162277

>  <r_i_glide_ligand_efficiency>  (1) 
-0.079836036442771055

>  <r_i_glide_ligand_efficiency_ln>  (1) 
-0.65416992382181216

>  <r_i_glide_ligand_efficiency_sa>  (1) 
-0.26840679109690213

>  <r_i_glide_lipo>  (1) 
-4.4479036580404419

>  <r_i_glide_metal>  (1) 
-0

>  <r_i_glide_rewards>  (1) 
0.64401596540077755

>  <r_lp_Energy>  (1) 
96.794462999999993

>  <r_lp_tautomer_probability>  (1) 
1

>  <s_epik_Chemistry_Notes>  (1) 
This compound has an imine and may undergo hydrolysis.

>  <s_epik_cmdline>  (1) 
J2VwaWtfcHl0aG9uJywgJy1waHQnLCAnMS4wJywgJy1waCcsICc3LjQnLCAnLXRuJywgJzgnLCAnLW1hJywgJzUwMCcsICctaW1hZScsICc8aW5maWxlLm1hZT4nLCAnLW9tYWUnLCAnPG91dGZpbGUubWFlPic=

>  <s_epik_input>  (1) 
W0NIMl0xW0NIMl1bQ0gyXVtDQEBIXShbQ0BAXTEyW0NIM10pW0NIMl1OKFtDSDNdKVtDQEhdM1tDQEhdKFtDSDJdMilDKD1PKU4oW0NIMl1bQ0gyXTMpW0NIMl1bQ0BASF0oW0NIM10pW0NIMl1OKGMoW2NIXVtjSF1bY0hdNClbY0hdYzRPW0NIM10pQyg9TylDNT1OW0NIMl1bQ0hdPUM1W0NIM10=

>  <s_glide_docking_method>  (1) 
confgen

>  <s_i_glide_gridfile>  (1) 
gpcr_5ht2c_6bqh_protein_autoprepared_prepared

>  <s_lp_Force_Field>  (1) 
S-OPLS

>  <s_lp_Variant>  (1) 
DiffSBDD_23_num_sample_100-4

>  <s_m_source_file>  (1) 
generated__ligand_DiffSBDD_2026-05-06_prepared.sdf

>  <GenAI_Model>  (1) 
DiffSBDD

>  <Protein>  (1) 
GPCR_5HT2C

$$$$
DiffSBDD_90_num_sample_100
     RDKit          3D

  0  0  0  0  0  0  0  0  0  0999 V3000
M  V30 BEGIN CTAB
M  V30 COUNTS 85 88 0 0 1
M  V30 BEGIN ATOM
M  V30 1 C 39.124017 31.852710 55.857873 0
M  V30 2 O 36.464624 37.867249 62.425367 0
M  V30 3 F 39.748309 25.621436 59.053507 0
M  V30 4 C 38.708140 27.481657 53.389479 0 CFG=1
M  V30 5 C 39.323232 35.456764 61.927089 0 CFG=2
M  V30 6 C 37.533659 33.911949 61.291053 0 CFG=1
M  V30 7 C 40.267398 30.136974 52.445721 0
M  V30 8 C 36.837941 32.554787 59.213243 0
M  V30 9 C 39.133660 27.975406 51.984738 0
M  V30 10 N 37.784784 37.448326 61.987405 0
M  V30 11 C 38.595405 27.606728 58.887955 0
M  V30 12 C 39.445782 26.816778 51.046485 0
M  V30 13 C 38.875710 34.511125 60.800863 0
M  V30 14 C 36.862299 35.168723 61.852922 0
M  V30 15 O 40.060084 33.468200 63.053556 0
M  V30 16 N 38.445181 30.773180 56.599890 0 CFG=1 CHG=1
M  V30 17 C 36.537842 33.224227 60.347352 0
M  V30 18 F 40.868789 27.471586 59.300567 0
M  V30 19 C 39.070530 26.184473 56.391333 0 CFG=1
M  V30 20 N 39.005035 29.444807 56.222663 0
M  V30 21 C 37.461973 27.272847 57.892314 0
M  V30 22 C 38.465716 30.940664 58.074838 0
M  V30 23 O 40.267444 28.839702 51.853531 0
M  V30 24 C 37.973068 28.639399 51.356823 0
M  V30 25 C 38.511654 33.194142 56.220746 0
M  V30 26 C 40.265226 26.730643 57.180996 0
M  V30 27 C 38.229044 32.343149 58.651852 0 CFG=1
M  V30 28 C 37.979308 36.069198 62.436241 0 CFG=1
M  V30 29 C 39.867312 26.823407 54.123309 0
M  V30 30 O 40.726044 35.436782 63.860401 0 CHG=-1
M  V30 31 C 37.967407 28.544100 55.741867 0 CFG=1
M  V30 32 C 38.667428 33.470017 57.714900 0
M  V30 33 O 40.233443 36.421425 61.453490 0
M  V30 34 C 37.916517 28.548750 54.209154 0
M  V30 35 C 37.879897 27.153249 56.433336 0 CFG=1
M  V30 36 C 39.443255 25.678874 55.018195 0
M  V30 37 C 39.889016 26.860528 58.636688 0
M  V30 38 C 40.100719 34.720662 63.046347 0
M  V30 39 H 39.010161 31.681260 54.787048 0
M  V30 40 H 40.193135 31.846110 56.070059 0
M  V30 41 H 36.659509 38.617834 62.965649 0
M  V30 42 H 37.983572 26.688664 53.197755 0
M  V30 43 H 37.717658 33.213339 62.107247 0
M  V30 44 H 41.063362 30.718062 51.978603 0
M  V30 45 H 40.453781 30.076478 53.517182 0
M  V30 46 H 39.387378 30.740657 52.282570 0
M  V30 47 H 36.039031 32.126748 58.653515 0
M  V30 48 H 37.736839 37.537431 60.981316 0
M  V30 49 H 38.267493 27.445036 59.913739 0
M  V30 50 H 38.859152 28.641793 58.858336 0
M  V30 51 H 39.867393 25.986021 51.580815 0
M  V30 52 H 38.550789 26.421523 50.567356 0
M  V30 53 H 40.131347 27.109528 50.253601 0
M  V30 54 H 39.670836 33.798844 60.603488 0
M  V30 55 H 38.711652 35.098670 59.901164 0
M  V30 56 H 36.054626 34.963189 62.559479 0
M  V30 57 H 36.388061 35.672755 61.007923 0
M  V30 58 H 35.499871 33.295107 60.638243 0
M  V30 59 H 38.746601 25.277544 56.905220 0
M  V30 60 H 39.317001 29.136422 57.131696 0
M  V30 61 H 37.041976 26.311453 58.188637 0
M  V30 62 H 36.660047 28.003971 57.986558 0
M  V30 63 H 39.444508 30.610092 58.424832 0
M  V30 64 H 37.703001 30.284168 58.493873 0
M  V30 65 H 37.080049 28.021408 51.453465 0
M  V30 66 H 37.755533 29.568406 51.831199 0
M  V30 67 H 38.267441 28.821424 50.322594 0
M  V30 68 H 37.467356 33.200784 55.934242 0
M  V30 69 H 38.984488 33.989019 55.644822 0
M  V30 70 H 41.067484 26.021469 57.104763 0
M  V30 71 H 40.669214 27.666224 56.808710 0
M  V30 72 H 38.872936 32.319101 59.520336 0
M  V30 73 H 37.950494 36.066009 63.525528 0
M  V30 74 H 40.660831 26.455777 53.470476 0
M  V30 75 H 40.267438 27.620954 54.723203 0
M  V30 76 H 37.067402 29.064812 56.033067 0
M  V30 77 H 38.115821 34.380156 57.947078 0
M  V30 78 H 39.723443 33.621404 57.926748 0
M  V30 79 H 40.668833 36.737958 62.237041 0
M  V30 80 H 36.869766 28.447140 53.923872 0
M  V30 81 H 38.178547 29.555150 53.901614 0
M  V30 82 H 37.067459 26.630608 55.929496 0
M  V30 83 H 38.622585 25.101256 54.595059 0
M  V30 84 H 40.266502 24.983125 55.138488 0
M  V30 85 H 37.473536 30.778920 56.311942 0
M  V30 END ATOM
M  V30 BEGIN BOND
M  V30 1 1 9 4
M  V30 2 1 10 2
M  V30 3 1 12 9
M  V30 4 1 13 5
M  V30 5 1 13 6
M  V30 6 1 14 6
M  V30 7 1 16 1
M  V30 8 1 17 6
M  V30 9 2 17 8
M  V30 10 1 20 16
M  V30 11 1 21 11
M  V30 12 1 22 16
M  V30 13 1 23 7
M  V30 14 1 23 9
M  V30 15 1 24 9
M  V30 16 1 25 1
M  V30 17 1 26 19
M  V30 18 1 27 8
M  V30 19 1 27 22
M  V30 20 1 28 5
M  V30 21 1 28 10
M  V30 22 1 28 14
M  V30 23 1 29 4
M  V30 24 1 31 20
M  V30 25 1 32 25
M  V30 26 1 32 27
M  V30 27 1 5 33 CFG=3
M  V30 28 1 34 4
M  V30 29 1 34 31
M  V30 30 1 35 19
M  V30 31 1 35 21
M  V30 32 1 35 31
M  V30 33 1 36 19
M  V30 34 1 36 29
M  V30 35 1 37 3
M  V30 36 1 37 11
M  V30 37 1 37 18
M  V30 38 1 37 26
M  V30 39 1 38 5
M  V30 40 2 38 15
M  V30 41 1 38 30
M  V30 42 1 39 1
M  V30 43 1 40 1
M  V30 44 1 41 2
M  V30 45 1 4 42 CFG=3
M  V30 46 1 6 43 CFG=1
M  V30 47 1 44 7
M  V30 48 1 45 7
M  V30 49 1 46 7
M  V30 50 1 47 8
M  V30 51 1 48 10
M  V30 52 1 49 11
M  V30 53 1 50 11
M  V30 54 1 51 12
M  V30 55 1 52 12
M  V30 56 1 53 12
M  V30 57 1 54 13
M  V30 58 1 55 13
M  V30 59 1 56 14
M  V30 60 1 57 14
M  V30 61 1 58 17
M  V30 62 1 19 59 CFG=1
M  V30 63 1 60 20
M  V30 64 1 61 21
M  V30 65 1 62 21
M  V30 66 1 63 22
M  V30 67 1 64 22
M  V30 68 1 65 24
M  V30 69 1 66 24
M  V30 70 1 67 24
M  V30 71 1 68 25
M  V30 72 1 69 25
M  V30 73 1 70 26
M  V30 74 1 71 26
M  V30 75 1 27 72 CFG=1
M  V30 76 1 28 73 CFG=1
M  V30 77 1 74 29
M  V30 78 1 75 29
M  V30 79 1 31 76 CFG=1
M  V30 80 1 77 32
M  V30 81 1 78 32
M  V30 82 1 79 33
M  V30 83 1 80 34
M  V30 84 1 81 34
M  V30 85 1 35 82 CFG=3
M  V30 86 1 83 36
M  V30 87 1 84 36
M  V30 88 1 16 85 CFG=3
M  V30 END BOND
M  V30 END CTAB
M  END
>  <i_epik_Tot_Q>  (1) 
0

>  <i_epik_Tot_abs_Q>  (1) 
2

>  <i_i_glide_confnum>  (1) 
369

>  <i_i_glide_lignum>  (1) 
241

>  <i_i_glide_posenum>  (1) 
225

>  <i_i_glide_rotatable_bonds>  (1) 
10

>  <i_lp_mmshare_version>  (1) 
72125

>  <i_m_source_file_index>  (1) 
91

>  <i_f3d_flags>  (1) 
0

>  <num_sample>  (1) 
100

>  <b_lp_Chiralities_Consistent>  (1) 
1

>  <r_epik_Charging_Adjusted_Penalty>  (1) 
1.5083745474312953

>  <r_epik_Ionization_Penalty>  (1) 
0.65750586125956467

>  <r_epik_Ionization_Penalty_Charging>  (1) 
0.6544614066189578

>  <r_epik_Ionization_Penalty_Neutral>  (1) 
0.0030444546406068235

>  <r_epik_State_Penalty>  (1) 
0.8539131408123376

>  <r_glide_ring_energy>  (1) 
0.5227007341330594

>  <r_i_docking_score>  (1) 
-3.0018077795868536

>  <r_i_glide_ecoul>  (1) 
-2.1493686765741655

>  <r_i_glide_eff_state_penalty>  (1) 
0.8539131408123376

>  <r_i_glide_einternal>  (1) 
30.65152325031352

>  <r_i_glide_emodel>  (1) 
4.0730945883236078

>  <r_i_glide_emodel_strain>  (1) 
10.74854063493494

>  <r_i_glide_energy>  (1) 
-18.296667402496304

>  <r_i_glide_erotb>  (1) 
0.42002339013477186

>  <r_i_glide_esite>  (1) 
-0.065797002994068085

>  <r_i_glide_evdw>  (1) 
-16.147298725922138

>  <r_i_glide_gscore>  (1) 
-3.8557209203991913

>  <r_i_glide_gscore_strain>  (1) 
1.6871351587337351

>  <r_i_glide_hbond>  (1) 
0

>  <r_i_glide_ligand_efficiency>  (1) 
-0.0789949415680751

>  <r_i_glide_ligand_efficiency_ln>  (1) 
-0.6472780615172351

>  <r_i_glide_ligand_efficiency_sa>  (1) 
-0.26557905081338967

>  <r_i_glide_lipo>  (1) 
-3.7703244933455999

>  <r_i_glide_metal>  (1) 
-0

>  <r_i_glide_rewards>  (1) 
-0.99698773514579897

>  <r_lp_Energy>  (1) 
49.266497000000001

>  <s_epik_Chemistry_Notes>  (1) 
This compound has a N-S or N-O group and may undergo hydrolysis at high or low pH.

>  <s_epik_cmdline>  (1) 
J2VwaWtfcHl0aG9uJywgJy1waHQnLCAnMS4wJywgJy1waCcsICc3LjQnLCAnLXRuJywgJzgnLCAnLW1hJywgJzUwMCcsICctaW1hZScsICc8aW5maWxlLm1hZT4nLCAnLW9tYWUnLCAnPG91dGZpbGUubWFlPic=

>  <s_epik_input>  (1) 
RkMoRikoW0NIMl0xKVtDSDJdW0NIMl1bQ0BIXShbQ0BASF0xMilbQ0BIXShbQ0gyXVtDQEhdKFtDSDJdW0NIMl0yKUMoW0NIM10pKFtDSDNdKU9bQ0gzXSlbTkhdTjNbQ0gyXVtDSDJdW0NIMl1bQ0BIXShbQ0gyXTMpL1tDSF09W0NIXVxbQ0BASF0oW0NIMl1bQ0BdNChbT0hdKUMoPU8pW09IXSlbQ0gyXVtDQEBIXTRbTkhdW09IXQ==

>  <s_glide_docking_method>  (1) 
confgen

>  <s_i_glide_gridfile>  (1) 
gpcr_5ht2c_6bqh_protein_autoprepared_prepared

>  <s_lp_Force_Field>  (1) 
S-OPLS

>  <s_lp_Variant>  (1) 
DiffSBDD_90_num_sample_100-13

>  <s_m_source_file>  (1) 
generated__ligand_DiffSBDD_2026-05-06_prepared.sdf

>  <GenAI_Model>  (1) 
DiffSBDD

>  <Protein>  (1) 
GPCR_5HT2C

$$$$
DiffSBDD_29_num_sample_100
     RDKit          3D

  0  0  0  0  0  0  0  0  0  0999 V3000
M  V30 BEGIN CTAB
M  V30 COUNTS 85 89 0 0 1
M  V30 BEGIN ATOM
M  V30 1 F 39.753029 30.582249 53.563821 0
M  V30 2 C 39.862311 25.097229 56.979428 0
M  V30 3 C 38.187067 28.165501 54.033126 0
M  V30 4 C 38.221549 30.386322 58.722010 0 CFG=2
M  V30 5 C 38.912925 34.433688 61.812564 0
M  V30 6 C 38.638635 30.173328 57.258984 0
M  V30 7 C 40.087983 29.786594 51.431617 0
M  V30 8 N 39.348710 26.452740 57.024725 0
M  V30 9 C 38.545815 33.119950 58.310155 0 CFG=1
M  V30 10 C 35.872398 34.589369 62.085306 0
M  V30 11 C 41.671066 27.243863 57.842504 0
M  V30 12 C 36.687012 33.305002 62.026925 0 CFG=1
M  V30 13 C 39.561442 29.657282 52.608468 0
M  V30 14 C 40.685382 28.299035 58.242319 0 CFG=2
M  V30 15 C 37.669043 24.262917 56.188950 0
M  V30 16 C 36.115745 34.021557 58.220699 0
M  V30 17 C 38.408511 31.862815 59.237622 0 CFG=1
M  V30 18 C 39.757444 28.192609 59.443557 0 CFG=1
M  V30 19 C 38.723845 27.646590 51.617634 0
M  V30 20 N 37.183963 25.630538 56.172719 0
M  V30 21 N 38.830901 28.542739 52.790416 0
M  V30 22 F 40.848393 30.821565 51.054649 0
M  V30 23 S 36.148231 31.983467 60.960497 0
M  V30 24 C 38.239823 26.646762 56.058014 0 CFG=2
M  V30 25 C 38.694151 24.198939 57.312372 0
M  V30 26 C 37.485208 33.393903 55.951934 0
M  V30 27 O 40.592882 28.021213 60.574752 0
M  V30 28 C 37.951338 32.105519 60.676177 0 CFG=2
M  V30 29 C 38.955418 29.467256 59.777689 0
M  V30 30 C 36.749888 35.853546 62.404403 0
M  V30 31 C 38.250001 35.832912 61.941405 0
M  V30 32 C 38.688692 26.823273 54.588359 0
M  V30 33 O 39.467438 32.821437 57.352943 0
M  V30 34 C 37.879288 33.551582 61.167714 0 CFG=2
M  V30 35 C 40.430826 27.456422 56.990704 0 CFG=2
M  V30 36 C 37.466297 33.812381 57.467160 0
M  V30 37 O 36.850637 30.024152 58.674598 0
M  V30 38 S 39.781214 28.535746 50.301389 0
M  V30 39 H 40.276303 24.864478 55.996818 0
M  V30 40 H 40.626223 24.920256 57.731356 0
M  V30 41 H 37.106370 28.145152 53.892167 0
M  V30 42 H 38.390826 28.946481 54.763147 0
M  V30 43 H 39.820979 34.484142 61.213558 0
M  V30 44 H 39.194899 34.054882 62.794743 0
M  V30 45 H 38.005163 30.706405 56.558347 0
M  V30 46 H 38.523682 29.141980 57.005487 0
M  V30 47 H 39.671880 30.430596 57.043061 0
M  V30 48 H 39.055157 33.892432 58.886352 0
M  V30 49 H 35.460594 34.746451 61.093702 0
M  V30 50 H 35.033222 34.500425 62.759858 0
M  V30 51 H 42.618523 27.566975 57.414337 0
M  V30 52 H 41.764388 26.421322 58.533188 0
M  V30 53 H 37.067293 32.821406 62.932760 0
M  V30 54 H 41.132122 29.280721 58.150310 0
M  V30 55 H 38.112222 23.997013 55.228297 0
M  V30 56 H 36.838334 23.583202 56.382687 0
M  V30 57 H 35.733425 33.107256 58.653552 0
M  V30 58 H 36.208262 34.786241 58.982771 0
M  V30 59 H 35.291004 34.421372 57.636583 0
M  V30 60 H 39.467400 31.855707 59.453117 0
M  V30 61 H 39.086868 27.336735 59.355913 0
M  V30 62 H 39.123892 26.652285 51.814606 0
M  V30 63 H 37.688882 27.572734 51.291568 0
M  V30 64 H 36.505912 25.753302 55.433695 0
M  V30 65 H 37.685059 27.527437 56.355753 0
M  V30 66 H 39.103007 23.218536 57.456990 0
M  V30 67 H 38.229710 24.480767 58.254178 0
M  V30 68 H 37.067398 32.416616 55.740713 0
M  V30 69 H 37.067412 34.150544 55.331961 0
M  V30 70 H 38.449769 33.386292 55.444041 0
M  V30 71 H 41.149153 27.268702 60.439765 0
M  V30 72 H 38.458748 31.491868 61.421302 0
M  V30 73 H 39.699057 30.070703 60.295869 0
M  V30 74 H 38.267699 29.217078 60.582437 0
M  V30 75 H 36.275905 36.745655 62.002994 0
M  V30 76 H 36.731493 36.021639 63.478865 0
M  V30 77 H 38.288993 36.296503 60.955356 0
M  V30 78 H 38.852084 36.473108 62.584983 0
M  V30 79 H 39.772371 26.767784 54.492945 0
M  V30 80 H 38.313638 26.015031 53.966014 0
M  V30 81 H 39.016881 32.338731 56.675121 0
M  V30 82 H 37.528956 34.127629 60.333229 0
M  V30 83 H 40.632229 27.974008 56.055906 0
M  V30 84 H 37.864849 34.821470 57.376007 0
M  V30 85 H 36.389962 30.632618 58.098926 0
M  V30 END ATOM
M  V30 BEGIN BOND
M  V30 1 1 6 4
M  V30 2 1 8 2
M  V30 3 1 12 10
M  V30 4 1 13 1
M  V30 5 2 13 7
M  V30 6 1 14 11
M  V30 7 1 17 4
M  V30 8 1 17 9
M  V30 9 1 18 14
M  V30 10 1 20 15
M  V30 11 1 21 3
M  V30 12 1 21 13
M  V30 13 1 21 19
M  V30 14 1 22 7
M  V30 15 1 23 12
M  V30 16 1 24 8
M  V30 17 1 24 20
M  V30 18 1 25 2
M  V30 19 1 25 15
M  V30 20 1 27 18
M  V30 21 1 28 17
M  V30 22 1 28 23
M  V30 23 1 29 4
M  V30 24 1 29 18
M  V30 25 1 30 10
M  V30 26 1 31 5
M  V30 27 1 31 30
M  V30 28 1 32 3
M  V30 29 1 32 24
M  V30 30 1 33 9
M  V30 31 1 34 5
M  V30 32 1 34 12
M  V30 33 1 34 28
M  V30 34 1 35 8
M  V30 35 1 35 11
M  V30 36 1 35 14
M  V30 37 1 36 9
M  V30 38 1 36 16
M  V30 39 1 36 26
M  V30 40 1 4 37 CFG=3
M  V30 41 1 38 7
M  V30 42 1 38 19
M  V30 43 1 39 2
M  V30 44 1 40 2
M  V30 45 1 41 3
M  V30 46 1 42 3
M  V30 47 1 43 5
M  V30 48 1 44 5
M  V30 49 1 45 6
M  V30 50 1 46 6
M  V30 51 1 47 6
M  V30 52 1 9 48 CFG=1
M  V30 53 1 49 10
M  V30 54 1 50 10
M  V30 55 1 51 11
M  V30 56 1 52 11
M  V30 57 1 12 53 CFG=1
M  V30 58 1 14 54 CFG=3
M  V30 59 1 55 15
M  V30 60 1 56 15
M  V30 61 1 57 16
M  V30 62 1 58 16
M  V30 63 1 59 16
M  V30 64 1 17 60 CFG=1
M  V30 65 1 18 61 CFG=3
M  V30 66 1 62 19
M  V30 67 1 63 19
M  V30 68 1 64 20
M  V30 69 1 24 65 CFG=1
M  V30 70 1 66 25
M  V30 71 1 67 25
M  V30 72 1 68 26
M  V30 73 1 69 26
M  V30 74 1 70 26
M  V30 75 1 71 27
M  V30 76 1 28 72 CFG=1
M  V30 77 1 73 29
M  V30 78 1 74 29
M  V30 79 1 75 30
M  V30 80 1 76 30
M  V30 81 1 77 31
M  V30 82 1 78 31
M  V30 83 1 79 32
M  V30 84 1 80 32
M  V30 85 1 81 33
M  V30 86 1 34 82 CFG=3
M  V30 87 1 35 83 CFG=3
M  V30 88 1 84 36
M  V30 89 1 85 37
M  V30 END BOND
M  V30 END CTAB
M  END
>  <i_epik_Tot_Q>  (1) 
0

>  <i_epik_Tot_abs_Q>  (1) 
0

>  <i_i_glide_confnum>  (1) 
291

>  <i_i_glide_lignum>  (1) 
74

>  <i_i_glide_posenum>  (1) 
79

>  <i_i_glide_rotatable_bonds>  (1) 
14

>  <i_lp_mmshare_version>  (1) 
72125

>  <i_m_source_file_index>  (1) 
30

>  <i_f3d_flags>  (1) 
0

>  <num_sample>  (1) 
100

>  <b_lp_Chiralities_Consistent>  (1) 
1

>  <r_epik_Charging_Adjusted_Penalty>  (1) 
0.89739717629826321

>  <r_epik_Ionization_Penalty>  (1) 
1.0966562263345743

>  <r_epik_Ionization_Penalty_Charging>  (1) 
8.0809776118824917e-09

>  <r_epik_Ionization_Penalty_Neutral>  (1) 
1.0966562182535966

>  <r_epik_State_Penalty>  (1) 
0.89739716821728555

>  <r_glide_ring_energy>  (1) 
1.6720993256358943

>  <r_i_docking_score>  (1) 
-2.8905859918982793

>  <r_i_glide_ecoul>  (1) 
-3.9585268061179724

>  <r_i_glide_eff_state_penalty>  (1) 
0.89739716821728555

>  <r_i_glide_einternal>  (1) 
75.492138270821286

>  <r_i_glide_emodel>  (1) 
28.646864238769002

>  <r_i_glide_emodel_strain>  (1) 
19.548639015214263

>  <r_i_glide_energy>  (1) 
-22.706896757063621

>  <r_i_glide_erotb>  (1) 
0.47112220270256994

>  <r_i_glide_esite>  (1) 
0

>  <r_i_glide_evdw>  (1) 
-18.748369950945648

>  <r_i_glide_gscore>  (1) 
-3.7879831601155649

>  <r_i_glide_gscore_strain>  (1) 
3.8871597538035658

>  <r_i_glide_hbond>  (1) 
-0.16

>  <r_i_glide_ligand_efficiency>  (1) 
-0.076068052418375776

>  <r_i_glide_ligand_efficiency_ln>  (1) 
-0.6232953722780693

>  <r_i_glide_ligand_efficiency_sa>  (1) 
-0.25573892147367377

>  <r_i_glide_lipo>  (1) 
-4.4149739351809529

>  <r_i_glide_metal>  (1) 
-0

>  <r_i_glide_rewards>  (1) 
-2.0400936629757696

>  <r_lp_Energy>  (1) 
34.086382999999998

>  <s_epik_Chemistry_Notes>  (1) 
This compound has an imine and may undergo hydrolysis. This compound contains an acetal/aminal-like group ( X-CH(R)-Y where X, Y are N, S, or O) that may be acid/base labile, releasing an aldehyde.

>  <s_epik_cmdline>  (1) 
J2VwaWtfcHl0aG9uJywgJy1waHQnLCAnMS4wJywgJy1waCcsICc3LjQnLCAnLXRuJywgJzgnLCAnLW1hJywgJzUwMCcsICctaW1hZScsICc8aW5maWxlLm1hZT4nLCAnLW9tYWUnLCAnPG91dGZpbGUubWFlPic=

>  <s_epik_input>  (1) 
RkMxPUMoRilOKFtDSDJdUzEpW0NIMl1bQ0gyXVtDQEhdMltOSF1bQ0gyXVtDSDJdW0NIMl1OMltDQEBIXTNbQ0gyXVtDQEBIXTNbQ0BASF0oW09IXSlbQ0gyXVtDQEBdKFtDSDNdKShbT0hdKVtDQEBIXShbQ0BASF0oW09IXSlbQ0hdKFtDSDNdKVtDSDNdKVtDQEhdKFM0KVtDQEBIXShbQ0BASF00NSlbQ0gyXVtDSDJdW0NIMl1bQ0gyXTU=

>  <s_glide_docking_method>  (1) 
confgen

>  <s_i_glide_gridfile>  (1) 
gpcr_5ht2c_6bqh_protein_autoprepared_prepared

>  <s_lp_Force_Field>  (1) 
S-OPLS

>  <s_lp_Variant>  (1) 
DiffSBDD_29_num_sample_100-4

>  <s_m_source_file>  (1) 
generated__ligand_DiffSBDD_2026-05-06_prepared.sdf

>  <GenAI_Model>  (1) 
DiffSBDD

>  <Protein>  (1) 
GPCR_5HT2C

$$$$
DiffSBDD_3_num_sample_100
     RDKit          3D

  0  0  0  0  0  0  0  0  0  0999 V3000
M  V30 BEGIN CTAB
M  V30 COUNTS 17 16 0 0 1
M  V30 BEGIN ATOM
M  V30 1 O 37.896164 28.173552 52.253502 0
M  V30 2 C 39.025862 27.828305 51.459529 0
M  V30 3 O 39.867418 29.456239 49.853473 0
M  V30 4 C 39.917230 29.059303 51.208890 0
M  V30 5 S 38.267445 26.743966 56.036035 0
M  V30 6 S 37.867924 24.821422 56.579015 0 CHG=-1
M  V30 7 C 38.037902 26.749050 54.239099 0
M  V30 8 C 38.129079 28.170025 53.658185 0
M  V30 9 H 38.667403 27.419075 50.515323 0
M  V30 10 H 39.602779 27.027031 51.921539 0
M  V30 11 H 38.963429 29.621194 49.605429 0
M  V30 12 H 40.953685 28.823847 51.453281 0
M  V30 13 H 39.623948 29.899479 51.839218 0
M  V30 14 H 37.067422 26.313002 54.005642 0
M  V30 15 H 38.792932 26.093677 53.808734 0
M  V30 16 H 39.086356 28.633832 53.899975 0
M  V30 17 H 37.359219 28.789351 54.120467 0
M  V30 END ATOM
M  V30 BEGIN BOND
M  V30 1 1 2 1
M  V30 2 1 4 2
M  V30 3 1 4 3
M  V30 4 1 6 5
M  V30 5 1 7 5
M  V30 6 1 8 1
M  V30 7 1 8 7
M  V30 8 1 9 2
M  V30 9 1 10 2
M  V30 10 1 11 3
M  V30 11 1 12 4
M  V30 12 1 13 4
M  V30 13 1 14 7
M  V30 14 1 15 7
M  V30 15 1 16 8
M  V30 16 1 17 8
M  V30 END BOND
M  V30 END CTAB
M  END
>  <i_epik_Tot_Q>  (1) 
-1

>  <i_epik_Tot_abs_Q>  (1) 
1

>  <i_i_glide_confnum>  (1) 
79

>  <i_i_glide_lignum>  (1) 
21

>  <i_i_glide_posenum>  (1) 
225

>  <i_i_glide_rotatable_bonds>  (1) 
6

>  <i_lp_mmshare_version>  (1) 
72125

>  <i_m_source_file_index>  (1) 
4

>  <i_f3d_flags>  (1) 
0

>  <num_sample>  (1) 
100

>  <b_lp_Chiralities_Consistent>  (1) 
1

>  <r_epik_Charging_Adjusted_Penalty>  (1) 
0.00058921996017037321

>  <r_epik_Ionization_Penalty>  (1) 
0.0005892715023935103

>  <r_epik_Ionization_Penalty_Charging>  (1) 
0.00058921996017037321

>  <r_epik_Ionization_Penalty_Neutral>  (1) 
5.1542223137146341e-08

>  <r_epik_State_Penalty>  (1) 
-0

>  <r_glide_ring_energy>  (1) 
0

>  <r_i_docking_score>  (1) 
-2.8370068299396971

>  <r_i_glide_ecoul>  (1) 
-2.6140165675669049

>  <r_i_glide_eff_state_penalty>  (1) 
-0

>  <r_i_glide_einternal>  (1) 
5.0064781218815764

>  <r_i_glide_emodel>  (1) 
-21.639279906990733

>  <r_i_glide_emodel_strain>  (1) 
0.3111376974377249

>  <r_i_glide_energy>  (1) 
-20.197901233518053

>  <r_i_glide_erotb>  (1) 
2.5252674985507193

>  <r_i_glide_esite>  (1) 
0

>  <r_i_glide_evdw>  (1) 
-17.583884665951146

>  <r_i_glide_gscore>  (1) 
-2.8370068299396971

>  <r_i_glide_gscore_strain>  (1) 
0

>  <r_i_glide_hbond>  (1) 
-0.32000000000000001

>  <r_i_glide_ligand_efficiency>  (1) 
-0.35462585374246214

>  <r_i_glide_ligand_efficiency_ln>  (1) 
-0.92127315668804988

>  <r_i_glide_ligand_efficiency_sa>  (1) 
-0.70925170748492439

>  <r_i_glide_lipo>  (1) 
-1.5209776100578234

>  <r_i_glide_metal>  (1) 
-0

>  <r_i_glide_rewards>  (1) 
-2.25

>  <r_lp_Energy>  (1) 
3.2647040000000001

>  <r_lp_tautomer_probability>  (1) 
1

>  <s_epik_cmdline>  (1) 
J2VwaWtfcHl0aG9uJywgJy1waHQnLCAnMS4wJywgJy1waCcsICc3LjQnLCAnLXRuJywgJzgnLCAnLW1hJywgJzUwMCcsICctaW1hZScsICc8aW5maWxlLm1hZT4nLCAnLW9tYWUnLCAnPG91dGZpbGUubWFlPic=

>  <s_epik_input>  (1) 
W09IXVtDSDJdW0NIMl1PW0NIMl1bQ0gyXVNbU0hd

>  <s_glide_docking_method>  (1) 
confgen

>  <s_i_glide_gridfile>  (1) 
gpcr_5ht2c_6bqh_protein_autoprepared_prepared

>  <s_lp_Force_Field>  (1) 
S-OPLS

>  <s_lp_Variant>  (1) 
DiffSBDD_3_num_sample_100-1

>  <s_m_source_file>  (1) 
generated__ligand_DiffSBDD_2026-05-06_prepared.sdf

>  <GenAI_Model>  (1) 
DiffSBDD

>  <Protein>  (1) 
GPCR_5HT2C

$$$$
DiffSBDD_93_num_sample_100
     RDKit          3D

  0  0  0  0  0  0  0  0  0  0999 V3000
M  V30 BEGIN CTAB
M  V30 COUNTS 74 77 0 0 1
M  V30 BEGIN ATOM
M  V30 1 C 38.794298 29.673094 56.479099 0
M  V30 2 S 40.164382 32.127847 61.645366 0
M  V30 3 C 39.546882 31.468177 54.884007 0 CFG=2
M  V30 4 O 42.199280 29.091502 65.235024 0
M  V30 5 C 39.444238 35.880498 60.836907 0
M  V30 6 C 40.706699 29.016530 62.687148 0 CFG=1
M  V30 7 C 37.010932 34.556768 59.368551 0
M  V30 8 C 38.368378 32.486837 59.574044 0
M  V30 9 C 39.597111 30.444143 53.766273 0
M  V30 10 N 38.448702 30.187263 60.850013 0 CHG=1
M  V30 11 C 38.281389 36.707650 61.328345 0
M  V30 12 C 39.447557 30.825916 56.239436 0
M  V30 13 C 38.642260 29.206387 57.869006 0
M  V30 14 C 39.437599 29.209491 60.297310 0 CFG=1
M  V30 15 C 38.477186 29.396132 53.884298 0
M  V30 16 Cl 38.478765 27.152858 55.405597 0
M  V30 17 O 36.287294 37.848220 61.053498 0
M  V30 18 C 38.141049 28.906667 55.319969 0 CFG=1
M  V30 19 C 37.425968 28.417455 58.253289 0
M  V30 20 C 40.058322 31.419284 63.277231 0
M  V30 21 C 41.562320 27.871060 63.265240 0
M  V30 22 C 39.570158 29.520942 58.807797 0
M  V30 23 C 36.336602 35.573240 60.267361 0
M  V30 24 C 41.099676 30.321352 63.444094 0 CFG=1
M  V30 25 C 38.567658 31.673602 60.898088 0 CFG=1
M  V30 26 C 37.098759 36.883618 60.409104 0 CFG=2
M  V30 27 C 41.263748 30.113241 64.965462 0
M  V30 28 C 41.705259 27.848156 64.790479 0
M  V30 29 C 39.375088 34.676403 60.220106 0
M  V30 30 S 37.086469 32.021487 61.853495 0 CHG=-1
M  V30 31 N 38.243882 33.940174 59.853304 0
M  V30 32 C 38.354868 32.429475 54.716089 0
M  V30 33 C 40.776725 29.088961 61.107009 0
M  V30 34 H 40.476960 32.021393 54.890195 0
M  V30 35 H 40.422912 36.289087 61.053470 0
M  V30 36 H 39.682425 28.787260 62.950278 0
M  V30 37 H 37.223023 35.012533 58.400819 0
M  V30 38 H 36.274850 33.776763 59.165470 0
M  V30 39 H 37.492582 32.113043 59.041765 0
M  V30 40 H 39.207131 32.346399 58.898063 0
M  V30 41 H 39.538681 30.938920 52.796749 0
M  V30 42 H 40.590952 30.015977 53.798504 0
M  V30 43 H 38.312279 29.931312 61.816499 0
M  V30 44 H 38.699834 37.692769 61.541834 0
M  V30 45 H 37.967936 36.301245 62.290751 0
M  V30 46 H 39.867427 31.383826 57.053650 0
M  V30 47 H 38.952920 28.237058 60.395923 0
M  V30 48 H 37.571746 29.826938 53.463536 0
M  V30 49 H 38.705953 28.555580 53.229074 0
M  V30 50 H 36.105350 37.547850 61.930047 0
M  V30 51 H 37.067452 29.030169 55.432124 0
M  V30 52 H 36.667383 28.529379 57.496153 0
M  V30 53 H 37.672982 27.359362 58.335902 0
M  V30 54 H 36.980537 28.821435 59.159080 0
M  V30 55 H 40.221939 32.233755 63.981817 0
M  V30 56 H 39.067405 31.022775 63.472829 0
M  V30 57 H 42.552143 27.854868 62.809260 0
M  V30 58 H 41.067403 26.940240 63.053496 0
M  V30 59 H 40.453601 30.021432 58.517985 0
M  V30 60 H 36.103166 35.127477 61.235526 0
M  V30 61 H 35.403771 35.794498 59.766204 0
M  V30 62 H 42.061405 30.673319 63.066923 0
M  V30 63 H 37.405671 37.271390 59.435692 0
M  V30 64 H 41.632508 31.027925 65.430574 0
M  V30 65 H 40.304871 29.891504 65.439297 0
M  V30 66 H 42.406125 27.066499 65.082219 0
M  V30 67 H 40.754480 27.611764 65.273198 0
M  V30 68 H 40.267408 34.165275 59.972594 0
M  V30 69 H 38.431671 33.275330 55.399779 0
M  V30 70 H 38.267440 32.821304 53.704299 0
M  V30 71 H 37.409844 31.927532 54.932305 0
M  V30 72 H 41.441567 29.889811 60.806879 0
M  V30 73 H 41.276013 28.187357 60.743880 0
M  V30 74 H 37.571385 30.023668 60.380102 0
M  V30 END ATOM
M  V30 BEGIN BOND
M  V30 1 1 9 3
M  V30 2 1 11 5
M  V30 3 2 12 1
M  V30 4 1 12 3
M  V30 5 1 13 1
M  V30 6 1 14 10
M  V30 7 1 15 9
M  V30 8 1 18 1
M  V30 9 1 18 15
M  V30 10 1 18 16
M  V30 11 1 19 13
M  V30 12 1 20 2
M  V30 13 1 21 6
M  V30 14 2 22 13
M  V30 15 1 22 14
M  V30 16 1 23 7
M  V30 17 1 24 6
M  V30 18 1 24 20
M  V30 19 1 25 2
M  V30 20 1 25 8
M  V30 21 1 25 10
M  V30 22 1 26 11
M  V30 23 1 26 17
M  V30 24 1 26 23
M  V30 25 1 27 4
M  V30 26 1 27 24
M  V30 27 1 28 4
M  V30 28 1 28 21
M  V30 29 2 29 5
M  V30 30 1 25 30 CFG=1
M  V30 31 1 31 7
M  V30 32 1 31 8
M  V30 33 1 31 29
M  V30 34 1 32 3
M  V30 35 1 33 6
M  V30 36 1 33 14
M  V30 37 1 3 34 CFG=1
M  V30 38 1 35 5
M  V30 39 1 6 36 CFG=3
M  V30 40 1 37 7
M  V30 41 1 38 7
M  V30 42 1 39 8
M  V30 43 1 40 8
M  V30 44 1 41 9
M  V30 45 1 42 9
M  V30 46 1 43 10
M  V30 47 1 44 11
M  V30 48 1 45 11
M  V30 49 1 46 12
M  V30 50 1 14 47 CFG=3
M  V30 51 1 48 15
M  V30 52 1 49 15
M  V30 53 1 50 17
M  V30 54 1 18 51 CFG=1
M  V30 55 1 52 19
M  V30 56 1 53 19
M  V30 57 1 54 19
M  V30 58 1 55 20
M  V30 59 1 56 20
M  V30 60 1 57 21
M  V30 61 1 58 21
M  V30 62 1 59 22
M  V30 63 1 60 23
M  V30 64 1 61 23
M  V30 65 1 24 62 CFG=3
M  V30 66 1 26 63 CFG=3
M  V30 67 1 64 27
M  V30 68 1 65 27
M  V30 69 1 66 28
M  V30 70 1 67 28
M  V30 71 1 68 29
M  V30 72 1 69 32
M  V30 73 1 70 32
M  V30 74 1 71 32
M  V30 75 1 72 33
M  V30 76 1 73 33
M  V30 77 1 74 10
M  V30 END BOND
M  V30 END CTAB
M  END
>  <i_epik_Tot_Q>  (1) 
0

>  <i_epik_Tot_abs_Q>  (1) 
2

>  <i_i_glide_confnum>  (1) 
19

>  <i_i_glide_lignum>  (1) 
261

>  <i_i_glide_posenum>  (1) 
176

>  <i_i_glide_rotatable_bonds>  (1) 
5

>  <i_lp_mmshare_version>  (1) 
72125

>  <i_m_source_file_index>  (1) 
94

>  <i_f3d_flags>  (1) 
0

>  <num_sample>  (1) 
100

>  <b_lp_Chiralities_Consistent>  (1) 
1

>  <r_epik_Charging_Adjusted_Penalty>  (1) 
0.80501984278308969

>  <r_epik_Ionization_Penalty>  (1) 
0.072421558423421364

>  <r_epik_Ionization_Penalty_Charging>  (1) 
0.072408791886815996

>  <r_epik_Ionization_Penalty_Neutral>  (1) 
1.2766536605372598e-05

>  <r_epik_State_Penalty>  (1) 
0.73261105089627365

>  <r_glide_ring_energy>  (1) 
0.82930930823906657

>  <r_i_docking_score>  (1) 
-2.8212032876189528

>  <r_i_glide_ecoul>  (1) 
-1.4991953835512899

>  <r_i_glide_eff_state_penalty>  (1) 
0.73261105089627365

>  <r_i_glide_einternal>  (1) 
14.326514023568421

>  <r_i_glide_emodel>  (1) 
-10.438614176475319

>  <r_i_glide_emodel_strain>  (1) 
8.8919173609421591

>  <r_i_glide_energy>  (1) 
-26.142867081844784

>  <r_i_glide_erotb>  (1) 
0.31140238833871409

>  <r_i_glide_esite>  (1) 
0

>  <r_i_glide_evdw>  (1) 
-24.643671698293495

>  <r_i_glide_gscore>  (1) 
-3.5538143385152265

>  <r_i_glide_gscore_strain>  (1) 
1.2229793402355398

>  <r_i_glide_hbond>  (1) 
-0.16

>  <r_i_glide_ligand_efficiency>  (1) 
-0.085491008715725847

>  <r_i_glide_ligand_efficiency_ln>  (1) 
-0.62742100375760346

>  <r_i_glide_ligand_efficiency_sa>  (1) 
-0.27421534536166309

>  <r_i_glide_lipo>  (1) 
-2.7776729941639831

>  <r_i_glide_metal>  (1) 
-0

>  <r_i_glide_rewards>  (1) 
-0.69346018047812819

>  <r_lp_Energy>  (1) 
38.886989999999997

>  <s_epik_Chemistry_Notes>  (1) 
This compound has an imine and may undergo hydrolysis.

>  <s_epik_cmdline>  (1) 
J2VwaWtfcHl0aG9uJywgJy1waHQnLCAnMS4wJywgJy1waCcsICc3LjQnLCAnLXRuJywgJzgnLCAnLW1hJywgJzUwMCcsICctaW1hZScsICc8aW5maWxlLm1hZT4nLCAnLW9tYWUnLCAnPG91dGZpbGUubWFlPic=

>  <s_epik_input>  (1) 
Q2xbQ0BIXTFbQ0gyXVtDSDJdW0NAQEhdKFtDSDNdKVtDSF09QzEvQyhbQ0gzXSk9W0NIXS9bQ0BASF0oW0NIMl0yKVtOSF1bQ0BAXShbU0hdKShTW0NIMl1bQ0BIXShbQ0BASF0yMylbQ0gyXU9bQ0gyXVtDSDJdMylbQ0gyXU4oW0NIMl1bQ0gyXTQpW0NIXT1bQ0hdW0NIMl1bQ0BASF00W09IXQ==

>  <s_glide_docking_method>  (1) 
confgen

>  <s_i_glide_gridfile>  (1) 
gpcr_5ht2c_6bqh_protein_autoprepared_prepared

>  <s_lp_Force_Field>  (1) 
S-OPLS

>  <s_lp_Variant>  (1) 
DiffSBDD_93_num_sample_100-13

>  <s_m_source_file>  (1) 
generated__ligand_DiffSBDD_2026-05-06_prepared.sdf

>  <GenAI_Model>  (1) 
DiffSBDD

>  <Protein>  (1) 
GPCR_5HT2C

$$$$
DiffSBDD_92_num_sample_100
     RDKit          3D

  0  0  0  0  0  0  0  0  0  0999 V3000
M  V30 BEGIN CTAB
M  V30 COUNTS 98 103 0 0 1
M  V30 BEGIN ATOM
M  V30 1 C 39.040389 33.115894 58.753521 0
M  V30 2 C 38.766421 28.932366 58.521024 0 CFG=1
M  V30 3 C 39.854003 28.109998 56.458347 0
M  V30 4 O 35.867402 34.814914 62.253499 0
M  V30 5 C 36.811050 33.937357 61.634070 0 CFG=1
M  V30 6 C 38.764666 31.670766 60.672949 0 CFG=1
M  V30 7 C 34.333581 33.219925 59.130008 0
M  V30 8 C 41.137723 31.417897 61.635434 0 CFG=1
M  V30 9 C 35.726974 34.514030 60.869104 0 CFG=2
M  V30 10 N 39.088174 28.421462 50.482695 0 CHG=1
M  V30 11 O 41.160526 28.976895 59.056627 0
M  V30 12 O 36.264812 35.429755 59.925036 0
M  V30 13 O 39.067387 31.810963 59.313200 0
M  V30 14 O 35.202050 32.263161 61.192833 0
M  V30 15 C 34.687417 33.451755 60.582728 0 CFG=2
M  V30 16 C 37.972955 31.174588 56.326237 0
M  V30 17 O 38.267402 27.636043 58.673994 0
M  V30 18 N 38.703983 28.087898 52.775031 0 CFG=2 CHG=1
M  V30 19 C 37.283412 31.413674 60.789926 0
M  V30 20 C 38.991531 28.653519 54.096995 0
M  V30 21 O 40.437086 34.751940 63.240270 0
M  V30 22 O 38.080478 34.569939 61.551143 0
M  V30 23 C 37.879927 33.181869 57.801578 0 CFG=1
M  V30 24 C 33.863697 34.445682 58.350642 0
M  V30 25 C 39.865732 26.021442 53.302331 0
M  V30 26 C 41.528109 35.625700 62.993575 0
M  V30 27 C 40.666354 33.375336 63.157066 0 CFG=1
M  V30 28 C 41.229884 32.962179 61.783322 0
M  V30 29 O 41.525215 32.886724 64.135702 0
M  V30 30 C 40.001550 29.058712 59.455769 0
M  V30 31 C 39.422395 27.038960 50.842807 0
M  V30 32 C 41.949539 30.847295 62.823343 0
M  V30 33 C 39.183893 27.568153 55.188059 0 CFG=1
M  V30 34 C 36.541164 32.421431 61.667411 0 CFG=1
M  V30 35 C 39.264280 30.422571 56.630449 0
M  V30 36 C 40.088673 26.438250 54.729597 0
M  V30 37 C 39.750782 27.195772 52.316844 0 CFG=1
M  V30 38 F 37.467406 34.421408 57.788535 0
M  V30 39 C 41.521725 31.457822 64.180922 0
M  V30 40 C 38.529347 29.060247 51.689824 0
M  V30 41 C 39.722368 30.756587 61.457624 0 CFG=2
M  V30 42 C 38.166402 32.687169 56.391120 0
M  V30 43 C 39.732184 29.279580 60.953907 0
M  V30 44 N 38.939878 29.064768 57.056076 0
M  V30 45 H 39.001417 33.918396 59.477781 0
M  V30 46 H 39.917326 33.320257 58.163381 0
M  V30 47 H 37.994298 29.629185 58.842282 0
M  V30 48 H 40.838547 28.542015 56.270472 0
M  V30 49 H 40.054419 27.264493 57.117264 0
M  V30 50 H 38.934795 32.582256 61.160794 0
M  V30 51 H 35.204641 32.836413 58.653591 0
M  V30 52 H 33.605464 32.420228 59.048230 0
M  V30 53 H 41.650609 31.221552 60.700842 0
M  V30 54 H 39.944233 28.906955 50.250973 0
M  V30 55 H 35.584326 36.025382 59.661159 0
M  V30 56 H 33.776568 33.621428 61.127731 0
M  V30 57 H 37.190075 30.821808 57.001295 0
M  V30 58 H 37.586950 30.944390 55.339566 0
M  V30 59 H 37.560165 27.533727 58.057404 0
M  V30 60 H 37.116334 30.421384 61.199082 0
M  V30 61 H 36.815812 31.350043 59.810730 0
M  V30 62 H 38.134085 29.265953 54.342023 0
M  V30 63 H 39.867356 29.292330 54.010120 0
M  V30 64 H 38.385388 34.774215 62.422900 0
M  V30 65 H 37.067849 32.625726 58.212997 0
M  V30 66 H 34.267344 34.422402 57.361851 0
M  V30 67 H 32.778328 34.507178 58.297801 0
M  V30 68 H 34.267508 35.396005 58.654200 0
M  V30 69 H 40.667408 25.313964 53.022196 0
M  V30 70 H 38.861361 25.621443 53.453506 0
M  V30 71 H 41.207194 36.652826 63.167971 0
M  V30 72 H 42.367028 35.419739 63.658950 0
M  V30 73 H 41.864717 35.575937 61.958416 0
M  V30 74 H 39.680543 32.940018 63.327116 0
M  V30 75 H 42.274386 33.270149 61.736841 0
M  V30 76 H 40.731652 33.519069 60.996278 0
M  V30 77 H 40.267047 26.693331 50.253315 0
M  V30 78 H 38.548982 26.421435 50.653577 0
M  V30 79 H 41.892091 29.759150 62.865416 0
M  V30 80 H 43.002620 31.092662 62.675870 0
M  V30 81 H 38.209235 27.142127 55.433747 0
M  V30 82 H 36.671990 32.042223 62.653493 0
M  V30 83 H 39.891791 30.483823 55.746492 0
M  V30 84 H 39.867195 30.907318 57.377542 0
M  V30 85 H 41.067387 26.814916 54.808722 0
M  V30 86 H 40.022392 25.578206 55.401193 0
M  V30 87 H 40.673097 27.746414 52.253476 0
M  V30 88 H 40.533804 31.099381 64.473424 0
M  V30 89 H 42.210023 31.139670 64.964716 0
M  V30 90 H 39.067168 29.991778 51.883060 0
M  V30 91 H 37.467650 29.221411 51.577307 0
M  V30 92 H 39.300575 30.707666 62.462063 0
M  V30 93 H 37.467459 33.160312 55.706892 0
M  V30 94 H 39.158212 32.987159 56.049687 0
M  V30 95 H 38.770258 28.822345 61.175697 0
M  V30 96 H 40.459365 28.695519 61.515697 0
M  V30 97 H 37.851804 27.544508 52.844511 0
M  V30 98 H 38.456399 28.489961 49.694115 0
M  V30 END ATOM
M  V30 BEGIN BOND
M  V30 1 1 5 4
M  V30 2 1 9 4
M  V30 3 1 9 5
M  V30 4 1 9 12 CFG=3
M  V30 5 1 13 1
M  V30 6 1 13 6
M  V30 7 1 15 7
M  V30 8 1 15 9
M  V30 9 1 15 14
M  V30 10 1 17 2
M  V30 11 1 19 6
M  V30 12 1 20 18
M  V30 13 1 5 22 CFG=3
M  V30 14 1 23 1
M  V30 15 1 24 7
M  V30 16 1 26 21
M  V30 17 1 27 21
M  V30 18 1 28 8
M  V30 19 1 28 27
M  V30 20 1 29 27
M  V30 21 1 30 2
M  V30 22 2 30 11
M  V30 23 1 31 10
M  V30 24 1 32 8
M  V30 25 1 33 3
M  V30 26 1 33 20
M  V30 27 1 34 5
M  V30 28 1 34 14
M  V30 29 1 34 19
M  V30 30 1 35 16
M  V30 31 1 36 25
M  V30 32 1 36 33
M  V30 33 1 37 18
M  V30 34 1 37 25
M  V30 35 1 37 31
M  V30 36 1 38 23
M  V30 37 1 39 29
M  V30 38 1 39 32
M  V30 39 1 40 10
M  V30 40 1 40 18
M  V30 41 1 41 6
M  V30 42 1 41 8
M  V30 43 1 42 16
M  V30 44 1 42 23
M  V30 45 1 43 30
M  V30 46 1 43 41
M  V30 47 1 44 2
M  V30 48 1 44 3
M  V30 49 1 44 35
M  V30 50 1 45 1
M  V30 51 1 46 1
M  V30 52 1 2 47 CFG=1
M  V30 53 1 48 3
M  V30 54 1 49 3
M  V30 55 1 6 50 CFG=1
M  V30 56 1 51 7
M  V30 57 1 52 7
M  V30 58 1 8 53 CFG=3
M  V30 59 1 54 10
M  V30 60 1 55 12
M  V30 61 1 15 56 CFG=1
M  V30 62 1 57 16
M  V30 63 1 58 16
M  V30 64 1 59 17
M  V30 65 1 60 19
M  V30 66 1 61 19
M  V30 67 1 62 20
M  V30 68 1 63 20
M  V30 69 1 64 22
M  V30 70 1 23 65 CFG=1
M  V30 71 1 66 24
M  V30 72 1 67 24
M  V30 73 1 68 24
M  V30 74 1 69 25
M  V30 75 1 70 25
M  V30 76 1 71 26
M  V30 77 1 72 26
M  V30 78 1 73 26
M  V30 79 1 27 74 CFG=1
M  V30 80 1 75 28
M  V30 81 1 76 28
M  V30 82 1 77 31
M  V30 83 1 78 31
M  V30 84 1 79 32
M  V30 85 1 80 32
M  V30 86 1 33 81 CFG=1
M  V30 87 1 34 82 CFG=1
M  V30 88 1 83 35
M  V30 89 1 84 35
M  V30 90 1 85 36
M  V30 91 1 86 36
M  V30 92 1 37 87 CFG=3
M  V30 93 1 88 39
M  V30 94 1 89 39
M  V30 95 1 90 40
M  V30 96 1 91 40
M  V30 97 1 41 92 CFG=1
M  V30 98 1 93 42
M  V30 99 1 94 42
M  V30 100 1 95 43
M  V30 101 1 96 43
M  V30 102 1 18 97 CFG=1
M  V30 103 1 98 10
M  V30 END BOND
M  V30 END CTAB
M  END
>  <i_epik_Tot_Q>  (1) 
2

>  <i_epik_Tot_abs_Q>  (1) 
2

>  <i_i_glide_confnum>  (1) 
139

>  <i_i_glide_lignum>  (1) 
247

>  <i_i_glide_posenum>  (1) 
337

>  <i_i_glide_rotatable_bonds>  (1) 
10

>  <i_lp_mmshare_version>  (1) 
72125

>  <i_m_source_file_index>  (1) 
93

>  <i_f3d_flags>  (1) 
0

>  <num_sample>  (1) 
100

>  <b_lp_Chiralities_Consistent>  (1) 
1

>  <r_epik_Charging_Adjusted_Penalty>  (1) 
0.13487033779534635

>  <r_epik_Ionization_Penalty>  (1) 
0.19914084790593331

>  <r_epik_Ionization_Penalty_Charging>  (1) 
0.13485274742695982

>  <r_epik_Ionization_Penalty_Neutral>  (1) 
0.064288100478973487

>  <r_epik_State_Penalty>  (1) 
1.7590368386534964e-05

>  <r_glide_ring_energy>  (1) 
1.0601588646146676

>  <r_i_docking_score>  (1) 
-2.7265222444101238

>  <r_i_glide_ecoul>  (1) 
-0.72088321363608809

>  <r_i_glide_eff_state_penalty>  (1) 
1.7590368386534964e-05

>  <r_i_glide_einternal>  (1) 
60.59428757547262

>  <r_i_glide_emodel>  (1) 
-82.938273038529459

>  <r_i_glide_emodel_strain>  (1) 
13.804469061361615

>  <r_i_glide_energy>  (1) 
-12.334129603662529

>  <r_i_glide_erotb>  (1) 
0.12528393626735909

>  <r_i_glide_esite>  (1) 
-0.031503238263546333

>  <r_i_glide_evdw>  (1) 
-11.613246390026442

>  <r_i_glide_gscore>  (1) 
-2.7265398347785101

>  <r_i_glide_gscore_strain>  (1) 
2.4511172653404039

>  <r_i_glide_hbond>  (1) 
0

>  <r_i_glide_ligand_efficiency>  (1) 
-0.061966414645684635

>  <r_i_glide_ligand_efficiency_ln>  (1) 
-0.56990262783063983

>  <r_i_glide_ligand_efficiency_sa>  (1) 
-0.21876302879051734

>  <r_i_glide_lipo>  (1) 
-2.5353290783885361

>  <r_i_glide_metal>  (1) 
-0

>  <r_i_glide_rewards>  (1) 
-2.0473139181874549

>  <r_lp_Energy>  (1) 
73.076747999999995

>  <s_epik_Chemistry_Notes>  (1) 
This compound contains an acetal/aminal-like group ( X-CH(R)-Y where X, Y are N, S, or O) that may be acid/base labile, releasing an aldehyde.

>  <s_epik_cmdline>  (1) 
J2VwaWtfcHl0aG9uJywgJy1waHQnLCAnMS4wJywgJy1waCcsICc3LjQnLCAnLXRuJywgJzgnLCAnLW1hJywgJzUwMCcsICctaW1hZScsICc8aW5maWxlLm1hZT4nLCAnLW9tYWUnLCAnPG91dGZpbGUubWFlPic=

>  <s_epik_input>  (1) 
W09IXVtDQF0xMkMoTzEpKFtPSF0pW0NAQEhdKFtDSDJdW0NIM10pT1tDQEhdMltDSDJdW0NAQEhdKFtDQEBIXShbQ0gyXUMoPU8pW0NAQEhdM1tPSF0pW0NASF00W0NIMl1bQ0BIXShPW0NIM10pT1tDSDJdW0NIMl00KU9bQ0gyXVtDQEBIXShGKVtDSDJdW0NIMl1bQ0gyXU4zW0NIMl1bQ0BASF0oW0NIMl01KVtDSDJdW0NIMl1bQ0BIXShONTYpW0NIMl1bTkhdW0NIMl02

>  <s_glide_docking_method>  (1) 
confgen

>  <s_i_glide_gridfile>  (1) 
gpcr_5ht2c_6bqh_protein_autoprepared_prepared

>  <s_lp_Force_Field>  (1) 
S-OPLS

>  <s_lp_Variant>  (1) 
DiffSBDD_92_num_sample_100-1

>  <s_m_source_file>  (1) 
generated__ligand_DiffSBDD_2026-05-06_prepared.sdf

>  <GenAI_Model>  (1) 
DiffSBDD

>  <Protein>  (1) 
GPCR_5HT2C

$$$$
DiffSBDD_44_num_sample_100
     RDKit          3D

  0  0  0  0  0  0  0  0  0  0999 V3000
M  V30 BEGIN CTAB
M  V30 COUNTS 58 59 0 0 1
M  V30 BEGIN ATOM
M  V30 1 C 37.609670 31.602471 55.409278 0
M  V30 2 O 38.113711 29.252762 59.249136 0 CHG=-1
M  V30 3 C 38.537394 27.646265 52.357678 0
M  V30 4 C 38.793297 31.956294 57.465472 0 CFG=1
M  V30 5 N 38.182526 30.607407 57.536009 0 CFG=1 CHG=1
M  V30 6 C 39.759462 29.541161 53.281233 0
M  V30 7 N 38.208459 27.218058 55.539728 0
M  V30 8 C 39.066282 28.178810 53.405688 0
M  V30 9 O 39.553869 25.978689 54.255596 0
M  V30 10 C 37.927473 32.677294 56.426210 0 CFG=1
M  V30 11 C 38.434391 33.917153 55.726889 0
M  V30 12 C 39.385483 28.269914 57.485316 0 CFG=1
M  V30 13 C 38.276103 27.408513 56.796428 0
M  V30 14 C 37.646809 30.313323 56.185923 0
M  V30 15 C 40.803180 25.746285 53.668755 0
M  V30 16 C 39.407466 28.258537 50.183689 0
M  V30 17 C 38.933596 29.549289 58.277323 0 CFG=2
M  V30 18 C 39.337335 27.320450 54.656036 0 CFG=2
M  V30 19 F 39.405403 30.702933 50.255185 0
M  V30 20 C 40.048394 29.599279 50.599807 0 CFG=1
M  V30 21 C 38.666236 27.361069 51.114832 0
M  V30 22 C 40.367897 27.404727 58.304336 0
M  V30 23 C 37.258224 26.816829 57.712521 0
M  V30 24 C 38.759077 32.651164 58.837824 0
M  V30 25 C 40.651685 29.713700 51.983893 0
M  V30 26 H 38.430237 31.588120 54.697560 0
M  V30 27 H 36.670512 31.736614 54.878101 0
M  V30 28 H 39.804951 31.866759 57.061769 0
M  V30 29 H 38.978710 30.284403 53.210087 0
M  V30 30 H 40.286879 29.791184 54.194421 0
M  V30 31 H 37.067459 32.993899 56.984066 0
M  V30 32 H 39.471013 33.797824 55.453211 0
M  V30 33 H 37.864118 34.044609 54.810422 0
M  V30 34 H 38.267404 34.815347 56.321094 0
M  V30 35 H 40.011359 28.728046 56.725924 0
M  V30 36 H 38.303925 29.688833 55.603252 0
M  V30 37 H 36.663646 29.850332 56.258793 0
M  V30 38 H 40.869987 24.853944 53.054726 0
M  V30 39 H 41.124089 26.564512 53.053680 0
M  V30 40 H 41.467426 25.621415 54.509782 0
M  V30 41 H 40.223728 27.625831 49.853503 0
M  V30 42 H 38.668212 28.421607 49.447616 0
M  V30 43 H 39.885537 30.020145 58.529081 0
M  V30 44 H 40.273477 27.621858 55.121395 0
M  V30 45 H 40.891164 29.702308 49.914217 0
M  V30 46 H 38.333812 26.421477 50.718398 0
M  V30 47 H 40.726306 26.547142 57.730485 0
M  V30 48 H 41.244849 27.994813 58.586676 0
M  V30 49 H 39.912728 27.032848 59.227041 0
M  V30 50 H 37.728917 26.488028 58.638604 0
M  V30 51 H 36.491331 27.563684 57.880594 0
M  V30 52 H 36.767626 25.959459 57.246979 0
M  V30 53 H 39.202832 33.641868 58.789436 0
M  V30 54 H 37.730324 32.771188 59.181320 0
M  V30 55 H 39.286450 32.082307 59.600542 0
M  V30 56 H 41.066710 30.721702 52.006949 0
M  V30 57 H 41.467654 28.996099 51.853186 0
M  V30 58 H 37.361759 30.724394 58.115337 0
M  V30 END ATOM
M  V30 BEGIN BOND
M  V30 1 1 5 4
M  V30 2 2 8 3
M  V30 3 1 8 6
M  V30 4 1 10 1
M  V30 5 1 10 4
M  V30 6 1 11 10
M  V30 7 2 13 7
M  V30 8 1 13 12
M  V30 9 1 14 1
M  V30 10 1 14 5
M  V30 11 1 15 9
M  V30 12 1 17 2
M  V30 13 1 17 5
M  V30 14 1 17 12
M  V30 15 1 18 7
M  V30 16 1 18 8
M  V30 17 1 18 9
M  V30 18 1 20 16
M  V30 19 1 20 19
M  V30 20 2 21 3
M  V30 21 1 21 16
M  V30 22 1 22 12
M  V30 23 1 23 13
M  V30 24 1 24 4
M  V30 25 1 25 6
M  V30 26 1 25 20
M  V30 27 1 26 1
M  V30 28 1 27 1
M  V30 29 1 4 28 CFG=3
M  V30 30 1 29 6
M  V30 31 1 30 6
M  V30 32 1 10 31 CFG=1
M  V30 33 1 32 11
M  V30 34 1 33 11
M  V30 35 1 34 11
M  V30 36 1 12 35 CFG=3
M  V30 37 1 36 14
M  V30 38 1 37 14
M  V30 39 1 38 15
M  V30 40 1 39 15
M  V30 41 1 40 15
M  V30 42 1 41 16
M  V30 43 1 42 16
M  V30 44 1 17 43 CFG=1
M  V30 45 1 18 44 CFG=1
M  V30 46 1 20 45 CFG=3
M  V30 47 1 46 21
M  V30 48 1 47 22
M  V30 49 1 48 22
M  V30 50 1 49 22
M  V30 51 1 50 23
M  V30 52 1 51 23
M  V30 53 1 52 23
M  V30 54 1 53 24
M  V30 55 1 54 24
M  V30 56 1 55 24
M  V30 57 1 56 25
M  V30 58 1 57 25
M  V30 59 1 5 58 CFG=1
M  V30 END BOND
M  V30 END CTAB
M  END
>  <i_epik_Tot_Q>  (1) 
0

>  <i_epik_Tot_abs_Q>  (1) 
2

>  <i_i_glide_confnum>  (1) 
50

>  <i_i_glide_lignum>  (1) 
110

>  <i_i_glide_posenum>  (1) 
224

>  <i_i_glide_rotatable_bonds>  (1) 
6

>  <i_lp_mmshare_version>  (1) 
72125

>  <i_m_source_file_index>  (1) 
45

>  <i_f3d_flags>  (1) 
0

>  <num_sample>  (1) 
100

>  <b_lp_Chiralities_Consistent>  (1) 
1

>  <r_epik_Charging_Adjusted_Penalty>  (1) 
0.41733257654759531

>  <r_epik_Ionization_Penalty>  (1) 
0.0069177268181324029

>  <r_epik_Ionization_Penalty_Charging>  (1) 
0.0066527375949913311

>  <r_epik_Ionization_Penalty_Neutral>  (1) 
0.00026498922314107146

>  <r_epik_State_Penalty>  (1) 
0.41067983895260396

>  <r_glide_ring_energy>  (1) 
0

>  <r_i_docking_score>  (1) 
-2.7113144358351984

>  <r_i_glide_ecoul>  (1) 
-0.86778396016563408

>  <r_i_glide_eff_state_penalty>  (1) 
0.41067983895260396

>  <r_i_glide_einternal>  (1) 
4.8908559919062782

>  <r_i_glide_emodel>  (1) 
-5.2492825316735967

>  <r_i_glide_emodel_strain>  (1) 
11.980329384929028

>  <r_i_glide_energy>  (1) 
-12.080995263080254

>  <r_i_glide_erotb>  (1) 
0.61440649929112812

>  <r_i_glide_esite>  (1) 
-0.072703288663480387

>  <r_i_glide_evdw>  (1) 
-11.213211302914621

>  <r_i_glide_gscore>  (1) 
-3.1219942747878022

>  <r_i_glide_gscore_strain>  (1) 
1.9950823462322571

>  <r_i_glide_hbond>  (1) 
0

>  <r_i_glide_ligand_efficiency>  (1) 
-0.10845257743340793

>  <r_i_glide_ligand_efficiency_ln>  (1) 
-0.64266277282998741

>  <r_i_glide_ligand_efficiency_sa>  (1) 
-0.31711726017018921

>  <r_i_glide_lipo>  (1) 
-2.3280423079369363

>  <r_i_glide_metal>  (1) 
-0

>  <r_i_glide_rewards>  (1) 
-2.6399093645401956

>  <r_lp_Energy>  (1) 
10.814218

>  <r_lp_tautomer_probability>  (1) 
0.49999399997599986

>  <s_epik_Chemistry_Notes>  (1) 
This compound has an imine and may undergo hydrolysis. This compound contains an acetal/aminal-like group ( X-CH(R)-Y where X, Y are N, S, or O) that may be acid/base labile, releasing an aldehyde.

>  <s_epik_cmdline>  (1) 
J2VwaWtfcHl0aG9uJywgJy1waHQnLCAnMS4wJywgJy1waCcsICc3LjQnLCAnLXRuJywgJzgnLCAnLW1hJywgJzUwMCcsICctaW1hZScsICc8aW5maWxlLm1hZT4nLCAnLW9tYWUnLCAnPG91dGZpbGUubWFlPic=

>  <s_epik_input>  (1) 
W0NIM11bQ0BIXTFbQ0gyXVtDSDJdTihbQ0BASF0xW0NIM10pW0NAQEhdKFtPSF0pW0NAQEhdKFtDSDNdKS9DKFtDSDNdKT1OXFtDQEBIXShPW0NIM10pQzI9Qz1bQ0hdW0NIMl1bQ0BASF0oRilbQ0gyXVtDSDJdMg==

>  <s_glide_docking_method>  (1) 
confgen

>  <s_i_glide_gridfile>  (1) 
gpcr_5ht2c_6bqh_protein_autoprepared_prepared

>  <s_lp_Force_Field>  (1) 
S-OPLS

>  <s_lp_Variant>  (1) 
DiffSBDD_44_num_sample_100-3

>  <s_m_source_file>  (1) 
generated__ligand_DiffSBDD_2026-05-06_prepared.sdf

>  <GenAI_Model>  (1) 
DiffSBDD

>  <Protein>  (1) 
GPCR_5HT2C

$$$$
DiffSBDD_3_num_sample_100
     RDKit          3D

  0  0  0  0  0  0  0  0  0  0999 V3000
M  V30 BEGIN CTAB
M  V30 COUNTS 17 16 0 0 1
M  V30 BEGIN ATOM
M  V30 1 O 39.190735 27.260436 52.031994 0
M  V30 2 C 39.535289 27.953718 50.838334 0
M  V30 3 O 40.266871 30.019726 49.853359 0
M  V30 4 C 40.110221 29.356537 51.087088 0
M  V30 5 S 38.687599 26.210737 54.965252 0
M  V30 6 S 37.606105 24.821012 55.996861 0 CHG=-1
M  V30 7 C 37.507215 26.836630 53.738644 0
M  V30 8 C 38.130712 27.853126 52.775207 0
M  V30 9 H 38.667507 28.017570 50.190849 0
M  V30 10 H 40.264058 27.355003 50.290590 0
M  V30 11 H 39.412566 30.090688 49.446156 0
M  V30 12 H 41.067648 29.286536 51.595140 0
M  V30 13 H 39.458518 29.967047 51.709350 0
M  V30 14 H 36.679276 27.303763 54.270189 0
M  V30 15 H 37.087909 25.998922 53.183809 0
M  V30 16 H 38.501936 28.711540 53.334840 0
M  V30 17 H 37.351820 28.215783 52.102641 0
M  V30 END ATOM
M  V30 BEGIN BOND
M  V30 1 1 2 1
M  V30 2 1 4 2
M  V30 3 1 4 3
M  V30 4 1 6 5
M  V30 5 1 7 5
M  V30 6 1 8 1
M  V30 7 1 8 7
M  V30 8 1 9 2
M  V30 9 1 10 2
M  V30 10 1 11 3
M  V30 11 1 12 4
M  V30 12 1 13 4
M  V30 13 1 14 7
M  V30 14 1 15 7
M  V30 15 1 16 8
M  V30 16 1 17 8
M  V30 END BOND
M  V30 END CTAB
M  END
>  <i_epik_Tot_Q>  (1) 
-1

>  <i_epik_Tot_abs_Q>  (1) 
1

>  <i_i_glide_confnum>  (1) 
41

>  <i_i_glide_lignum>  (1) 
21

>  <i_i_glide_posenum>  (1) 
385

>  <i_i_glide_rotatable_bonds>  (1) 
6

>  <i_lp_mmshare_version>  (1) 
72125

>  <i_m_source_file_index>  (1) 
4

>  <i_f3d_flags>  (1) 
0

>  <num_sample>  (1) 
100

>  <b_lp_Chiralities_Consistent>  (1) 
1

>  <r_epik_Charging_Adjusted_Penalty>  (1) 
0.00058921996017037321

>  <r_epik_Ionization_Penalty>  (1) 
0.0005892715023935103

>  <r_epik_Ionization_Penalty_Charging>  (1) 
0.00058921996017037321

>  <r_epik_Ionization_Penalty_Neutral>  (1) 
5.1542223137146341e-08

>  <r_epik_State_Penalty>  (1) 
-0

>  <r_glide_ring_energy>  (1) 
0

>  <r_i_docking_score>  (1) 
-2.707698748611719

>  <r_i_glide_ecoul>  (1) 
-1.6959219173055524

>  <r_i_glide_eff_state_penalty>  (1) 
-0

>  <r_i_glide_einternal>  (1) 
4.3181595563531321

>  <r_i_glide_emodel>  (1) 
-23.258089380706981

>  <r_i_glide_emodel_strain>  (1) 
0.034286149529869636

>  <r_i_glide_energy>  (1) 
-21.389673173942509

>  <r_i_glide_erotb>  (1) 
2.5252674985507193

>  <r_i_glide_esite>  (1) 
0

>  <r_i_glide_evdw>  (1) 
-19.693751256636958

>  <r_i_glide_gscore>  (1) 
-2.707698748611719

>  <r_i_glide_gscore_strain>  (1) 
0

>  <r_i_glide_hbond>  (1) 
-0.23293216791887134

>  <r_i_glide_ligand_efficiency>  (1) 
-0.33846234357646487

>  <r_i_glide_ligand_efficiency_ln>  (1) 
-0.87928239973494315

>  <r_i_glide_ligand_efficiency_sa>  (1) 
-0.67692468715292986

>  <r_i_glide_lipo>  (1) 
-1.5109582288158863

>  <r_i_glide_metal>  (1) 
-0

>  <r_i_glide_rewards>  (1) 
-2.25

>  <r_lp_Energy>  (1) 
3.2647040000000001

>  <r_lp_tautomer_probability>  (1) 
1

>  <s_epik_cmdline>  (1) 
J2VwaWtfcHl0aG9uJywgJy1waHQnLCAnMS4wJywgJy1waCcsICc3LjQnLCAnLXRuJywgJzgnLCAnLW1hJywgJzUwMCcsICctaW1hZScsICc8aW5maWxlLm1hZT4nLCAnLW9tYWUnLCAnPG91dGZpbGUubWFlPic=

>  <s_epik_input>  (1) 
W09IXVtDSDJdW0NIMl1PW0NIMl1bQ0gyXVNbU0hd

>  <s_glide_docking_method>  (1) 
confgen

>  <s_i_glide_gridfile>  (1) 
gpcr_5ht2c_6bqh_protein_autoprepared_prepared

>  <s_lp_Force_Field>  (1) 
S-OPLS

>  <s_lp_Variant>  (1) 
DiffSBDD_3_num_sample_100-1

>  <s_m_source_file>  (1) 
generated__ligand_DiffSBDD_2026-05-06_prepared.sdf

>  <GenAI_Model>  (1) 
DiffSBDD

>  <Protein>  (1) 
GPCR_5HT2C

$$$$
DiffSBDD_93_num_sample_100
     RDKit          3D

  0  0  0  0  0  0  0  0  0  0999 V3000
M  V30 BEGIN CTAB
M  V30 COUNTS 74 77 0 0 1
M  V30 BEGIN ATOM
M  V30 1 C 41.048850 32.873223 64.241796 0
M  V30 2 S 37.768935 32.271822 58.697644 0
M  V30 3 C 40.914217 30.347072 64.409216 0 CFG=2
M  V30 4 O 36.195365 37.220454 59.289816 0
M  V30 5 C 38.817463 26.971727 58.944384 0
M  V30 6 C 37.971679 35.138320 60.309005 0 CFG=1
M  V30 7 C 39.484477 29.785627 57.781852 0
M  V30 8 C 39.280985 30.471292 60.207013 0
M  V30 9 C 42.282644 30.300282 65.132907 0
M  V30 10 N 38.385348 32.551130 61.409840 0 CHG=1
M  V30 11 C 39.822967 26.649415 57.876549 0
M  V30 12 C 40.496181 31.709420 63.850930 0
M  V30 13 C 40.529343 34.186345 63.776701 0
M  V30 14 C 39.608901 33.403769 61.410745 0 CFG=2
M  V30 15 C 43.067757 31.598317 65.024998 0
M  V30 16 Cl 41.606959 32.881745 66.941036 0
M  V30 17 O 40.467214 26.832931 55.658265 0
M  V30 18 C 42.191942 32.840575 65.252296 0 CFG=2
M  V30 19 C 40.730724 35.394860 64.681667 0
M  V30 20 C 36.459447 33.466130 59.064854 0
M  V30 21 C 38.191588 36.635314 60.404020 0
M  V30 22 C 39.868862 34.389628 62.587613 0
M  V30 23 C 40.373137 28.868963 56.929387 0
M  V30 24 C 36.994188 34.889936 59.113936 0 CFG=1
M  V30 25 C 38.136814 31.540641 60.325587 0 CFG=1
M  V30 26 C 39.733905 27.516125 56.646020 0 CFG=2
M  V30 27 C 35.793214 35.859375 59.131730 0
M  V30 28 C 36.900295 37.442070 60.493006 0
M  V30 29 C 38.594578 28.184847 59.490557 0
M  V30 30 S 36.681679 30.821431 61.037548 0 CHG=-1
M  V30 31 N 39.199598 29.394216 59.174079 0
M  V30 32 C 39.858050 29.960966 65.456324 0
M  V30 33 C 39.384163 34.413420 60.245526 0
M  V30 34 H 40.904224 29.627600 63.589011 0
M  V30 35 H 38.264165 26.131281 59.321154 0
M  V30 36 H 37.437946 34.874701 61.222848 0
M  V30 37 H 38.519795 29.852132 57.278335 0
M  V30 38 H 39.864067 30.798048 57.730347 0
M  V30 39 H 39.313042 29.960760 61.172142 0
M  V30 40 H 40.259002 30.941109 60.180693 0
M  V30 41 H 42.159186 30.080110 66.195819 0
M  V30 42 H 42.879001 29.473508 64.745727 0
M  V30 43 H 37.581394 33.161133 61.395619 0
M  V30 44 H 39.623575 25.608343 57.611210 0
M  V30 45 H 40.829547 26.668395 58.295813 0
M  V30 46 H 39.675394 31.700691 63.180517 0
M  V30 47 H 40.511599 32.813589 61.251836 0
M  V30 48 H 43.923743 31.587727 65.701725 0
M  V30 49 H 43.461866 31.617599 64.012844 0
M  V30 50 H 41.310847 26.605255 56.024101 0
M  V30 51 H 42.822089 33.720110 65.120063 0
M  V30 52 H 41.772460 35.718381 64.665251 0
M  V30 53 H 40.126391 36.245186 64.365594 0
M  V30 54 H 40.453046 35.171680 65.711394 0
M  V30 55 H 35.737995 33.436679 58.257189 0
M  V30 56 H 35.901304 33.210062 59.963528 0
M  V30 57 H 38.647296 36.822716 59.454188 0
M  V30 58 H 38.879028 36.932972 61.193483 0
M  V30 59 H 39.508643 35.385727 62.414844 0
M  V30 60 H 41.357529 28.765916 57.387069 0
M  V30 61 H 40.534125 29.357188 55.965098 0
M  V30 62 H 37.471258 35.077763 58.159109 0
M  V30 63 H 38.703349 27.625498 56.302252 0
M  V30 64 H 35.162056 35.781081 58.255047 0
M  V30 65 H 35.075367 35.529039 59.858871 0
M  V30 66 H 37.121175 38.505161 60.584721 0
M  V30 67 H 36.302362 37.163416 61.360041 0
M  V30 68 H 37.878544 28.288442 60.255245 0
M  V30 69 H 38.853836 30.082834 65.065252 0
M  V30 70 H 39.973610 28.931223 65.798288 0
M  V30 71 H 39.903450 30.603300 66.337184 0
M  V30 72 H 39.575353 33.962223 59.277808 0
M  V30 73 H 40.188797 35.152448 60.262305 0
M  V30 74 H 38.345519 32.030570 62.271518 0
M  V30 END ATOM
M  V30 BEGIN BOND
M  V30 1 1 9 3
M  V30 2 1 11 5
M  V30 3 2 12 1
M  V30 4 1 12 3
M  V30 5 1 13 1
M  V30 6 1 14 10
M  V30 7 1 15 9
M  V30 8 1 18 1
M  V30 9 1 18 15
M  V30 10 1 18 16
M  V30 11 1 19 13
M  V30 12 1 20 2
M  V30 13 1 21 6
M  V30 14 2 22 13
M  V30 15 1 22 14
M  V30 16 1 23 7
M  V30 17 1 24 6
M  V30 18 1 24 20
M  V30 19 1 25 2
M  V30 20 1 25 8
M  V30 21 1 25 10
M  V30 22 1 26 11
M  V30 23 1 26 17
M  V30 24 1 26 23
M  V30 25 1 27 4
M  V30 26 1 27 24
M  V30 27 1 28 4
M  V30 28 1 28 21
M  V30 29 2 29 5
M  V30 30 1 25 30 CFG=1
M  V30 31 1 31 7
M  V30 32 1 31 8
M  V30 33 1 31 29
M  V30 34 1 32 3
M  V30 35 1 33 6
M  V30 36 1 33 14
M  V30 37 1 3 34 CFG=3
M  V30 38 1 35 5
M  V30 39 1 6 36 CFG=1
M  V30 40 1 37 7
M  V30 41 1 38 7
M  V30 42 1 39 8
M  V30 43 1 40 8
M  V30 44 1 41 9
M  V30 45 1 42 9
M  V30 46 1 43 10
M  V30 47 1 44 11
M  V30 48 1 45 11
M  V30 49 1 46 12
M  V30 50 1 14 47 CFG=3
M  V30 51 1 48 15
M  V30 52 1 49 15
M  V30 53 1 50 17
M  V30 54 1 18 51 CFG=3
M  V30 55 1 52 19
M  V30 56 1 53 19
M  V30 57 1 54 19
M  V30 58 1 55 20
M  V30 59 1 56 20
M  V30 60 1 57 21
M  V30 61 1 58 21
M  V30 62 1 59 22
M  V30 63 1 60 23
M  V30 64 1 61 23
M  V30 65 1 24 62 CFG=3
M  V30 66 1 26 63 CFG=3
M  V30 67 1 64 27
M  V30 68 1 65 27
M  V30 69 1 66 28
M  V30 70 1 67 28
M  V30 71 1 68 29
M  V30 72 1 69 32
M  V30 73 1 70 32
M  V30 74 1 71 32
M  V30 75 1 72 33
M  V30 76 1 73 33
M  V30 77 1 74 10
M  V30 END BOND
M  V30 END CTAB
M  END
>  <i_epik_Tot_Q>  (1) 
0

>  <i_epik_Tot_abs_Q>  (1) 
2

>  <i_i_glide_confnum>  (1) 
114

>  <i_i_glide_lignum>  (1) 
260

>  <i_i_glide_posenum>  (1) 
95

>  <i_i_glide_rotatable_bonds>  (1) 
5

>  <i_lp_mmshare_version>  (1) 
72125

>  <i_m_source_file_index>  (1) 
94

>  <i_f3d_flags>  (1) 
0

>  <num_sample>  (1) 
100

>  <b_lp_Chiralities_Consistent>  (1) 
1

>  <r_epik_Charging_Adjusted_Penalty>  (1) 
0.80501984278308969

>  <r_epik_Ionization_Penalty>  (1) 
0.072421558423421364

>  <r_epik_Ionization_Penalty_Charging>  (1) 
0.072408791886815996

>  <r_epik_Ionization_Penalty_Neutral>  (1) 
1.2766536605372598e-05

>  <r_epik_State_Penalty>  (1) 
0.73261105089627365

>  <r_glide_ring_energy>  (1) 
0

>  <r_i_docking_score>  (1) 
-2.6770082781837288

>  <r_i_glide_ecoul>  (1) 
-3.8841663579501016

>  <r_i_glide_eff_state_penalty>  (1) 
0.73261105089627365

>  <r_i_glide_einternal>  (1) 
8.8323988252158347

>  <r_i_glide_emodel>  (1) 
-9.1708510890445147

>  <r_i_glide_emodel_strain>  (1) 
11.337815643162983

>  <r_i_glide_energy>  (1) 
-17.551770808398064

>  <r_i_glide_erotb>  (1) 
0.31140238833871409

>  <r_i_glide_esite>  (1) 
0

>  <r_i_glide_evdw>  (1) 
-13.667604450447962

>  <r_i_glide_gscore>  (1) 
-3.4096193290800025

>  <r_i_glide_gscore_strain>  (1) 
1.8344539107907458

>  <r_i_glide_hbond>  (1) 
-0.20839442265374156

>  <r_i_glide_ligand_efficiency>  (1) 
-0.081121462975264513

>  <r_i_glide_ligand_efficiency_ln>  (1) 
-0.59535278026101124

>  <r_i_glide_ligand_efficiency_sa>  (1) 
-0.26019987739264633

>  <r_i_glide_lipo>  (1) 
-3.093751733331624

>  <r_i_glide_metal>  (1) 
-0

>  <r_i_glide_rewards>  (1) 
-0.98732429600918348

>  <r_lp_Energy>  (1) 
39.266486

>  <s_epik_Chemistry_Notes>  (1) 
This compound has an imine and may undergo hydrolysis.

>  <s_epik_cmdline>  (1) 
J2VwaWtfcHl0aG9uJywgJy1waHQnLCAnMS4wJywgJy1waCcsICc3LjQnLCAnLXRuJywgJzgnLCAnLW1hJywgJzUwMCcsICctaW1hZScsICc8aW5maWxlLm1hZT4nLCAnLW9tYWUnLCAnPG91dGZpbGUubWFlPic=

>  <s_epik_input>  (1) 
Q2xbQ0BIXTFbQ0gyXVtDSDJdW0NAQEhdKFtDSDNdKVtDSF09QzEvQyhbQ0gzXSk9W0NIXVxbQ0BASF0oW0NIMl0yKVtOSF1bQ0BAXShbU0hdKShTW0NIMl1bQ0BIXShbQ0BASF0yMylbQ0gyXU9bQ0gyXVtDSDJdMylbQ0gyXU4oW0NIMl1bQ0gyXTQpW0NIXT1bQ0hdW0NIMl1bQ0BASF00W09IXQ==

>  <s_glide_docking_method>  (1) 
confgen

>  <s_i_glide_gridfile>  (1) 
gpcr_5ht2c_6bqh_protein_autoprepared_prepared

>  <s_lp_Force_Field>  (1) 
S-OPLS

>  <s_lp_Variant>  (1) 
DiffSBDD_93_num_sample_100-12

>  <s_m_source_file>  (1) 
generated__ligand_DiffSBDD_2026-05-06_prepared.sdf

>  <GenAI_Model>  (1) 
DiffSBDD

>  <Protein>  (1) 
GPCR_5HT2C

$$$$
DiffSBDD_3_num_sample_100
     RDKit          3D

  0  0  0  0  0  0  0  0  0  0999 V3000
M  V30 BEGIN CTAB
M  V30 COUNTS 17 16 0 0 1
M  V30 BEGIN ATOM
M  V30 1 O 38.813839 28.724097 51.836858 0
M  V30 2 C 40.109930 29.312091 51.819246 0
M  V30 3 O 40.267403 29.621757 49.453486 0
M  V30 4 C 40.250054 30.320142 50.676099 0
M  V30 5 S 39.162780 26.292696 55.074483 0
M  V30 6 S 37.475969 25.151341 55.053558 0 CHG=-1
M  V30 7 C 38.738452 27.779987 54.123607 0
M  V30 8 C 38.751876 27.521883 52.605489 0
M  V30 9 H 40.888473 28.555669 51.718263 0
M  V30 10 H 40.267797 29.831386 52.763961 0
M  V30 11 H 39.384990 29.313503 49.289261 0
M  V30 12 H 41.198746 30.847978 50.772528 0
M  V30 13 H 39.467404 31.075403 50.683321 0
M  V30 14 H 39.467373 28.539033 54.397077 0
M  V30 15 H 37.764905 28.155404 54.440730 0
M  V30 16 H 37.845281 26.984126 52.331277 0
M  V30 17 H 39.574724 26.860075 52.331991 0
M  V30 END ATOM
M  V30 BEGIN BOND
M  V30 1 1 2 1
M  V30 2 1 4 2
M  V30 3 1 4 3
M  V30 4 1 6 5
M  V30 5 1 7 5
M  V30 6 1 8 1
M  V30 7 1 8 7
M  V30 8 1 9 2
M  V30 9 1 10 2
M  V30 10 1 11 3
M  V30 11 1 12 4
M  V30 12 1 13 4
M  V30 13 1 14 7
M  V30 14 1 15 7
M  V30 15 1 16 8
M  V30 16 1 17 8
M  V30 END BOND
M  V30 END CTAB
M  END
>  <i_epik_Tot_Q>  (1) 
-1

>  <i_epik_Tot_abs_Q>  (1) 
1

>  <i_i_glide_confnum>  (1) 
52

>  <i_i_glide_lignum>  (1) 
21

>  <i_i_glide_posenum>  (1) 
335

>  <i_i_glide_rotatable_bonds>  (1) 
6

>  <i_lp_mmshare_version>  (1) 
72125

>  <i_m_source_file_index>  (1) 
4

>  <i_f3d_flags>  (1) 
0

>  <num_sample>  (1) 
100

>  <b_lp_Chiralities_Consistent>  (1) 
1

>  <r_epik_Charging_Adjusted_Penalty>  (1) 
0.00058921996017037321

>  <r_epik_Ionization_Penalty>  (1) 
0.0005892715023935103

>  <r_epik_Ionization_Penalty_Charging>  (1) 
0.00058921996017037321

>  <r_epik_Ionization_Penalty_Neutral>  (1) 
5.1542223137146341e-08

>  <r_epik_State_Penalty>  (1) 
-0

>  <r_glide_ring_energy>  (1) 
0

>  <r_i_docking_score>  (1) 
-2.675997772646002

>  <r_i_glide_ecoul>  (1) 
-1.9308400515973929

>  <r_i_glide_eff_state_penalty>  (1) 
-0

>  <r_i_glide_einternal>  (1) 
5.3929763713343801

>  <r_i_glide_emodel>  (1) 
-20.835036404459323

>  <r_i_glide_emodel_strain>  (1) 
0.23885987068366266

>  <r_i_glide_energy>  (1) 
-19.75615653002934

>  <r_i_glide_erotb>  (1) 
2.5252674985507193

>  <r_i_glide_esite>  (1) 
0

>  <r_i_glide_evdw>  (1) 
-17.825316478431947

>  <r_i_glide_gscore>  (1) 
-2.675997772646002

>  <r_i_glide_gscore_strain>  (1) 
0

>  <r_i_glide_hbond>  (1) 
-0.19109759431960777

>  <r_i_glide_ligand_efficiency>  (1) 
-0.33449972158075025

>  <r_i_glide_ligand_efficiency_ln>  (1) 
-0.86898800851606517

>  <r_i_glide_ligand_efficiency_sa>  (1) 
-0.66899944316150062

>  <r_i_glide_lipo>  (1) 
-1.579275845215907

>  <r_i_glide_metal>  (1) 
-0

>  <r_i_glide_rewards>  (1) 
-2.25

>  <r_lp_Energy>  (1) 
3.2647040000000001

>  <r_lp_tautomer_probability>  (1) 
1

>  <s_epik_cmdline>  (1) 
J2VwaWtfcHl0aG9uJywgJy1waHQnLCAnMS4wJywgJy1waCcsICc3LjQnLCAnLXRuJywgJzgnLCAnLW1hJywgJzUwMCcsICctaW1hZScsICc8aW5maWxlLm1hZT4nLCAnLW9tYWUnLCAnPG91dGZpbGUubWFlPic=

>  <s_epik_input>  (1) 
W09IXVtDSDJdW0NIMl1PW0NIMl1bQ0gyXVNbU0hd

>  <s_glide_docking_method>  (1) 
confgen

>  <s_i_glide_gridfile>  (1) 
gpcr_5ht2c_6bqh_protein_autoprepared_prepared

>  <s_lp_Force_Field>  (1) 
S-OPLS

>  <s_lp_Variant>  (1) 
DiffSBDD_3_num_sample_100-1

>  <s_m_source_file>  (1) 
generated__ligand_DiffSBDD_2026-05-06_prepared.sdf

>  <GenAI_Model>  (1) 
DiffSBDD

>  <Protein>  (1) 
GPCR_5HT2C

$$$$
DiffSBDD_90_num_sample_100
     RDKit          3D

  0  0  0  0  0  0  0  0  0  0999 V3000
M  V30 BEGIN CTAB
M  V30 COUNTS 85 88 0 0 1
M  V30 BEGIN ATOM
M  V30 1 C 38.875823 29.338096 60.327458 0
M  V30 2 O 40.579868 34.046458 62.651141 0
M  V30 3 F 38.134685 23.621436 55.894805 0
M  V30 4 C 38.611797 29.568300 55.198887 0 CFG=1
M  V30 5 C 38.806385 36.126119 61.268996 0 CFG=2
M  V30 6 C 38.208826 34.537542 59.507805 0 CFG=1
M  V30 7 C 37.931448 33.176950 54.998327 0
M  V30 8 C 37.079392 32.319842 59.455241 0
M  V30 9 C 39.058690 31.039945 55.094811 0
M  V30 10 N 41.102608 35.134055 61.852524 0
M  V30 11 C 37.652400 24.711007 57.870638 0
M  V30 12 C 39.660260 31.543651 56.424697 0
M  V30 13 C 37.815960 35.922176 60.100756 0
M  V30 14 C 39.706686 34.355492 59.853500 0
M  V30 15 O 39.866935 37.700796 62.697510 0
M  V30 16 N 38.068028 29.437591 59.083448 0 CFG=1 CHG=1
M  V30 17 C 37.531645 33.374653 60.131322 0
M  V30 18 F 39.467365 23.295236 57.552638 0
M  V30 19 C 38.760226 26.260663 55.588546 0 CFG=1
M  V30 20 N 38.320443 28.207589 58.246513 0
M  V30 21 C 36.725636 25.640510 57.106568 0
M  V30 22 C 36.628319 29.845816 59.299704 0
M  V30 23 O 37.889885 31.774703 54.771648 0
M  V30 24 C 40.016757 31.193376 53.896739 0
M  V30 25 C 38.676109 30.522901 61.284001 0
M  V30 26 C 39.612566 25.343237 56.459160 0
M  V30 27 C 36.474929 31.125663 60.124034 0 CFG=1
M  V30 28 C 40.122762 35.471806 60.818610 0 CFG=1
M  V30 29 C 39.793955 28.620654 55.460942 0
M  V30 30 O 38.202483 38.421265 61.403235 0 CHG=-1
M  V30 31 C 37.467410 28.125465 57.068011 0 CFG=1
M  V30 32 C 37.191987 30.885251 61.453460 0
M  V30 33 O 38.267488 35.341349 62.253518 0
M  V30 34 C 37.470890 29.420535 56.198459 0
M  V30 35 C 37.467431 26.750549 56.303470 0 CFG=1
M  V30 36 C 39.592821 27.265025 54.791764 0
M  V30 37 C 38.726231 24.204753 56.939816 0
M  V30 38 C 38.970690 37.537575 61.841700 0
M  V30 39 H 39.929417 29.281813 60.050453 0
M  V30 40 H 38.667377 28.399086 60.838266 0
M  V30 41 H 39.786487 34.447556 62.995030 0
M  V30 42 H 38.189581 29.320482 54.223301 0
M  V30 43 H 38.003572 34.421518 58.441348 0
M  V30 44 H 37.397030 33.621440 54.169026 0
M  V30 45 H 37.467429 33.442518 55.943810 0
M  V30 46 H 38.927761 33.611715 55.053516 0
M  V30 47 H 37.155451 32.292571 58.378645 0
M  V30 48 H 41.153537 35.898179 62.523613 0
M  V30 49 H 37.085440 23.867073 58.253522 0
M  V30 50 H 38.106407 25.229067 58.714150 0
M  V30 51 H 40.267328 30.780286 56.897829 0
M  V30 52 H 40.268107 32.429232 56.267002 0
M  V30 53 H 38.907822 31.817238 57.159892 0
M  V30 54 H 37.935198 36.718720 59.367709 0
M  V30 55 H 36.770743 35.963692 60.414530 0
M  V30 56 H 40.267380 34.420748 58.939205 0
M  V30 57 H 39.935345 33.369495 60.255743 0
M  V30 58 H 37.428694 33.397513 61.195727 0
M  V30 59 H 38.404734 25.607606 54.791396 0
M  V30 60 H 38.071690 27.486884 58.909651 0
M  V30 61 H 36.147380 25.033371 56.406252 0
M  V30 62 H 35.994013 26.021797 57.813693 0
M  V30 63 H 36.062772 29.074921 59.801778 0
M  V30 64 H 36.078610 30.020706 58.376002 0
M  V30 65 H 41.046468 31.327055 54.226552 0
M  V30 66 H 40.007187 30.331782 53.229405 0
M  V30 67 H 39.715910 32.021415 53.268040 0
M  V30 68 H 39.241679 31.378557 60.923246 0
M  V30 69 H 39.106010 30.279385 62.256719 0
M  V30 70 H 40.431935 24.930558 55.873527 0
M  V30 71 H 40.055788 25.883794 57.296485 0
M  V30 72 H 35.416548 31.331426 60.291010 0
M  V30 73 H 40.667406 36.212333 60.253573 0
M  V30 74 H 40.667975 29.088802 55.053570 0
M  V30 75 H 40.066557 28.517729 56.507528 0
M  V30 76 H 36.529978 28.124172 57.592947 0
M  V30 77 H 37.053740 31.674776 62.192779 0
M  V30 78 H 36.688032 30.051415 61.853513 0
M  V30 79 H 38.069904 34.512835 61.853272 0
M  V30 80 H 36.541542 29.621449 55.658820 0
M  V30 81 H 37.466137 30.292447 56.834032 0
M  V30 82 H 36.804522 26.821412 55.440895 0
M  V30 83 H 39.150560 27.399473 53.803175 0
M  V30 84 H 40.568023 26.820970 54.598726 0
M  V30 85 H 38.471943 30.189346 58.543779 0
M  V30 END ATOM
M  V30 BEGIN BOND
M  V30 1 1 9 4
M  V30 2 1 10 2
M  V30 3 1 12 9
M  V30 4 1 13 5
M  V30 5 1 13 6
M  V30 6 1 14 6
M  V30 7 1 16 1
M  V30 8 1 17 6
M  V30 9 2 17 8
M  V30 10 1 20 16
M  V30 11 1 21 11
M  V30 12 1 22 16
M  V30 13 1 23 7
M  V30 14 1 23 9
M  V30 15 1 24 9
M  V30 16 1 25 1
M  V30 17 1 26 19
M  V30 18 1 27 8
M  V30 19 1 27 22
M  V30 20 1 28 5
M  V30 21 1 28 10
M  V30 22 1 28 14
M  V30 23 1 29 4
M  V30 24 1 31 20
M  V30 25 1 32 25
M  V30 26 1 32 27
M  V30 27 1 5 33 CFG=1
M  V30 28 1 34 4
M  V30 29 1 34 31
M  V30 30 1 35 19
M  V30 31 1 35 21
M  V30 32 1 35 31
M  V30 33 1 36 19
M  V30 34 1 36 29
M  V30 35 1 37 3
M  V30 36 1 37 11
M  V30 37 1 37 18
M  V30 38 1 37 26
M  V30 39 1 38 5
M  V30 40 2 38 15
M  V30 41 1 38 30
M  V30 42 1 39 1
M  V30 43 1 40 1
M  V30 44 1 41 2
M  V30 45 1 4 42 CFG=3
M  V30 46 1 6 43 CFG=3
M  V30 47 1 44 7
M  V30 48 1 45 7
M  V30 49 1 46 7
M  V30 50 1 47 8
M  V30 51 1 48 10
M  V30 52 1 49 11
M  V30 53 1 50 11
M  V30 54 1 51 12
M  V30 55 1 52 12
M  V30 56 1 53 12
M  V30 57 1 54 13
M  V30 58 1 55 13
M  V30 59 1 56 14
M  V30 60 1 57 14
M  V30 61 1 58 17
M  V30 62 1 19 59 CFG=3
M  V30 63 1 60 20
M  V30 64 1 61 21
M  V30 65 1 62 21
M  V30 66 1 63 22
M  V30 67 1 64 22
M  V30 68 1 65 24
M  V30 69 1 66 24
M  V30 70 1 67 24
M  V30 71 1 68 25
M  V30 72 1 69 25
M  V30 73 1 70 26
M  V30 74 1 71 26
M  V30 75 1 27 72 CFG=1
M  V30 76 1 28 73 CFG=3
M  V30 77 1 74 29
M  V30 78 1 75 29
M  V30 79 1 31 76 CFG=1
M  V30 80 1 77 32
M  V30 81 1 78 32
M  V30 82 1 79 33
M  V30 83 1 80 34
M  V30 84 1 81 34
M  V30 85 1 35 82 CFG=3
M  V30 86 1 83 36
M  V30 87 1 84 36
M  V30 88 1 16 85 CFG=3
M  V30 END BOND
M  V30 END CTAB
M  END
>  <i_epik_Tot_Q>  (1) 
0

>  <i_epik_Tot_abs_Q>  (1) 
2

>  <i_i_glide_confnum>  (1) 
743

>  <i_i_glide_lignum>  (1) 
243

>  <i_i_glide_posenum>  (1) 
126

>  <i_i_glide_rotatable_bonds>  (1) 
10

>  <i_lp_mmshare_version>  (1) 
72125

>  <i_m_source_file_index>  (1) 
91

>  <i_f3d_flags>  (1) 
0

>  <num_sample>  (1) 
100

>  <b_lp_Chiralities_Consistent>  (1) 
1

>  <r_epik_Charging_Adjusted_Penalty>  (1) 
1.5083745474312953

>  <r_epik_Ionization_Penalty>  (1) 
0.65750586125956467

>  <r_epik_Ionization_Penalty_Charging>  (1) 
0.6544614066189578

>  <r_epik_Ionization_Penalty_Neutral>  (1) 
0.0030444546406068235

>  <r_epik_State_Penalty>  (1) 
0.8539131408123376

>  <r_glide_ring_energy>  (1) 
0.48000684916914799

>  <r_i_docking_score>  (1) 
-2.6285225375962793

>  <r_i_glide_ecoul>  (1) 
-0.89211613317834759

>  <r_i_glide_eff_state_penalty>  (1) 
0.8539131408123376

>  <r_i_glide_einternal>  (1) 
14.399479565538616

>  <r_i_glide_emodel>  (1) 
7.1342171305020843

>  <r_i_glide_emodel_strain>  (1) 
7.0281257262568886

>  <r_i_glide_energy>  (1) 
-2.6184229434916952

>  <r_i_glide_erotb>  (1) 
0.42002339013477186

>  <r_i_glide_esite>  (1) 
0

>  <r_i_glide_evdw>  (1) 
-1.7263068103133479

>  <r_i_glide_gscore>  (1) 
-3.482435678408617

>  <r_i_glide_gscore_strain>  (1) 
0.75703143156422215

>  <r_i_glide_hbond>  (1) 
0

>  <r_i_glide_ligand_efficiency>  (1) 
-0.069171645726217881

>  <r_i_glide_ligand_efficiency_ln>  (1) 
-0.56678678240478453

>  <r_i_glide_ligand_efficiency_sa>  (1) 
-0.23255337177935517

>  <r_i_glide_lipo>  (1) 
-3.3864705039963363

>  <r_i_glide_metal>  (1) 
-0

>  <r_i_glide_rewards>  (1) 
-1.052887235618855

>  <r_lp_Energy>  (1) 
44.827317999999998

>  <s_epik_Chemistry_Notes>  (1) 
This compound has a N-S or N-O group and may undergo hydrolysis at high or low pH.

>  <s_epik_cmdline>  (1) 
J2VwaWtfcHl0aG9uJywgJy1waHQnLCAnMS4wJywgJy1waCcsICc3LjQnLCAnLXRuJywgJzgnLCAnLW1hJywgJzUwMCcsICctaW1hZScsICc8aW5maWxlLm1hZT4nLCAnLW9tYWUnLCAnPG91dGZpbGUubWFlPic=

>  <s_epik_input>  (1) 
RkMoRikoW0NIMl0xKVtDSDJdW0NIMl1bQ0BIXShbQ0BASF0xMilbQ0BIXShbQ0gyXVtDQEhdKFtDSDJdW0NIMl0yKUMoW0NIM10pKFtDSDNdKU9bQ0gzXSlbTkhdTjNbQ0gyXVtDSDJdW0NIMl1bQ0BIXShbQ0gyXTMpL1tDSF09W0NIXS9bQ0BASF0oW0NIMl1bQ0BdNChbT0hdKUMoPU8pW09IXSlbQ0gyXVtDQEBIXTRbTkhdW09IXQ==

>  <s_glide_docking_method>  (1) 
confgen

>  <s_i_glide_gridfile>  (1) 
gpcr_5ht2c_6bqh_protein_autoprepared_prepared

>  <s_lp_Force_Field>  (1) 
S-OPLS

>  <s_lp_Variant>  (1) 
DiffSBDD_90_num_sample_100-15

>  <s_m_source_file>  (1) 
generated__ligand_DiffSBDD_2026-05-06_prepared.sdf

>  <GenAI_Model>  (1) 
DiffSBDD

>  <Protein>  (1) 
GPCR_5HT2C

$$$$
DiffSBDD_3_num_sample_100
     RDKit          3D

  0  0  0  0  0  0  0  0  0  0999 V3000
M  V30 BEGIN CTAB
M  V30 COUNTS 17 16 0 0 1
M  V30 BEGIN ATOM
M  V30 1 O 38.007076 28.794811 52.568857 0
M  V30 2 C 38.856621 28.230460 51.577667 0
M  V30 3 O 39.867844 30.042204 50.302022 0
M  V30 4 C 40.094459 29.114359 51.343523 0
M  V30 5 S 38.296846 26.605781 55.964465 0
M  V30 6 S 37.456122 24.765473 56.202324 0 CHG=-1
M  V30 7 C 37.754962 27.114845 54.312567 0
M  V30 8 C 38.363920 28.464873 53.906747 0
M  V30 9 H 38.293552 28.106727 50.653421 0
M  V30 10 H 39.169379 27.226950 51.869623 0
M  V30 11 H 39.244720 29.676163 49.688133 0
M  V30 12 H 40.934579 28.485857 51.053577 0
M  V30 13 H 40.398227 29.642638 52.247489 0
M  V30 14 H 36.667404 27.183177 54.295781 0
M  V30 15 H 38.037795 26.328572 53.613669 0
M  V30 16 H 39.446838 28.464768 54.042226 0
M  V30 17 H 37.970140 29.244382 54.559579 0
M  V30 END ATOM
M  V30 BEGIN BOND
M  V30 1 1 2 1
M  V30 2 1 4 2
M  V30 3 1 4 3
M  V30 4 1 6 5
M  V30 5 1 7 5
M  V30 6 1 8 1
M  V30 7 1 8 7
M  V30 8 1 9 2
M  V30 9 1 10 2
M  V30 10 1 11 3
M  V30 11 1 12 4
M  V30 12 1 13 4
M  V30 13 1 14 7
M  V30 14 1 15 7
M  V30 15 1 16 8
M  V30 16 1 17 8
M  V30 END BOND
M  V30 END CTAB
M  END
>  <i_epik_Tot_Q>  (1) 
-1

>  <i_epik_Tot_abs_Q>  (1) 
1

>  <i_i_glide_confnum>  (1) 
55

>  <i_i_glide_lignum>  (1) 
21

>  <i_i_glide_posenum>  (1) 
309

>  <i_i_glide_rotatable_bonds>  (1) 
6

>  <i_lp_mmshare_version>  (1) 
72125

>  <i_m_source_file_index>  (1) 
4

>  <i_f3d_flags>  (1) 
0

>  <num_sample>  (1) 
100

>  <b_lp_Chiralities_Consistent>  (1) 
1

>  <r_epik_Charging_Adjusted_Penalty>  (1) 
0.00058921996017037321

>  <r_epik_Ionization_Penalty>  (1) 
0.0005892715023935103

>  <r_epik_Ionization_Penalty_Charging>  (1) 
0.00058921996017037321

>  <r_epik_Ionization_Penalty_Neutral>  (1) 
5.1542223137146341e-08

>  <r_epik_State_Penalty>  (1) 
-0

>  <r_glide_ring_energy>  (1) 
0

>  <r_i_docking_score>  (1) 
-2.5767535415629901

>  <r_i_glide_ecoul>  (1) 
-1.8108470822173968

>  <r_i_glide_eff_state_penalty>  (1) 
-0

>  <r_i_glide_einternal>  (1) 
5.036257718512382

>  <r_i_glide_emodel>  (1) 
-20.080744034685566

>  <r_i_glide_emodel_strain>  (1) 
0.20105157069889223

>  <r_i_glide_energy>  (1) 
-18.934571457618954

>  <r_i_glide_erotb>  (1) 
2.5252674985507193

>  <r_i_glide_esite>  (1) 
0

>  <r_i_glide_evdw>  (1) 
-17.123724375401558

>  <r_i_glide_gscore>  (1) 
-2.5767535415629901

>  <r_i_glide_gscore_strain>  (1) 
0

>  <r_i_glide_hbond>  (1) 
-0.24099103978840616

>  <r_i_glide_ligand_efficiency>  (1) 
-0.32209419269537376

>  <r_i_glide_ligand_efficiency_ln>  (1) 
-0.83676001206289197

>  <r_i_glide_ligand_efficiency_sa>  (1) 
-0.64418838539074763

>  <r_i_glide_lipo>  (1) 
-1.4832167192226158

>  <r_i_glide_metal>  (1) 
-0

>  <r_i_glide_rewards>  (1) 
-2.25

>  <r_lp_Energy>  (1) 
3.2647040000000001

>  <r_lp_tautomer_probability>  (1) 
1

>  <s_epik_cmdline>  (1) 
J2VwaWtfcHl0aG9uJywgJy1waHQnLCAnMS4wJywgJy1waCcsICc3LjQnLCAnLXRuJywgJzgnLCAnLW1hJywgJzUwMCcsICctaW1hZScsICc8aW5maWxlLm1hZT4nLCAnLW9tYWUnLCAnPG91dGZpbGUubWFlPic=

>  <s_epik_input>  (1) 
W09IXVtDSDJdW0NIMl1PW0NIMl1bQ0gyXVNbU0hd

>  <s_glide_docking_method>  (1) 
confgen

>  <s_i_glide_gridfile>  (1) 
gpcr_5ht2c_6bqh_protein_autoprepared_prepared

>  <s_lp_Force_Field>  (1) 
S-OPLS

>  <s_lp_Variant>  (1) 
DiffSBDD_3_num_sample_100-1

>  <s_m_source_file>  (1) 
generated__ligand_DiffSBDD_2026-05-06_prepared.sdf

>  <GenAI_Model>  (1) 
DiffSBDD

>  <Protein>  (1) 
GPCR_5HT2C

$$$$
DiffSBDD_29_num_sample_100
     RDKit          3D

  0  0  0  0  0  0  0  0  0  0999 V3000
M  V30 BEGIN CTAB
M  V30 COUNTS 86 90 0 0 1
M  V30 BEGIN ATOM
M  V30 1 F 39.588945 35.417982 62.317071 0
M  V30 2 C 36.896268 33.461946 60.273185 0
M  V30 3 C 41.294669 32.984505 62.686355 0
M  V30 4 C 39.695743 28.352532 58.327524 0 CFG=2
M  V30 5 C 38.324742 31.181087 55.368548 0
M  V30 6 C 41.067205 28.944217 58.125063 0
M  V30 7 C 40.264510 36.021074 64.428014 0
M  V30 8 N 38.394169 33.402797 60.170757 0 CFG=1 CHG=1
M  V30 9 C 38.106243 26.516360 57.512686 0 CFG=1
M  V30 10 C 39.345161 30.151266 52.744568 0
M  V30 11 C 37.949011 33.056336 57.692675 0
M  V30 12 C 39.705087 29.476912 54.046700 0 CFG=2
M  V30 13 C 40.315601 35.196763 63.426045 0
M  V30 14 C 38.667338 31.774509 58.190060 0 CFG=2
M  V30 15 C 37.121604 32.044377 62.193614 0
M  V30 16 C 37.738598 24.012622 57.604705 0
M  V30 17 C 39.108642 27.609201 57.030851 0 CFG=1
M  V30 18 C 37.953815 30.518503 58.766938 0 CFG=1
M  V30 19 C 41.802737 34.051000 64.919716 0
M  V30 20 N 38.504333 32.409371 62.418378 0
M  V30 21 N 41.116935 34.113221 63.607496 0
M  V30 22 F 39.492373 37.126379 64.451801 0
M  V30 23 S 39.066685 27.820350 54.229207 0
M  V30 24 C 39.165973 32.567670 61.147565 0 CFG=2
M  V30 25 C 36.401735 33.283598 61.680397 0
M  V30 26 C 38.158978 24.952111 55.332591 0
M  V30 27 O 36.918832 30.019505 57.963546 0
M  V30 28 C 38.550539 28.487739 55.834473 0 CFG=2
M  V30 29 C 38.809972 29.289475 59.250359 0
M  V30 30 C 39.050758 31.614885 53.075005 0
M  V30 31 C 37.871548 31.675960 54.047722 0
M  V30 32 C 40.623448 33.066199 61.301350 0
M  V30 33 O 37.006334 27.261321 57.853261 0
M  V30 34 C 39.112183 29.882685 55.388656 0 CFG=2
M  V30 35 C 38.924963 33.145680 58.818453 0 CFG=2
M  V30 36 C 37.594349 25.263710 56.724112 0
M  V30 37 O 40.132908 27.362793 59.232371 0
M  V30 38 S 41.202169 35.620322 65.832244 0
M  V30 39 H 36.530375 34.406033 59.865521 0
M  V30 40 H 36.395683 32.662497 59.734126 0
M  V30 41 H 40.991819 32.065628 63.191790 0
M  V30 42 H 42.370103 32.888256 62.529027 0
M  V30 43 H 39.007844 31.973918 55.650902 0
M  V30 44 H 37.456533 31.167896 56.004006 0
M  V30 45 H 40.834869 29.936200 57.854151 0
M  V30 46 H 41.675986 29.028865 59.028540 0
M  V30 47 H 41.648654 28.449676 57.347538 0
M  V30 48 H 38.417771 26.110298 58.467965 0
M  V30 49 H 40.168961 30.087422 52.034136 0
M  V30 50 H 38.504804 29.628284 52.280663 0
M  V30 51 H 38.292834 33.561687 56.794433 0
M  V30 52 H 36.883477 33.179007 57.831671 0
M  V30 53 H 40.734110 29.622771 54.265422 0
M  V30 54 H 39.468685 31.467323 57.551125 0
M  V30 55 H 36.668767 31.621649 63.053421 0
M  V30 56 H 37.043330 31.215245 61.506958 0
M  V30 57 H 38.762352 23.638494 57.589324 0
M  V30 58 H 37.468626 24.195853 58.644895 0
M  V30 59 H 37.078374 23.223040 57.252082 0
M  V30 60 H 39.948782 27.036374 56.640207 0
M  V30 61 H 37.410699 30.837721 59.633028 0
M  V30 62 H 41.520075 33.152837 65.469764 0
M  V30 63 H 42.885185 34.078279 64.795415 0
M  V30 64 H 38.570918 33.253450 62.973249 0
M  V30 65 H 39.219244 31.554463 60.772673 0
M  V30 66 H 36.584660 34.188798 62.253413 0
M  V30 67 H 35.321468 33.133758 61.672613 0
M  V30 68 H 39.241247 25.049864 55.274649 0
M  V30 69 H 37.914954 23.932093 55.037027 0
M  V30 70 H 37.696307 25.581321 54.576304 0
M  V30 71 H 36.357424 30.736974 57.648605 0
M  V30 72 H 37.467732 28.554092 55.814557 0
M  V30 73 H 38.119222 28.643343 59.795880 0
M  V30 74 H 39.473868 29.643862 60.038528 0
M  V30 75 H 39.890857 32.020309 53.604042 0
M  V30 76 H 38.893295 32.296518 52.243075 0
M  V30 77 H 37.504248 32.698370 54.155324 0
M  V30 78 H 37.024805 31.029135 53.853526 0
M  V30 79 H 41.214423 32.418950 60.655831 0
M  V30 80 H 40.739102 34.063504 60.887619 0
M  V30 81 H 37.234518 28.180699 57.960731 0
M  V30 82 H 39.966649 30.057612 56.020244 0
M  V30 83 H 39.867904 33.638516 58.628670 0
M  V30 84 H 36.517846 25.373664 56.572909 0
M  V30 85 H 40.876641 26.909574 58.860666 0
M  V30 86 H 38.666563 34.349706 60.393154 0
M  V30 END ATOM
M  V30 BEGIN BOND
M  V30 1 1 6 4
M  V30 2 1 8 2
M  V30 3 1 12 10
M  V30 4 1 13 1
M  V30 5 2 13 7
M  V30 6 1 14 11
M  V30 7 1 17 4
M  V30 8 1 17 9
M  V30 9 1 18 14
M  V30 10 1 20 15
M  V30 11 1 21 3
M  V30 12 1 21 13
M  V30 13 1 21 19
M  V30 14 1 22 7
M  V30 15 1 23 12
M  V30 16 1 24 8
M  V30 17 1 24 20
M  V30 18 1 25 2
M  V30 19 1 25 15
M  V30 20 1 27 18
M  V30 21 1 28 17
M  V30 22 1 28 23
M  V30 23 1 29 4
M  V30 24 1 29 18
M  V30 25 1 30 10
M  V30 26 1 31 5
M  V30 27 1 31 30
M  V30 28 1 32 3
M  V30 29 1 32 24
M  V30 30 1 33 9
M  V30 31 1 34 5
M  V30 32 1 34 12
M  V30 33 1 34 28
M  V30 34 1 35 8
M  V30 35 1 35 11
M  V30 36 1 35 14
M  V30 37 1 36 9
M  V30 38 1 36 16
M  V30 39 1 36 26
M  V30 40 1 4 37 CFG=1
M  V30 41 1 38 7
M  V30 42 1 38 19
M  V30 43 1 39 2
M  V30 44 1 40 2
M  V30 45 1 41 3
M  V30 46 1 42 3
M  V30 47 1 43 5
M  V30 48 1 44 5
M  V30 49 1 45 6
M  V30 50 1 46 6
M  V30 51 1 47 6
M  V30 52 1 9 48 CFG=1
M  V30 53 1 49 10
M  V30 54 1 50 10
M  V30 55 1 51 11
M  V30 56 1 52 11
M  V30 57 1 12 53 CFG=1
M  V30 58 1 14 54 CFG=3
M  V30 59 1 55 15
M  V30 60 1 56 15
M  V30 61 1 57 16
M  V30 62 1 58 16
M  V30 63 1 59 16
M  V30 64 1 17 60 CFG=3
M  V30 65 1 18 61 CFG=1
M  V30 66 1 62 19
M  V30 67 1 63 19
M  V30 68 1 64 20
M  V30 69 1 24 65 CFG=3
M  V30 70 1 66 25
M  V30 71 1 67 25
M  V30 72 1 68 26
M  V30 73 1 69 26
M  V30 74 1 70 26
M  V30 75 1 71 27
M  V30 76 1 28 72 CFG=3
M  V30 77 1 73 29
M  V30 78 1 74 29
M  V30 79 1 75 30
M  V30 80 1 76 30
M  V30 81 1 77 31
M  V30 82 1 78 31
M  V30 83 1 79 32
M  V30 84 1 80 32
M  V30 85 1 81 33
M  V30 86 1 34 82 CFG=1
M  V30 87 1 35 83 CFG=3
M  V30 88 1 84 36
M  V30 89 1 85 37
M  V30 90 1 8 86 CFG=1
M  V30 END BOND
M  V30 END CTAB
M  END
>  <i_epik_Tot_Q>  (1) 
1

>  <i_epik_Tot_abs_Q>  (1) 
1

>  <i_i_glide_confnum>  (1) 
227

>  <i_i_glide_lignum>  (1) 
75

>  <i_i_glide_posenum>  (1) 
183

>  <i_i_glide_rotatable_bonds>  (1) 
14

>  <i_lp_mmshare_version>  (1) 
72125

>  <i_m_source_file_index>  (1) 
30

>  <i_f3d_flags>  (1) 
0

>  <num_sample>  (1) 
100

>  <b_lp_Chiralities_Consistent>  (1) 
1

>  <r_epik_Charging_Adjusted_Penalty>  (1) 
1.7477768688038313

>  <r_epik_Ionization_Penalty>  (1) 
0.56833185219894722

>  <r_epik_Ionization_Penalty_Charging>  (1) 
0.56833130032608237

>  <r_epik_Ionization_Penalty_Neutral>  (1) 
5.5187286482775955e-07

>  <r_epik_State_Penalty>  (1) 
1.179445568477749

>  <r_glide_ring_energy>  (1) 
2.2046325848137989

>  <r_i_docking_score>  (1) 
-2.5723907879250918

>  <r_i_glide_ecoul>  (1) 
-3.3210241879526929

>  <r_i_glide_eff_state_penalty>  (1) 
1.179445568477749

>  <r_i_glide_einternal>  (1) 
73.665710533647882

>  <r_i_glide_emodel>  (1) 
33.00187462382803

>  <r_i_glide_emodel_strain>  (1) 
10.208400523772184

>  <r_i_glide_energy>  (1) 
-6.43746510098737

>  <r_i_glide_erotb>  (1) 
0.46833353265868582

>  <r_i_glide_esite>  (1) 
-0.0091385298674024947

>  <r_i_glide_evdw>  (1) 
-3.1164409130346771

>  <r_i_glide_gscore>  (1) 
-3.7518363564028405

>  <r_i_glide_gscore_strain>  (1) 
1.552100130943046

>  <r_i_glide_hbond>  (1) 
-0.16

>  <r_i_glide_ligand_efficiency>  (1) 
-0.067694494419081361

>  <r_i_glide_ligand_efficiency_ln>  (1) 
-0.55468312594689584

>  <r_i_glide_ligand_efficiency_sa>  (1) 
-0.22758722541264126

>  <r_i_glide_lipo>  (1) 
-3.4481339873549919

>  <r_i_glide_metal>  (1) 
-0

>  <r_i_glide_rewards>  (1) 
-1.5010218289375403

>  <r_lp_Energy>  (1) 
40.584823

>  <s_epik_Chemistry_Notes>  (1) 
This compound has an imine and may undergo hydrolysis. This compound contains an acetal/aminal-like group ( X-CH(R)-Y where X, Y are N, S, or O) that may be acid/base labile, releasing an aldehyde.

>  <s_epik_cmdline>  (1) 
J2VwaWtfcHl0aG9uJywgJy1waHQnLCAnMS4wJywgJy1waCcsICc3LjQnLCAnLXRuJywgJzgnLCAnLW1hJywgJzUwMCcsICctaW1hZScsICc8aW5maWxlLm1hZT4nLCAnLW9tYWUnLCAnPG91dGZpbGUubWFlPic=

>  <s_epik_input>  (1) 
RkMxPUMoRilOKFtDSDJdUzEpW0NIMl1bQ0gyXVtDQEhdMltOSF1bQ0gyXVtDSDJdW0NIMl1OMltDQEBIXTNbQ0gyXVtDQEBIXTNbQ0BASF0oW09IXSlbQ0gyXVtDQEBdKFtDSDNdKShbT0hdKVtDQEBIXShbQ0BASF0oW09IXSlbQ0hdKFtDSDNdKVtDSDNdKVtDQEhdKFM0KVtDQEBIXShbQ0BASF00NSlbQ0gyXVtDSDJdW0NIMl1bQ0gyXTU=

>  <s_glide_docking_method>  (1) 
confgen

>  <s_i_glide_gridfile>  (1) 
gpcr_5ht2c_6bqh_protein_autoprepared_prepared

>  <s_lp_Force_Field>  (1) 
S-OPLS

>  <s_lp_Variant>  (1) 
DiffSBDD_29_num_sample_100-5

>  <s_m_source_file>  (1) 
generated__ligand_DiffSBDD_2026-05-06_prepared.sdf

>  <GenAI_Model>  (1) 
DiffSBDD

>  <Protein>  (1) 
GPCR_5HT2C

$$$$
DiffSBDD_93_num_sample_100
     RDKit          3D

  0  0  0  0  0  0  0  0  0  0999 V3000
M  V30 BEGIN CTAB
M  V30 COUNTS 74 77 0 0 1
M  V30 BEGIN ATOM
M  V30 1 C 37.991563 31.151481 58.453120 0
M  V30 2 S 39.712952 26.420951 54.406273 0
M  V30 3 C 38.405860 33.012625 60.162227 0 CFG=2
M  V30 4 O 40.266976 29.217842 50.029828 0
M  V30 5 C 39.921280 28.293947 59.470809 0
M  V30 6 C 39.004327 29.451600 52.639438 0 CFG=1
M  V30 7 C 40.309733 26.020278 57.533636 0
M  V30 8 C 38.010427 26.363689 56.856583 0
M  V30 9 C 37.510903 32.243108 61.142370 0
M  V30 10 N 37.467326 27.716019 54.769759 0 CHG=1
M  V30 11 C 41.450752 28.078693 59.375556 0
M  V30 12 C 38.667039 32.259836 58.859696 0
M  V30 13 C 38.412536 30.504863 57.165622 0
M  V30 14 C 37.880866 29.128541 55.012649 0 CFG=1
M  V30 15 C 36.362623 31.559782 60.402022 0
M  V30 16 Cl 35.585586 29.620567 58.741023 0
M  V30 17 O 43.309737 28.066940 57.789855 0
M  V30 18 C 36.912080 30.557698 59.375616 0 CFG=1
M  V30 19 C 39.834683 30.640283 56.761040 0
M  V30 20 C 39.159661 26.795288 52.685569 0
M  V30 21 C 39.827394 30.600531 52.002215 0
M  V30 22 C 37.540490 29.796610 56.378568 0
M  V30 23 C 41.363919 26.963955 57.063675 0
M  V30 24 C 39.611384 28.141471 52.095900 0 CFG=1
M  V30 25 C 38.125856 26.511546 55.291564 0 CFG=1
M  V30 26 C 42.205412 27.322495 58.249700 0 CFG=2
M  V30 27 C 39.482856 28.158817 50.570791 0
M  V30 28 C 39.885977 30.511732 50.472661 0
M  V30 29 C 38.953441 27.717738 58.706897 0
M  V30 30 S 37.068019 25.159831 54.739249 0 CHG=-1
M  V30 31 N 39.114644 26.777307 57.696968 0
M  V30 32 C 39.721809 33.435762 60.829759 0
M  V30 33 C 39.074980 29.614082 54.161184 0
M  V30 34 H 37.873809 33.922079 59.878089 0
M  V30 35 H 39.610973 29.006397 60.221308 0
M  V30 36 H 37.963491 29.508100 52.327678 0
M  V30 37 H 40.568572 25.506994 58.456011 0
M  V30 38 H 40.164343 25.218919 56.808088 0
M  V30 39 H 37.876513 25.307015 57.104395 0
M  V30 40 H 37.089920 26.831094 57.207853 0
M  V30 41 H 38.098924 31.498832 61.680800 0
M  V30 42 H 37.118542 32.930064 61.892820 0
M  V30 43 H 37.449103 27.580358 53.772767 0
M  V30 44 H 41.779184 27.687044 60.338298 0
M  V30 45 H 41.821281 29.105057 59.357007 0
M  V30 46 H 39.441451 32.672165 58.231043 0
M  V30 47 H 37.067546 29.602502 54.468134 0
M  V30 48 H 35.726218 31.045152 61.121051 0
M  V30 49 H 35.737973 32.302096 59.901359 0
M  V30 50 H 42.993581 28.804072 57.290918 0
M  V30 51 H 37.459036 29.829236 59.970177 0
M  V30 52 H 40.267495 30.421346 57.722011 0
M  V30 53 H 40.267719 29.816015 56.241236 0
M  V30 54 H 40.114622 31.612200 56.352916 0
M  V30 55 H 39.628253 26.024490 52.078720 0
M  V30 56 H 38.085748 26.670956 52.547452 0
M  V30 57 H 40.825969 30.583417 52.402776 0
M  V30 58 H 39.471112 31.586673 52.298150 0
M  V30 59 H 36.532801 29.696096 56.670711 0
M  V30 60 H 40.967876 27.853545 56.586308 0
M  V30 61 H 41.867080 26.425950 56.283384 0
M  V30 62 H 40.667448 28.168740 52.253518 0
M  V30 63 H 42.636628 26.408821 58.655433 0
M  V30 64 H 39.859888 27.213233 50.185225 0
M  V30 65 H 38.443155 28.253406 50.259997 0
M  V30 66 H 40.621075 31.216976 50.093354 0
M  V30 67 H 38.932633 30.809876 50.054038 0
M  V30 68 H 37.922577 27.983342 58.858634 0
M  V30 69 H 40.251766 34.164944 60.221514 0
M  V30 70 H 39.538570 33.898800 61.800271 0
M  V30 71 H 40.377992 32.579587 60.990210 0
M  V30 72 H 39.991436 29.130874 54.455559 0
M  V30 73 H 39.179847 30.682417 54.351692 0
M  V30 74 H 36.512348 27.626067 55.076665 0
M  V30 END ATOM
M  V30 BEGIN BOND
M  V30 1 1 9 3
M  V30 2 1 11 5
M  V30 3 2 12 1
M  V30 4 1 12 3
M  V30 5 1 13 1
M  V30 6 1 14 10
M  V30 7 1 15 9
M  V30 8 1 18 1
M  V30 9 1 18 15
M  V30 10 1 18 16
M  V30 11 1 19 13
M  V30 12 1 20 2
M  V30 13 1 21 6
M  V30 14 2 22 13
M  V30 15 1 22 14
M  V30 16 1 23 7
M  V30 17 1 24 6
M  V30 18 1 24 20
M  V30 19 1 25 2
M  V30 20 1 25 8
M  V30 21 1 25 10
M  V30 22 1 26 11
M  V30 23 1 26 17
M  V30 24 1 26 23
M  V30 25 1 27 4
M  V30 26 1 27 24
M  V30 27 1 28 4
M  V30 28 1 28 21
M  V30 29 2 29 5
M  V30 30 1 25 30 CFG=3
M  V30 31 1 31 7
M  V30 32 1 31 8
M  V30 33 1 31 29
M  V30 34 1 32 3
M  V30 35 1 33 6
M  V30 36 1 33 14
M  V30 37 1 3 34 CFG=3
M  V30 38 1 35 5
M  V30 39 1 6 36 CFG=3
M  V30 40 1 37 7
M  V30 41 1 38 7
M  V30 42 1 39 8
M  V30 43 1 40 8
M  V30 44 1 41 9
M  V30 45 1 42 9
M  V30 46 1 43 10
M  V30 47 1 44 11
M  V30 48 1 45 11
M  V30 49 1 46 12
M  V30 50 1 14 47 CFG=3
M  V30 51 1 48 15
M  V30 52 1 49 15
M  V30 53 1 50 17
M  V30 54 1 18 51 CFG=1
M  V30 55 1 52 19
M  V30 56 1 53 19
M  V30 57 1 54 19
M  V30 58 1 55 20
M  V30 59 1 56 20
M  V30 60 1 57 21
M  V30 61 1 58 21
M  V30 62 1 59 22
M  V30 63 1 60 23
M  V30 64 1 61 23
M  V30 65 1 24 62 CFG=3
M  V30 66 1 26 63 CFG=1
M  V30 67 1 64 27
M  V30 68 1 65 27
M  V30 69 1 66 28
M  V30 70 1 67 28
M  V30 71 1 68 29
M  V30 72 1 69 32
M  V30 73 1 70 32
M  V30 74 1 71 32
M  V30 75 1 72 33
M  V30 76 1 73 33
M  V30 77 1 74 10
M  V30 END BOND
M  V30 END CTAB
M  END
>  <i_epik_Tot_Q>  (1) 
0

>  <i_epik_Tot_abs_Q>  (1) 
2

>  <i_i_glide_confnum>  (1) 
99

>  <i_i_glide_lignum>  (1) 
261

>  <i_i_glide_posenum>  (1) 
162

>  <i_i_glide_rotatable_bonds>  (1) 
5

>  <i_lp_mmshare_version>  (1) 
72125

>  <i_m_source_file_index>  (1) 
94

>  <i_f3d_flags>  (1) 
0

>  <num_sample>  (1) 
100

>  <b_lp_Chiralities_Consistent>  (1) 
1

>  <r_epik_Charging_Adjusted_Penalty>  (1) 
0.80501984278308969

>  <r_epik_Ionization_Penalty>  (1) 
0.072421558423421364

>  <r_epik_Ionization_Penalty_Charging>  (1) 
0.072408791886815996

>  <r_epik_Ionization_Penalty_Neutral>  (1) 
1.2766536605372598e-05

>  <r_epik_State_Penalty>  (1) 
0.73261105089627365

>  <r_glide_ring_energy>  (1) 
0

>  <r_i_docking_score>  (1) 
-2.5313271607499002

>  <r_i_glide_ecoul>  (1) 
0.76783337942353902

>  <r_i_glide_eff_state_penalty>  (1) 
0.73261105089627365

>  <r_i_glide_einternal>  (1) 
24.567646199794115

>  <r_i_glide_emodel>  (1) 
8.8134904209663336

>  <r_i_glide_emodel_strain>  (1) 
13.337776147774505

>  <r_i_glide_energy>  (1) 
-16.485811183246543

>  <r_i_glide_erotb>  (1) 
0.31140238833871409

>  <r_i_glide_esite>  (1) 
0

>  <r_i_glide_evdw>  (1) 
-17.253644562670083

>  <r_i_glide_gscore>  (1) 
-3.2639382116461739

>  <r_i_glide_gscore_strain>  (1) 
2.3344440369436263

>  <r_i_glide_hbond>  (1) 
0

>  <r_i_glide_ligand_efficiency>  (1) 
-0.076706883659087885

>  <r_i_glide_ligand_efficiency_ln>  (1) 
-0.56295405404018484

>  <r_i_glide_ligand_efficiency_sa>  (1) 
-0.2460399626835203

>  <r_i_glide_lipo>  (1) 
-4.0485173144645019

>  <r_i_glide_metal>  (1) 
-0

>  <r_i_glide_rewards>  (1) 
-1.113760101244039

>  <r_lp_Energy>  (1) 
38.886989999999997

>  <s_epik_Chemistry_Notes>  (1) 
This compound has an imine and may undergo hydrolysis.

>  <s_epik_cmdline>  (1) 
J2VwaWtfcHl0aG9uJywgJy1waHQnLCAnMS4wJywgJy1waCcsICc3LjQnLCAnLXRuJywgJzgnLCAnLW1hJywgJzUwMCcsICctaW1hZScsICc8aW5maWxlLm1hZT4nLCAnLW9tYWUnLCAnPG91dGZpbGUubWFlPic=

>  <s_epik_input>  (1) 
Q2xbQ0BIXTFbQ0gyXVtDSDJdW0NAQEhdKFtDSDNdKVtDSF09QzEvQyhbQ0gzXSk9W0NIXS9bQ0BASF0oW0NIMl0yKVtOSF1bQ0BAXShbU0hdKShTW0NIMl1bQ0BIXShbQ0BASF0yMylbQ0gyXU9bQ0gyXVtDSDJdMylbQ0gyXU4oW0NIMl1bQ0gyXTQpW0NIXT1bQ0hdW0NIMl1bQ0BASF00W09IXQ==

>  <s_glide_docking_method>  (1) 
confgen

>  <s_i_glide_gridfile>  (1) 
gpcr_5ht2c_6bqh_protein_autoprepared_prepared

>  <s_lp_Force_Field>  (1) 
S-OPLS

>  <s_lp_Variant>  (1) 
DiffSBDD_93_num_sample_100-13

>  <s_m_source_file>  (1) 
generated__ligand_DiffSBDD_2026-05-06_prepared.sdf

>  <GenAI_Model>  (1) 
DiffSBDD

>  <Protein>  (1) 
GPCR_5HT2C

$$$$
DiffSBDD_44_num_sample_100
     RDKit          3D

  0  0  0  0  0  0  0  0  0  0999 V3000
M  V30 BEGIN CTAB
M  V30 COUNTS 58 59 0 0 1
M  V30 BEGIN ATOM
M  V30 1 C 41.067909 28.818941 57.194755 0
M  V30 2 O 37.867426 27.156811 58.253535 0 CHG=-1
M  V30 3 C 37.466426 29.711087 54.632035 0
M  V30 4 C 40.590750 27.785070 59.237606 0 CFG=1
M  V30 5 N 40.044657 26.916667 58.151665 0 CFG=2 CHG=1
M  V30 6 C 39.467385 28.632574 53.871399 0
M  V30 7 N 37.467136 26.501619 55.426939 0
M  V30 8 C 38.051768 28.598912 54.285319 0
M  V30 9 O 37.678570 26.492896 53.053493 0
M  V30 10 C 41.742819 28.477048 58.510378 0 CFG=1
M  V30 11 C 42.953500 27.565406 58.208213 0
M  V30 12 C 38.455194 25.135133 57.219405 0 CFG=1
M  V30 13 C 38.351514 25.649988 55.779350 0
M  V30 14 C 40.181206 27.678250 56.904702 0
M  V30 15 C 37.952377 27.168955 51.817350 0
M  V30 16 C 38.701433 31.799051 54.094700 0
M  V30 17 C 38.753345 26.211222 58.318301 0 CFG=2
M  V30 18 C 37.325079 27.262246 54.193808 0 CFG=1
M  V30 19 F 39.867422 31.621438 52.015147 0
M  V30 20 C 39.803793 31.076756 53.219517 0 CFG=2
M  V30 21 C 37.510127 31.016211 54.653165 0
M  V30 22 C 37.244539 24.269215 57.565546 0
M  V30 23 C 39.382336 25.080142 54.853412 0
M  V30 24 C 39.610918 28.813167 59.861744 0
M  V30 25 C 39.671870 29.637810 52.747812 0
M  V30 26 H 41.758947 28.821421 56.351252 0
M  V30 27 H 40.446068 29.711922 57.267502 0
M  V30 28 H 40.939477 27.221559 60.081141 0
M  V30 29 H 40.057207 28.995814 54.706227 0
M  V30 30 H 39.846723 27.649330 53.618513 0
M  V30 31 H 42.058837 29.371069 59.038832 0
M  V30 32 H 42.731023 26.840995 57.425138 0
M  V30 33 H 43.800856 28.153051 57.852569 0
M  V30 34 H 43.283722 26.973921 59.054245 0
M  V30 35 H 39.303848 24.450587 57.246494 0
M  V30 36 H 40.644073 27.060656 56.142607 0
M  V30 37 H 39.245047 28.091475 56.544394 0
M  V30 38 H 37.867334 26.519253 50.950387 0
M  V30 39 H 37.330078 28.046632 51.673756 0
M  V30 40 H 38.999563 27.426814 51.718749 0
M  V30 41 H 38.265292 32.572735 53.469759 0
M  V30 42 H 39.178725 32.328029 54.921387 0
M  V30 43 H 38.887840 25.621854 59.211205 0
M  V30 44 H 36.271243 27.509323 54.062145 0
M  V30 45 H 40.784746 31.220911 53.676545 0
M  V30 46 H 36.667083 31.598289 54.976559 0
M  V30 47 H 36.962783 23.608292 56.743880 0
M  V30 48 H 37.467614 23.643918 58.425908 0
M  V30 49 H 36.382768 24.895866 57.805177 0
M  V30 50 H 40.318085 25.047378 55.392706 0
M  V30 51 H 39.074926 24.059414 54.653460 0
M  V30 52 H 39.572577 25.621709 53.936693 0
M  V30 53 H 40.136323 29.472014 60.553293 0
M  V30 54 H 39.131319 29.437400 59.112736 0
M  V30 55 H 38.824030 28.324066 60.435143 0
M  V30 56 H 40.570240 29.368665 52.187824 0
M  V30 57 H 38.859111 29.600878 52.024029 0
M  V30 58 H 40.727352 26.181978 58.071335 0
M  V30 END ATOM
M  V30 BEGIN BOND
M  V30 1 1 5 4
M  V30 2 2 8 3
M  V30 3 1 8 6
M  V30 4 1 10 1
M  V30 5 1 10 4
M  V30 6 1 11 10
M  V30 7 2 13 7
M  V30 8 1 13 12
M  V30 9 1 14 1
M  V30 10 1 14 5
M  V30 11 1 15 9
M  V30 12 1 17 2
M  V30 13 1 17 5
M  V30 14 1 17 12
M  V30 15 1 18 7
M  V30 16 1 18 8
M  V30 17 1 18 9
M  V30 18 1 20 16
M  V30 19 1 20 19
M  V30 20 2 21 3
M  V30 21 1 21 16
M  V30 22 1 22 12
M  V30 23 1 23 13
M  V30 24 1 24 4
M  V30 25 1 25 6
M  V30 26 1 25 20
M  V30 27 1 26 1
M  V30 28 1 27 1
M  V30 29 1 4 28 CFG=1
M  V30 30 1 29 6
M  V30 31 1 30 6
M  V30 32 1 10 31 CFG=1
M  V30 33 1 32 11
M  V30 34 1 33 11
M  V30 35 1 34 11
M  V30 36 1 12 35 CFG=3
M  V30 37 1 36 14
M  V30 38 1 37 14
M  V30 39 1 38 15
M  V30 40 1 39 15
M  V30 41 1 40 15
M  V30 42 1 41 16
M  V30 43 1 42 16
M  V30 44 1 17 43 CFG=1
M  V30 45 1 18 44 CFG=3
M  V30 46 1 20 45 CFG=1
M  V30 47 1 46 21
M  V30 48 1 47 22
M  V30 49 1 48 22
M  V30 50 1 49 22
M  V30 51 1 50 23
M  V30 52 1 51 23
M  V30 53 1 52 23
M  V30 54 1 53 24
M  V30 55 1 54 24
M  V30 56 1 55 24
M  V30 57 1 56 25
M  V30 58 1 57 25
M  V30 59 1 5 58 CFG=3
M  V30 END BOND
M  V30 END CTAB
M  END
>  <i_epik_Tot_Q>  (1) 
0

>  <i_epik_Tot_abs_Q>  (1) 
2

>  <i_i_glide_confnum>  (1) 
11

>  <i_i_glide_lignum>  (1) 
121

>  <i_i_glide_posenum>  (1) 
52

>  <i_i_glide_rotatable_bonds>  (1) 
6

>  <i_lp_mmshare_version>  (1) 
72125

>  <i_m_source_file_index>  (1) 
45

>  <i_f3d_flags>  (1) 
0

>  <num_sample>  (1) 
100

>  <b_lp_Chiralities_Consistent>  (1) 
1

>  <r_epik_Charging_Adjusted_Penalty>  (1) 
0.41733257654759531

>  <r_epik_Ionization_Penalty>  (1) 
0.0069177268181324029

>  <r_epik_Ionization_Penalty_Charging>  (1) 
0.0066527375949913311

>  <r_epik_Ionization_Penalty_Neutral>  (1) 
0.00026498922314107146

>  <r_epik_State_Penalty>  (1) 
0.41067983895260396

>  <r_glide_ring_energy>  (1) 
0

>  <r_i_docking_score>  (1) 
-2.4899497074578121

>  <r_i_glide_ecoul>  (1) 
-0.41643690954998286

>  <r_i_glide_eff_state_penalty>  (1) 
0.41067983895260396

>  <r_i_glide_einternal>  (1) 
6.0732147365388371

>  <r_i_glide_emodel>  (1) 
2.5240292759757033

>  <r_i_glide_emodel_strain>  (1) 
13.887943055614492

>  <r_i_glide_energy>  (1) 
-6.4112172597046113

>  <r_i_glide_erotb>  (1) 
0.61440649929112812

>  <r_i_glide_esite>  (1) 
0

>  <r_i_glide_evdw>  (1) 
-5.9947803501546284

>  <r_i_glide_gscore>  (1) 
-2.9006295464104159

>  <r_i_glide_gscore_strain>  (1) 
2.4719857639036231

>  <r_i_glide_hbond>  (1) 
0

>  <r_i_glide_ligand_efficiency>  (1) 
-0.099597988298312484

>  <r_i_glide_ligand_efficiency_ln>  (1) 
-0.59019269843894939

>  <r_i_glide_ligand_efficiency_sa>  (1) 
-0.29122628447458321

>  <r_i_glide_lipo>  (1) 
-2.7730384804901318

>  <r_i_glide_metal>  (1) 
-0

>  <r_i_glide_rewards>  (1) 
-2.8517787751748065

>  <r_lp_Energy>  (1) 
12.967366999999999

>  <r_lp_tautomer_probability>  (1) 
0.49999399997599986

>  <s_epik_Chemistry_Notes>  (1) 
This compound has an imine and may undergo hydrolysis. This compound contains an acetal/aminal-like group ( X-CH(R)-Y where X, Y are N, S, or O) that may be acid/base labile, releasing an aldehyde.

>  <s_epik_cmdline>  (1) 
J2VwaWtfcHl0aG9uJywgJy1waHQnLCAnMS4wJywgJy1waCcsICc3LjQnLCAnLXRuJywgJzgnLCAnLW1hJywgJzUwMCcsICctaW1hZScsICc8aW5maWxlLm1hZT4nLCAnLW9tYWUnLCAnPG91dGZpbGUubWFlPic=

>  <s_epik_input>  (1) 
W0NIM11bQ0BIXTFbQ0gyXVtDSDJdTihbQ0BASF0xW0NIM10pW0NAQEhdKFtPSF0pW0NAQEhdKFtDSDNdKVxDKFtDSDNdKT1OXFtDQEBIXShPW0NIM10pQzI9Qz1bQ0hdW0NIMl1bQ0BASF0oRilbQ0gyXVtDSDJdMg==

>  <s_glide_docking_method>  (1) 
confgen

>  <s_i_glide_gridfile>  (1) 
gpcr_5ht2c_6bqh_protein_autoprepared_prepared

>  <s_lp_Force_Field>  (1) 
S-OPLS

>  <s_lp_Variant>  (1) 
DiffSBDD_44_num_sample_100-14

>  <s_m_source_file>  (1) 
generated__ligand_DiffSBDD_2026-05-06_prepared.sdf

>  <GenAI_Model>  (1) 
DiffSBDD

>  <Protein>  (1) 
GPCR_5HT2C

$$$$
DiffSBDD_73_num_sample_100
     RDKit          3D

  0  0  0  0  0  0  0  0  0  0999 V3000
M  V30 BEGIN CTAB
M  V30 COUNTS 29 28 0 0 1
M  V30 BEGIN ATOM
M  V30 1 C 40.465124 27.878914 57.601227 0
M  V30 2 N 39.747906 26.743575 57.557724 0
M  V30 3 C 39.526631 29.103145 50.535204 0
M  V30 4 O 40.267403 28.821430 56.840539 0
M  V30 5 C 39.170652 26.319508 55.164937 0
M  V30 6 C 41.564904 27.962547 58.656972 0
M  V30 7 Cl 40.557182 30.421432 50.966656 0
M  V30 8 C 38.740282 28.471149 51.423292 0
M  V30 9 C 38.657840 26.546524 56.602648 0
M  V30 10 C 38.066141 26.369199 54.091811 0
M  V30 11 N 42.773658 27.221429 58.253081 0 CHG=1
M  V30 12 S 38.667403 28.919047 53.132168 0
M  V30 13 C 37.462829 27.759647 53.829152 0
M  V30 14 H 39.948176 26.000353 58.210309 0
M  V30 15 H 39.557239 28.820095 49.493953 0
M  V30 16 H 39.662386 25.346908 55.121934 0
M  V30 17 H 39.942456 27.044372 54.908874 0
M  V30 18 H 41.839370 29.008693 58.795979 0
M  V30 19 H 41.193157 27.621425 59.621788 0
M  V30 20 H 38.109170 27.649207 51.116886 0
M  V30 21 H 37.994903 27.411433 56.649093 0
M  V30 22 H 38.061816 25.691549 56.923139 0
M  V30 23 H 37.273667 25.666799 54.351773 0
M  V30 24 H 38.485596 26.021430 53.151930 0
M  V30 25 H 43.438442 27.221296 59.016792 0
M  V30 26 H 42.555832 26.268017 57.987211 0
M  V30 27 H 37.067471 28.196801 54.741913 0
M  V30 28 H 36.623855 27.679175 53.137748 0
M  V30 29 H 43.179460 27.681172 57.450104 0
M  V30 END ATOM
M  V30 BEGIN BOND
M  V30 1 1 2 1
M  V30 2 2 4 1
M  V30 3 1 6 1
M  V30 4 1 7 3
M  V30 5 2 8 3
M  V30 6 1 9 2
M  V30 7 1 9 5
M  V30 8 1 10 5
M  V30 9 1 11 6
M  V30 10 1 12 8
M  V30 11 1 13 10
M  V30 12 1 13 12
M  V30 13 1 14 2
M  V30 14 1 15 3
M  V30 15 1 16 5
M  V30 16 1 17 5
M  V30 17 1 18 6
M  V30 18 1 19 6
M  V30 19 1 20 8
M  V30 20 1 21 9
M  V30 21 1 22 9
M  V30 22 1 23 10
M  V30 23 1 24 10
M  V30 24 1 25 11
M  V30 25 1 26 11
M  V30 26 1 27 13
M  V30 27 1 28 13
M  V30 28 1 29 11
M  V30 END BOND
M  V30 END CTAB
M  END
>  <i_epik_Tot_Q>  (1) 
1

>  <i_epik_Tot_abs_Q>  (1) 
1

>  <i_i_glide_confnum>  (1) 
123

>  <i_i_glide_lignum>  (1) 
183

>  <i_i_glide_posenum>  (1) 
333

>  <i_i_glide_rotatable_bonds>  (1) 
8

>  <i_lp_mmshare_version>  (1) 
72125

>  <i_m_source_file_index>  (1) 
74

>  <i_f3d_flags>  (1) 
0

>  <num_sample>  (1) 
100

>  <b_lp_Chiralities_Consistent>  (1) 
1

>  <r_epik_Charging_Adjusted_Penalty>  (1) 
0.46467811747974586

>  <r_epik_Ionization_Penalty>  (1) 
0.232341814366232

>  <r_epik_Ionization_Penalty_Charging>  (1) 
0.23233905873987296

>  <r_epik_Ionization_Penalty_Neutral>  (1) 
2.7556263590493095e-06

>  <r_epik_State_Penalty>  (1) 
0.23233905873987287

>  <r_glide_ring_energy>  (1) 
0

>  <r_i_docking_score>  (1) 
-2.3604499712610485

>  <r_i_glide_ecoul>  (1) 
-5.3321680402482894

>  <r_i_glide_eff_state_penalty>  (1) 
0.23233905873987287

>  <r_i_glide_einternal>  (1) 
4.1800002429369183

>  <r_i_glide_emodel>  (1) 
-34.648186565037889

>  <r_i_glide_emodel_strain>  (1) 
0.93111375125145557

>  <r_i_glide_energy>  (1) 
-30.586218149015075

>  <r_i_glide_erotb>  (1) 
4.7351388872927176

>  <r_i_glide_esite>  (1) 
-0.02037036520703036

>  <r_i_glide_evdw>  (1) 
-25.254050108766783

>  <r_i_glide_gscore>  (1) 
-2.5927890300009215

>  <r_i_glide_gscore_strain>  (1) 
0

>  <r_i_glide_hbond>  (1) 
0

>  <r_i_glide_ligand_efficiency>  (1) 
-0.18157307471238834

>  <r_i_glide_ligand_efficiency_ln>  (1) 
-0.66212720983555129

>  <r_i_glide_ligand_efficiency_sa>  (1) 
-0.42693906892735151

>  <r_i_glide_lipo>  (1) 
-2.7011902188344359

>  <r_i_glide_metal>  (1) 
-0

>  <r_i_glide_rewards>  (1) 
-2.5438396217765913

>  <r_lp_Energy>  (1) 
9.3388109999999998

>  <s_epik_cmdline>  (1) 
J2VwaWtfcHl0aG9uJywgJy1waHQnLCAnMS4wJywgJy1waCcsICc3LjQnLCAnLXRuJywgJzgnLCAnLW1hJywgJzUwMCcsICctaW1hZScsICc8aW5maWxlLm1hZT4nLCAnLW9tYWUnLCAnPG91dGZpbGUubWFlPic=

>  <s_epik_input>  (1) 
W05IMl1bQ0gyXUMoPU8pW05IXVtDSDJdW0NIMl1bQ0gyXVtDSDJdUy9bQ0hdPVtDSF1cQ2w=

>  <s_glide_docking_method>  (1) 
confgen

>  <s_i_glide_gridfile>  (1) 
gpcr_5ht2c_6bqh_protein_autoprepared_prepared

>  <s_lp_Force_Field>  (1) 
S-OPLS

>  <s_lp_Variant>  (1) 
DiffSBDD_73_num_sample_100-2

>  <s_m_source_file>  (1) 
generated__ligand_DiffSBDD_2026-05-06_prepared.sdf

>  <GenAI_Model>  (1) 
DiffSBDD

>  <Protein>  (1) 
GPCR_5HT2C

$$$$
DiffSBDD_93_num_sample_100
     RDKit          3D

  0  0  0  0  0  0  0  0  0  0999 V3000
M  V30 BEGIN CTAB
M  V30 COUNTS 74 77 0 0 1
M  V30 BEGIN ATOM
M  V30 1 C 43.799153 26.306330 68.673933 0
M  V30 2 S 41.519893 31.390699 67.127554 0
M  V30 3 C 42.417460 25.503552 70.671406 0 CFG=2
M  V30 4 O 39.450796 31.249696 62.264471 0
M  V30 5 C 41.886347 31.268169 71.715879 0
M  V30 6 C 41.405229 29.955174 63.979802 0 CFG=1
M  V30 7 C 44.007711 32.630394 69.833597 0
M  V30 8 C 43.814959 30.542215 68.530550 0
M  V30 9 C 43.699919 24.875270 71.232815 0
M  V30 10 N 43.660104 30.112302 66.038291 0 CHG=1
M  V30 11 C 42.475374 32.381042 72.579473 0
M  V30 12 C 42.646519 26.322850 69.405824 0
M  V30 13 C 43.938790 27.149860 67.446406 0
M  V30 14 C 42.967981 28.815876 65.781132 0 CFG=1
M  V30 15 C 44.552492 24.306514 70.103396 0
M  V30 16 Cl 46.284354 26.373132 69.843139 0
M  V30 17 O 42.294547 34.421459 71.297939 0
M  V30 18 C 44.963372 25.408930 69.116902 0 CFG=2
M  V30 19 C 45.252188 27.152619 66.664799 0
M  V30 20 C 41.251856 32.102972 65.467957 0
M  V30 21 C 40.747356 29.280284 62.751144 0
M  V30 22 C 42.909465 27.926463 67.012944 0
M  V30 23 C 44.398016 33.156648 71.198383 0
M  V30 24 C 40.554136 31.172464 64.445979 0 CFG=1
M  V30 25 C 43.315561 31.047639 67.135732 0 CFG=1
M  V30 26 C 43.190183 33.583425 72.000690 0 CFG=2
M  V30 27 C 40.136998 32.029683 63.230574 0
M  V30 28 C 40.299834 30.278898 61.676859 0
M  V30 29 C 42.325266 30.830569 70.503399 0
M  V30 30 S 44.372110 32.424190 66.653955 0 CHG=-1
M  V30 31 N 43.392516 31.305463 69.713179 0
M  V30 32 C 41.704166 26.345580 71.739199 0
M  V30 33 C 41.577493 28.908391 65.111325 0
M  V30 34 H 41.742122 24.695795 70.384654 0
M  V30 35 H 41.046634 30.754313 72.157512 0
M  V30 36 H 42.380409 30.315994 63.650799 0
M  V30 37 H 44.937377 32.613041 69.265848 0
M  V30 38 H 43.371562 33.347142 69.313196 0
M  V30 39 H 44.904410 30.488282 68.526964 0
M  V30 40 H 43.495401 29.524950 68.720765 0
M  V30 41 H 44.272616 25.620981 71.786404 0
M  V30 42 H 43.446807 24.087081 71.942687 0
M  V30 43 H 43.595605 30.664023 65.196763 0
M  V30 44 H 43.137980 31.892810 73.294943 0
M  V30 45 H 41.646608 32.757139 73.181330 0
M  V30 46 H 41.821149 26.939434 69.114013 0
M  V30 47 H 43.598020 28.336751 65.033712 0
M  V30 48 H 45.436105 23.806944 70.501776 0
M  V30 49 H 43.981076 23.541924 69.574790 0
M  V30 50 H 42.756654 35.202708 71.030163 0
M  V30 51 H 45.380779 24.900429 68.248950 0
M  V30 52 H 46.046647 26.533061 67.069345 0
M  V30 53 H 45.066884 26.821428 65.645313 0
M  V30 54 H 45.660087 28.162000 66.618504 0
M  V30 55 H 40.621814 32.977528 65.631947 0
M  V30 56 H 42.177770 32.494748 65.052066 0
M  V30 57 H 39.867507 28.714682 63.052436 0
M  V30 58 H 41.434898 28.555468 62.312492 0
M  V30 59 H 41.978953 27.946981 67.541475 0
M  V30 60 H 45.037767 34.028283 71.050333 0
M  V30 61 H 45.001983 32.427978 71.739659 0
M  V30 62 H 39.636489 30.794603 64.900881 0
M  V30 63 H 43.550821 34.176158 72.842682 0
M  V30 64 H 39.467400 32.826206 63.548288 0
M  V30 65 H 41.000758 32.515908 62.773421 0
M  V30 66 H 39.750877 29.759523 60.891267 0
M  V30 67 H 41.147878 30.765836 61.198481 0
M  V30 68 H 41.822751 29.993085 70.039041 0
M  V30 69 H 40.752270 26.726941 71.366895 0
M  V30 70 H 41.497002 25.753799 72.631501 0
M  V30 71 H 42.307663 27.203336 72.039669 0
M  V30 72 H 40.793820 29.041638 65.857182 0
M  V30 73 H 41.368749 27.913096 64.714510 0
M  V30 74 H 44.639724 29.912918 66.178549 0
M  V30 END ATOM
M  V30 BEGIN BOND
M  V30 1 1 9 3
M  V30 2 1 11 5
M  V30 3 2 12 1
M  V30 4 1 12 3
M  V30 5 1 13 1
M  V30 6 1 14 10
M  V30 7 1 15 9
M  V30 8 1 18 1
M  V30 9 1 18 15
M  V30 10 1 18 16
M  V30 11 1 19 13
M  V30 12 1 20 2
M  V30 13 1 21 6
M  V30 14 2 22 13
M  V30 15 1 22 14
M  V30 16 1 23 7
M  V30 17 1 24 6
M  V30 18 1 24 20
M  V30 19 1 25 2
M  V30 20 1 25 8
M  V30 21 1 25 10
M  V30 22 1 26 11
M  V30 23 1 26 17
M  V30 24 1 26 23
M  V30 25 1 27 4
M  V30 26 1 27 24
M  V30 27 1 28 4
M  V30 28 1 28 21
M  V30 29 2 29 5
M  V30 30 1 25 30 CFG=3
M  V30 31 1 31 7
M  V30 32 1 31 8
M  V30 33 1 31 29
M  V30 34 1 32 3
M  V30 35 1 33 6
M  V30 36 1 33 14
M  V30 37 1 3 34 CFG=3
M  V30 38 1 35 5
M  V30 39 1 6 36 CFG=3
M  V30 40 1 37 7
M  V30 41 1 38 7
M  V30 42 1 39 8
M  V30 43 1 40 8
M  V30 44 1 41 9
M  V30 45 1 42 9
M  V30 46 1 43 10
M  V30 47 1 44 11
M  V30 48 1 45 11
M  V30 49 1 46 12
M  V30 50 1 14 47 CFG=3
M  V30 51 1 48 15
M  V30 52 1 49 15
M  V30 53 1 50 17
M  V30 54 1 18 51 CFG=3
M  V30 55 1 52 19
M  V30 56 1 53 19
M  V30 57 1 54 19
M  V30 58 1 55 20
M  V30 59 1 56 20
M  V30 60 1 57 21
M  V30 61 1 58 21
M  V30 62 1 59 22
M  V30 63 1 60 23
M  V30 64 1 61 23
M  V30 65 1 24 62 CFG=1
M  V30 66 1 26 63 CFG=1
M  V30 67 1 64 27
M  V30 68 1 65 27
M  V30 69 1 66 28
M  V30 70 1 67 28
M  V30 71 1 68 29
M  V30 72 1 69 32
M  V30 73 1 70 32
M  V30 74 1 71 32
M  V30 75 1 72 33
M  V30 76 1 73 33
M  V30 77 1 74 10
M  V30 END BOND
M  V30 END CTAB
M  END
>  <i_epik_Tot_Q>  (1) 
0

>  <i_epik_Tot_abs_Q>  (1) 
2

>  <i_i_glide_confnum>  (1) 
65

>  <i_i_glide_lignum>  (1) 
257

>  <i_i_glide_posenum>  (1) 
141

>  <i_i_glide_rotatable_bonds>  (1) 
5

>  <i_lp_mmshare_version>  (1) 
72125

>  <i_m_source_file_index>  (1) 
94

>  <i_f3d_flags>  (1) 
0

>  <num_sample>  (1) 
100

>  <b_lp_Chiralities_Consistent>  (1) 
1

>  <r_epik_Charging_Adjusted_Penalty>  (1) 
0.80501984278308969

>  <r_epik_Ionization_Penalty>  (1) 
0.072421558423421364

>  <r_epik_Ionization_Penalty_Charging>  (1) 
0.072408791886815996

>  <r_epik_Ionization_Penalty_Neutral>  (1) 
1.2766536605372598e-05

>  <r_epik_State_Penalty>  (1) 
0.73261105089627365

>  <r_glide_ring_energy>  (1) 
0

>  <r_i_docking_score>  (1) 
-2.2746583211922804

>  <r_i_glide_ecoul>  (1) 
-2.0140407537852951

>  <r_i_glide_eff_state_penalty>  (1) 
0.73261105089627365

>  <r_i_glide_einternal>  (1) 
9.4681568621174605

>  <r_i_glide_emodel>  (1) 
-30.397174894711132

>  <r_i_glide_emodel_strain>  (1) 
0.32300767934673047

>  <r_i_glide_energy>  (1) 
-31.626246099513569

>  <r_i_glide_erotb>  (1) 
0.31140238833871409

>  <r_i_glide_esite>  (1) 
0

>  <r_i_glide_evdw>  (1) 
-29.612205345728274

>  <r_i_glide_gscore>  (1) 
-3.0072693720885542

>  <r_i_glide_gscore_strain>  (1) 
0

>  <r_i_glide_hbond>  (1) 
0

>  <r_i_glide_ligand_efficiency>  (1) 
-0.068929040036129707

>  <r_i_glide_ligand_efficiency_ln>  (1) 
-0.50587223308269691

>  <r_i_glide_ligand_efficiency_sa>  (1) 
-0.22109226224954281

>  <r_i_glide_lipo>  (1) 
-1.450885499878082

>  <r_i_glide_metal>  (1) 
-0

>  <r_i_glide_rewards>  (1) 
-0.085069880194978326

>  <r_lp_Energy>  (1) 
37.065154999999997

>  <s_epik_Chemistry_Notes>  (1) 
This compound has an imine and may undergo hydrolysis.

>  <s_epik_cmdline>  (1) 
J2VwaWtfcHl0aG9uJywgJy1waHQnLCAnMS4wJywgJy1waCcsICc3LjQnLCAnLXRuJywgJzgnLCAnLW1hJywgJzUwMCcsICctaW1hZScsICc8aW5maWxlLm1hZT4nLCAnLW9tYWUnLCAnPG91dGZpbGUubWFlPic=

>  <s_epik_input>  (1) 
Q2xbQ0BIXTFbQ0gyXVtDSDJdW0NAQEhdKFtDSDNdKVtDSF09QzEvQyhbQ0gzXSk9W0NIXS9bQ0BASF0oW0NIMl0yKVtOSF1bQ0BAXShbU0hdKShTW0NIMl1bQ0BIXShbQ0BASF0yMylbQ0gyXU9bQ0gyXVtDSDJdMylbQ0gyXU4oW0NIMl1bQ0gyXTQpW0NIXT1bQ0hdW0NIMl1bQ0BASF00W09IXQ==

>  <s_glide_docking_method>  (1) 
confgen

>  <s_i_glide_gridfile>  (1) 
gpcr_5ht2c_6bqh_protein_autoprepared_prepared

>  <s_lp_Force_Field>  (1) 
S-OPLS

>  <s_lp_Variant>  (1) 
DiffSBDD_93_num_sample_100-9

>  <s_m_source_file>  (1) 
generated__ligand_DiffSBDD_2026-05-06_prepared.sdf

>  <GenAI_Model>  (1) 
DiffSBDD

>  <Protein>  (1) 
GPCR_5HT2C

$$$$
DiffSBDD_93_num_sample_100
     RDKit          3D

  0  0  0  0  0  0  0  0  0  0999 V3000
M  V30 BEGIN CTAB
M  V30 COUNTS 74 77 0 0 1
M  V30 BEGIN ATOM
M  V30 1 C 38.682443 28.805190 56.391599 0
M  V30 2 S 36.383385 32.110209 61.456438 0
M  V30 3 C 39.069501 26.483364 57.346936 0 CFG=2
M  V30 4 O 41.463976 30.613526 62.145714 0
M  V30 5 C 36.482562 37.187025 60.079521 0
M  V30 6 C 39.018217 29.907394 60.907913 0 CFG=1
M  V30 7 C 38.257040 34.880826 61.045448 0
M  V30 8 C 37.299206 33.612913 59.183685 0
M  V30 9 C 38.500739 25.879287 56.048647 0
M  V30 10 N 36.277162 31.277542 59.053450 0 CHG=1
M  V30 11 C 37.619616 37.885974 60.816251 0
M  V30 12 C 39.141263 28.005081 57.370342 0
M  V30 13 C 38.872082 30.258012 56.501918 0
M  V30 14 C 37.459058 30.428510 58.692800 0 CFG=1
M  V30 15 C 37.452164 26.784491 55.460651 0
M  V30 16 Cl 39.006902 28.154182 53.703463 0
M  V30 17 O 39.651954 38.126884 61.942399 0
M  V30 18 C 37.992164 28.203069 55.167801 0 CFG=2
M  V30 19 C 39.664166 30.981642 55.422178 0
M  V30 20 C 38.026905 31.902530 62.192250 0
M  V30 21 C 40.343779 29.192000 60.645553 0
M  V30 22 C 38.365269 30.974065 57.555814 0
M  V30 23 C 39.300307 35.942445 61.134861 0
M  V30 24 C 39.217010 31.358137 61.392414 0 CFG=1
M  V30 25 C 36.286357 32.573517 59.746973 0 CFG=1
M  V30 26 C 38.639284 37.182651 61.700385 0 CFG=2
M  V30 27 C 40.358475 31.425423 62.447398 0
M  V30 28 C 41.129380 29.252864 61.958092 0
M  V30 29 C 36.445550 35.900560 59.660790 0
M  V30 30 S 34.603274 33.192617 59.458538 0 CHG=-1
M  V30 31 N 37.385521 34.892479 59.888722 0
M  V30 32 C 40.481602 25.943267 57.500393 0
M  V30 33 C 37.903347 29.584934 59.897404 0
M  V30 34 H 38.464098 26.178940 58.202890 0
M  V30 35 H 35.648332 37.815520 59.840469 0
M  V30 36 H 38.670020 29.387783 61.795152 0
M  V30 37 H 37.628725 34.862709 61.933755 0
M  V30 38 H 38.824156 33.964214 61.039794 0
M  V30 39 H 37.058884 33.820311 58.139703 0
M  V30 40 H 38.300188 33.200042 59.171830 0
M  V30 41 H 39.271114 25.709895 55.293273 0
M  V30 42 H 38.060640 24.907640 56.278177 0
M  V30 43 H 35.582473 30.717306 59.521271 0
M  V30 44 H 37.140290 38.644978 61.433352 0
M  V30 45 H 38.139330 38.449099 60.039873 0
M  V30 46 H 39.642730 28.442926 58.214254 0
M  V30 47 H 36.889674 29.693372 58.122253 0
M  V30 48 H 36.995793 26.336639 54.577140 0
M  V30 49 H 36.704252 26.799025 56.245175 0
M  V30 50 H 40.265366 37.769897 62.565570 0
M  V30 51 H 37.152403 28.855400 54.929762 0
M  V30 52 H 39.020912 31.251373 54.587085 0
M  V30 53 H 40.131339 31.893775 55.793272 0
M  V30 54 H 40.462260 30.340100 55.040683 0
M  V30 55 H 38.295974 32.834678 62.680113 0
M  V30 56 H 37.865525 31.207392 63.014046 0
M  V30 57 H 40.895917 29.661024 59.830562 0
M  V30 58 H 40.178484 28.151612 60.362924 0
M  V30 59 H 38.579410 32.025149 57.593662 0
M  V30 60 H 39.838161 36.021255 60.193569 0
M  V30 61 H 40.035731 35.604244 61.867237 0
M  V30 62 H 39.474567 31.991981 60.547559 0
M  V30 63 H 38.159619 36.946826 62.651475 0
M  V30 64 H 40.706384 32.451028 62.567745 0
M  V30 65 H 40.016190 31.109259 63.434798 0
M  V30 66 H 42.040383 28.665383 61.921519 0
M  V30 67 H 40.547825 28.862793 62.798893 0
M  V30 68 H 35.602096 35.556187 59.080589 0
M  V30 69 H 40.997229 26.383423 58.348994 0
M  V30 70 H 40.462694 24.857772 57.599856 0
M  V30 71 H 41.066193 26.191840 56.610548 0
M  V30 72 H 37.968140 28.534948 59.628719 0
M  V30 73 H 36.996306 29.626911 60.487606 0
M  V30 74 H 35.867351 31.531675 58.141024 0
M  V30 END ATOM
M  V30 BEGIN BOND
M  V30 1 1 9 3
M  V30 2 1 11 5
M  V30 3 2 12 1
M  V30 4 1 12 3
M  V30 5 1 13 1
M  V30 6 1 14 10
M  V30 7 1 15 9
M  V30 8 1 18 1
M  V30 9 1 18 15
M  V30 10 1 18 16
M  V30 11 1 19 13
M  V30 12 1 20 2
M  V30 13 1 21 6
M  V30 14 2 22 13
M  V30 15 1 22 14
M  V30 16 1 23 7
M  V30 17 1 24 6
M  V30 18 1 24 20
M  V30 19 1 25 2
M  V30 20 1 25 8
M  V30 21 1 25 10
M  V30 22 1 26 11
M  V30 23 1 26 17
M  V30 24 1 26 23
M  V30 25 1 27 4
M  V30 26 1 27 24
M  V30 27 1 28 4
M  V30 28 1 28 21
M  V30 29 2 29 5
M  V30 30 1 25 30 CFG=1
M  V30 31 1 31 7
M  V30 32 1 31 8
M  V30 33 1 31 29
M  V30 34 1 32 3
M  V30 35 1 33 6
M  V30 36 1 33 14
M  V30 37 1 3 34 CFG=1
M  V30 38 1 35 5
M  V30 39 1 6 36 CFG=1
M  V30 40 1 37 7
M  V30 41 1 38 7
M  V30 42 1 39 8
M  V30 43 1 40 8
M  V30 44 1 41 9
M  V30 45 1 42 9
M  V30 46 1 43 10
M  V30 47 1 44 11
M  V30 48 1 45 11
M  V30 49 1 46 12
M  V30 50 1 14 47 CFG=3
M  V30 51 1 48 15
M  V30 52 1 49 15
M  V30 53 1 50 17
M  V30 54 1 18 51 CFG=3
M  V30 55 1 52 19
M  V30 56 1 53 19
M  V30 57 1 54 19
M  V30 58 1 55 20
M  V30 59 1 56 20
M  V30 60 1 57 21
M  V30 61 1 58 21
M  V30 62 1 59 22
M  V30 63 1 60 23
M  V30 64 1 61 23
M  V30 65 1 24 62 CFG=3
M  V30 66 1 26 63 CFG=1
M  V30 67 1 64 27
M  V30 68 1 65 27
M  V30 69 1 66 28
M  V30 70 1 67 28
M  V30 71 1 68 29
M  V30 72 1 69 32
M  V30 73 1 70 32
M  V30 74 1 71 32
M  V30 75 1 72 33
M  V30 76 1 73 33
M  V30 77 1 74 10
M  V30 END BOND
M  V30 END CTAB
M  END
>  <i_epik_Tot_Q>  (1) 
0

>  <i_epik_Tot_abs_Q>  (1) 
2

>  <i_i_glide_confnum>  (1) 
60

>  <i_i_glide_lignum>  (1) 
258

>  <i_i_glide_posenum>  (1) 
132

>  <i_i_glide_rotatable_bonds>  (1) 
5

>  <i_lp_mmshare_version>  (1) 
72125

>  <i_m_source_file_index>  (1) 
94

>  <i_f3d_flags>  (1) 
0

>  <num_sample>  (1) 
100

>  <b_lp_Chiralities_Consistent>  (1) 
1

>  <r_epik_Charging_Adjusted_Penalty>  (1) 
0.80501984278308969

>  <r_epik_Ionization_Penalty>  (1) 
0.072421558423421364

>  <r_epik_Ionization_Penalty_Charging>  (1) 
0.072408791886815996

>  <r_epik_Ionization_Penalty_Neutral>  (1) 
1.2766536605372598e-05

>  <r_epik_State_Penalty>  (1) 
0.73261105089627365

>  <r_glide_ring_energy>  (1) 
0

>  <r_i_docking_score>  (1) 
-2.2168888966967155

>  <r_i_glide_ecoul>  (1) 
-11.551752835023532

>  <r_i_glide_eff_state_penalty>  (1) 
0.73261105089627365

>  <r_i_glide_einternal>  (1) 
28.723425060614073

>  <r_i_glide_emodel>  (1) 
-1.4000331000747863

>  <r_i_glide_emodel_strain>  (1) 
21.780298284172261

>  <r_i_glide_energy>  (1) 
-33.847477130175037

>  <r_i_glide_erotb>  (1) 
0.31140238833871409

>  <r_i_glide_esite>  (1) 
-0.10000000000000001

>  <r_i_glide_evdw>  (1) 
-22.295724295151501

>  <r_i_glide_gscore>  (1) 
-2.9494999475929893

>  <r_i_glide_gscore_strain>  (1) 
4.4450745710430652

>  <r_i_glide_hbond>  (1) 
-0.43382590112858876

>  <r_i_glide_ligand_efficiency>  (1) 
-0.067178451415051979

>  <r_i_glide_ligand_efficiency_ln>  (1) 
-0.4930246121889551

>  <r_i_glide_ligand_efficiency_sa>  (1) 
-0.21547718914973596

>  <r_i_glide_lipo>  (1) 
-3.450011640712384

>  <r_i_glide_metal>  (1) 
-0

>  <r_i_glide_rewards>  (1) 
-0.87459022512269047

>  <r_lp_Energy>  (1) 
40.875704999999996

>  <s_epik_Chemistry_Notes>  (1) 
This compound has an imine and may undergo hydrolysis.

>  <s_epik_cmdline>  (1) 
J2VwaWtfcHl0aG9uJywgJy1waHQnLCAnMS4wJywgJy1waCcsICc3LjQnLCAnLXRuJywgJzgnLCAnLW1hJywgJzUwMCcsICctaW1hZScsICc8aW5maWxlLm1hZT4nLCAnLW9tYWUnLCAnPG91dGZpbGUubWFlPic=

>  <s_epik_input>  (1) 
Q2xbQ0BIXTFbQ0gyXVtDSDJdW0NAQEhdKFtDSDNdKVtDSF09QzEvQyhbQ0gzXSk9W0NIXVxbQ0BASF0oW0NIMl0yKVtOSF1bQ0BAXShbU0hdKShTW0NIMl1bQ0BIXShbQ0BASF0yMylbQ0gyXU9bQ0gyXVtDSDJdMylbQ0gyXU4oW0NIMl1bQ0gyXTQpW0NIXT1bQ0hdW0NIMl1bQ0BASF00W09IXQ==

>  <s_glide_docking_method>  (1) 
confgen

>  <s_i_glide_gridfile>  (1) 
gpcr_5ht2c_6bqh_protein_autoprepared_prepared

>  <s_lp_Force_Field>  (1) 
S-OPLS

>  <s_lp_Variant>  (1) 
DiffSBDD_93_num_sample_100-10

>  <s_m_source_file>  (1) 
generated__ligand_DiffSBDD_2026-05-06_prepared.sdf

>  <GenAI_Model>  (1) 
DiffSBDD

>  <Protein>  (1) 
GPCR_5HT2C

$$$$
DiffSBDD_3_num_sample_100
     RDKit          3D

  0  0  0  0  0  0  0  0  0  0999 V3000
M  V30 BEGIN CTAB
M  V30 COUNTS 17 16 0 0 1
M  V30 BEGIN ATOM
M  V30 1 O 38.678435 28.043659 52.426331 0
M  V30 2 C 39.832441 28.714359 51.946420 0
M  V30 3 O 40.664934 30.021698 50.090539 0
M  V30 4 C 39.533585 29.327683 50.577770 0
M  V30 5 S 37.866466 25.280937 55.257656 0
M  V30 6 S 38.566206 26.212409 56.929048 0 CHG=-1
M  V30 7 C 37.620416 26.608628 54.042532 0
M  V30 8 C 38.941703 27.213068 53.550144 0
M  V30 9 H 40.666671 28.021539 51.853500 0
M  V30 10 H 40.123471 29.491398 52.653796 0
M  V30 11 H 40.818258 30.778041 50.636688 0
M  V30 12 H 38.698914 30.019185 50.653306 0
M  V30 13 H 39.251613 28.550235 49.866960 0
M  V30 14 H 36.992956 27.384911 54.478748 0
M  V30 15 H 37.069823 26.190872 53.200149 0
M  V30 16 H 39.633618 26.421600 53.259903 0
M  V30 17 H 39.413345 27.783751 54.351984 0
M  V30 END ATOM
M  V30 BEGIN BOND
M  V30 1 1 2 1
M  V30 2 1 4 2
M  V30 3 1 4 3
M  V30 4 1 6 5
M  V30 5 1 7 5
M  V30 6 1 8 1
M  V30 7 1 8 7
M  V30 8 1 9 2
M  V30 9 1 10 2
M  V30 10 1 11 3
M  V30 11 1 12 4
M  V30 12 1 13 4
M  V30 13 1 14 7
M  V30 14 1 15 7
M  V30 15 1 16 8
M  V30 16 1 17 8
M  V30 END BOND
M  V30 END CTAB
M  END
>  <i_epik_Tot_Q>  (1) 
-1

>  <i_epik_Tot_abs_Q>  (1) 
1

>  <i_i_glide_confnum>  (1) 
30

>  <i_i_glide_lignum>  (1) 
21

>  <i_i_glide_posenum>  (1) 
331

>  <i_i_glide_rotatable_bonds>  (1) 
6

>  <i_lp_mmshare_version>  (1) 
72125

>  <i_m_source_file_index>  (1) 
4

>  <i_f3d_flags>  (1) 
0

>  <num_sample>  (1) 
100

>  <b_lp_Chiralities_Consistent>  (1) 
1

>  <r_epik_Charging_Adjusted_Penalty>  (1) 
0.00058921996017037321

>  <r_epik_Ionization_Penalty>  (1) 
0.0005892715023935103

>  <r_epik_Ionization_Penalty_Charging>  (1) 
0.00058921996017037321

>  <r_epik_Ionization_Penalty_Neutral>  (1) 
5.1542223137146341e-08

>  <r_epik_State_Penalty>  (1) 
-0

>  <r_glide_ring_energy>  (1) 
0

>  <r_i_docking_score>  (1) 
-2.1943495724229107

>  <r_i_glide_ecoul>  (1) 
-0.55186141451684645

>  <r_i_glide_eff_state_penalty>  (1) 
-0

>  <r_i_glide_einternal>  (1) 
1.1979439524720203

>  <r_i_glide_emodel>  (1) 
-20.630949093826935

>  <r_i_glide_emodel_strain>  (1) 
0

>  <r_i_glide_energy>  (1) 
-17.93820706582925

>  <r_i_glide_erotb>  (1) 
2.5252674985507193

>  <r_i_glide_esite>  (1) 
0

>  <r_i_glide_evdw>  (1) 
-17.386345651312404

>  <r_i_glide_gscore>  (1) 
-2.1943495724229107

>  <r_i_glide_gscore_strain>  (1) 
0

>  <r_i_glide_hbond>  (1) 
0

>  <r_i_glide_ligand_efficiency>  (1) 
-0.27429369655286384

>  <r_i_glide_ligand_efficiency_ln>  (1) 
-0.71258036326479268

>  <r_i_glide_ligand_efficiency_sa>  (1) 
-0.54858739310572779

>  <r_i_glide_lipo>  (1) 
-1.5175205762304829

>  <r_i_glide_metal>  (1) 
-0

>  <r_i_glide_rewards>  (1) 
-2.25

>  <r_lp_Energy>  (1) 
3.2647040000000001

>  <r_lp_tautomer_probability>  (1) 
1

>  <s_epik_cmdline>  (1) 
J2VwaWtfcHl0aG9uJywgJy1waHQnLCAnMS4wJywgJy1waCcsICc3LjQnLCAnLXRuJywgJzgnLCAnLW1hJywgJzUwMCcsICctaW1hZScsICc8aW5maWxlLm1hZT4nLCAnLW9tYWUnLCAnPG91dGZpbGUubWFlPic=

>  <s_epik_input>  (1) 
W09IXVtDSDJdW0NIMl1PW0NIMl1bQ0gyXVNbU0hd

>  <s_glide_docking_method>  (1) 
confgen

>  <s_i_glide_gridfile>  (1) 
gpcr_5ht2c_6bqh_protein_autoprepared_prepared

>  <s_lp_Force_Field>  (1) 
S-OPLS

>  <s_lp_Variant>  (1) 
DiffSBDD_3_num_sample_100-1

>  <s_m_source_file>  (1) 
generated__ligand_DiffSBDD_2026-05-06_prepared.sdf

>  <GenAI_Model>  (1) 
DiffSBDD

>  <Protein>  (1) 
GPCR_5HT2C

$$$$
DiffSBDD_73_num_sample_100
     RDKit          3D

  0  0  0  0  0  0  0  0  0  0999 V3000
M  V30 BEGIN CTAB
M  V30 COUNTS 29 28 0 0 1
M  V30 BEGIN ATOM
M  V30 1 C 36.199890 31.578026 60.178342 0
M  V30 2 N 36.667406 31.002619 59.053502 0
M  V30 3 C 38.942113 28.766352 51.296172 0
M  V30 4 O 36.667405 31.350724 61.293550 0
M  V30 5 C 38.604675 30.170480 57.758915 0
M  V30 6 C 35.039126 32.559242 60.019678 0
M  V30 7 Cl 39.978248 29.221428 49.994464 0
M  V30 8 C 39.067423 29.277797 52.527797 0
M  V30 9 C 37.791303 30.068519 59.057849 0
M  V30 10 C 37.901309 29.560026 56.536597 0
M  V30 11 N 35.356261 33.621429 59.053499 0 CHG=1
M  V30 12 S 38.006630 28.821343 53.861315 0
M  V30 13 C 38.735639 29.715159 55.259027 0
M  V30 14 H 36.226293 31.221433 58.153346 0
M  V30 15 H 38.181952 28.039262 51.048925 0
M  V30 16 H 39.555791 29.656396 57.904055 0
M  V30 17 H 38.855115 31.214359 57.563450 0
M  V30 18 H 34.156189 32.021428 59.675806 0
M  V30 19 H 34.797421 33.007691 60.984338 0
M  V30 20 H 39.836437 30.003010 52.752305 0
M  V30 21 H 37.423620 29.052598 59.201687 0
M  V30 22 H 38.461393 30.277577 59.893967 0
M  V30 23 H 36.924086 30.021429 56.389220 0
M  V30 24 H 37.719124 28.501353 56.724205 0
M  V30 25 H 34.601689 34.289833 58.999242 0
M  V30 26 H 36.218114 34.082650 59.305408 0
M  V30 27 H 39.745919 29.335458 55.416287 0
M  V30 28 H 38.825988 30.770230 54.997716 0
M  V30 29 H 35.467403 33.156222 58.150741 0
M  V30 END ATOM
M  V30 BEGIN BOND
M  V30 1 1 2 1
M  V30 2 2 4 1
M  V30 3 1 6 1
M  V30 4 1 7 3
M  V30 5 2 8 3
M  V30 6 1 9 2
M  V30 7 1 9 5
M  V30 8 1 10 5
M  V30 9 1 11 6
M  V30 10 1 12 8
M  V30 11 1 13 10
M  V30 12 1 13 12
M  V30 13 1 14 2
M  V30 14 1 15 3
M  V30 15 1 16 5
M  V30 16 1 17 5
M  V30 17 1 18 6
M  V30 18 1 19 6
M  V30 19 1 20 8
M  V30 20 1 21 9
M  V30 21 1 22 9
M  V30 22 1 23 10
M  V30 23 1 24 10
M  V30 24 1 25 11
M  V30 25 1 26 11
M  V30 26 1 27 13
M  V30 27 1 28 13
M  V30 28 1 29 11
M  V30 END BOND
M  V30 END CTAB
M  END
>  <i_epik_Tot_Q>  (1) 
1

>  <i_epik_Tot_abs_Q>  (1) 
1

>  <i_i_glide_confnum>  (1) 
27

>  <i_i_glide_lignum>  (1) 
182

>  <i_i_glide_posenum>  (1) 
300

>  <i_i_glide_rotatable_bonds>  (1) 
8

>  <i_lp_mmshare_version>  (1) 
72125

>  <i_m_source_file_index>  (1) 
74

>  <i_f3d_flags>  (1) 
0

>  <num_sample>  (1) 
100

>  <b_lp_Chiralities_Consistent>  (1) 
1

>  <r_epik_Charging_Adjusted_Penalty>  (1) 
0.46467811747974586

>  <r_epik_Ionization_Penalty>  (1) 
0.232341814366232

>  <r_epik_Ionization_Penalty_Charging>  (1) 
0.23233905873987296

>  <r_epik_Ionization_Penalty_Neutral>  (1) 
2.7556263590493095e-06

>  <r_epik_State_Penalty>  (1) 
0.23233905873987287

>  <r_glide_ring_energy>  (1) 
0

>  <r_i_docking_score>  (1) 
-2.126659523113247

>  <r_i_glide_ecoul>  (1) 
-10.579441607954809

>  <r_i_glide_eff_state_penalty>  (1) 
0.23233905873987287

>  <r_i_glide_einternal>  (1) 
5.0222724813215187

>  <r_i_glide_emodel>  (1) 
-36.137540134363007

>  <r_i_glide_emodel_strain>  (1) 
1.1237339511719631

>  <r_i_glide_energy>  (1) 
-32.769502732231544

>  <r_i_glide_erotb>  (1) 
4.7351388872927176

>  <r_i_glide_esite>  (1) 
-0.25141347582008444

>  <r_i_glide_evdw>  (1) 
-22.190061124276731

>  <r_i_glide_gscore>  (1) 
-2.3589985818531201

>  <r_i_glide_gscore_strain>  (1) 
0

>  <r_i_glide_hbond>  (1) 
-0.65599999999999992

>  <r_i_glide_ligand_efficiency>  (1) 
-0.16358919408563438

>  <r_i_glide_ligand_efficiency_ln>  (1) 
-0.59654690989146597

>  <r_i_glide_ligand_efficiency_sa>  (1) 
-0.38465294658983556

>  <r_i_glide_lipo>  (1) 
-1.3570161769007119

>  <r_i_glide_metal>  (1) 
-0

>  <r_i_glide_rewards>  (1) 
-2.1332885190179836

>  <r_lp_Energy>  (1) 
10.166019

>  <s_epik_cmdline>  (1) 
J2VwaWtfcHl0aG9uJywgJy1waHQnLCAnMS4wJywgJy1waCcsICc3LjQnLCAnLXRuJywgJzgnLCAnLW1hJywgJzUwMCcsICctaW1hZScsICc8aW5maWxlLm1hZT4nLCAnLW9tYWUnLCAnPG91dGZpbGUubWFlPic=

>  <s_epik_input>  (1) 
W05IMl1bQ0gyXUMoPU8pW05IXVtDSDJdW0NIMl1bQ0gyXVtDSDJdU1xbQ0hdPVtDSF1cQ2w=

>  <s_glide_docking_method>  (1) 
confgen

>  <s_i_glide_gridfile>  (1) 
gpcr_5ht2c_6bqh_protein_autoprepared_prepared

>  <s_lp_Force_Field>  (1) 
S-OPLS

>  <s_lp_Variant>  (1) 
DiffSBDD_73_num_sample_100-1

>  <s_m_source_file>  (1) 
generated__ligand_DiffSBDD_2026-05-06_prepared.sdf

>  <GenAI_Model>  (1) 
DiffSBDD

>  <Protein>  (1) 
GPCR_5HT2C

$$$$
DiffSBDD_73_num_sample_100
     RDKit          3D

  0  0  0  0  0  0  0  0  0  0999 V3000
M  V30 BEGIN CTAB
M  V30 COUNTS 29 28 0 0 1
M  V30 BEGIN ATOM
M  V30 1 C 38.261356 30.345067 58.005405 0
M  V30 2 N 37.867716 31.545723 57.543955 0
M  V30 3 C 40.099954 29.465648 50.845864 0
M  V30 4 O 39.440882 30.021444 58.122302 0
M  V30 5 C 38.407054 33.096659 55.724027 0
M  V30 6 C 37.161492 29.366727 58.390702 0
M  V30 7 Cl 40.934316 30.021430 49.453502 0
M  V30 8 C 39.926324 30.231590 51.927326 0
M  V30 9 C 38.804569 32.576093 57.111269 0
M  V30 10 C 38.231402 31.994600 54.651151 0
M  V30 11 N 35.869096 30.021323 58.653489 0 CHG=1
M  V30 12 S 39.068452 29.671961 53.363238 0
M  V30 13 C 39.404109 31.002826 54.545811 0
M  V30 14 H 36.871595 31.745266 57.449018 0
M  V30 15 H 39.726086 28.454970 50.786366 0
M  V30 16 H 39.154549 33.826485 55.416312 0
M  V30 17 H 37.467571 33.649079 55.810272 0
M  V30 18 H 37.058508 28.644493 57.582416 0
M  V30 19 H 37.478053 28.824575 59.278788 0
M  V30 20 H 40.314026 31.240247 51.957943 0
M  V30 21 H 39.833892 32.220307 57.054602 0
M  V30 22 H 38.800060 33.391945 57.831670 0
M  V30 23 H 38.080181 32.465326 53.681360 0
M  V30 24 H 37.313885 31.441298 54.859471 0
M  V30 25 H 35.156730 29.328672 58.817935 0
M  V30 26 H 35.966287 30.618744 59.462218 0
M  V30 27 H 39.597187 30.517047 55.500990 0
M  V30 28 H 40.324108 31.523298 54.280003 0
M  V30 29 H 35.593836 30.618041 57.860485 0
M  V30 END ATOM
M  V30 BEGIN BOND
M  V30 1 1 2 1
M  V30 2 2 4 1
M  V30 3 1 6 1
M  V30 4 1 7 3
M  V30 5 2 8 3
M  V30 6 1 9 2
M  V30 7 1 9 5
M  V30 8 1 10 5
M  V30 9 1 11 6
M  V30 10 1 12 8
M  V30 11 1 13 10
M  V30 12 1 13 12
M  V30 13 1 14 2
M  V30 14 1 15 3
M  V30 15 1 16 5
M  V30 16 1 17 5
M  V30 17 1 18 6
M  V30 18 1 19 6
M  V30 19 1 20 8
M  V30 20 1 21 9
M  V30 21 1 22 9
M  V30 22 1 23 10
M  V30 23 1 24 10
M  V30 24 1 25 11
M  V30 25 1 26 11
M  V30 26 1 27 13
M  V30 27 1 28 13
M  V30 28 1 29 11
M  V30 END BOND
M  V30 END CTAB
M  END
>  <i_epik_Tot_Q>  (1) 
1

>  <i_epik_Tot_abs_Q>  (1) 
1

>  <i_i_glide_confnum>  (1) 
185

>  <i_i_glide_lignum>  (1) 
182

>  <i_i_glide_posenum>  (1) 
50

>  <i_i_glide_rotatable_bonds>  (1) 
8

>  <i_lp_mmshare_version>  (1) 
72125

>  <i_m_source_file_index>  (1) 
74

>  <i_f3d_flags>  (1) 
0

>  <num_sample>  (1) 
100

>  <b_lp_Chiralities_Consistent>  (1) 
1

>  <r_epik_Charging_Adjusted_Penalty>  (1) 
0.46467811747974586

>  <r_epik_Ionization_Penalty>  (1) 
0.232341814366232

>  <r_epik_Ionization_Penalty_Charging>  (1) 
0.23233905873987296

>  <r_epik_Ionization_Penalty_Neutral>  (1) 
2.7556263590493095e-06

>  <r_epik_State_Penalty>  (1) 
0.23233905873987287

>  <r_glide_ring_energy>  (1) 
0

>  <r_i_docking_score>  (1) 
-2.0658913972300432

>  <r_i_glide_ecoul>  (1) 
-10.262987757347442

>  <r_i_glide_eff_state_penalty>  (1) 
0.23233905873987287

>  <r_i_glide_einternal>  (1) 
6.0060712021464102

>  <r_i_glide_emodel>  (1) 
-32.961555801798113

>  <r_i_glide_emodel_strain>  (1) 
0.80525957855950647

>  <r_i_glide_energy>  (1) 
-29.947339244205207

>  <r_i_glide_erotb>  (1) 
4.7351388872927176

>  <r_i_glide_esite>  (1) 
-0.24934020607351881

>  <r_i_glide_evdw>  (1) 
-19.684351486857764

>  <r_i_glide_gscore>  (1) 
-2.2982304559699163

>  <r_i_glide_gscore_strain>  (1) 
0

>  <r_i_glide_hbond>  (1) 
-0.35999999999999999

>  <r_i_glide_ligand_efficiency>  (1) 
-0.15891472286384947

>  <r_i_glide_ligand_efficiency_ln>  (1) 
-0.57950091013384974

>  <r_i_glide_ligand_efficiency_sa>  (1) 
-0.37366170025930029

>  <r_i_glide_lipo>  (1) 
-1.4457888537482342

>  <r_i_glide_metal>  (1) 
-0

>  <r_i_glide_rewards>  (1) 
-2.4545745454958765

>  <r_lp_Energy>  (1) 
10.166019

>  <s_epik_cmdline>  (1) 
J2VwaWtfcHl0aG9uJywgJy1waHQnLCAnMS4wJywgJy1waCcsICc3LjQnLCAnLXRuJywgJzgnLCAnLW1hJywgJzUwMCcsICctaW1hZScsICc8aW5maWxlLm1hZT4nLCAnLW9tYWUnLCAnPG91dGZpbGUubWFlPic=

>  <s_epik_input>  (1) 
W05IMl1bQ0gyXUMoPU8pW05IXVtDSDJdW0NIMl1bQ0gyXVtDSDJdU1xbQ0hdPVtDSF1cQ2w=

>  <s_glide_docking_method>  (1) 
confgen

>  <s_i_glide_gridfile>  (1) 
gpcr_5ht2c_6bqh_protein_autoprepared_prepared

>  <s_lp_Force_Field>  (1) 
S-OPLS

>  <s_lp_Variant>  (1) 
DiffSBDD_73_num_sample_100-1

>  <s_m_source_file>  (1) 
generated__ligand_DiffSBDD_2026-05-06_prepared.sdf

>  <GenAI_Model>  (1) 
DiffSBDD

>  <Protein>  (1) 
GPCR_5HT2C

$$$$
DiffSBDD_66_num_sample_100
     RDKit          3D

  0  0  0  0  0  0  0  0  0  0999 V3000
M  V30 BEGIN CTAB
M  V30 COUNTS 111 115 0 0 1
M  V30 BEGIN ATOM
M  V30 1 C 40.519608 34.597811 67.679150 0
M  V30 2 C 39.638270 32.387384 61.054616 0
M  V30 3 C 36.079227 39.950663 62.251157 0
M  V30 4 C 33.948522 32.575174 59.454955 0
M  V30 5 C 38.305266 27.103404 52.378612 0
M  V30 6 C 37.978839 25.587171 54.553862 0
M  V30 7 C 36.705525 37.641470 62.669230 0
M  V30 8 S 37.361259 33.619063 59.155829 0
M  V30 9 C 39.045709 33.712693 61.449030 0 CFG=1
M  V30 10 C 39.657692 35.746950 67.332943 0
M  V30 11 C 41.581261 35.578936 64.936761 0
M  V30 12 C 40.420663 36.251596 64.951442 0
M  V30 13 C 39.467370 28.840753 53.790491 0
M  V30 14 C 41.206666 32.778259 68.694909 0
M  V30 15 C 38.393136 29.825859 59.692740 0 CFG=2
M  V30 16 C 42.288269 35.005079 66.090667 0
M  V30 17 C 39.931037 36.854543 63.650790 0
M  V30 18 O 40.141101 27.376737 55.691574 0
M  V30 19 C 38.688128 36.607307 61.479870 0 CFG=1
M  V30 20 N 40.248337 33.755164 68.652979 0 CHG=1
M  V30 21 C 35.865465 38.733662 62.921149 0
M  V30 22 C 37.766441 37.771873 61.742071 0
M  V30 23 C 39.627998 27.619617 52.903321 0
M  V30 24 C 43.388688 32.399693 67.285066 0
M  V30 25 C 39.615439 36.456385 66.171710 0
M  V30 26 C 36.957660 30.153051 60.254132 0
M  V30 27 C 37.387437 26.511051 53.474881 0 CFG=1
M  V30 28 C 38.675664 30.600040 58.372989 0
M  V30 29 C 39.177049 35.881117 62.730794 0 CFG=1
M  V30 30 C 39.974276 34.606012 62.297409 0 CFG=2
M  V30 31 C 34.880166 31.796497 61.723739 0
M  V30 32 C 39.537750 29.887417 57.390117 0
M  V30 33 N 41.647953 34.237959 67.102658 0
M  V30 34 C 37.952064 38.985977 61.051990 0
M  V30 35 C 42.123300 33.079387 67.701305 0
M  V30 36 C 38.490119 28.300673 59.428034 0
M  V30 37 O 36.772782 27.621314 54.067029 0
M  V30 38 C 39.507552 30.097634 60.770341 0
M  V30 39 C 35.893778 31.018320 59.528960 0
M  V30 40 C 35.188751 32.192594 60.272401 0
M  V30 41 C 38.574350 34.454011 60.166277 0 CFG=2
M  V30 42 N 39.249028 31.294692 61.539423 0
M  V30 43 C 39.084025 29.414809 56.227087 0
M  V30 44 C 35.994181 33.493620 60.343232 0
M  V30 45 C 37.106231 40.074246 61.311469 0
M  V30 46 C 41.292398 34.910669 61.540846 0
M  V30 47 C 38.962252 29.974169 53.306413 0
M  V30 48 C 39.940894 28.703334 55.248858 0 CFG=2
M  V30 49 C 37.945918 35.791584 60.466578 0
M  V30 50 H 40.412688 32.439560 60.288031 0
M  V30 51 H 35.468157 40.792200 62.460502 0
M  V30 52 H 34.227927 33.211256 58.618803 0
M  V30 53 H 33.211050 33.143719 60.024727 0
M  V30 54 H 33.524813 31.685466 59.018149 0
M  V30 55 H 37.775428 27.895046 51.839558 0
M  V30 56 H 38.575477 26.421523 51.587630 0
M  V30 57 H 38.972205 25.223673 54.301629 0
M  V30 58 H 37.331833 24.720219 54.689296 0
M  V30 59 H 38.027948 26.075638 55.525738 0
M  V30 60 H 36.545599 36.711104 63.193958 0
M  V30 61 H 38.944885 36.020939 68.095757 0
M  V30 62 H 42.106108 35.494295 64.008616 0
M  V30 63 H 41.179125 31.969873 69.409906 0
M  V30 64 H 43.066961 34.386795 65.654430 0
M  V30 65 H 42.758261 35.846551 66.594702 0
M  V30 66 H 39.295651 37.697118 63.911526 0
M  V30 67 H 40.759922 37.304015 63.107347 0
M  V30 68 H 39.351506 27.077520 56.113568 0
M  V30 69 H 39.643265 36.826730 61.053791 0
M  V30 70 H 35.067001 38.647826 63.643887 0
M  V30 71 H 40.220036 26.818368 53.339171 0
M  V30 72 H 40.217002 27.947219 52.045165 0
M  V30 73 H 43.607397 31.572424 67.960204 0
M  V30 74 H 44.229251 33.090842 67.312113 0
M  V30 75 H 43.286716 31.989226 66.279861 0
M  V30 76 H 38.865927 37.234036 66.122917 0
M  V30 77 H 36.429208 29.220847 60.252892 0
M  V30 78 H 37.022217 30.422152 61.300344 0
M  V30 79 H 36.597326 25.912567 53.053554 0
M  V30 80 H 37.793819 30.722301 57.765794 0
M  V30 81 H 39.067096 31.596298 58.534208 0
M  V30 82 H 38.301286 35.621510 63.298198 0
M  V30 83 H 40.228670 34.046876 63.199536 0
M  V30 84 H 35.816703 31.739062 62.253411 0
M  V30 85 H 34.401975 30.819761 61.813936 0
M  V30 86 H 34.268883 32.541203 62.250298 0
M  V30 87 H 40.574249 29.755550 57.660635 0
M  V30 88 H 38.743900 39.085523 60.330412 0
M  V30 89 H 38.267230 27.719503 60.322085 0
M  V30 90 H 39.496212 27.989651 59.138078 0
M  V30 91 H 37.807021 27.990463 58.637216 0
M  V30 92 H 37.454437 28.216910 54.341779 0
M  V30 93 H 39.541116 29.270090 61.480408 0
M  V30 94 H 40.496169 30.107802 60.304931 0
M  V30 95 H 36.267103 31.458279 58.653503 0
M  V30 96 H 35.174143 30.338055 59.076875 0
M  V30 97 H 39.429917 34.553138 59.502227 0
M  V30 98 H 38.043257 29.544636 55.961361 0
M  V30 99 H 35.346693 34.358667 60.183109 0
M  V30 100 H 36.344694 33.647231 61.354846 0
M  V30 101 H 37.255611 41.009911 60.793682 0
M  V30 102 H 41.133488 35.271979 60.530585 0
M  V30 103 H 41.909028 34.015888 61.471222 0
M  V30 104 H 41.869414 35.693100 62.011186 0
M  V30 105 H 38.844530 30.855539 53.917923 0
M  V30 106 H 38.667211 30.022090 52.276344 0
M  V30 107 H 40.900272 29.219689 55.335532 0
M  V30 108 H 37.815722 36.357881 59.541581 0
M  V30 109 H 36.944975 35.673104 60.865848 0
M  V30 110 H 39.442880 33.811821 69.259667 0
M  V30 111 H 38.210923 33.489757 62.102565 0
M  V30 END ATOM
M  V30 BEGIN BOND
M  V30 1 1 9 2
M  V30 2 1 10 1
M  V30 3 2 12 11
M  V30 4 1 16 11
M  V30 5 1 17 12
M  V30 6 2 20 1
M  V30 7 1 20 14
M  V30 8 2 21 3
M  V30 9 1 21 7
M  V30 10 2 22 7
M  V30 11 1 22 19
M  V30 12 1 23 5
M  V30 13 1 23 13
M  V30 14 2 25 10
M  V30 15 1 25 12
M  V30 16 1 26 15
M  V30 17 1 27 5
M  V30 18 1 27 6
M  V30 19 1 15 28 CFG=3
M  V30 20 1 29 17
M  V30 21 1 29 19
M  V30 22 1 30 9
M  V30 23 1 30 29
M  V30 24 1 32 28
M  V30 25 1 33 1
M  V30 26 1 33 16
M  V30 27 1 34 22
M  V30 28 2 35 14
M  V30 29 1 35 24
M  V30 30 1 35 33
M  V30 31 1 36 15
M  V30 32 1 37 27
M  V30 33 1 38 15
M  V30 34 1 39 26
M  V30 35 1 40 4
M  V30 36 1 40 31
M  V30 37 1 40 39
M  V30 38 1 41 8
M  V30 39 1 41 9
M  V30 40 2 42 2
M  V30 41 1 42 38
M  V30 42 2 43 32
M  V30 43 1 44 8
M  V30 44 1 44 40
M  V30 45 1 45 3
M  V30 46 2 45 34
M  V30 47 1 46 30
M  V30 48 2 47 13
M  V30 49 1 48 13
M  V30 50 1 48 18
M  V30 51 1 48 43
M  V30 52 1 49 19
M  V30 53 1 49 41
M  V30 54 1 50 2
M  V30 55 1 51 3
M  V30 56 1 52 4
M  V30 57 1 53 4
M  V30 58 1 54 4
M  V30 59 1 55 5
M  V30 60 1 56 5
M  V30 61 1 57 6
M  V30 62 1 58 6
M  V30 63 1 59 6
M  V30 64 1 60 7
M  V30 65 1 61 10
M  V30 66 1 62 11
M  V30 67 1 63 14
M  V30 68 1 64 16
M  V30 69 1 65 16
M  V30 70 1 66 17
M  V30 71 1 67 17
M  V30 72 1 68 18
M  V30 73 1 19 69 CFG=3
M  V30 74 1 70 21
M  V30 75 1 71 23
M  V30 76 1 72 23
M  V30 77 1 73 24
M  V30 78 1 74 24
M  V30 79 1 75 24
M  V30 80 1 76 25
M  V30 81 1 77 26
M  V30 82 1 78 26
M  V30 83 1 27 79 CFG=3
M  V30 84 1 80 28
M  V30 85 1 81 28
M  V30 86 1 29 82 CFG=1
M  V30 87 1 30 83 CFG=1
M  V30 88 1 84 31
M  V30 89 1 85 31
M  V30 90 1 86 31
M  V30 91 1 87 32
M  V30 92 1 88 34
M  V30 93 1 89 36
M  V30 94 1 90 36
M  V30 95 1 91 36
M  V30 96 1 92 37
M  V30 97 1 93 38
M  V30 98 1 94 38
M  V30 99 1 95 39
M  V30 100 1 96 39
M  V30 101 1 41 97 CFG=3
M  V30 102 1 98 43
M  V30 103 1 99 44
M  V30 104 1 100 44
M  V30 105 1 101 45
M  V30 106 1 102 46
M  V30 107 1 103 46
M  V30 108 1 104 46
M  V30 109 1 105 47
M  V30 110 1 106 47
M  V30 111 1 48 107 CFG=3
M  V30 112 1 108 49
M  V30 113 1 109 49
M  V30 114 1 110 20
M  V30 115 1 9 111 CFG=1
M  V30 END BOND
M  V30 END CTAB
M  END
>  <i_epik_Tot_Q>  (1) 
1

>  <i_epik_Tot_abs_Q>  (1) 
1

>  <i_i_glide_confnum>  (1) 
2310

>  <i_i_glide_lignum>  (1) 
174

>  <i_i_glide_posenum>  (1) 
306

>  <i_i_glide_rotatable_bonds>  (1) 
12

>  <i_lp_mmshare_version>  (1) 
72125

>  <i_m_source_file_index>  (1) 
67

>  <i_f3d_flags>  (1) 
0

>  <num_sample>  (1) 
100

>  <b_lp_Chiralities_Consistent>  (1) 
1

>  <r_epik_Charging_Adjusted_Penalty>  (1) 
1.1641737349406354

>  <r_epik_Ionization_Penalty>  (1) 
1.1550326719201822

>  <r_epik_Ionization_Penalty_Charging>  (1) 
0

>  <r_epik_Ionization_Penalty_Neutral>  (1) 
1.1550326719201822

>  <r_epik_State_Penalty>  (1) 
1.1641737349406354

>  <r_glide_ring_energy>  (1) 
0

>  <r_i_docking_score>  (1) 
-2.0479077012306801

>  <r_i_glide_ecoul>  (1) 
0.12559873174720279

>  <r_i_glide_eff_state_penalty>  (1) 
1.1641737349406354

>  <r_i_glide_einternal>  (1) 
22.190339712469758

>  <r_i_glide_emodel>  (1) 
-121.19317096871814

>  <r_i_glide_emodel_strain>  (1) 
16.781800681997197

>  <r_i_glide_energy>  (1) 
-10.104751742758713

>  <r_i_glide_erotb>  (1) 
0.28694684240539414

>  <r_i_glide_esite>  (1) 
0

>  <r_i_glide_evdw>  (1) 
-10.230350474505917

>  <r_i_glide_gscore>  (1) 
-3.2120814361713155

>  <r_i_glide_gscore_strain>  (1) 
3.1954501704992992

>  <r_i_glide_hbond>  (1) 
0

>  <r_i_glide_ligand_efficiency>  (1) 
-0.04179403471899347

>  <r_i_glide_ligand_efficiency_ln>  (1) 
-0.41863919286275619

>  <r_i_glide_ligand_efficiency_sa>  (1) 
-0.15293714989211116

>  <r_i_glide_lipo>  (1) 
-4.5996223262565996

>  <r_i_glide_metal>  (1) 
-0

>  <r_i_glide_rewards>  (1) 
-1.6021784088561932

>  <r_lp_Energy>  (1) 
65.422879999999992

>  <s_epik_Chemistry_Notes>  (1) 
This compound has an imine and may undergo hydrolysis.

>  <s_epik_cmdline>  (1) 
J2VwaWtfcHl0aG9uJywgJy1waHQnLCAnMS4wJywgJy1waCcsICc3LjQnLCAnLXRuJywgJzgnLCAnLW1hJywgJzUwMCcsICctaW1hZScsICc8aW5maWxlLm1hZT4nLCAnLW9tYWUnLCAnPG91dGZpbGUubWFlPic=

>  <s_epik_input>  (1) 
bjFbY0hdYyhbQ0gzXSluKGMxMilbQ0gyXVtDSF09QyhbQ0hdPVtDSF0yKVtDSDJdW0NASF0oW0NAQEhdM1tDSDNdKVtDQEhdKGM0W2NIXVtjSF1bY0hdW2NIXVtjSF00KVtDSDJdW0NAQEhdKFtDQEhdMzUpU1tDSDJdQyhbQ0gzXSkoW0NIM10pW0NIMl1bQ0gyXVtDQF0oW0NIM10pKFtDSDJdXE49W0NIXVw1KVtDSDJdL1tDSF09W0NIXS9bQ0BASF0oW09IXSlDKD1bQ0gyXSlbQ0gyXVtDSDJdW0NAQEhdKFtDSDNdKVtPSF0=

>  <s_glide_docking_method>  (1) 
confgen

>  <s_i_glide_gridfile>  (1) 
gpcr_5ht2c_6bqh_protein_autoprepared_prepared

>  <s_lp_Force_Field>  (1) 
S-OPLS

>  <s_lp_Variant>  (1) 
DiffSBDD_66_num_sample_100-11

>  <s_m_source_file>  (1) 
generated__ligand_DiffSBDD_2026-05-06_prepared.sdf

>  <GenAI_Model>  (1) 
DiffSBDD

>  <Protein>  (1) 
GPCR_5HT2C

$$$$
DiffSBDD_73_num_sample_100
     RDKit          3D

  0  0  0  0  0  0  0  0  0  0999 V3000
M  V30 BEGIN CTAB
M  V30 COUNTS 29 28 0 0 1
M  V30 BEGIN ATOM
M  V30 1 C 40.671817 27.954149 57.100530 0
M  V30 2 N 40.267415 26.679109 57.251224 0
M  V30 3 C 40.026595 30.257614 51.744682 0
M  V30 4 O 39.970112 28.819881 56.582402 0
M  V30 5 C 39.105866 25.416798 55.471522 0
M  V30 6 C 42.082023 28.306328 57.598690 0
M  V30 7 Cl 40.267404 29.979583 50.055309 0
M  V30 8 C 39.467403 29.347664 52.561642 0
M  V30 9 C 38.963260 26.202968 56.788415 0
M  V30 10 C 39.543292 26.259781 54.256477 0
M  V30 11 N 42.818337 27.216143 58.253541 0 CHG=1
M  V30 12 S 38.913567 27.762737 52.003141 0
M  V30 13 C 38.371854 26.938571 53.528033 0
M  V30 14 H 40.885568 26.009206 57.678749 0
M  V30 15 H 40.359185 31.221407 52.103052 0
M  V30 16 H 38.171537 24.901642 55.244565 0
M  V30 17 H 39.838140 24.626863 55.629091 0
M  V30 18 H 42.680112 28.619720 56.743789 0
M  V30 19 H 42.017078 29.149024 58.287403 0
M  V30 20 H 39.333931 29.557323 53.613408 0
M  V30 21 H 38.234847 27.008822 56.680581 0
M  V30 22 H 38.564220 25.541414 57.558630 0
M  V30 23 H 40.089896 25.622113 53.562837 0
M  V30 24 H 40.267340 27.010747 54.554317 0
M  V30 25 H 43.750846 27.528685 58.481425 0
M  V30 26 H 42.355680 26.962541 59.114904 0
M  V30 27 H 37.873761 27.659809 54.176556 0
M  V30 28 H 37.621939 26.195834 53.255746 0
M  V30 29 H 42.883687 26.403180 57.643898 0
M  V30 END ATOM
M  V30 BEGIN BOND
M  V30 1 1 2 1
M  V30 2 2 4 1
M  V30 3 1 6 1
M  V30 4 1 7 3
M  V30 5 2 8 3
M  V30 6 1 9 2
M  V30 7 1 9 5
M  V30 8 1 10 5
M  V30 9 1 11 6
M  V30 10 1 12 8
M  V30 11 1 13 10
M  V30 12 1 13 12
M  V30 13 1 14 2
M  V30 14 1 15 3
M  V30 15 1 16 5
M  V30 16 1 17 5
M  V30 17 1 18 6
M  V30 18 1 19 6
M  V30 19 1 20 8
M  V30 20 1 21 9
M  V30 21 1 22 9
M  V30 22 1 23 10
M  V30 23 1 24 10
M  V30 24 1 25 11
M  V30 25 1 26 11
M  V30 26 1 27 13
M  V30 27 1 28 13
M  V30 28 1 29 11
M  V30 END BOND
M  V30 END CTAB
M  END
>  <i_epik_Tot_Q>  (1) 
1

>  <i_epik_Tot_abs_Q>  (1) 
1

>  <i_i_glide_confnum>  (1) 
209

>  <i_i_glide_lignum>  (1) 
183

>  <i_i_glide_posenum>  (1) 
269

>  <i_i_glide_rotatable_bonds>  (1) 
8

>  <i_lp_mmshare_version>  (1) 
72125

>  <i_m_source_file_index>  (1) 
74

>  <i_f3d_flags>  (1) 
0

>  <num_sample>  (1) 
100

>  <b_lp_Chiralities_Consistent>  (1) 
1

>  <r_epik_Charging_Adjusted_Penalty>  (1) 
0.46467811747974586

>  <r_epik_Ionization_Penalty>  (1) 
0.232341814366232

>  <r_epik_Ionization_Penalty_Charging>  (1) 
0.23233905873987296

>  <r_epik_Ionization_Penalty_Neutral>  (1) 
2.7556263590493095e-06

>  <r_epik_State_Penalty>  (1) 
0.23233905873987287

>  <r_glide_ring_energy>  (1) 
0

>  <r_i_docking_score>  (1) 
-2.0079532159396405

>  <r_i_glide_ecoul>  (1) 
-4.8912199472375519

>  <r_i_glide_eff_state_penalty>  (1) 
0.23233905873987287

>  <r_i_glide_einternal>  (1) 
6.0874813590397849

>  <r_i_glide_emodel>  (1) 
-32.568605078409824

>  <r_i_glide_emodel_strain>  (1) 
0.12375211606238246

>  <r_i_glide_energy>  (1) 
-29.615979982107941

>  <r_i_glide_erotb>  (1) 
4.7351388872927176

>  <r_i_glide_esite>  (1) 
-0.02212031464029262

>  <r_i_glide_evdw>  (1) 
-24.724760034870389

>  <r_i_glide_gscore>  (1) 
-2.2402922746795135

>  <r_i_glide_gscore_strain>  (1) 
0

>  <r_i_glide_hbond>  (1) 
-0.024786098071157944

>  <r_i_glide_ligand_efficiency>  (1) 
-0.15445793968766466

>  <r_i_glide_ligand_efficiency_ln>  (1) 
-0.56324873500290806

>  <r_i_glide_ligand_efficiency_sa>  (1) 
-0.3631823113814866

>  <r_i_glide_lipo>  (1) 
-2.5559857456722912

>  <r_i_glide_metal>  (1) 
-0

>  <r_i_glide_rewards>  (1) 
-2.4026180097593373

>  <r_lp_Energy>  (1) 
9.3388109999999998

>  <s_epik_cmdline>  (1) 
J2VwaWtfcHl0aG9uJywgJy1waHQnLCAnMS4wJywgJy1waCcsICc3LjQnLCAnLXRuJywgJzgnLCAnLW1hJywgJzUwMCcsICctaW1hZScsICc8aW5maWxlLm1hZT4nLCAnLW9tYWUnLCAnPG91dGZpbGUubWFlPic=

>  <s_epik_input>  (1) 
W05IMl1bQ0gyXUMoPU8pW05IXVtDSDJdW0NIMl1bQ0gyXVtDSDJdUy9bQ0hdPVtDSF1cQ2w=

>  <s_glide_docking_method>  (1) 
confgen

>  <s_i_glide_gridfile>  (1) 
gpcr_5ht2c_6bqh_protein_autoprepared_prepared

>  <s_lp_Force_Field>  (1) 
S-OPLS

>  <s_lp_Variant>  (1) 
DiffSBDD_73_num_sample_100-2

>  <s_m_source_file>  (1) 
generated__ligand_DiffSBDD_2026-05-06_prepared.sdf

>  <GenAI_Model>  (1) 
DiffSBDD

>  <Protein>  (1) 
GPCR_5HT2C

$$$$
DiffSBDD_89_num_sample_100
     RDKit          3D

  0  0  0  0  0  0  0  0  0  0999 V3000
M  V30 BEGIN CTAB
M  V30 COUNTS 106 110 0 0 1
M  V30 BEGIN ATOM
M  V30 1 O 38.897925 29.549407 56.827033 0
M  V30 2 O 43.067325 30.912070 63.831618 0 CHG=-1
M  V30 3 C 40.938522 28.589491 63.178523 0
M  V30 4 C 38.904959 28.396805 57.255605 0
M  V30 5 C 41.432852 36.093302 63.445608 0
M  V30 6 C 36.964720 33.849155 60.625579 0
M  V30 7 O 39.467403 30.876879 52.678224 0
M  V30 8 C 39.317312 34.744583 60.429449 0
M  V30 9 C 38.519592 27.231779 56.354471 0 CFG=2
M  V30 10 C 36.824530 25.038398 55.543860 0
M  V30 11 C 39.316192 30.515497 63.141647 0
M  V30 12 O 37.395236 26.822037 56.991302 0
M  V30 13 C 38.940110 32.345768 61.104514 0
M  V30 14 C 39.616722 26.138696 56.334426 0 CFG=2
M  V30 15 O 42.604771 35.266985 65.230213 0
M  V30 16 C 40.130241 25.824352 57.766274 0
M  V30 17 C 41.574781 32.969133 65.482513 0
M  V30 18 C 44.585495 30.921780 67.097733 0 CFG=1
M  V30 19 C 45.859168 31.621795 66.588352 0
M  V30 20 O 44.119051 29.264950 64.892181 0
M  V30 21 C 39.345936 28.647400 53.408392 0
M  V30 22 C 38.743198 27.681273 50.860863 0
M  V30 23 C 41.641455 27.746602 58.401532 0
M  V30 24 C 39.237940 27.126994 53.145407 0 CFG=1
M  V30 25 O 38.476716 31.025927 60.872489 0
M  V30 26 N 40.460184 27.044696 58.458693 0
M  V30 27 C 40.994542 35.917892 61.989253 0
M  V30 28 C 39.322616 27.941967 58.693733 0 CFG=1
M  V30 29 C 43.521510 30.363079 64.859172 0
M  V30 30 F 40.448618 29.255076 50.756579 0
M  V30 31 C 36.812177 25.702716 56.926946 0
M  V30 32 C 41.416544 34.469544 65.287071 0 CFG=2
M  V30 33 S 41.467284 29.221420 59.053428 0
M  V30 34 C 42.802119 27.354460 57.877424 0
M  V30 35 N 41.944331 34.840793 63.978619 0
M  V30 36 C 40.781390 28.421245 61.751678 0
M  V30 37 C 40.278900 29.567910 63.836108 0
M  V30 38 C 39.137525 29.155138 51.012905 0 CFG=2
M  V30 39 C 38.439819 33.093871 58.728345 0
M  V30 40 N 39.051375 30.034693 61.776804 0
M  V30 41 O 36.267252 25.219264 57.853486 0
M  V30 42 F 40.465196 29.698702 65.160867 0
M  V30 43 F 44.331425 31.363989 68.331085 0
M  V30 44 C 42.959416 32.602632 66.066000 0
M  V30 45 C 39.779326 29.159477 59.531712 0 CFG=2
M  V30 46 C 39.891144 29.168843 61.071686 0
M  V30 47 C 39.781491 34.998369 61.880286 0
M  V30 48 C 38.789574 29.621348 52.434010 0 CFG=2
M  V30 49 O 39.466844 26.869691 51.768516 0
M  V30 50 C 40.337964 26.293019 53.866671 0
M  V30 51 C 38.409100 33.495238 60.216308 0
M  V30 52 C 43.326253 31.100841 66.209335 0 CFG=2
M  V30 53 C 40.667032 26.552302 55.340519 0
M  V30 54 H 41.616998 27.944266 63.718509 0
M  V30 55 H 42.250424 36.815888 63.453726 0
M  V30 56 H 40.626263 36.496122 64.059315 0
M  V30 57 H 36.547988 34.632289 59.992326 0
M  V30 58 H 36.306134 32.986101 60.552078 0
M  V30 59 H 36.917444 34.208559 61.652705 0
M  V30 60 H 39.305322 31.143265 53.571254 0
M  V30 61 H 40.210560 34.647174 59.812750 0
M  V30 62 H 38.803721 35.643388 60.082981 0
M  V30 63 H 38.192704 27.558148 55.381508 0
M  V30 64 H 36.980493 25.755557 54.742534 0
M  V30 65 H 37.561556 24.238050 55.473157 0
M  V30 66 H 35.866515 24.553308 55.366336 0
M  V30 67 H 38.382142 30.485858 63.693000 0
M  V30 68 H 39.799313 31.485409 63.216098 0
M  V30 69 H 38.611504 32.625493 62.102938 0
M  V30 70 H 40.030981 32.315170 61.058288 0
M  V30 71 H 39.281343 25.183477 55.951980 0
M  V30 72 H 39.326831 25.340914 58.322117 0
M  V30 73 H 40.963197 25.142893 57.848516 0
M  V30 74 H 40.783270 32.632756 66.151125 0
M  V30 75 H 41.381810 32.479457 64.532046 0
M  V30 76 H 44.803025 29.859100 67.215938 0
M  V30 77 H 46.168876 31.250296 65.608967 0
M  V30 78 H 45.735164 32.703602 66.518369 0
M  V30 79 H 46.675679 31.432522 67.282409 0
M  V30 80 H 40.267400 28.928179 53.053528 0
M  V30 81 H 39.240268 28.983062 54.430739 0
M  V30 82 H 38.985685 27.332032 49.856675 0
M  V30 83 H 37.680097 27.559449 51.053207 0
M  V30 84 H 38.246954 26.766962 53.401311 0
M  V30 85 H 41.829186 35.509601 61.415074 0
M  V30 86 H 40.770690 36.887331 61.549021 0
M  V30 87 H 38.504079 27.423418 59.186618 0
M  V30 88 H 40.511758 34.953719 65.653296 0
M  V30 89 H 43.661297 28.012792 57.881251 0
M  V30 90 H 42.919223 26.421476 57.447626 0
M  V30 91 H 41.428817 27.738684 61.226089 0
M  V30 92 H 38.668075 29.791082 50.273416 0
M  V30 93 H 38.086186 33.904198 58.087962 0
M  V30 94 H 39.449549 32.838455 58.405799 0
M  V30 95 H 37.802521 32.230374 58.534552 0
M  V30 96 H 43.723044 33.070112 65.454075 0
M  V30 97 H 43.042755 33.081740 67.041181 0
M  V30 98 H 39.352990 30.068788 59.126723 0
M  V30 99 H 38.951516 35.345106 62.492861 0
M  V30 100 H 40.119730 34.082704 62.348537 0
M  V30 101 H 37.717571 29.621366 52.621101 0
M  V30 102 H 40.179707 25.224308 53.794226 0
M  V30 103 H 41.272039 26.421476 53.334899 0
M  V30 104 H 42.496371 30.602342 66.714262 0
M  V30 105 H 41.467223 25.872110 55.554873 0
M  V30 106 H 41.025984 27.561994 55.524970 0
M  V30 END ATOM
M  V30 BEGIN BOND
M  V30 1 2 4 1
M  V30 2 1 9 4
M  V30 3 1 12 9
M  V30 4 1 14 9
M  V30 5 1 16 14
M  V30 6 1 19 18
M  V30 7 1 24 21
M  V30 8 1 25 13
M  V30 9 1 26 16
M  V30 10 1 26 23
M  V30 11 1 27 5
M  V30 12 1 28 4
M  V30 13 1 28 26
M  V30 14 1 29 2
M  V30 15 2 29 20
M  V30 16 1 31 10
M  V30 17 1 31 12
M  V30 18 1 32 15
M  V30 19 1 32 17
M  V30 20 1 33 23
M  V30 21 2 34 23
M  V30 22 1 35 5
M  V30 23 1 35 15
M  V30 24 1 35 32
M  V30 25 1 36 3
M  V30 26 2 37 3
M  V30 27 1 37 11
M  V30 28 1 38 22
M  V30 29 1 38 30
M  V30 30 1 40 11
M  V30 31 1 40 25
M  V30 32 2 41 31
M  V30 33 1 42 37
M  V30 34 1 43 18
M  V30 35 1 44 17
M  V30 36 1 45 28
M  V30 37 1 45 33
M  V30 38 2 46 36
M  V30 39 1 46 40
M  V30 40 1 46 45
M  V30 41 1 47 8
M  V30 42 1 47 27
M  V30 43 1 48 7
M  V30 44 1 48 21
M  V30 45 1 48 38
M  V30 46 1 49 22
M  V30 47 1 49 24
M  V30 48 1 50 24
M  V30 49 1 51 6
M  V30 50 1 51 8
M  V30 51 1 51 13
M  V30 52 1 51 39
M  V30 53 1 52 18
M  V30 54 1 52 29
M  V30 55 1 52 44
M  V30 56 1 53 14
M  V30 57 1 53 50
M  V30 58 1 54 3
M  V30 59 1 55 5
M  V30 60 1 56 5
M  V30 61 1 57 6
M  V30 62 1 58 6
M  V30 63 1 59 6
M  V30 64 1 60 7
M  V30 65 1 61 8
M  V30 66 1 62 8
M  V30 67 1 9 63 CFG=3
M  V30 68 1 64 10
M  V30 69 1 65 10
M  V30 70 1 66 10
M  V30 71 1 67 11
M  V30 72 1 68 11
M  V30 73 1 69 13
M  V30 74 1 70 13
M  V30 75 1 14 71 CFG=3
M  V30 76 1 72 16
M  V30 77 1 73 16
M  V30 78 1 74 17
M  V30 79 1 75 17
M  V30 80 1 18 76 CFG=1
M  V30 81 1 77 19
M  V30 82 1 78 19
M  V30 83 1 79 19
M  V30 84 1 80 21
M  V30 85 1 81 21
M  V30 86 1 82 22
M  V30 87 1 83 22
M  V30 88 1 24 84 CFG=1
M  V30 89 1 85 27
M  V30 90 1 86 27
M  V30 91 1 28 87 CFG=1
M  V30 92 1 32 88 CFG=1
M  V30 93 1 89 34
M  V30 94 1 90 34
M  V30 95 1 91 36
M  V30 96 1 38 92 CFG=3
M  V30 97 1 93 39
M  V30 98 1 94 39
M  V30 99 1 95 39
M  V30 100 1 96 44
M  V30 101 1 97 44
M  V30 102 1 45 98 CFG=3
M  V30 103 1 99 47
M  V30 104 1 100 47
M  V30 105 1 48 101 CFG=3
M  V30 106 1 102 50
M  V30 107 1 103 50
M  V30 108 1 52 104 CFG=1
M  V30 109 1 105 53
M  V30 110 1 106 53
M  V30 END BOND
M  V30 END CTAB
M  END
>  <i_epik_Tot_Q>  (1) 
-1

>  <i_epik_Tot_abs_Q>  (1) 
1

>  <i_i_glide_confnum>  (1) 
10250

>  <i_i_glide_lignum>  (1) 
228

>  <i_i_glide_posenum>  (1) 
72

>  <i_i_glide_rotatable_bonds>  (1) 
20

>  <i_lp_mmshare_version>  (1) 
72125

>  <i_m_source_file_index>  (1) 
90

>  <i_f3d_flags>  (1) 
0

>  <num_sample>  (1) 
100

>  <b_lp_Chiralities_Consistent>  (1) 
1

>  <r_epik_Charging_Adjusted_Penalty>  (1) 
0.0083304435614461898

>  <r_epik_Ionization_Penalty>  (1) 
0.0083323926460460752

>  <r_epik_Ionization_Penalty_Charging>  (1) 
0.00022185446221055619

>  <r_epik_Ionization_Penalty_Neutral>  (1) 
0.0081105381838355185

>  <r_epik_State_Penalty>  (1) 
0.008108589099235633

>  <r_glide_ring_energy>  (1) 
0

>  <r_i_docking_score>  (1) 
-1.9643513826055585

>  <r_i_glide_ecoul>  (1) 
-2.1221567585597967

>  <r_i_glide_eff_state_penalty>  (1) 
0.008108589099235633

>  <r_i_glide_einternal>  (1) 
36.856115781397193

>  <r_i_glide_emodel>  (1) 
15.950162277549941

>  <r_i_glide_emodel_strain>  (1) 
10.475169940697256

>  <r_i_glide_energy>  (1) 
-9.5253824882317311

>  <r_i_glide_erotb>  (1) 
0.38281117644627216

>  <r_i_glide_esite>  (1) 
-0.014962200905497434

>  <r_i_glide_evdw>  (1) 
-7.4032257296719335

>  <r_i_glide_gscore>  (1) 
-1.9724599717047941

>  <r_i_glide_gscore_strain>  (1) 
1.6187924851743141

>  <r_i_glide_hbond>  (1) 
0

>  <r_i_glide_ligand_efficiency>  (1) 
-0.03706323363406714

>  <r_i_glide_ligand_efficiency_ln>  (1) 
-0.39521851367512417

>  <r_i_glide_ligand_efficiency_sa>  (1) 
-0.13922009650501371

>  <r_i_glide_lipo>  (1) 
-5.2546145690861898

>  <r_i_glide_metal>  (1) 
-0

>  <r_i_glide_rewards>  (1) 
1.9839979369338723

>  <r_lp_Energy>  (1) 
27.140322999999999

>  <r_lp_tautomer_probability>  (1) 
0.99999998000000001

>  <s_epik_Chemistry_Notes>  (1) 
This compound has an ester and may undergo hydrolysis at high or low pH. This compound has an imine and may undergo hydrolysis. This compound contains an acetal/aminal-like group ( X-CH(R)-Y where X, Y are N, S, or O) that may be acid/base labile, releasing an aldehyde. This compound has a N-S or N-O group and may undergo hydrolysis at high or low pH.

>  <s_epik_cmdline>  (1) 
J2VwaWtfcHl0aG9uJywgJy1waHQnLCAnMS4wJywgJy1waCcsICc3LjQnLCAnLXRuJywgJzgnLCAnLW1hJywgJzUwMCcsICctaW1hZScsICc8aW5maWxlLm1hZT4nLCAnLW9tYWUnLCAnPG91dGZpbGUubWFlPic=

>  <s_epik_input>  (1) 
TzFbQ0gyXVtDQEhdKEYpW0NASF0oW09IXSlbQ0gyXVtDQEBIXTFbQ0gyXVtDSDJdW0NAQEhdKFtDSDJdMilbQ0BASF0oT0MoPU8pW0NIM10pQyg9TylbQ0BASF0oTjIzKVtDQEhdKFNDMz1bQ0gyXSlDKD1bQ0hdW0NIXT1DNEYpTihbQ0gyXTQpT1tDSDJdQyhbQ0gzXSkoW0NIM10pW0NIMl1bQ0gyXVtDSDJdW0NIMl1bTkBdNU9bQ0hdNVtDSDJdW0NIMl1bQ0BIXShbQ0BIXShGKVtDSDNdKUMoPU8pW09IXQ==

>  <s_glide_docking_method>  (1) 
confgen

>  <s_i_glide_gridfile>  (1) 
gpcr_5ht2c_6bqh_protein_autoprepared_prepared

>  <s_lp_Force_Field>  (1) 
S-OPLS

>  <s_lp_Variant>  (1) 
DiffSBDD_89_num_sample_100-1

>  <s_m_source_file>  (1) 
generated__ligand_DiffSBDD_2026-05-06_prepared.sdf

>  <GenAI_Model>  (1) 
DiffSBDD

>  <Protein>  (1) 
GPCR_5HT2C

$$$$
DiffSBDD_73_num_sample_100
     RDKit          3D

  0  0  0  0  0  0  0  0  0  0999 V3000
M  V30 BEGIN CTAB
M  V30 COUNTS 29 28 0 0 1
M  V30 BEGIN ATOM
M  V30 1 C 37.539671 30.158071 59.107345 0
M  V30 2 N 37.467375 30.413751 57.790894 0
M  V30 3 C 40.406741 30.729141 50.106693 0
M  V30 4 O 38.351033 29.373345 59.595062 0
M  V30 5 C 39.062029 30.878089 56.018811 0
M  V30 6 C 36.547172 30.899803 60.010066 0
M  V30 7 Cl 40.267384 29.355747 49.078952 0
M  V30 8 C 40.075328 30.695188 51.403324 0
M  V30 9 C 38.330164 29.783520 56.811786 0
M  V30 10 C 39.753322 30.360030 54.752971 0
M  V30 11 N 36.091053 32.187462 59.453460 0 CHG=1
M  V30 12 S 39.466502 29.233689 52.191695 0
M  V30 13 C 38.730570 29.852424 53.718796 0
M  V30 14 H 36.759659 31.064273 57.446139 0
M  V30 15 H 40.779367 31.620490 49.631897 0
M  V30 16 H 39.802679 31.347842 56.668799 0
M  V30 17 H 38.354817 31.661265 55.737252 0
M  V30 18 H 35.680563 30.260214 60.151118 0
M  V30 19 H 36.990156 31.055221 60.992650 0
M  V30 20 H 40.168043 31.572484 52.022967 0
M  V30 21 H 37.658905 29.211058 56.176794 0
M  V30 22 H 39.033655 29.065340 57.234223 0
M  V30 23 H 40.461018 29.578166 55.028024 0
M  V30 24 H 40.337116 31.174755 54.322494 0
M  V30 25 H 35.409351 32.623225 60.054177 0
M  V30 26 H 36.885862 32.798048 59.334649 0
M  V30 27 H 38.014956 30.638533 53.480434 0
M  V30 28 H 38.158188 29.016382 54.114686 0
M  V30 29 H 35.679876 32.021303 58.523792 0
M  V30 END ATOM
M  V30 BEGIN BOND
M  V30 1 1 2 1
M  V30 2 2 4 1
M  V30 3 1 6 1
M  V30 4 1 7 3
M  V30 5 2 8 3
M  V30 6 1 9 2
M  V30 7 1 9 5
M  V30 8 1 10 5
M  V30 9 1 11 6
M  V30 10 1 12 8
M  V30 11 1 13 10
M  V30 12 1 13 12
M  V30 13 1 14 2
M  V30 14 1 15 3
M  V30 15 1 16 5
M  V30 16 1 17 5
M  V30 17 1 18 6
M  V30 18 1 19 6
M  V30 19 1 20 8
M  V30 20 1 21 9
M  V30 21 1 22 9
M  V30 22 1 23 10
M  V30 23 1 24 10
M  V30 24 1 25 11
M  V30 25 1 26 11
M  V30 26 1 27 13
M  V30 27 1 28 13
M  V30 28 1 29 11
M  V30 END BOND
M  V30 END CTAB
M  END
>  <i_epik_Tot_Q>  (1) 
1

>  <i_epik_Tot_abs_Q>  (1) 
1

>  <i_i_glide_confnum>  (1) 
194

>  <i_i_glide_lignum>  (1) 
183

>  <i_i_glide_posenum>  (1) 
135

>  <i_i_glide_rotatable_bonds>  (1) 
8

>  <i_lp_mmshare_version>  (1) 
72125

>  <i_m_source_file_index>  (1) 
74

>  <i_f3d_flags>  (1) 
0

>  <num_sample>  (1) 
100

>  <b_lp_Chiralities_Consistent>  (1) 
1

>  <r_epik_Charging_Adjusted_Penalty>  (1) 
0.46467811747974586

>  <r_epik_Ionization_Penalty>  (1) 
0.232341814366232

>  <r_epik_Ionization_Penalty_Charging>  (1) 
0.23233905873987296

>  <r_epik_Ionization_Penalty_Neutral>  (1) 
2.7556263590493095e-06

>  <r_epik_State_Penalty>  (1) 
0.23233905873987287

>  <r_glide_ring_energy>  (1) 
0

>  <r_i_docking_score>  (1) 
-1.8916382757536561

>  <r_i_glide_ecoul>  (1) 
-9.800759957037668

>  <r_i_glide_eff_state_penalty>  (1) 
0.23233905873987287

>  <r_i_glide_einternal>  (1) 
3.7689668841922548

>  <r_i_glide_emodel>  (1) 
-32.763477604458373

>  <r_i_glide_emodel_strain>  (1) 
0.7192722809596992

>  <r_i_glide_energy>  (1) 
-29.564869129900806

>  <r_i_glide_erotb>  (1) 
4.7351388872927176

>  <r_i_glide_esite>  (1) 
-0.23429814089796674

>  <r_i_glide_evdw>  (1) 
-19.764109172863137

>  <r_i_glide_gscore>  (1) 
-2.1239773344935289

>  <r_i_glide_gscore_strain>  (1) 
0

>  <r_i_glide_hbond>  (1) 
-0.35999999999999999

>  <r_i_glide_ligand_efficiency>  (1) 
-0.14551063659643509

>  <r_i_glide_ligand_efficiency_ln>  (1) 
-0.53062135982223846

>  <r_i_glide_ligand_efficiency_sa>  (1) 
-0.34214420726152739

>  <r_i_glide_lipo>  (1) 
-1.5321768596027552

>  <r_i_glide_metal>  (1) 
-0

>  <r_i_glide_rewards>  (1) 
-2.2743217690867179

>  <r_lp_Energy>  (1) 
9.3388109999999998

>  <s_epik_cmdline>  (1) 
J2VwaWtfcHl0aG9uJywgJy1waHQnLCAnMS4wJywgJy1waCcsICc3LjQnLCAnLXRuJywgJzgnLCAnLW1hJywgJzUwMCcsICctaW1hZScsICc8aW5maWxlLm1hZT4nLCAnLW9tYWUnLCAnPG91dGZpbGUubWFlPic=

>  <s_epik_input>  (1) 
W05IMl1bQ0gyXUMoPU8pW05IXVtDSDJdW0NIMl1bQ0gyXVtDSDJdUy9bQ0hdPVtDSF1cQ2w=

>  <s_glide_docking_method>  (1) 
confgen

>  <s_i_glide_gridfile>  (1) 
gpcr_5ht2c_6bqh_protein_autoprepared_prepared

>  <s_lp_Force_Field>  (1) 
S-OPLS

>  <s_lp_Variant>  (1) 
DiffSBDD_73_num_sample_100-2

>  <s_m_source_file>  (1) 
generated__ligand_DiffSBDD_2026-05-06_prepared.sdf

>  <GenAI_Model>  (1) 
DiffSBDD

>  <Protein>  (1) 
GPCR_5HT2C

$$$$
DiffSBDD_32_num_sample_100
     RDKit          3D

  0  0  0  0  0  0  0  0  0  0999 V3000
M  V30 BEGIN CTAB
M  V30 COUNTS 84 87 0 0 1
M  V30 BEGIN ATOM
M  V30 1 C 38.803759 29.820034 59.891538 0 CFG=2
M  V30 2 O 38.267712 30.917235 62.653486 0 CHG=-1
M  V30 3 O 39.867277 25.221487 54.887180 0
M  V30 4 C 39.676265 28.087591 52.371473 0
M  V30 5 C 38.367661 33.802081 56.843739 0
M  V30 6 C 42.782445 29.870736 63.866412 0
M  V30 7 O 39.004683 30.809652 57.784648 0
M  V30 8 C 43.001746 29.882666 66.450678 0
M  V30 9 C 37.996073 28.732140 55.730329 0 CFG=1
M  V30 10 C 40.169953 28.065717 61.760515 0
M  V30 11 C 39.376618 26.711359 52.998625 0 CFG=2
M  V30 12 C 41.067353 28.234475 64.638444 0
M  V30 13 C 39.410477 28.062675 57.947397 0
M  V30 14 C 41.960994 29.148738 66.858035 0
M  V30 15 O 41.613675 29.226484 68.150169 0
M  V30 16 C 41.186641 28.244358 65.999778 0
M  V30 17 C 39.792008 31.449352 55.669839 0
M  V30 18 C 39.474856 31.147188 62.867949 0
M  V30 19 O 39.939119 31.784824 63.833218 0
M  V30 20 C 40.479462 30.609849 61.859696 0 CFG=2
M  V30 21 O 44.645000 28.937494 65.007638 0
M  V30 22 C 38.137865 27.910525 57.055674 0
M  V30 23 C 41.679206 29.135943 63.631281 0
M  V30 24 C 43.602772 29.885572 65.099181 0 CFG=1
M  V30 25 C 37.621168 30.208966 55.817694 0
M  V30 26 C 38.057156 30.594421 58.825291 0
M  V30 27 N 40.266026 27.870183 60.287060 0 CHG=1
M  V30 28 C 38.201700 27.110310 53.862865 0
M  V30 29 C 39.334496 29.094205 53.499774 0
M  V30 30 C 40.456823 26.081890 53.930130 0
M  V30 31 C 38.588506 34.387042 55.453263 0
M  V30 32 N 38.811797 28.237569 54.596770 0 CFG=1 CHG=1
M  V30 33 C 38.540703 31.227310 56.515769 0 CFG=1
M  V30 34 C 39.996489 30.690521 60.407484 0
M  V30 35 C 37.706267 32.491211 56.691694 0
M  V30 36 C 41.037080 29.229593 62.228319 0 CFG=1
M  V30 37 C 39.144181 28.363596 59.468056 0 CFG=1
M  V30 38 H 38.066840 29.714747 60.678489 0
M  V30 39 H 39.636937 24.400829 54.469334 0
M  V30 40 H 38.996831 28.253223 51.534105 0
M  V30 41 H 40.666906 28.176007 51.932548 0
M  V30 42 H 37.726085 34.457379 57.430473 0
M  V30 43 H 39.274346 33.621400 57.424326 0
M  V30 44 H 43.155711 30.492480 63.067421 0
M  V30 45 H 43.502864 30.508829 67.174954 0
M  V30 46 H 37.067393 28.399800 55.314349 0
M  V30 47 H 40.667441 27.221396 62.184481 0
M  V30 48 H 39.146873 28.084267 62.142417 0
M  V30 49 H 39.109423 26.024169 52.205953 0
M  V30 50 H 40.387705 27.491945 64.253980 0
M  V30 51 H 40.131715 28.755383 57.516658 0
M  V30 52 H 39.923248 27.101366 57.890776 0
M  V30 53 H 40.857140 28.671307 68.282744 0
M  V30 54 H 40.589863 27.510193 66.518809 0
M  V30 55 H 39.541376 31.722992 54.644729 0
M  V30 56 H 40.408024 32.243171 56.079110 0
M  V30 57 H 40.390289 30.544850 55.656230 0
M  V30 58 H 41.312710 31.312452 61.920670 0
M  V30 59 H 44.287542 28.087346 65.212873 0
M  V30 60 H 38.048789 26.854164 56.801455 0
M  V30 61 H 37.245664 28.085101 57.655493 0
M  V30 62 H 44.092291 30.859325 65.047258 0
M  V30 63 H 37.365567 30.579642 54.824210 0
M  V30 64 H 36.667555 30.219790 56.338505 0
M  V30 65 H 37.725569 31.531147 59.276061 0
M  V30 66 H 37.160365 30.063936 58.509744 0
M  V30 67 H 41.125332 28.289733 59.963714 0
M  V30 68 H 37.796938 26.328429 54.506547 0
M  V30 69 H 37.363589 27.451761 53.246455 0
M  V30 70 H 38.589254 29.805722 53.145120 0
M  V30 71 H 40.229632 29.642266 53.775059 0
M  V30 72 H 41.257057 25.597984 53.380271 0
M  V30 73 H 40.937756 26.821087 54.565044 0
M  V30 74 H 38.667119 35.456578 55.452983 0
M  V30 75 H 39.501137 34.002605 55.054433 0
M  V30 76 H 37.867533 34.115245 54.654446 0
M  V30 77 H 40.884951 30.421149 59.853399 0
M  V30 78 H 39.792292 31.747922 60.229727 0
M  V30 79 H 37.067438 32.548072 55.825811 0
M  V30 80 H 37.067376 32.436648 57.560211 0
M  V30 81 H 41.867637 29.090154 61.574668 0
M  V30 82 H 38.293807 27.745667 59.754325 0
M  V30 83 H 39.625536 27.839537 55.045218 0
M  V30 84 H 40.325716 26.875791 60.122638 0
M  V30 END ATOM
M  V30 BEGIN BOND
M  V30 1 1 11 4
M  V30 2 2 14 8
M  V30 3 1 15 14
M  V30 4 2 16 12
M  V30 5 1 16 14
M  V30 6 1 18 2
M  V30 7 2 19 18
M  V30 8 1 20 18
M  V30 9 1 22 9
M  V30 10 1 22 13
M  V30 11 2 23 6
M  V30 12 1 23 12
M  V30 13 1 24 6
M  V30 14 1 24 8
M  V30 15 1 24 21
M  V30 16 1 25 9
M  V30 17 1 26 1
M  V30 18 1 26 7
M  V30 19 1 27 10
M  V30 20 1 28 11
M  V30 21 1 29 4
M  V30 22 1 30 3
M  V30 23 1 30 11
M  V30 24 1 31 5
M  V30 25 1 32 9
M  V30 26 1 32 28
M  V30 27 1 32 29
M  V30 28 1 33 7
M  V30 29 1 33 17 CFG=3
M  V30 30 1 33 25
M  V30 31 1 34 1
M  V30 32 1 34 20
M  V30 33 1 35 5
M  V30 34 1 35 33
M  V30 35 1 36 10
M  V30 36 1 36 20
M  V30 37 1 36 23
M  V30 38 1 37 1
M  V30 39 1 37 13
M  V30 40 1 37 27
M  V30 41 1 1 38 CFG=1
M  V30 42 1 39 3
M  V30 43 1 40 4
M  V30 44 1 41 4
M  V30 45 1 42 5
M  V30 46 1 43 5
M  V30 47 1 44 6
M  V30 48 1 45 8
M  V30 49 1 9 46 CFG=3
M  V30 50 1 47 10
M  V30 51 1 48 10
M  V30 52 1 11 49 CFG=3
M  V30 53 1 50 12
M  V30 54 1 51 13
M  V30 55 1 52 13
M  V30 56 1 53 15
M  V30 57 1 54 16
M  V30 58 1 55 17
M  V30 59 1 56 17
M  V30 60 1 57 17
M  V30 61 1 20 58 CFG=3
M  V30 62 1 59 21
M  V30 63 1 60 22
M  V30 64 1 61 22
M  V30 65 1 24 62 CFG=3
M  V30 66 1 63 25
M  V30 67 1 64 25
M  V30 68 1 65 26
M  V30 69 1 66 26
M  V30 70 1 67 27
M  V30 71 1 68 28
M  V30 72 1 69 28
M  V30 73 1 70 29
M  V30 74 1 71 29
M  V30 75 1 72 30
M  V30 76 1 73 30
M  V30 77 1 74 31
M  V30 78 1 75 31
M  V30 79 1 76 31
M  V30 80 1 77 34
M  V30 81 1 78 34
M  V30 82 1 79 35
M  V30 83 1 80 35
M  V30 84 1 36 81 CFG=3
M  V30 85 1 37 82 CFG=1
M  V30 86 1 32 83 CFG=1
M  V30 87 1 84 27
M  V30 END BOND
M  V30 END CTAB
M  END
>  <i_epik_Tot_Q>  (1) 
1

>  <i_epik_Tot_abs_Q>  (1) 
3

>  <i_i_glide_confnum>  (1) 
18

>  <i_i_glide_lignum>  (1) 
86

>  <i_i_glide_posenum>  (1) 
20

>  <i_i_glide_rotatable_bonds>  (1) 
9

>  <i_lp_mmshare_version>  (1) 
72125

>  <i_m_source_file_index>  (1) 
33

>  <i_f3d_flags>  (1) 
0

>  <num_sample>  (1) 
100

>  <b_lp_Chiralities_Consistent>  (1) 
1

>  <r_epik_Charging_Adjusted_Penalty>  (1) 
0.016900800142501185

>  <r_epik_Ionization_Penalty>  (1) 
0.019380071947909534

>  <r_epik_Ionization_Penalty_Charging>  (1) 
0.016900800142501185

>  <r_epik_Ionization_Penalty_Neutral>  (1) 
0.0024792718054083493

>  <r_epik_State_Penalty>  (1) 
-0

>  <r_glide_ring_energy>  (1) 
0.61486460330697923

>  <r_i_docking_score>  (1) 
-1.8847302811765481

>  <r_i_glide_ecoul>  (1) 
-3.6946353603003721

>  <r_i_glide_eff_state_penalty>  (1) 
-0

>  <r_i_glide_einternal>  (1) 
3.6891942874067762

>  <r_i_glide_emodel>  (1) 
4.489099621560058

>  <r_i_glide_emodel_strain>  (1) 
14.165966112150329

>  <r_i_glide_energy>  (1) 
-10.388387810205126

>  <r_i_glide_erotb>  (1) 
0.30428459818937692

>  <r_i_glide_esite>  (1) 
0

>  <r_i_glide_evdw>  (1) 
-6.6937524499047534

>  <r_i_glide_gscore>  (1) 
-1.8847302811765481

>  <r_i_glide_gscore_strain>  (1) 
2.5414915280375823

>  <r_i_glide_hbond>  (1) 
-0.30307141312597097

>  <r_i_glide_ligand_efficiency>  (1) 
-0.050938656248014816

>  <r_i_glide_ligand_efficiency_ln>  (1) 
-0.4087538136404843

>  <r_i_glide_ligand_efficiency_sa>  (1) 
-0.16973890344311665

>  <r_i_glide_lipo>  (1) 
-2.6741084089282192

>  <r_i_glide_metal>  (1) 
-0

>  <r_i_glide_rewards>  (1) 
-0.86444365880902441

>  <r_lp_Energy>  (1) 
56.404024999999997

>  <r_lp_tautomer_probability>  (1) 
1

>  <s_epik_cmdline>  (1) 
J2VwaWtfcHl0aG9uJywgJy1waHQnLCAnMS4wJywgJy1waCcsICc3LjQnLCAnLXRuJywgJzgnLCAnLW1hJywgJzUwMCcsICctaW1hZScsICc8aW5maWxlLm1hZT4nLCAnLW9tYWUnLCAnPG91dGZpbGUubWFlPic=

>  <s_epik_input>  (1) 
W09IXUMxPVtDSF1bQ0BASF0oW09IXSlbQ0hdPUMoW0NIXT1bQ0hdMSlbQ0BIXShbQ0BASF0oW0NIMl0yKUMoPU8pW09IXSlbQ0gyXVtOSF1bQ0BASF0oW0NAQEhdMjMpW0NIMl1bQ0gyXVtDQEBIXShbQ0gyXVtDQF0oW0NIM10pKE9bQ0gyXTMpW0NIMl1bQ0gyXVtDSDNdKU4oW0NIMl00KVtDSDJdW0NIMl1bQ0BIXTRbQ0gyXVtPSF0=

>  <s_glide_docking_method>  (1) 
confgen

>  <s_i_glide_gridfile>  (1) 
gpcr_5ht2c_6bqh_protein_autoprepared_prepared

>  <s_lp_Force_Field>  (1) 
S-OPLS

>  <s_lp_Variant>  (1) 
DiffSBDD_32_num_sample_100-1

>  <s_m_source_file>  (1) 
generated__ligand_DiffSBDD_2026-05-06_prepared.sdf

>  <GenAI_Model>  (1) 
DiffSBDD

>  <Protein>  (1) 
GPCR_5HT2C

$$$$
DiffSBDD_12_num_sample_100
     RDKit          3D

  0  0  0  0  0  0  0  0  0  0999 V3000
M  V30 BEGIN CTAB
M  V30 COUNTS 31 30 0 0 1
M  V30 BEGIN ATOM
M  V30 1 C 39.665863 29.749734 52.241696 0
M  V30 2 S 38.667409 30.794265 57.452910 0
M  V30 3 C 38.986274 33.221429 58.848105 0
M  V30 4 C 38.855870 27.664068 51.053505 0
M  V30 5 C 39.510823 30.798759 53.361456 0
M  V30 6 C 37.947945 32.301856 58.180176 0 CFG=2
M  V30 7 N 36.840137 31.938844 59.053715 0
M  V30 8 C 39.358361 30.267362 54.798606 0
M  V30 9 C 39.050317 31.405225 55.785534 0
M  V30 10 C 37.002611 31.509055 60.311509 0
M  V30 11 C 38.658432 28.590219 52.257483 0
M  V30 12 O 36.066705 31.221440 61.053396 0
M  V30 13 H 39.592200 30.268573 51.284815 0
M  V30 14 H 40.667402 29.333384 52.253469 0
M  V30 15 H 38.499385 34.094628 59.281092 0
M  V30 16 H 39.532132 32.724665 59.647810 0
M  V30 17 H 39.715748 33.576812 58.124746 0
M  V30 18 H 38.166974 26.821806 51.087369 0
M  V30 19 H 38.685635 28.202518 50.122011 0
M  V30 20 H 39.867144 27.258695 51.023109 0
M  V30 21 H 38.667438 31.444900 53.134247 0
M  V30 22 H 40.377957 31.453126 53.324599 0
M  V30 23 H 37.478541 32.863749 57.371945 0
M  V30 24 H 35.901116 32.019448 58.673648 0
M  V30 25 H 40.260704 29.735374 55.102064 0
M  V30 26 H 38.538198 29.551137 54.844162 0
M  V30 27 H 38.184293 31.961378 55.423336 0
M  V30 28 H 39.881137 32.108704 55.843364 0
M  V30 29 H 38.066022 31.449846 60.586034 0
M  V30 30 H 38.777505 28.003788 53.168616 0
M  V30 31 H 37.637165 28.970286 52.262926 0
M  V30 END ATOM
M  V30 BEGIN BOND
M  V30 1 1 5 1
M  V30 2 1 6 2
M  V30 3 1 6 3
M  V30 4 1 7 6
M  V30 5 1 8 5
M  V30 6 1 9 2
M  V30 7 1 9 8
M  V30 8 1 10 7
M  V30 9 1 11 1
M  V30 10 1 11 4
M  V30 11 2 12 10
M  V30 12 1 13 1
M  V30 13 1 14 1
M  V30 14 1 15 3
M  V30 15 1 16 3
M  V30 16 1 17 3
M  V30 17 1 18 4
M  V30 18 1 19 4
M  V30 19 1 20 4
M  V30 20 1 21 5
M  V30 21 1 22 5
M  V30 22 1 6 23 CFG=3
M  V30 23 1 24 7
M  V30 24 1 25 8
M  V30 25 1 26 8
M  V30 26 1 27 9
M  V30 27 1 28 9
M  V30 28 1 29 10
M  V30 29 1 30 11
M  V30 30 1 31 11
M  V30 END BOND
M  V30 END CTAB
M  END
>  <i_epik_Tot_Q>  (1) 
0

>  <i_epik_Tot_abs_Q>  (1) 
0

>  <i_i_glide_confnum>  (1) 
36

>  <i_i_glide_lignum>  (1) 
30

>  <i_i_glide_posenum>  (1) 
234

>  <i_i_glide_rotatable_bonds>  (1) 
8

>  <i_lp_mmshare_version>  (1) 
72125

>  <i_m_source_file_index>  (1) 
13

>  <i_f3d_flags>  (1) 
0

>  <num_sample>  (1) 
100

>  <b_lp_Chiralities_Consistent>  (1) 
1

>  <r_epik_Charging_Adjusted_Penalty>  (1) 
0

>  <r_epik_Ionization_Penalty>  (1) 
1.0816103535090204e-07

>  <r_epik_Ionization_Penalty_Charging>  (1) 
0

>  <r_epik_Ionization_Penalty_Neutral>  (1) 
1.0816103535090204e-07

>  <r_epik_State_Penalty>  (1) 
-0

>  <r_glide_ring_energy>  (1) 
0

>  <r_i_docking_score>  (1) 
-1.8790963996965118

>  <r_i_glide_ecoul>  (1) 
-5.3433442395697544

>  <r_i_glide_eff_state_penalty>  (1) 
-0

>  <r_i_glide_einternal>  (1) 
4.1343460315255633

>  <r_i_glide_emodel>  (1) 
-25.010224865352242

>  <r_i_glide_emodel_strain>  (1) 
0.56672304375115168

>  <r_i_glide_energy>  (1) 
-24.43818506216234

>  <r_i_glide_erotb>  (1) 
3.7571910880188595

>  <r_i_glide_esite>  (1) 
-0.14560195626251979

>  <r_i_glide_evdw>  (1) 
-19.094840822592587

>  <r_i_glide_gscore>  (1) 
-1.8790963996965118

>  <r_i_glide_gscore_strain>  (1) 
0

>  <r_i_glide_hbond>  (1) 
-0.40443057579654068

>  <r_i_glide_ligand_efficiency>  (1) 
-0.15659136664137599

>  <r_i_glide_ligand_efficiency_ln>  (1) 
-0.5392099670190087

>  <r_i_glide_ligand_efficiency_sa>  (1) 
-0.35850473531054761

>  <r_i_glide_lipo>  (1) 
-1.5382079210656077

>  <r_i_glide_metal>  (1) 
-0

>  <r_i_glide_rewards>  (1) 
-1.7918033575256105

>  <r_lp_Energy>  (1) 
-1.4832109999999998

>  <r_lp_tautomer_probability>  (1) 
1

>  <s_epik_Chemistry_Notes>  (1) 
This compound contains an acetal/aminal-like group ( X-CH(R)-Y where X, Y are N, S, or O) that may be acid/base labile, releasing an aldehyde.

>  <s_epik_cmdline>  (1) 
J2VwaWtfcHl0aG9uJywgJy1waHQnLCAnMS4wJywgJy1waCcsICc3LjQnLCAnLXRuJywgJzgnLCAnLW1hJywgJzUwMCcsICctaW1hZScsICc8aW5maWxlLm1hZT4nLCAnLW9tYWUnLCAnPG91dGZpbGUubWFlPic=

>  <s_epik_input>  (1) 
W0NIM11bQ0gyXVtDSDJdW0NIMl1bQ0gyXVtDSDJdU1tDQEhdKFtDSDNdKVtOSF1bQ0hdPU8=

>  <s_glide_docking_method>  (1) 
confgen

>  <s_i_glide_gridfile>  (1) 
gpcr_5ht2c_6bqh_protein_autoprepared_prepared

>  <s_lp_Force_Field>  (1) 
S-OPLS

>  <s_lp_Variant>  (1) 
DiffSBDD_12_num_sample_100-1

>  <s_m_source_file>  (1) 
generated__ligand_DiffSBDD_2026-05-06_prepared.sdf

>  <GenAI_Model>  (1) 
DiffSBDD

>  <Protein>  (1) 
GPCR_5HT2C

$$$$
DiffSBDD_29_num_sample_100
     RDKit          3D

  0  0  0  0  0  0  0  0  0  0999 V3000
M  V30 BEGIN CTAB
M  V30 COUNTS 86 90 0 0 1
M  V30 BEGIN ATOM
M  V30 1 F 38.674980 36.556900 61.995675 0
M  V30 2 C 35.753025 32.386603 60.777981 0
M  V30 3 C 40.174232 34.175765 61.073241 0
M  V30 4 C 39.812400 28.570234 56.942548 0 CFG=2
M  V30 5 C 39.871355 28.133568 51.974492 0
M  V30 6 C 41.310769 28.168588 56.955958 0
M  V30 7 C 39.898285 36.349213 63.934397 0
M  V30 8 N 37.131343 32.490968 60.291871 0
M  V30 9 C 37.759363 28.240255 55.396631 0 CFG=1
M  V30 10 C 39.976854 31.120651 51.196863 0
M  V30 11 C 39.344066 31.125247 60.491251 0
M  V30 12 C 40.050526 30.638134 52.628099 0 CFG=1
M  V30 13 C 39.540322 35.885164 62.774300 0
M  V30 14 C 38.289140 30.291736 59.826268 0 CFG=2
M  V30 15 C 35.322586 34.392509 59.217256 0
M  V30 16 C 37.103465 25.898539 56.255540 0
M  V30 17 C 39.256974 28.458972 55.474518 0 CFG=1
M  V30 18 C 38.229918 30.335898 58.276204 0 CFG=1
M  V30 19 C 41.038908 34.141566 63.432899 0
M  V30 20 N 36.792233 34.398368 59.082172 0 CHG=1
M  V30 21 N 40.104924 34.710105 62.425138 0
M  V30 22 F 39.445522 37.497457 64.452129 0
M  V30 23 S 39.138293 31.182159 54.118979 0
M  V30 24 C 37.535880 33.907488 60.273999 0 CFG=2
M  V30 25 C 34.792200 33.063956 59.789436 0
M  V30 26 C 37.842556 26.066142 53.860265 0
M  V30 27 O 37.867438 31.595597 57.726187 0
M  V30 28 C 39.798674 29.456292 54.424228 0 CFG=2
M  V30 29 C 39.591203 29.953526 57.609550 0
M  V30 30 C 40.486332 29.999051 50.267237 0
M  V30 31 C 39.827781 28.622956 50.515761 0
M  V30 32 C 39.014395 34.342387 60.046877 0
M  V30 33 O 37.067425 29.222119 54.654510 0
M  V30 34 C 39.467805 29.260929 52.903938 0 CFG=2
M  V30 35 C 37.915151 31.397316 60.844402 0 CFG=2
M  V30 36 C 37.240411 26.827290 55.036180 0
M  V30 37 O 39.285988 27.573226 57.807112 0
M  V30 38 S 41.061910 35.422829 64.840549 0
M  V30 39 H 35.456609 31.340013 60.881593 0
M  V30 40 H 35.671598 32.843881 61.764029 0
M  V30 41 H 40.534275 33.159603 61.166665 0
M  V30 42 H 41.012638 34.731598 60.654911 0
M  V30 43 H 39.172011 27.312063 52.020946 0
M  V30 44 H 40.802674 27.676016 52.253126 0
M  V30 45 H 41.923446 28.755734 56.275906 0
M  V30 46 H 41.748428 28.256257 57.952362 0
M  V30 47 H 41.442709 27.128241 56.652088 0
M  V30 48 H 37.447580 28.431500 56.404981 0
M  V30 49 H 39.067761 31.539961 50.815461 0
M  V30 50 H 40.667080 31.926569 51.123579 0
M  V30 51 H 39.857408 31.822390 59.853742 0
M  V30 52 H 39.962688 30.636422 61.240644 0
M  V30 53 H 41.066537 30.785331 52.932806 0
M  V30 54 H 38.216863 29.274223 60.206110 0
M  V30 55 H 34.855268 34.603835 58.253924 0
M  V30 56 H 35.067587 35.223775 59.855658 0
M  V30 57 H 38.073352 25.506260 56.559415 0
M  V30 58 H 36.666964 26.409327 57.112309 0
M  V30 59 H 36.465073 25.046566 56.026206 0
M  V30 60 H 39.687694 27.511585 55.162472 0
M  V30 61 H 37.429284 29.658831 58.002982 0
M  V30 62 H 40.661659 33.187725 63.804680 0
M  V30 63 H 42.040189 33.995345 63.026076 0
M  V30 64 H 37.027967 33.778173 58.315812 0
M  V30 65 H 37.176160 34.410661 61.174161 0
M  V30 66 H 34.589553 32.360740 58.989352 0
M  V30 67 H 33.823486 33.233068 60.256614 0
M  V30 68 H 38.930623 26.018638 53.878613 0
M  V30 69 H 37.462890 25.043999 53.863058 0
M  V30 70 H 37.499381 26.508074 52.926929 0
M  V30 71 H 36.941609 31.586984 57.458180 0
M  V30 72 H 40.840853 29.623771 54.654322 0
M  V30 73 H 40.337742 30.018441 58.389382 0
M  V30 74 H 39.872726 30.720583 56.892248 0
M  V30 75 H 40.339426 30.280968 49.227882 0
M  V30 76 H 41.562316 29.908258 50.400476 0
M  V30 77 H 38.779592 28.690634 50.228737 0
M  V30 78 H 40.264138 27.868092 49.868065 0
M  V30 79 H 38.969456 35.412214 59.854462 0
M  V30 80 H 39.354139 33.910051 59.105289 0
M  V30 81 H 37.466787 30.066688 54.821266 0
M  V30 82 H 38.396878 29.333377 52.712130 0
M  V30 83 H 37.682121 31.075221 61.858765 0
M  V30 84 H 36.267472 27.086709 54.653473 0
M  V30 85 H 38.345574 27.643804 57.832978 0
M  V30 86 H 37.085189 35.334771 58.844086 0
M  V30 END ATOM
M  V30 BEGIN BOND
M  V30 1 1 6 4
M  V30 2 1 8 2
M  V30 3 1 12 10
M  V30 4 1 13 1
M  V30 5 2 13 7
M  V30 6 1 14 11
M  V30 7 1 17 4
M  V30 8 1 17 9
M  V30 9 1 18 14
M  V30 10 1 20 15
M  V30 11 1 21 3
M  V30 12 1 21 13
M  V30 13 1 21 19
M  V30 14 1 22 7
M  V30 15 1 23 12
M  V30 16 1 24 8
M  V30 17 1 24 20
M  V30 18 1 25 2
M  V30 19 1 25 15
M  V30 20 1 27 18
M  V30 21 1 28 17
M  V30 22 1 28 23
M  V30 23 1 29 4
M  V30 24 1 29 18
M  V30 25 1 30 10
M  V30 26 1 31 5
M  V30 27 1 31 30
M  V30 28 1 32 3
M  V30 29 1 32 24
M  V30 30 1 33 9
M  V30 31 1 34 5
M  V30 32 1 34 12
M  V30 33 1 34 28
M  V30 34 1 35 8
M  V30 35 1 35 11
M  V30 36 1 35 14
M  V30 37 1 36 9
M  V30 38 1 36 16
M  V30 39 1 36 26
M  V30 40 1 4 37 CFG=1
M  V30 41 1 38 7
M  V30 42 1 38 19
M  V30 43 1 39 2
M  V30 44 1 40 2
M  V30 45 1 41 3
M  V30 46 1 42 3
M  V30 47 1 43 5
M  V30 48 1 44 5
M  V30 49 1 45 6
M  V30 50 1 46 6
M  V30 51 1 47 6
M  V30 52 1 9 48 CFG=1
M  V30 53 1 49 10
M  V30 54 1 50 10
M  V30 55 1 51 11
M  V30 56 1 52 11
M  V30 57 1 12 53 CFG=1
M  V30 58 1 14 54 CFG=1
M  V30 59 1 55 15
M  V30 60 1 56 15
M  V30 61 1 57 16
M  V30 62 1 58 16
M  V30 63 1 59 16
M  V30 64 1 17 60 CFG=3
M  V30 65 1 18 61 CFG=3
M  V30 66 1 62 19
M  V30 67 1 63 19
M  V30 68 1 64 20
M  V30 69 1 24 65 CFG=1
M  V30 70 1 66 25
M  V30 71 1 67 25
M  V30 72 1 68 26
M  V30 73 1 69 26
M  V30 74 1 70 26
M  V30 75 1 71 27
M  V30 76 1 28 72 CFG=3
M  V30 77 1 73 29
M  V30 78 1 74 29
M  V30 79 1 75 30
M  V30 80 1 76 30
M  V30 81 1 77 31
M  V30 82 1 78 31
M  V30 83 1 79 32
M  V30 84 1 80 32
M  V30 85 1 81 33
M  V30 86 1 34 82 CFG=1
M  V30 87 1 35 83 CFG=1
M  V30 88 1 84 36
M  V30 89 1 85 37
M  V30 90 1 86 20
M  V30 END BOND
M  V30 END CTAB
M  END
>  <i_epik_Tot_Q>  (1) 
1

>  <i_epik_Tot_abs_Q>  (1) 
1

>  <i_i_glide_confnum>  (1) 
1806

>  <i_i_glide_lignum>  (1) 
72

>  <i_i_glide_posenum>  (1) 
28

>  <i_i_glide_rotatable_bonds>  (1) 
14

>  <i_lp_mmshare_version>  (1) 
72125

>  <i_m_source_file_index>  (1) 
30

>  <i_f3d_flags>  (1) 
0

>  <num_sample>  (1) 
100

>  <b_lp_Chiralities_Consistent>  (1) 
1

>  <r_epik_Charging_Adjusted_Penalty>  (1) 
0.43533657855592212

>  <r_epik_Ionization_Penalty>  (1) 
0.17417288321429925

>  <r_epik_Ionization_Penalty_Charging>  (1) 
0.17415579174197784

>  <r_epik_Ionization_Penalty_Neutral>  (1) 
1.7091472321405907e-05

>  <r_epik_State_Penalty>  (1) 
0.2611807868139443

>  <r_glide_ring_energy>  (1) 
0.53215094814158026

>  <r_i_docking_score>  (1) 
-1.8445136044222119

>  <r_i_glide_ecoul>  (1) 
-4.0931009447080706

>  <r_i_glide_eff_state_penalty>  (1) 
0.2611807868139443

>  <r_i_glide_einternal>  (1) 
16.004015998002544

>  <r_i_glide_emodel>  (1) 
3.5711247347542496

>  <r_i_glide_emodel_strain>  (1) 
23.804374365118861

>  <r_i_glide_energy>  (1) 
-23.068120654400605

>  <r_i_glide_erotb>  (1) 
0.46833353265868582

>  <r_i_glide_esite>  (1) 
-0.052490502862350075

>  <r_i_glide_evdw>  (1) 
-18.975019709692535

>  <r_i_glide_gscore>  (1) 
-2.1056943912361561

>  <r_i_glide_gscore_strain>  (1) 
4.9510935912797152

>  <r_i_glide_hbond>  (1) 
-0.16

>  <r_i_glide_ligand_efficiency>  (1) 
-0.048539831695321368

>  <r_i_glide_ligand_efficiency_ln>  (1) 
-0.39773139320629614

>  <r_i_glide_ligand_efficiency_sa>  (1) 
-0.16318972040983129

>  <r_i_glide_lipo>  (1) 
-4.3180599352972751

>  <r_i_glide_metal>  (1) 
-0

>  <r_i_glide_rewards>  (1) 
-1.431854949824094

>  <r_lp_Energy>  (1) 
47.870706999999996

>  <s_epik_Chemistry_Notes>  (1) 
This compound has an imine and may undergo hydrolysis. This compound contains an acetal/aminal-like group ( X-CH(R)-Y where X, Y are N, S, or O) that may be acid/base labile, releasing an aldehyde.

>  <s_epik_cmdline>  (1) 
J2VwaWtfcHl0aG9uJywgJy1waHQnLCAnMS4wJywgJy1waCcsICc3LjQnLCAnLXRuJywgJzgnLCAnLW1hJywgJzUwMCcsICctaW1hZScsICc8aW5maWxlLm1hZT4nLCAnLW9tYWUnLCAnPG91dGZpbGUubWFlPic=

>  <s_epik_input>  (1) 
RkMxPUMoRilOKFtDSDJdUzEpW0NIMl1bQ0gyXVtDQEhdMltOSF1bQ0gyXVtDSDJdW0NIMl1OMltDQEBIXTNbQ0gyXVtDQEBIXTNbQ0BASF0oW09IXSlbQ0gyXVtDQEBdKFtDSDNdKShbT0hdKVtDQEBIXShbQ0BASF0oW09IXSlbQ0hdKFtDSDNdKVtDSDNdKVtDQEhdKFM0KVtDQEBIXShbQ0BASF00NSlbQ0gyXVtDSDJdW0NIMl1bQ0gyXTU=

>  <s_glide_docking_method>  (1) 
confgen

>  <s_i_glide_gridfile>  (1) 
gpcr_5ht2c_6bqh_protein_autoprepared_prepared

>  <s_lp_Force_Field>  (1) 
S-OPLS

>  <s_lp_Variant>  (1) 
DiffSBDD_29_num_sample_100-2

>  <s_m_source_file>  (1) 
generated__ligand_DiffSBDD_2026-05-06_prepared.sdf

>  <GenAI_Model>  (1) 
DiffSBDD

>  <Protein>  (1) 
GPCR_5HT2C

$$$$
DiffSBDD_93_num_sample_100
     RDKit          3D

  0  0  0  0  0  0  0  0  0  0999 V3000
M  V30 BEGIN CTAB
M  V30 COUNTS 74 77 0 0 1
M  V30 BEGIN ATOM
M  V30 1 C 39.696458 27.504924 58.478182 0
M  V30 2 S 39.325582 32.438323 55.985827 0
M  V30 3 C 37.929613 26.347223 57.106859 0 CFG=2
M  V30 4 O 37.288126 34.730783 60.182007 0
M  V30 5 C 40.212064 30.958776 51.183018 0
M  V30 6 C 37.079113 32.112475 59.060275 0 CFG=1
M  V30 7 C 39.169330 28.659841 52.947263 0
M  V30 8 C 40.000339 30.077531 54.796738 0
M  V30 9 C 38.878626 26.481260 55.932330 0
M  V30 10 N 39.120353 29.903702 56.960400 0
M  V30 11 C 40.657710 29.719312 50.419162 0
M  V30 12 C 38.399799 27.328792 58.155375 0
M  V30 13 C 40.067580 28.488047 59.507414 0
M  V30 14 C 38.838135 30.413304 58.302294 0 CFG=2
M  V30 15 C 40.359101 26.273026 56.304817 0
M  V30 16 Cl 42.308758 27.621428 57.660375 0
M  V30 17 O 38.667410 28.421429 50.253503 0
M  V30 18 C 40.772580 26.705501 57.744987 0 CFG=1
M  V30 19 C 40.934376 28.060646 60.673436 0
M  V30 20 C 37.877015 33.230725 56.742864 0
M  V30 21 C 37.318916 32.331081 60.559131 0
M  V30 22 C 39.641606 29.777229 59.440215 0
M  V30 23 C 39.955035 27.796661 51.977400 0
M  V30 24 C 37.788625 33.281500 58.297891 0 CFG=1
M  V30 25 C 38.900653 30.675534 55.732633 0 CFG=1
M  V30 26 C 39.985313 28.362919 50.599688 0 CFG=2
M  V30 27 C 37.076993 34.564754 58.782225 0
M  V30 28 C 36.721150 33.686570 60.964474 0
M  V30 29 C 39.867375 31.006704 52.489627 0
M  V30 30 S 37.266584 30.249314 55.053518 0
M  V30 31 N 39.756939 29.933706 53.356292 0
M  V30 32 C 37.830558 24.897204 57.608928 0
M  V30 33 C 37.367264 30.663196 58.619386 0
M  V30 34 H 36.940563 26.662558 56.788899 0
M  V30 35 H 40.245544 31.876877 50.625285 0
M  V30 36 H 36.001089 32.231256 58.961303 0
M  V30 37 H 38.992695 28.041031 53.804656 0
M  V30 38 H 38.168017 28.863795 52.567167 0
M  V30 39 H 40.290700 29.086415 55.144336 0
M  V30 40 H 40.916619 30.656229 54.907343 0
M  V30 41 H 38.583972 25.859304 55.086839 0
M  V30 42 H 38.743886 27.510517 55.633285 0
M  V30 43 H 38.723159 28.982038 56.852830 0
M  V30 44 H 41.716487 29.621458 50.653541 0
M  V30 45 H 40.617819 29.977026 49.360962 0
M  V30 46 H 37.639299 27.901986 58.653501 0
M  V30 47 H 39.332588 31.369856 58.300051 0
M  V30 48 H 40.611346 25.221808 56.162993 0
M  V30 49 H 40.958019 26.809394 55.570791 0
M  V30 50 H 38.535690 29.036904 49.538520 0
M  V30 51 H 40.979078 25.787402 58.281727 0
M  V30 52 H 40.395304 27.339012 61.284159 0
M  V30 53 H 41.867399 27.621450 60.333280 0
M  V30 54 H 41.191238 28.900358 61.318714 0
M  V30 55 H 37.872881 34.246662 56.350798 0
M  V30 56 H 37.067404 32.738993 56.269935 0
M  V30 57 H 38.387135 32.310661 60.780806 0
M  V30 58 H 36.857900 31.536956 61.146626 0
M  V30 59 H 39.910092 30.449504 60.243029 0
M  V30 60 H 39.492249 26.808170 51.947279 0
M  V30 61 H 40.971826 27.621431 52.253501 0
M  V30 62 H 38.816143 33.376531 58.650188 0
M  V30 63 H 40.454489 27.632471 49.946155 0
M  V30 64 H 37.467404 35.446945 58.282582 0
M  V30 65 H 36.008279 34.536536 58.567671 0
M  V30 66 H 36.923343 33.879059 62.012214 0
M  V30 67 H 35.636177 33.685996 60.848804 0
M  V30 68 H 39.642866 31.948359 52.963522 0
M  V30 69 H 36.534037 30.925455 55.957531 0
M  V30 70 H 37.199828 24.817180 58.489977 0
M  V30 71 H 37.394052 24.260978 56.839857 0
M  V30 72 H 38.808015 24.483154 57.853490 0
M  V30 73 H 37.023996 29.973291 59.390131 0
M  V30 74 H 36.745777 30.421439 57.763099 0
M  V30 END ATOM
M  V30 BEGIN BOND
M  V30 1 1 9 3
M  V30 2 1 11 5
M  V30 3 2 12 1
M  V30 4 1 12 3
M  V30 5 1 13 1
M  V30 6 1 14 10
M  V30 7 1 15 9
M  V30 8 1 18 1
M  V30 9 1 18 15
M  V30 10 1 18 16
M  V30 11 1 19 13
M  V30 12 1 20 2
M  V30 13 1 21 6
M  V30 14 2 22 13
M  V30 15 1 22 14
M  V30 16 1 23 7
M  V30 17 1 24 6
M  V30 18 1 24 20
M  V30 19 1 25 2
M  V30 20 1 25 8
M  V30 21 1 25 10
M  V30 22 1 26 11
M  V30 23 1 26 17
M  V30 24 1 26 23
M  V30 25 1 27 4
M  V30 26 1 27 24
M  V30 27 1 28 4
M  V30 28 1 28 21
M  V30 29 2 29 5
M  V30 30 1 25 30 CFG=3
M  V30 31 1 31 7
M  V30 32 1 31 8
M  V30 33 1 31 29
M  V30 34 1 32 3
M  V30 35 1 33 6
M  V30 36 1 33 14
M  V30 37 1 3 34 CFG=3
M  V30 38 1 35 5
M  V30 39 1 6 36 CFG=1
M  V30 40 1 37 7
M  V30 41 1 38 7
M  V30 42 1 39 8
M  V30 43 1 40 8
M  V30 44 1 41 9
M  V30 45 1 42 9
M  V30 46 1 43 10
M  V30 47 1 44 11
M  V30 48 1 45 11
M  V30 49 1 46 12
M  V30 50 1 14 47 CFG=3
M  V30 51 1 48 15
M  V30 52 1 49 15
M  V30 53 1 50 17
M  V30 54 1 18 51 CFG=1
M  V30 55 1 52 19
M  V30 56 1 53 19
M  V30 57 1 54 19
M  V30 58 1 55 20
M  V30 59 1 56 20
M  V30 60 1 57 21
M  V30 61 1 58 21
M  V30 62 1 59 22
M  V30 63 1 60 23
M  V30 64 1 61 23
M  V30 65 1 24 62 CFG=1
M  V30 66 1 26 63 CFG=3
M  V30 67 1 64 27
M  V30 68 1 65 27
M  V30 69 1 66 28
M  V30 70 1 67 28
M  V30 71 1 68 29
M  V30 72 1 69 30
M  V30 73 1 70 32
M  V30 74 1 71 32
M  V30 75 1 72 32
M  V30 76 1 73 33
M  V30 77 1 74 33
M  V30 END BOND
M  V30 END CTAB
M  END
>  <i_epik_Tot_Q>  (1) 
0

>  <i_epik_Tot_abs_Q>  (1) 
0

>  <i_i_glide_confnum>  (1) 
4

>  <i_i_glide_lignum>  (1) 
256

>  <i_i_glide_posenum>  (1) 
17

>  <i_i_glide_rotatable_bonds>  (1) 
6

>  <i_lp_mmshare_version>  (1) 
72125

>  <i_m_source_file_index>  (1) 
94

>  <i_f3d_flags>  (1) 
0

>  <num_sample>  (1) 
100

>  <b_lp_Chiralities_Consistent>  (1) 
1

>  <r_epik_Charging_Adjusted_Penalty>  (1) 
0.20325292957253988

>  <r_epik_Ionization_Penalty>  (1) 
0.031936562948065232

>  <r_epik_Ionization_Penalty_Charging>  (1) 
3.6030848355623751e-07

>  <r_epik_Ionization_Penalty_Neutral>  (1) 
0.031936202639581676

>  <r_epik_State_Penalty>  (1) 
0.20325256926405633

>  <r_glide_ring_energy>  (1) 
0.87711550699272567

>  <r_i_docking_score>  (1) 
-1.829373191791996

>  <r_i_glide_ecoul>  (1) 
-5.3607648006700028

>  <r_i_glide_eff_state_penalty>  (1) 
0.20325256926405633

>  <r_i_glide_einternal>  (1) 
20.908328212573341

>  <r_i_glide_emodel>  (1) 
10.021231366836643

>  <r_i_glide_emodel_strain>  (1) 
25.731465161528078

>  <r_i_glide_energy>  (1) 
-24.357222267201578

>  <r_i_glide_erotb>  (1) 
0.31140238833871409

>  <r_i_glide_esite>  (1) 
-0.059576270350891636

>  <r_i_glide_evdw>  (1) 
-18.996457466531577

>  <r_i_glide_gscore>  (1) 
-2.0326257610560523

>  <r_i_glide_gscore_strain>  (1) 
5.4328662903820195

>  <r_i_glide_hbond>  (1) 
-0.42300581708134205

>  <r_i_glide_ligand_efficiency>  (1) 
-0.055435551266424118

>  <r_i_glide_ligand_efficiency_ln>  (1) 
-0.40684312586708266

>  <r_i_glide_ligand_efficiency_sa>  (1) 
-0.17781143378929901

>  <r_i_glide_lipo>  (1) 
-4.4348288671672016

>  <r_i_glide_metal>  (1) 
-0

>  <r_i_glide_rewards>  (1) 
-1.1055458917502712

>  <r_lp_Energy>  (1) 
35.986021999999998

>  <s_epik_Chemistry_Notes>  (1) 
This compound has an imine and may undergo hydrolysis.

>  <s_epik_cmdline>  (1) 
J2VwaWtfcHl0aG9uJywgJy1waHQnLCAnMS4wJywgJy1waCcsICc3LjQnLCAnLXRuJywgJzgnLCAnLW1hJywgJzUwMCcsICctaW1hZScsICc8aW5maWxlLm1hZT4nLCAnLW9tYWUnLCAnPG91dGZpbGUubWFlPic=

>  <s_epik_input>  (1) 
Q2xbQ0BIXTFbQ0gyXVtDSDJdW0NAQEhdKFtDSDNdKVtDSF09QzEvQyhbQ0gzXSk9W0NIXVxbQ0BASF0oW0NIMl0yKVtOSF1bQ0BAXShbU0hdKShTW0NIMl1bQ0BIXShbQ0BASF0yMylbQ0gyXU9bQ0gyXVtDSDJdMylbQ0gyXU4oW0NIMl1bQ0gyXTQpW0NIXT1bQ0hdW0NIMl1bQ0BASF00W09IXQ==

>  <s_glide_docking_method>  (1) 
confgen

>  <s_i_glide_gridfile>  (1) 
gpcr_5ht2c_6bqh_protein_autoprepared_prepared

>  <s_lp_Force_Field>  (1) 
S-OPLS

>  <s_lp_Variant>  (1) 
DiffSBDD_93_num_sample_100-8

>  <s_m_source_file>  (1) 
generated__ligand_DiffSBDD_2026-05-06_prepared.sdf

>  <GenAI_Model>  (1) 
DiffSBDD

>  <Protein>  (1) 
GPCR_5HT2C

$$$$
DiffSBDD_73_num_sample_100
     RDKit          3D

  0  0  0  0  0  0  0  0  0  0999 V3000
M  V30 BEGIN CTAB
M  V30 COUNTS 29 28 0 0 1
M  V30 BEGIN ATOM
M  V30 1 C 39.038604 31.358985 55.535273 0
M  V30 2 N 38.347462 30.326192 56.045247 0
M  V30 3 C 40.989596 30.184241 50.598771 0
M  V30 4 O 39.877815 31.221429 54.648815 0
M  V30 5 C 37.647028 28.778230 54.314460 0
M  V30 6 C 38.743085 32.752297 56.104086 0
M  V30 7 Cl 39.817686 31.210448 49.853508 0
M  V30 8 C 40.667403 29.033305 51.214353 0
M  V30 9 C 38.523056 28.962926 55.559003 0
M  V30 10 C 37.762684 27.417252 53.613641 0
M  V30 11 N 37.867403 32.770268 57.290724 0 CHG=1
M  V30 12 S 39.013726 28.433609 51.333798 0
M  V30 13 C 39.027896 27.308643 52.755245 0
M  V30 14 H 37.657883 30.488564 56.764363 0
M  V30 15 H 42.009812 30.533392 50.536710 0
M  V30 16 H 37.823545 29.579999 53.597325 0
M  V30 17 H 36.634627 28.920028 54.653289 0
M  V30 18 H 39.692641 33.221430 56.359386 0
M  V30 19 H 38.284988 33.359158 55.322039 0
M  V30 20 H 41.428670 28.421430 51.667238 0
M  V30 21 H 38.221380 28.265273 56.340896 0
M  V30 22 H 39.573440 28.758347 55.344746 0
M  V30 23 H 36.886274 27.260785 52.987704 0
M  V30 24 H 37.746117 26.618755 54.356084 0
M  V30 25 H 37.762333 33.721361 57.612259 0
M  V30 26 H 36.930274 32.421428 57.053501 0
M  V30 27 H 39.174279 26.304281 52.377228 0
M  V30 28 H 39.867402 27.525329 53.395442 0
M  V30 29 H 38.257857 32.203755 58.027547 0
M  V30 END ATOM
M  V30 BEGIN BOND
M  V30 1 1 2 1
M  V30 2 2 4 1
M  V30 3 1 6 1
M  V30 4 1 7 3
M  V30 5 2 8 3
M  V30 6 1 9 2
M  V30 7 1 9 5
M  V30 8 1 10 5
M  V30 9 1 11 6
M  V30 10 1 12 8
M  V30 11 1 13 10
M  V30 12 1 13 12
M  V30 13 1 14 2
M  V30 14 1 15 3
M  V30 15 1 16 5
M  V30 16 1 17 5
M  V30 17 1 18 6
M  V30 18 1 19 6
M  V30 19 1 20 8
M  V30 20 1 21 9
M  V30 21 1 22 9
M  V30 22 1 23 10
M  V30 23 1 24 10
M  V30 24 1 25 11
M  V30 25 1 26 11
M  V30 26 1 27 13
M  V30 27 1 28 13
M  V30 28 1 29 11
M  V30 END BOND
M  V30 END CTAB
M  END
>  <i_epik_Tot_Q>  (1) 
1

>  <i_epik_Tot_abs_Q>  (1) 
1

>  <i_i_glide_confnum>  (1) 
235

>  <i_i_glide_lignum>  (1) 
183

>  <i_i_glide_posenum>  (1) 
203

>  <i_i_glide_rotatable_bonds>  (1) 
8

>  <i_lp_mmshare_version>  (1) 
72125

>  <i_m_source_file_index>  (1) 
74

>  <i_f3d_flags>  (1) 
0

>  <num_sample>  (1) 
100

>  <b_lp_Chiralities_Consistent>  (1) 
1

>  <r_epik_Charging_Adjusted_Penalty>  (1) 
0.46467811747974586

>  <r_epik_Ionization_Penalty>  (1) 
0.232341814366232

>  <r_epik_Ionization_Penalty_Charging>  (1) 
0.23233905873987296

>  <r_epik_Ionization_Penalty_Neutral>  (1) 
2.7556263590493095e-06

>  <r_epik_State_Penalty>  (1) 
0.23233905873987287

>  <r_glide_ring_energy>  (1) 
0

>  <r_i_docking_score>  (1) 
-1.8290107715870654

>  <r_i_glide_ecoul>  (1) 
-5.1458681435186424

>  <r_i_glide_eff_state_penalty>  (1) 
0.23233905873987287

>  <r_i_glide_einternal>  (1) 
4.9683747001502709

>  <r_i_glide_emodel>  (1) 
-33.493640141934307

>  <r_i_glide_emodel_strain>  (1) 
0.059105379710199912

>  <r_i_glide_energy>  (1) 
-30.40565693482386

>  <r_i_glide_erotb>  (1) 
4.7351388872927176

>  <r_i_glide_esite>  (1) 
-0.13935687622317613

>  <r_i_glide_evdw>  (1) 
-25.259788791305219

>  <r_i_glide_gscore>  (1) 
-2.0613498303269382

>  <r_i_glide_gscore_strain>  (1) 
0

>  <r_i_glide_hbond>  (1) 
-0.20000000000000001

>  <r_i_glide_ligand_efficiency>  (1) 
-0.14069313627592811

>  <r_i_glide_ligand_efficiency_ln>  (1) 
-0.51305378791956624

>  <r_i_glide_ligand_efficiency_sa>  (1) 
-0.33081665164981344

>  <r_i_glide_lipo>  (1) 
-2.1540286267610158

>  <r_i_glide_metal>  (1) 
-0

>  <r_i_glide_rewards>  (1) 
-2.2682335535424065

>  <r_lp_Energy>  (1) 
9.3388109999999998

>  <s_epik_cmdline>  (1) 
J2VwaWtfcHl0aG9uJywgJy1waHQnLCAnMS4wJywgJy1waCcsICc3LjQnLCAnLXRuJywgJzgnLCAnLW1hJywgJzUwMCcsICctaW1hZScsICc8aW5maWxlLm1hZT4nLCAnLW9tYWUnLCAnPG91dGZpbGUubWFlPic=

>  <s_epik_input>  (1) 
W05IMl1bQ0gyXUMoPU8pW05IXVtDSDJdW0NIMl1bQ0gyXVtDSDJdUy9bQ0hdPVtDSF1cQ2w=

>  <s_glide_docking_method>  (1) 
confgen

>  <s_i_glide_gridfile>  (1) 
gpcr_5ht2c_6bqh_protein_autoprepared_prepared

>  <s_lp_Force_Field>  (1) 
S-OPLS

>  <s_lp_Variant>  (1) 
DiffSBDD_73_num_sample_100-2

>  <s_m_source_file>  (1) 
generated__ligand_DiffSBDD_2026-05-06_prepared.sdf

>  <GenAI_Model>  (1) 
DiffSBDD

>  <Protein>  (1) 
GPCR_5HT2C

$$$$
DiffSBDD_73_num_sample_100
     RDKit          3D

  0  0  0  0  0  0  0  0  0  0999 V3000
M  V30 BEGIN CTAB
M  V30 COUNTS 29 28 0 0 1
M  V30 BEGIN ATOM
M  V30 1 C 37.061602 33.753229 59.328542 0
M  V30 2 N 37.467407 33.123128 58.214074 0
M  V30 3 C 40.145110 30.539184 51.551771 0
M  V30 4 O 37.838420 34.164523 60.188571 0
M  V30 5 C 39.123901 32.749459 56.421133 0
M  V30 6 C 35.556537 33.935079 59.502671 0
M  V30 7 Cl 40.882696 30.421412 49.996829 0
M  V30 8 C 39.467745 29.519232 52.108170 0
M  V30 9 C 38.862322 32.852934 57.931849 0
M  V30 10 C 38.611879 31.439387 55.800502 0
M  V30 11 N 34.858682 32.638693 59.453505 0 CHG=1
M  V30 12 S 38.698287 29.612114 53.709918 0
M  V30 13 C 39.102364 31.258183 54.359255 0
M  V30 14 H 36.775292 32.799595 57.539639 0
M  V30 15 H 40.267395 31.491034 52.043759 0
M  V30 16 H 40.199601 32.816497 56.253503 0
M  V30 17 H 38.690403 33.607334 55.903775 0
M  V30 18 H 35.354506 34.421436 60.457464 0
M  V30 19 H 35.175445 34.587268 58.715621 0
M  V30 20 H 39.363413 28.578698 51.586531 0
M  V30 21 H 39.084430 31.910125 58.429054 0
M  V30 22 H 39.506069 33.621416 58.362140 0
M  V30 23 H 37.521452 31.407203 55.831698 0
M  V30 24 H 38.963991 30.597444 56.397716 0
M  V30 25 H 33.867413 32.774313 59.583844 0
M  V30 26 H 35.028999 32.228980 58.525934 0
M  V30 27 H 40.185939 31.375057 54.329837 0
M  V30 28 H 38.666811 32.021556 53.713387 0
M  V30 29 H 35.227833 32.021414 60.160300 0
M  V30 END ATOM
M  V30 BEGIN BOND
M  V30 1 1 2 1
M  V30 2 2 4 1
M  V30 3 1 6 1
M  V30 4 1 7 3
M  V30 5 2 8 3
M  V30 6 1 9 2
M  V30 7 1 9 5
M  V30 8 1 10 5
M  V30 9 1 11 6
M  V30 10 1 12 8
M  V30 11 1 13 10
M  V30 12 1 13 12
M  V30 13 1 14 2
M  V30 14 1 15 3
M  V30 15 1 16 5
M  V30 16 1 17 5
M  V30 17 1 18 6
M  V30 18 1 19 6
M  V30 19 1 20 8
M  V30 20 1 21 9
M  V30 21 1 22 9
M  V30 22 1 23 10
M  V30 23 1 24 10
M  V30 24 1 25 11
M  V30 25 1 26 11
M  V30 26 1 27 13
M  V30 27 1 28 13
M  V30 28 1 29 11
M  V30 END BOND
M  V30 END CTAB
M  END
>  <i_epik_Tot_Q>  (1) 
1

>  <i_epik_Tot_abs_Q>  (1) 
1

>  <i_i_glide_confnum>  (1) 
78

>  <i_i_glide_lignum>  (1) 
182

>  <i_i_glide_posenum>  (1) 
278

>  <i_i_glide_rotatable_bonds>  (1) 
8

>  <i_lp_mmshare_version>  (1) 
72125

>  <i_m_source_file_index>  (1) 
74

>  <i_f3d_flags>  (1) 
0

>  <num_sample>  (1) 
100

>  <b_lp_Chiralities_Consistent>  (1) 
1

>  <r_epik_Charging_Adjusted_Penalty>  (1) 
0.46467811747974586

>  <r_epik_Ionization_Penalty>  (1) 
0.232341814366232

>  <r_epik_Ionization_Penalty_Charging>  (1) 
0.23233905873987296

>  <r_epik_Ionization_Penalty_Neutral>  (1) 
2.7556263590493095e-06

>  <r_epik_State_Penalty>  (1) 
0.23233905873987287

>  <r_glide_ring_energy>  (1) 
0

>  <r_i_docking_score>  (1) 
-1.751806778212478

>  <r_i_glide_ecoul>  (1) 
-7.6703432194247991

>  <r_i_glide_eff_state_penalty>  (1) 
0.23233905873987287

>  <r_i_glide_einternal>  (1) 
5.549264101665746

>  <r_i_glide_emodel>  (1) 
-34.595164031100339

>  <r_i_glide_emodel_strain>  (1) 
0.4629843278622694

>  <r_i_glide_energy>  (1) 
-31.942658196067413

>  <r_i_glide_erotb>  (1) 
4.7351388872927176

>  <r_i_glide_esite>  (1) 
-0.23010568414788191

>  <r_i_glide_evdw>  (1) 
-24.272314976642612

>  <r_i_glide_gscore>  (1) 
-1.9841458369523508

>  <r_i_glide_gscore_strain>  (1) 
0

>  <r_i_glide_hbond>  (1) 
-0.35999999999999999

>  <r_i_glide_ligand_efficiency>  (1) 
-0.13475436755480599

>  <r_i_glide_ligand_efficiency_ln>  (1) 
-0.49139738115659298

>  <r_i_glide_ligand_efficiency_sa>  (1) 
-0.31685261875348797

>  <r_i_glide_lipo>  (1) 
-1.5048608022911942

>  <r_i_glide_metal>  (1) 
-0

>  <r_i_glide_rewards>  (1) 
-2.2601510060601413

>  <r_lp_Energy>  (1) 
10.166019

>  <s_epik_cmdline>  (1) 
J2VwaWtfcHl0aG9uJywgJy1waHQnLCAnMS4wJywgJy1waCcsICc3LjQnLCAnLXRuJywgJzgnLCAnLW1hJywgJzUwMCcsICctaW1hZScsICc8aW5maWxlLm1hZT4nLCAnLW9tYWUnLCAnPG91dGZpbGUubWFlPic=

>  <s_epik_input>  (1) 
W05IMl1bQ0gyXUMoPU8pW05IXVtDSDJdW0NIMl1bQ0gyXVtDSDJdU1xbQ0hdPVtDSF1cQ2w=

>  <s_glide_docking_method>  (1) 
confgen

>  <s_i_glide_gridfile>  (1) 
gpcr_5ht2c_6bqh_protein_autoprepared_prepared

>  <s_lp_Force_Field>  (1) 
S-OPLS

>  <s_lp_Variant>  (1) 
DiffSBDD_73_num_sample_100-1

>  <s_m_source_file>  (1) 
generated__ligand_DiffSBDD_2026-05-06_prepared.sdf

>  <GenAI_Model>  (1) 
DiffSBDD

>  <Protein>  (1) 
GPCR_5HT2C

$$$$
DiffSBDD_73_num_sample_100
     RDKit          3D

  0  0  0  0  0  0  0  0  0  0999 V3000
M  V30 BEGIN CTAB
M  V30 COUNTS 29 28 0 0 1
M  V30 BEGIN ATOM
M  V30 1 C 36.192488 32.070383 60.523026 0
M  V30 2 N 36.301195 31.312518 59.423913 0
M  V30 3 C 40.086878 30.464232 52.025037 0
M  V30 4 O 36.681494 31.752869 61.603457 0
M  V30 5 C 37.232963 29.568580 57.953438 0
M  V30 6 C 35.420196 33.387438 60.382234 0
M  V30 7 Cl 40.057334 29.648646 50.504602 0
M  V30 8 C 39.436564 30.003825 53.103959 0
M  V30 9 C 37.018806 30.044917 59.399522 0
M  V30 10 C 38.203966 30.409808 57.108213 0
M  V30 11 N 35.570970 34.015281 59.053504 0 CHG=1
M  V30 12 S 39.467366 30.834287 54.662783 0
M  V30 13 C 38.315635 29.865784 55.673907 0
M  V30 14 H 35.867423 31.621385 58.549551 0
M  V30 15 H 40.667447 31.374091 52.047831 0
M  V30 16 H 36.267157 29.557721 57.452999 0
M  V30 17 H 37.579775 28.534451 57.969082 0
M  V30 18 H 34.363079 33.194707 60.566101 0
M  V30 19 H 35.755971 34.088297 61.147803 0
M  V30 20 H 38.860120 29.091814 53.057747 0
M  V30 21 H 36.397273 29.302341 59.891317 0
M  V30 22 H 37.968054 30.103099 59.935159 0
M  V30 23 H 39.188477 30.418605 57.575314 0
M  V30 24 H 37.866984 31.446796 57.073540 0
M  V30 25 H 34.984143 34.834404 58.983549 0
M  V30 26 H 36.534631 34.279494 58.906861 0
M  V30 27 H 37.337068 29.872967 55.190729 0
M  V30 28 H 38.658073 28.830564 55.689512 0
M  V30 29 H 35.311101 33.357103 58.326049 0
M  V30 END ATOM
M  V30 BEGIN BOND
M  V30 1 1 2 1
M  V30 2 2 4 1
M  V30 3 1 6 1
M  V30 4 1 7 3
M  V30 5 2 8 3
M  V30 6 1 9 2
M  V30 7 1 9 5
M  V30 8 1 10 5
M  V30 9 1 11 6
M  V30 10 1 12 8
M  V30 11 1 13 10
M  V30 12 1 13 12
M  V30 13 1 14 2
M  V30 14 1 15 3
M  V30 15 1 16 5
M  V30 16 1 17 5
M  V30 17 1 18 6
M  V30 18 1 19 6
M  V30 19 1 20 8
M  V30 20 1 21 9
M  V30 21 1 22 9
M  V30 22 1 23 10
M  V30 23 1 24 10
M  V30 24 1 25 11
M  V30 25 1 26 11
M  V30 26 1 27 13
M  V30 27 1 28 13
M  V30 28 1 29 11
M  V30 END BOND
M  V30 END CTAB
M  END
>  <i_epik_Tot_Q>  (1) 
1

>  <i_epik_Tot_abs_Q>  (1) 
1

>  <i_i_glide_confnum>  (1) 
223

>  <i_i_glide_lignum>  (1) 
182

>  <i_i_glide_posenum>  (1) 
239

>  <i_i_glide_rotatable_bonds>  (1) 
8

>  <i_lp_mmshare_version>  (1) 
72125

>  <i_m_source_file_index>  (1) 
74

>  <i_f3d_flags>  (1) 
0

>  <num_sample>  (1) 
100

>  <b_lp_Chiralities_Consistent>  (1) 
1

>  <r_epik_Charging_Adjusted_Penalty>  (1) 
0.46467811747974586

>  <r_epik_Ionization_Penalty>  (1) 
0.232341814366232

>  <r_epik_Ionization_Penalty_Charging>  (1) 
0.23233905873987296

>  <r_epik_Ionization_Penalty_Neutral>  (1) 
2.7556263590493095e-06

>  <r_epik_State_Penalty>  (1) 
0.23233905873987287

>  <r_glide_ring_energy>  (1) 
0

>  <r_i_docking_score>  (1) 
-1.7477219632274916

>  <r_i_glide_ecoul>  (1) 
-9.3554633115638435

>  <r_i_glide_eff_state_penalty>  (1) 
0.23233905873987287

>  <r_i_glide_einternal>  (1) 
4.8627054670597589

>  <r_i_glide_emodel>  (1) 
-34.969027059142519

>  <r_i_glide_emodel_strain>  (1) 
0.16214418923093632

>  <r_i_glide_energy>  (1) 
-31.684527922933633

>  <r_i_glide_erotb>  (1) 
4.7351388872927176

>  <r_i_glide_esite>  (1) 
-0.20164304573804334

>  <r_i_glide_evdw>  (1) 
-22.329064611369791

>  <r_i_glide_gscore>  (1) 
-1.9800610219673644

>  <r_i_glide_gscore_strain>  (1) 
0

>  <r_i_glide_hbond>  (1) 
-0.65599999999999992

>  <r_i_glide_ligand_efficiency>  (1) 
-0.13444015101749934

>  <r_i_glide_ligand_efficiency_ln>  (1) 
-0.49025155422459554

>  <r_i_glide_ligand_efficiency_sa>  (1) 
-0.31611379050986338

>  <r_i_glide_lipo>  (1) 
-1.178219244872184

>  <r_i_glide_metal>  (1) 
-0

>  <r_i_glide_rewards>  (1) 
-2.1595648913467893

>  <r_lp_Energy>  (1) 
10.166019

>  <s_epik_cmdline>  (1) 
J2VwaWtfcHl0aG9uJywgJy1waHQnLCAnMS4wJywgJy1waCcsICc3LjQnLCAnLXRuJywgJzgnLCAnLW1hJywgJzUwMCcsICctaW1hZScsICc8aW5maWxlLm1hZT4nLCAnLW9tYWUnLCAnPG91dGZpbGUubWFlPic=

>  <s_epik_input>  (1) 
W05IMl1bQ0gyXUMoPU8pW05IXVtDSDJdW0NIMl1bQ0gyXVtDSDJdU1xbQ0hdPVtDSF1cQ2w=

>  <s_glide_docking_method>  (1) 
confgen

>  <s_i_glide_gridfile>  (1) 
gpcr_5ht2c_6bqh_protein_autoprepared_prepared

>  <s_lp_Force_Field>  (1) 
S-OPLS

>  <s_lp_Variant>  (1) 
DiffSBDD_73_num_sample_100-1

>  <s_m_source_file>  (1) 
generated__ligand_DiffSBDD_2026-05-06_prepared.sdf

>  <GenAI_Model>  (1) 
DiffSBDD

>  <Protein>  (1) 
GPCR_5HT2C

$$$$
DiffSBDD_73_num_sample_100
     RDKit          3D

  0  0  0  0  0  0  0  0  0  0999 V3000
M  V30 BEGIN CTAB
M  V30 COUNTS 29 28 0 0 1
M  V30 BEGIN ATOM
M  V30 1 C 38.403219 31.480532 57.219471 0
M  V30 2 N 38.418478 31.022569 55.962244 0
M  V30 3 C 40.491924 30.321318 51.132668 0
M  V30 4 O 38.514123 30.752470 58.205156 0
M  V30 5 C 37.547377 29.346372 54.475004 0
M  V30 6 C 38.228941 32.983250 57.392103 0
M  V30 7 Cl 40.321628 29.984009 49.453499 0
M  V30 8 C 39.983218 29.528025 52.085985 0
M  V30 9 C 38.513600 29.609617 55.635739 0
M  V30 10 C 37.478973 27.883330 54.012806 0
M  V30 11 N 37.067368 33.240101 58.253729 0 CHG=1
M  V30 12 S 39.083027 28.045455 51.729445 0
M  V30 13 C 38.761317 27.336228 53.369290 0
M  V30 14 H 38.325668 31.676827 55.199044 0
M  V30 15 H 41.040094 31.220534 51.368336 0
M  V30 16 H 37.781587 29.997867 53.635294 0
M  V30 17 H 36.555893 29.648067 54.805197 0
M  V30 18 H 39.125239 33.410155 57.839112 0
M  V30 19 H 38.068220 33.465678 56.426219 0
M  V30 20 H 40.109526 29.770979 53.128959 0
M  V30 21 H 38.247046 28.971613 56.479325 0
M  V30 22 H 39.543744 29.373948 55.373091 0
M  V30 23 H 36.665234 27.776316 53.295252 0
M  V30 24 H 37.213541 27.254500 54.862101 0
M  V30 25 H 36.915839 34.229874 58.363103 0
M  V30 26 H 36.258973 32.821421 57.781655 0
M  V30 27 H 38.634846 26.264169 53.235300 0
M  V30 28 H 39.630132 27.460605 54.014665 0
M  V30 29 H 37.199865 32.782625 59.142873 0
M  V30 END ATOM
M  V30 BEGIN BOND
M  V30 1 1 2 1
M  V30 2 2 4 1
M  V30 3 1 6 1
M  V30 4 1 7 3
M  V30 5 2 8 3
M  V30 6 1 9 2
M  V30 7 1 9 5
M  V30 8 1 10 5
M  V30 9 1 11 6
M  V30 10 1 12 8
M  V30 11 1 13 10
M  V30 12 1 13 12
M  V30 13 1 14 2
M  V30 14 1 15 3
M  V30 15 1 16 5
M  V30 16 1 17 5
M  V30 17 1 18 6
M  V30 18 1 19 6
M  V30 19 1 20 8
M  V30 20 1 21 9
M  V30 21 1 22 9
M  V30 22 1 23 10
M  V30 23 1 24 10
M  V30 24 1 25 11
M  V30 25 1 26 11
M  V30 26 1 27 13
M  V30 27 1 28 13
M  V30 28 1 29 11
M  V30 END BOND
M  V30 END CTAB
M  END
>  <i_epik_Tot_Q>  (1) 
1

>  <i_epik_Tot_abs_Q>  (1) 
1

>  <i_i_glide_confnum>  (1) 
186

>  <i_i_glide_lignum>  (1) 
183

>  <i_i_glide_posenum>  (1) 
369

>  <i_i_glide_rotatable_bonds>  (1) 
8

>  <i_lp_mmshare_version>  (1) 
72125

>  <i_m_source_file_index>  (1) 
74

>  <i_f3d_flags>  (1) 
0

>  <num_sample>  (1) 
100

>  <b_lp_Chiralities_Consistent>  (1) 
1

>  <r_epik_Charging_Adjusted_Penalty>  (1) 
0.46467811747974586

>  <r_epik_Ionization_Penalty>  (1) 
0.232341814366232

>  <r_epik_Ionization_Penalty_Charging>  (1) 
0.23233905873987296

>  <r_epik_Ionization_Penalty_Neutral>  (1) 
2.7556263590493095e-06

>  <r_epik_State_Penalty>  (1) 
0.23233905873987287

>  <r_glide_ring_energy>  (1) 
0

>  <r_i_docking_score>  (1) 
-1.7407971864748901

>  <r_i_glide_ecoul>  (1) 
-5.3394806129418626

>  <r_i_glide_eff_state_penalty>  (1) 
0.23233905873987287

>  <r_i_glide_einternal>  (1) 
4.357182414466104

>  <r_i_glide_emodel>  (1) 
-32.673614586806849

>  <r_i_glide_emodel_strain>  (1) 
0.36066356593086013

>  <r_i_glide_energy>  (1) 
-29.822578738542127

>  <r_i_glide_erotb>  (1) 
4.7351388872927176

>  <r_i_glide_esite>  (1) 
-0.2528279165642312

>  <r_i_glide_evdw>  (1) 
-24.483098125600264

>  <r_i_glide_gscore>  (1) 
-1.9731362452147629

>  <r_i_glide_gscore_strain>  (1) 
0

>  <r_i_glide_hbond>  (1) 
-0.20000000000000001

>  <r_i_glide_ligand_efficiency>  (1) 
-0.13390747588268387

>  <r_i_glide_ligand_efficiency_ln>  (1) 
-0.48830909275929935

>  <r_i_glide_ligand_efficiency_sa>  (1) 
-0.31486129298808535

>  <r_i_glide_lipo>  (1) 
-2.0405721500224239

>  <r_i_glide_metal>  (1) 
-0

>  <r_i_glide_rewards>  (1) 
-2.1897980676995337

>  <r_lp_Energy>  (1) 
9.3388109999999998

>  <s_epik_cmdline>  (1) 
J2VwaWtfcHl0aG9uJywgJy1waHQnLCAnMS4wJywgJy1waCcsICc3LjQnLCAnLXRuJywgJzgnLCAnLW1hJywgJzUwMCcsICctaW1hZScsICc8aW5maWxlLm1hZT4nLCAnLW9tYWUnLCAnPG91dGZpbGUubWFlPic=

>  <s_epik_input>  (1) 
W05IMl1bQ0gyXUMoPU8pW05IXVtDSDJdW0NIMl1bQ0gyXVtDSDJdUy9bQ0hdPVtDSF1cQ2w=

>  <s_glide_docking_method>  (1) 
confgen

>  <s_i_glide_gridfile>  (1) 
gpcr_5ht2c_6bqh_protein_autoprepared_prepared

>  <s_lp_Force_Field>  (1) 
S-OPLS

>  <s_lp_Variant>  (1) 
DiffSBDD_73_num_sample_100-2

>  <s_m_source_file>  (1) 
generated__ligand_DiffSBDD_2026-05-06_prepared.sdf

>  <GenAI_Model>  (1) 
DiffSBDD

>  <Protein>  (1) 
GPCR_5HT2C

$$$$
DiffSBDD_73_num_sample_100
     RDKit          3D

  0  0  0  0  0  0  0  0  0  0999 V3000
M  V30 BEGIN CTAB
M  V30 COUNTS 29 28 0 0 1
M  V30 BEGIN ATOM
M  V30 1 C 36.695939 31.633760 60.322762 0
M  V30 2 N 36.928080 31.259869 59.053620 0
M  V30 3 C 39.467392 29.558698 51.263078 0
M  V30 4 O 37.355333 31.221163 61.275261 0
M  V30 5 C 38.306719 30.554031 57.191410 0
M  V30 6 C 35.549635 32.622828 60.554138 0
M  V30 7 Cl 40.375061 30.021520 49.870471 0
M  V30 8 C 39.736412 30.032235 52.488382 0
M  V30 9 C 37.990587 30.338461 58.679348 0
M  V30 10 C 39.424855 29.650422 56.657995 0
M  V30 11 N 35.245267 33.475138 59.388157 0 CHG=1
M  V30 12 S 38.811035 29.564555 53.920424 0
M  V30 13 C 39.915255 30.077662 55.264955 0
M  V30 14 H 36.337021 31.621415 58.305860 0
M  V30 15 H 38.664922 28.858990 51.078439 0
M  V30 16 H 38.591447 31.597330 57.046390 0
M  V30 17 H 37.406130 30.400001 56.594863 0
M  V30 18 H 34.667403 32.045192 60.815010 0
M  V30 19 H 35.784026 33.258121 61.409380 0
M  V30 20 H 40.544957 30.730873 52.647327 0
M  V30 21 H 37.663645 29.313708 58.861661 0
M  V30 22 H 38.886184 30.510287 59.279722 0
M  V30 23 H 39.099279 28.609509 56.645109 0
M  V30 24 H 40.267397 29.689282 57.348657 0
M  V30 25 H 34.436565 34.050231 59.577339 0
M  V30 26 H 36.038405 34.067345 59.186945 0
M  V30 27 H 40.884385 29.622024 55.077372 0
M  V30 28 H 40.068868 31.156453 55.216982 0
M  V30 29 H 35.067382 32.898912 58.568172 0
M  V30 END ATOM
M  V30 BEGIN BOND
M  V30 1 1 2 1
M  V30 2 2 4 1
M  V30 3 1 6 1
M  V30 4 1 7 3
M  V30 5 2 8 3
M  V30 6 1 9 2
M  V30 7 1 9 5
M  V30 8 1 10 5
M  V30 9 1 11 6
M  V30 10 1 12 8
M  V30 11 1 13 10
M  V30 12 1 13 12
M  V30 13 1 14 2
M  V30 14 1 15 3
M  V30 15 1 16 5
M  V30 16 1 17 5
M  V30 17 1 18 6
M  V30 18 1 19 6
M  V30 19 1 20 8
M  V30 20 1 21 9
M  V30 21 1 22 9
M  V30 22 1 23 10
M  V30 23 1 24 10
M  V30 24 1 25 11
M  V30 25 1 26 11
M  V30 26 1 27 13
M  V30 27 1 28 13
M  V30 28 1 29 11
M  V30 END BOND
M  V30 END CTAB
M  END
>  <i_epik_Tot_Q>  (1) 
1

>  <i_epik_Tot_abs_Q>  (1) 
1

>  <i_i_glide_confnum>  (1) 
142

>  <i_i_glide_lignum>  (1) 
182

>  <i_i_glide_posenum>  (1) 
371

>  <i_i_glide_rotatable_bonds>  (1) 
8

>  <i_lp_mmshare_version>  (1) 
72125

>  <i_m_source_file_index>  (1) 
74

>  <i_f3d_flags>  (1) 
0

>  <num_sample>  (1) 
100

>  <b_lp_Chiralities_Consistent>  (1) 
1

>  <r_epik_Charging_Adjusted_Penalty>  (1) 
0.46467811747974586

>  <r_epik_Ionization_Penalty>  (1) 
0.232341814366232

>  <r_epik_Ionization_Penalty_Charging>  (1) 
0.23233905873987296

>  <r_epik_Ionization_Penalty_Neutral>  (1) 
2.7556263590493095e-06

>  <r_epik_State_Penalty>  (1) 
0.23233905873987287

>  <r_glide_ring_energy>  (1) 
0

>  <r_i_docking_score>  (1) 
-1.7388859369059

>  <r_i_glide_ecoul>  (1) 
-7.7717711839826737

>  <r_i_glide_eff_state_penalty>  (1) 
0.23233905873987287

>  <r_i_glide_einternal>  (1) 
3.123958327942236

>  <r_i_glide_emodel>  (1) 
-33.76024588464329

>  <r_i_glide_emodel_strain>  (1) 
0.3508260637546452

>  <r_i_glide_energy>  (1) 
-29.821285622719721

>  <r_i_glide_erotb>  (1) 
4.7351388872927176

>  <r_i_glide_esite>  (1) 
-0.21254428117996743

>  <r_i_glide_evdw>  (1) 
-22.049514438737045

>  <r_i_glide_gscore>  (1) 
-1.9712249956457728

>  <r_i_glide_gscore_strain>  (1) 
0

>  <r_i_glide_hbond>  (1) 
-0.57824683375182773

>  <r_i_glide_ligand_efficiency>  (1) 
-0.13376045668506922

>  <r_i_glide_ligand_efficiency_ln>  (1) 
-0.48777297025730926

>  <r_i_glide_ligand_efficiency_sa>  (1) 
-0.31451560164897324

>  <r_i_glide_lipo>  (1) 
-1.4778985968837679

>  <r_i_glide_metal>  (1) 
-0

>  <r_i_glide_rewards>  (1) 
-2.1694327715886743

>  <r_lp_Energy>  (1) 
10.166019

>  <s_epik_cmdline>  (1) 
J2VwaWtfcHl0aG9uJywgJy1waHQnLCAnMS4wJywgJy1waCcsICc3LjQnLCAnLXRuJywgJzgnLCAnLW1hJywgJzUwMCcsICctaW1hZScsICc8aW5maWxlLm1hZT4nLCAnLW9tYWUnLCAnPG91dGZpbGUubWFlPic=

>  <s_epik_input>  (1) 
W05IMl1bQ0gyXUMoPU8pW05IXVtDSDJdW0NIMl1bQ0gyXVtDSDJdU1xbQ0hdPVtDSF1cQ2w=

>  <s_glide_docking_method>  (1) 
confgen

>  <s_i_glide_gridfile>  (1) 
gpcr_5ht2c_6bqh_protein_autoprepared_prepared

>  <s_lp_Force_Field>  (1) 
S-OPLS

>  <s_lp_Variant>  (1) 
DiffSBDD_73_num_sample_100-1

>  <s_m_source_file>  (1) 
generated__ligand_DiffSBDD_2026-05-06_prepared.sdf

>  <GenAI_Model>  (1) 
DiffSBDD

>  <Protein>  (1) 
GPCR_5HT2C

$$$$
DiffSBDD_92_num_sample_100
     RDKit          3D

  0  0  0  0  0  0  0  0  0  0999 V3000
M  V30 BEGIN CTAB
M  V30 COUNTS 98 103 0 0 1
M  V30 BEGIN ATOM
M  V30 1 C 49.928585 43.060478 67.005416 0
M  V30 2 C 49.133815 45.794373 70.260580 0 CFG=1
M  V30 3 C 46.837537 45.257336 71.081776 0
M  V30 4 O 52.989013 47.097390 64.648725 0
M  V30 5 C 53.354892 46.362576 65.821787 0 CFG=1
M  V30 6 C 51.836117 43.747665 68.368664 0 CFG=1
M  V30 7 C 53.872619 43.433145 63.673015 0
M  V30 8 C 51.953302 42.028783 70.356394 0 CFG=1
M  V30 9 C 53.727342 45.881324 64.462600 0 CFG=2
M  V30 10 N 41.067400 46.755173 69.572093 0 CHG=1
M  V30 11 O 49.287249 43.731851 71.581583 0
M  V30 12 O 55.121854 45.976324 64.274694 0
M  V30 13 O 50.457347 43.923512 68.021045 0
M  V30 14 O 52.590190 44.199731 65.572923 0
M  V30 15 C 53.010469 44.565296 64.255767 0 CFG=2
M  V30 16 C 47.826008 45.420900 67.465361 0
M  V30 17 O 49.253769 46.896195 71.126965 0
M  V30 18 N 43.336769 46.594673 70.105387 0 CFG=2 CHG=1
M  V30 19 C 52.648057 44.969433 67.876103 0
M  V30 20 C 44.626332 45.908110 69.892963 0
M  V30 21 O 53.363222 39.775020 71.634925 0
M  V30 22 O 54.454282 46.845163 66.581898 0
M  V30 23 C 49.162337 43.829917 65.909006 0 CFG=1
M  V30 24 C 53.071590 42.146499 63.438747 0
M  V30 25 C 43.325490 46.264082 72.526661 0
M  V30 26 C 54.572035 39.900970 72.369531 0
M  V30 27 C 52.252335 40.363110 72.238897 0 CFG=1
M  V30 28 C 52.177467 41.860128 71.874332 0
M  V30 29 O 51.062283 39.745882 71.848842 0
M  V30 30 C 49.861407 44.602258 70.929354 0
M  V30 31 C 41.190674 46.610441 71.036755 0
M  V30 32 C 50.700975 41.233735 69.945437 0
M  V30 33 C 45.506198 46.040697 71.162355 0 CFG=1
M  V30 34 C 52.403287 45.346737 66.406582 0 CFG=1
M  V30 35 C 47.503172 44.755821 68.817750 0
M  V30 36 C 44.721587 45.613394 72.433585 0
M  V30 37 C 42.576831 46.009608 71.215383 0 CFG=1
M  V30 38 F 48.964831 42.994607 64.889387 0
M  V30 39 C 50.801380 39.783097 70.448063 0
M  V30 40 C 42.411196 46.679401 68.958447 0
M  V30 41 C 52.035930 43.520220 69.898859 0 CFG=2
M  V30 42 C 47.791507 44.416692 66.301714 0
M  V30 43 C 51.387232 44.589898 70.829075 0
M  V30 44 N 47.678267 45.678946 69.946821 0
M  V30 45 H 50.711773 42.480675 66.515976 0
M  V30 46 H 49.264040 42.336971 67.473346 0
M  V30 47 H 49.672290 46.046682 69.349086 0
M  V30 48 H 46.662806 44.179496 71.068498 0
M  V30 49 H 47.353263 45.447948 72.023473 0
M  V30 50 H 52.257282 42.874348 67.868771 0
M  V30 51 H 54.304238 43.758001 62.725599 0
M  V30 52 H 54.710166 43.224511 64.339474 0
M  V30 53 H 52.788487 41.532201 69.858827 0
M  V30 54 H 40.491849 46.002066 69.219105 0
M  V30 55 H 55.439730 46.323244 65.100701 0
M  V30 56 H 52.132724 44.745387 63.633550 0
M  V30 57 H 48.785528 45.936046 67.465706 0
M  V30 58 H 47.081955 46.197361 67.284661 0
M  V30 59 H 49.107084 46.592448 72.009664 0
M  V30 60 H 53.707793 44.755797 68.021065 0
M  V30 61 H 52.425643 45.843717 68.486191 0
M  V30 62 H 45.125347 46.361539 69.035418 0
M  V30 63 H 44.444585 44.859201 69.654171 0
M  V30 64 H 54.138598 47.528273 67.154476 0
M  V30 65 H 49.785055 44.614858 65.489723 0
M  V30 66 H 53.704671 41.362252 63.023338 0
M  V30 67 H 52.644294 41.770750 64.369155 0
M  V30 68 H 52.253659 42.319888 62.739265 0
M  V30 69 H 42.770709 45.847595 73.368031 0
M  V30 70 H 43.421901 47.335178 72.712456 0
M  V30 71 H 55.377379 39.412821 71.821331 0
M  V30 72 H 54.854932 40.943507 72.514541 0
M  V30 73 H 54.495231 39.419301 73.345152 0
M  V30 74 H 52.309124 40.233088 73.321266 0
M  V30 75 H 53.090691 42.359182 72.196961 0
M  V30 76 H 51.356022 42.294492 72.443592 0
M  V30 77 H 40.395943 45.989994 71.453943 0
M  V30 78 H 41.126955 47.593910 71.500756 0
M  V30 79 H 49.790863 41.684031 70.331350 0
M  V30 80 H 50.608205 41.211122 68.863138 0
M  V30 81 H 45.757528 47.096940 71.275727 0
M  V30 82 H 51.398091 45.745233 66.289059 0
M  V30 83 H 46.471621 44.421429 68.753171 0
M  V30 84 H 48.079045 43.843253 68.968311 0
M  V30 85 H 44.604657 44.528552 72.438256 0
M  V30 86 H 45.296890 45.857086 73.328025 0
M  V30 87 H 42.493763 44.932165 71.053830 0
M  V30 88 H 49.867402 39.257552 70.253515 0
M  V30 89 H 51.576872 39.240517 69.908845 0
M  V30 90 H 42.471449 45.780679 68.342418 0
M  V30 91 H 42.624981 47.546095 68.332648 0
M  V30 92 H 53.098527 43.720787 70.045838 0
M  V30 93 H 47.394959 44.928614 65.423912 0
M  V30 94 H 47.078473 43.621355 66.514648 0
M  V30 95 H 51.703799 45.584010 70.517324 0
M  V30 96 H 51.777667 44.481091 71.840295 0
M  V30 97 H 43.551778 47.545133 70.373415 0
M  V30 98 H 40.577915 47.614499 69.356973 0
M  V30 END ATOM
M  V30 BEGIN BOND
M  V30 1 1 5 4
M  V30 2 1 9 4
M  V30 3 1 9 5
M  V30 4 1 9 12 CFG=1
M  V30 5 1 13 1
M  V30 6 1 13 6
M  V30 7 1 15 7
M  V30 8 1 15 9
M  V30 9 1 15 14
M  V30 10 1 17 2
M  V30 11 1 19 6
M  V30 12 1 20 18
M  V30 13 1 5 22 CFG=1
M  V30 14 1 23 1
M  V30 15 1 24 7
M  V30 16 1 26 21
M  V30 17 1 27 21
M  V30 18 1 28 8
M  V30 19 1 28 27
M  V30 20 1 29 27
M  V30 21 1 30 2
M  V30 22 2 30 11
M  V30 23 1 31 10
M  V30 24 1 32 8
M  V30 25 1 33 3
M  V30 26 1 33 20
M  V30 27 1 34 5
M  V30 28 1 34 14
M  V30 29 1 34 19
M  V30 30 1 35 16
M  V30 31 1 36 25
M  V30 32 1 36 33
M  V30 33 1 37 18
M  V30 34 1 37 25
M  V30 35 1 37 31
M  V30 36 1 38 23
M  V30 37 1 39 29
M  V30 38 1 39 32
M  V30 39 1 40 10
M  V30 40 1 40 18
M  V30 41 1 41 6
M  V30 42 1 41 8
M  V30 43 1 42 16
M  V30 44 1 42 23
M  V30 45 1 43 30
M  V30 46 1 43 41
M  V30 47 1 44 2
M  V30 48 1 44 3
M  V30 49 1 44 35
M  V30 50 1 45 1
M  V30 51 1 46 1
M  V30 52 1 2 47 CFG=3
M  V30 53 1 48 3
M  V30 54 1 49 3
M  V30 55 1 6 50 CFG=3
M  V30 56 1 51 7
M  V30 57 1 52 7
M  V30 58 1 8 53 CFG=3
M  V30 59 1 54 10
M  V30 60 1 55 12
M  V30 61 1 15 56 CFG=3
M  V30 62 1 57 16
M  V30 63 1 58 16
M  V30 64 1 59 17
M  V30 65 1 60 19
M  V30 66 1 61 19
M  V30 67 1 62 20
M  V30 68 1 63 20
M  V30 69 1 64 22
M  V30 70 1 23 65 CFG=3
M  V30 71 1 66 24
M  V30 72 1 67 24
M  V30 73 1 68 24
M  V30 74 1 69 25
M  V30 75 1 70 25
M  V30 76 1 71 26
M  V30 77 1 72 26
M  V30 78 1 73 26
M  V30 79 1 27 74 CFG=1
M  V30 80 1 75 28
M  V30 81 1 76 28
M  V30 82 1 77 31
M  V30 83 1 78 31
M  V30 84 1 79 32
M  V30 85 1 80 32
M  V30 86 1 33 81 CFG=1
M  V30 87 1 34 82 CFG=1
M  V30 88 1 83 35
M  V30 89 1 84 35
M  V30 90 1 85 36
M  V30 91 1 86 36
M  V30 92 1 37 87 CFG=3
M  V30 93 1 88 39
M  V30 94 1 89 39
M  V30 95 1 90 40
M  V30 96 1 91 40
M  V30 97 1 41 92 CFG=3
M  V30 98 1 93 42
M  V30 99 1 94 42
M  V30 100 1 95 43
M  V30 101 1 96 43
M  V30 102 1 18 97 CFG=1
M  V30 103 1 98 10
M  V30 END BOND
M  V30 END CTAB
M  END
>  <i_epik_Tot_Q>  (1) 
2

>  <i_epik_Tot_abs_Q>  (1) 
2

>  <i_i_glide_confnum>  (1) 
40

>  <i_i_glide_lignum>  (1) 
247

>  <i_i_glide_posenum>  (1) 
242

>  <i_i_glide_rotatable_bonds>  (1) 
10

>  <i_lp_mmshare_version>  (1) 
72125

>  <i_m_source_file_index>  (1) 
93

>  <i_f3d_flags>  (1) 
0

>  <num_sample>  (1) 
100

>  <b_lp_Chiralities_Consistent>  (1) 
1

>  <r_epik_Charging_Adjusted_Penalty>  (1) 
0.13487033779534635

>  <r_epik_Ionization_Penalty>  (1) 
0.19914084790593331

>  <r_epik_Ionization_Penalty_Charging>  (1) 
0.13485274742695982

>  <r_epik_Ionization_Penalty_Neutral>  (1) 
0.064288100478973487

>  <r_epik_State_Penalty>  (1) 
1.7590368386534964e-05

>  <r_glide_ring_energy>  (1) 
1.0322880792727893

>  <r_i_docking_score>  (1) 
-1.7094888239085957

>  <r_i_glide_ecoul>  (1) 
-1.2123924644279018

>  <r_i_glide_eff_state_penalty>  (1) 
1.7590368386534964e-05

>  <r_i_glide_einternal>  (1) 
13.596225213462501

>  <r_i_glide_emodel>  (1) 
-80.590241666850503

>  <r_i_glide_emodel_strain>  (1) 
0.38040529948538904

>  <r_i_glide_energy>  (1) 
-15.849683379610562

>  <r_i_glide_erotb>  (1) 
0.12528393626735909

>  <r_i_glide_esite>  (1) 
0

>  <r_i_glide_evdw>  (1) 
-14.63729091518266

>  <r_i_glide_gscore>  (1) 
-1.7095064142769822

>  <r_i_glide_gscore_strain>  (1) 
0

>  <r_i_glide_hbond>  (1) 
-0.14465530827303913

>  <r_i_glide_ligand_efficiency>  (1) 
-0.038852018725195357

>  <r_i_glide_ligand_efficiency_ln>  (1) 
-0.35732045648627869

>  <r_i_glide_ligand_efficiency_sa>  (1) 
-0.13716115963055048

>  <r_i_glide_lipo>  (1) 
-0.6050692505583678

>  <r_i_glide_metal>  (1) 
-0

>  <r_i_glide_rewards>  (1) 
-0.1713423762896161

>  <r_lp_Energy>  (1) 
73.076747999999995

>  <s_epik_Chemistry_Notes>  (1) 
This compound contains an acetal/aminal-like group ( X-CH(R)-Y where X, Y are N, S, or O) that may be acid/base labile, releasing an aldehyde.

>  <s_epik_cmdline>  (1) 
J2VwaWtfcHl0aG9uJywgJy1waHQnLCAnMS4wJywgJy1waCcsICc3LjQnLCAnLXRuJywgJzgnLCAnLW1hJywgJzUwMCcsICctaW1hZScsICc8aW5maWxlLm1hZT4nLCAnLW9tYWUnLCAnPG91dGZpbGUubWFlPic=

>  <s_epik_input>  (1) 
W09IXVtDQF0xMkMoTzEpKFtPSF0pW0NAQEhdKFtDSDJdW0NIM10pT1tDQEhdMltDSDJdW0NAQEhdKFtDQEBIXShbQ0gyXUMoPU8pW0NAQEhdM1tPSF0pW0NASF00W0NIMl1bQ0BIXShPW0NIM10pT1tDSDJdW0NIMl00KU9bQ0gyXVtDQEBIXShGKVtDSDJdW0NIMl1bQ0gyXU4zW0NIMl1bQ0BASF0oW0NIMl01KVtDSDJdW0NIMl1bQ0BIXShONTYpW0NIMl1bTkhdW0NIMl02

>  <s_glide_docking_method>  (1) 
confgen

>  <s_i_glide_gridfile>  (1) 
gpcr_5ht2c_6bqh_protein_autoprepared_prepared

>  <s_lp_Force_Field>  (1) 
S-OPLS

>  <s_lp_Variant>  (1) 
DiffSBDD_92_num_sample_100-1

>  <s_m_source_file>  (1) 
generated__ligand_DiffSBDD_2026-05-06_prepared.sdf

>  <GenAI_Model>  (1) 
DiffSBDD

>  <Protein>  (1) 
GPCR_5HT2C

$$$$
DiffSBDD_93_num_sample_100
     RDKit          3D

  0  0  0  0  0  0  0  0  0  0999 V3000
M  V30 BEGIN CTAB
M  V30 COUNTS 74 77 0 0 1
M  V30 BEGIN ATOM
M  V30 1 C 44.286607 26.128697 69.963834 0
M  V30 2 S 41.996289 30.973776 67.466964 0
M  V30 3 C 45.216203 24.691357 71.853221 0 CFG=2
M  V30 4 O 40.181805 29.844498 62.626176 0
M  V30 5 C 41.835115 31.405482 71.948049 0
M  V30 6 C 41.957854 28.896101 64.726008 0 CFG=1
M  V30 7 C 44.018676 32.707990 70.077141 0
M  V30 8 C 44.194167 30.431319 69.140528 0
M  V30 9 C 43.764291 24.415888 72.265151 0
M  V30 10 N 44.206926 29.543878 66.770746 0 CHG=1
M  V30 11 C 42.132105 32.744240 72.608801 0
M  V30 12 C 45.312619 25.449530 70.535663 0
M  V30 13 C 44.501335 26.807910 68.663005 0
M  V30 14 C 43.539382 28.202275 66.738062 0 CFG=1
M  V30 15 C 42.926826 25.683315 72.117550 0
M  V30 16 Cl 41.697492 25.222383 69.763140 0
M  V30 17 O 41.834078 34.421910 70.873950 0
M  V30 18 C 42.912253 26.178787 70.660280 0 CFG=2
M  V30 19 C 45.872372 26.742801 67.980816 0
M  V30 20 C 41.843392 31.322104 65.684284 0
M  V30 21 C 41.225688 27.971363 63.732697 0
M  V30 22 C 43.473190 27.483126 68.083028 0
M  V30 23 C 44.089967 33.548086 71.335996 0
M  V30 24 C 41.147735 30.216484 64.858861 0 CFG=1
M  V30 25 C 43.789586 30.670177 67.648976 0 CFG=1
M  V30 26 C 42.719283 33.915690 71.854020 0 CFG=2
M  V30 27 C 40.848447 30.787958 63.452263 0
M  V30 28 C 40.940570 28.667507 62.396744 0
M  V30 29 C 42.486503 30.826929 70.903421 0
M  V30 30 S 44.842681 32.001297 67.008871 0 CHG=-1
M  V30 31 N 43.569890 31.310948 70.137156 0
M  V30 32 C 46.025106 23.388004 71.788770 0
M  V30 33 C 42.140556 28.146823 66.069760 0
M  V30 34 H 45.673390 25.331032 72.609559 0
M  V30 35 H 41.026617 30.850061 72.400767 0
M  V30 36 H 42.934944 29.123650 64.296718 0
M  V30 37 H 45.037003 32.701687 69.686842 0
M  V30 38 H 43.426364 33.220081 69.317796 0
M  V30 39 H 45.277350 30.499627 69.245221 0
M  V30 40 H 43.957159 29.421403 69.455205 0
M  V30 41 H 43.343276 23.619566 71.648633 0
M  V30 42 H 43.728270 24.059732 73.295531 0
M  V30 43 H 44.152794 29.918495 65.835948 0
M  V30 44 H 42.778405 32.517984 73.454489 0
M  V30 45 H 41.190959 33.072131 73.051166 0
M  V30 46 H 46.272559 25.416873 70.046264 0
M  V30 47 H 44.159351 27.607726 66.069488 0
M  V30 48 H 41.908212 25.509397 72.469061 0
M  V30 49 H 43.344240 26.455450 72.765068 0
M  V30 50 H 42.109776 35.295080 70.632297 0
M  V30 51 H 42.551405 27.207587 70.684100 0
M  V30 52 H 46.123471 25.706720 67.747416 0
M  V30 53 H 45.970919 27.315662 67.061692 0
M  V30 54 H 46.641421 27.134966 68.650539 0
M  V30 55 H 41.255380 32.237430 65.615918 0
M  V30 56 H 42.809632 31.564955 65.247105 0
M  V30 57 H 40.280201 27.628069 64.160745 0
M  V30 58 H 41.828189 27.081566 63.553286 0
M  V30 59 H 42.518853 27.527807 68.581538 0
M  V30 60 H 44.624534 34.469104 71.100881 0
M  V30 61 H 44.680168 33.044017 72.101291 0
M  V30 62 H 40.188734 29.987433 65.328976 0
M  V30 63 H 42.846484 34.722112 72.577687 0
M  V30 64 H 40.208979 31.668190 63.533414 0
M  V30 65 H 41.767165 31.115020 62.962871 0
M  V30 66 H 40.369268 28.012354 61.739996 0
M  V30 67 H 41.866579 28.902442 61.873387 0
M  V30 68 H 42.170464 29.846743 70.575893 0
M  V30 69 H 47.067400 23.587587 71.539836 0
M  V30 70 H 46.006500 22.861248 72.743188 0
M  V30 71 H 45.629470 22.712468 71.029795 0
M  V30 72 H 41.346872 28.428163 66.761235 0
M  V30 73 H 41.944371 27.085559 65.905304 0
M  V30 74 H 45.188809 29.401315 66.962337 0
M  V30 END ATOM
M  V30 BEGIN BOND
M  V30 1 1 9 3
M  V30 2 1 11 5
M  V30 3 2 12 1
M  V30 4 1 12 3
M  V30 5 1 13 1
M  V30 6 1 14 10
M  V30 7 1 15 9
M  V30 8 1 18 1
M  V30 9 1 18 15
M  V30 10 1 18 16
M  V30 11 1 19 13
M  V30 12 1 20 2
M  V30 13 1 21 6
M  V30 14 2 22 13
M  V30 15 1 22 14
M  V30 16 1 23 7
M  V30 17 1 24 6
M  V30 18 1 24 20
M  V30 19 1 25 2
M  V30 20 1 25 8
M  V30 21 1 25 10
M  V30 22 1 26 11
M  V30 23 1 26 17
M  V30 24 1 26 23
M  V30 25 1 27 4
M  V30 26 1 27 24
M  V30 27 1 28 4
M  V30 28 1 28 21
M  V30 29 2 29 5
M  V30 30 1 25 30 CFG=3
M  V30 31 1 31 7
M  V30 32 1 31 8
M  V30 33 1 31 29
M  V30 34 1 32 3
M  V30 35 1 33 6
M  V30 36 1 33 14
M  V30 37 1 3 34 CFG=1
M  V30 38 1 35 5
M  V30 39 1 6 36 CFG=3
M  V30 40 1 37 7
M  V30 41 1 38 7
M  V30 42 1 39 8
M  V30 43 1 40 8
M  V30 44 1 41 9
M  V30 45 1 42 9
M  V30 46 1 43 10
M  V30 47 1 44 11
M  V30 48 1 45 11
M  V30 49 1 46 12
M  V30 50 1 14 47 CFG=3
M  V30 51 1 48 15
M  V30 52 1 49 15
M  V30 53 1 50 17
M  V30 54 1 18 51 CFG=1
M  V30 55 1 52 19
M  V30 56 1 53 19
M  V30 57 1 54 19
M  V30 58 1 55 20
M  V30 59 1 56 20
M  V30 60 1 57 21
M  V30 61 1 58 21
M  V30 62 1 59 22
M  V30 63 1 60 23
M  V30 64 1 61 23
M  V30 65 1 24 62 CFG=1
M  V30 66 1 26 63 CFG=1
M  V30 67 1 64 27
M  V30 68 1 65 27
M  V30 69 1 66 28
M  V30 70 1 67 28
M  V30 71 1 68 29
M  V30 72 1 69 32
M  V30 73 1 70 32
M  V30 74 1 71 32
M  V30 75 1 72 33
M  V30 76 1 73 33
M  V30 77 1 74 10
M  V30 END BOND
M  V30 END CTAB
M  END
>  <i_epik_Tot_Q>  (1) 
0

>  <i_epik_Tot_abs_Q>  (1) 
2

>  <i_i_glide_confnum>  (1) 
65

>  <i_i_glide_lignum>  (1) 
257

>  <i_i_glide_posenum>  (1) 
141

>  <i_i_glide_rotatable_bonds>  (1) 
5

>  <i_lp_mmshare_version>  (1) 
72125

>  <i_m_source_file_index>  (1) 
94

>  <i_f3d_flags>  (1) 
0

>  <num_sample>  (1) 
100

>  <b_lp_Chiralities_Consistent>  (1) 
1

>  <r_epik_Charging_Adjusted_Penalty>  (1) 
0.80501984278308969

>  <r_epik_Ionization_Penalty>  (1) 
0.072421558423421364

>  <r_epik_Ionization_Penalty_Charging>  (1) 
0.072408791886815996

>  <r_epik_Ionization_Penalty_Neutral>  (1) 
1.2766536605372598e-05

>  <r_epik_State_Penalty>  (1) 
0.73261105089627365

>  <r_glide_ring_energy>  (1) 
0

>  <r_i_docking_score>  (1) 
-1.6100740250052672

>  <r_i_glide_ecoul>  (1) 
-1.0308227377915222

>  <r_i_glide_eff_state_penalty>  (1) 
0.73261105089627365

>  <r_i_glide_einternal>  (1) 
16.266949311729732

>  <r_i_glide_emodel>  (1) 
-23.8995879747632

>  <r_i_glide_emodel_strain>  (1) 
0.10861169846120333

>  <r_i_glide_energy>  (1) 
-29.159622414179939

>  <r_i_glide_erotb>  (1) 
0.31140238833871409

>  <r_i_glide_esite>  (1) 
0

>  <r_i_glide_evdw>  (1) 
-28.128799676388418

>  <r_i_glide_gscore>  (1) 
-2.342685075901541

>  <r_i_glide_gscore_strain>  (1) 
0

>  <r_i_glide_hbond>  (1) 
0

>  <r_i_glide_ligand_efficiency>  (1) 
-0.048790121969856583

>  <r_i_glide_ligand_efficiency_ln>  (1) 
-0.35807212664403076

>  <r_i_glide_ligand_efficiency_sa>  (1) 
-0.15649599118299859

>  <r_i_glide_lipo>  (1) 
-1.0109305498883778

>  <r_i_glide_metal>  (1) 
-0

>  <r_i_glide_rewards>  (1) 
-0.08209351986372812

>  <r_lp_Energy>  (1) 
37.065154999999997

>  <s_epik_Chemistry_Notes>  (1) 
This compound has an imine and may undergo hydrolysis.

>  <s_epik_cmdline>  (1) 
J2VwaWtfcHl0aG9uJywgJy1waHQnLCAnMS4wJywgJy1waCcsICc3LjQnLCAnLXRuJywgJzgnLCAnLW1hJywgJzUwMCcsICctaW1hZScsICc8aW5maWxlLm1hZT4nLCAnLW9tYWUnLCAnPG91dGZpbGUubWFlPic=

>  <s_epik_input>  (1) 
Q2xbQ0BIXTFbQ0gyXVtDSDJdW0NAQEhdKFtDSDNdKVtDSF09QzEvQyhbQ0gzXSk9W0NIXS9bQ0BASF0oW0NIMl0yKVtOSF1bQ0BAXShbU0hdKShTW0NIMl1bQ0BIXShbQ0BASF0yMylbQ0gyXU9bQ0gyXVtDSDJdMylbQ0gyXU4oW0NIMl1bQ0gyXTQpW0NIXT1bQ0hdW0NIMl1bQ0BASF00W09IXQ==

>  <s_glide_docking_method>  (1) 
confgen

>  <s_i_glide_gridfile>  (1) 
gpcr_5ht2c_6bqh_protein_autoprepared_prepared

>  <s_lp_Force_Field>  (1) 
S-OPLS

>  <s_lp_Variant>  (1) 
DiffSBDD_93_num_sample_100-9

>  <s_m_source_file>  (1) 
generated__ligand_DiffSBDD_2026-05-06_prepared.sdf

>  <GenAI_Model>  (1) 
DiffSBDD

>  <Protein>  (1) 
GPCR_5HT2C

$$$$
DiffSBDD_73_num_sample_100
     RDKit          3D

  0  0  0  0  0  0  0  0  0  0999 V3000
M  V30 BEGIN CTAB
M  V30 COUNTS 28 27 0 0 1
M  V30 BEGIN ATOM
M  V30 1 C 40.102584 28.425679 60.343090 0
M  V30 2 N 41.066048 28.531742 59.413532 0
M  V30 3 C 40.262903 30.367950 51.477650 0
M  V30 4 O 38.970894 28.021923 60.091858 0
M  V30 5 C 39.750643 28.950945 57.291819 0
M  V30 6 C 40.475741 28.835070 61.770389 0
M  V30 7 Cl 39.867287 29.239279 50.231769 0
M  V30 8 C 39.780294 30.271364 52.728223 0
M  V30 9 C 40.866822 28.161904 58.011685 0
M  V30 10 C 39.804923 28.746816 55.771571 0
M  V30 11 N 41.067392 30.173907 61.854647 0
M  V30 12 S 38.682646 28.978914 53.245913 0
M  V30 13 C 38.548459 29.239652 55.036446 0
M  V30 14 H 41.980596 28.862836 59.690183 0
M  V30 15 H 40.930305 31.164070 51.181049 0
M  V30 16 H 39.822244 30.015107 57.519919 0
M  V30 17 H 38.775132 28.624469 57.652364 0
M  V30 18 H 39.579820 28.807454 62.391919 0
M  V30 19 H 41.173199 28.101805 62.178787 0
M  V30 20 H 40.050199 30.995578 53.479646 0
M  V30 21 H 40.675809 27.089212 57.942468 0
M  V30 22 H 41.815327 28.333441 57.502822 0
M  V30 23 H 39.956933 27.688142 55.553647 0
M  V30 24 H 40.676723 29.272568 55.389194 0
M  V30 25 H 40.416373 30.874436 61.520936 0
M  V30 26 H 41.254224 30.421166 62.818198 0
M  V30 27 H 38.365643 30.297242 55.234197 0
M  V30 28 H 37.674866 28.691514 55.391942 0
M  V30 END ATOM
M  V30 BEGIN BOND
M  V30 1 1 2 1
M  V30 2 2 4 1
M  V30 3 1 6 1
M  V30 4 1 7 3
M  V30 5 2 8 3
M  V30 6 1 9 2
M  V30 7 1 9 5
M  V30 8 1 10 5
M  V30 9 1 11 6
M  V30 10 1 12 8
M  V30 11 1 13 10
M  V30 12 1 13 12
M  V30 13 1 14 2
M  V30 14 1 15 3
M  V30 15 1 16 5
M  V30 16 1 17 5
M  V30 17 1 18 6
M  V30 18 1 19 6
M  V30 19 1 20 8
M  V30 20 1 21 9
M  V30 21 1 22 9
M  V30 22 1 23 10
M  V30 23 1 24 10
M  V30 24 1 25 11
M  V30 25 1 26 11
M  V30 26 1 27 13
M  V30 27 1 28 13
M  V30 END BOND
M  V30 END CTAB
M  END
>  <i_epik_Tot_Q>  (1) 
0

>  <i_epik_Tot_abs_Q>  (1) 
0

>  <i_i_glide_confnum>  (1) 
181

>  <i_i_glide_lignum>  (1) 
185

>  <i_i_glide_posenum>  (1) 
244

>  <i_i_glide_rotatable_bonds>  (1) 
8

>  <i_lp_mmshare_version>  (1) 
72125

>  <i_m_source_file_index>  (1) 
74

>  <i_f3d_flags>  (1) 
0

>  <num_sample>  (1) 
100

>  <b_lp_Chiralities_Consistent>  (1) 
1

>  <r_epik_Charging_Adjusted_Penalty>  (1) 
0.66702128766523683

>  <r_epik_Ionization_Penalty>  (1) 
0.66702135281148944

>  <r_epik_Ionization_Penalty_Charging>  (1) 
0

>  <r_epik_Ionization_Penalty_Neutral>  (1) 
0.66702135281148944

>  <r_epik_State_Penalty>  (1) 
0.66702128766523683

>  <r_glide_ring_energy>  (1) 
0

>  <r_i_docking_score>  (1) 
-1.6099479273381812

>  <r_i_glide_ecoul>  (1) 
-6.2842359169503084

>  <r_i_glide_eff_state_penalty>  (1) 
0.66702128766523683

>  <r_i_glide_einternal>  (1) 
1.6011870449641958

>  <r_i_glide_emodel>  (1) 
-32.698205115348628

>  <r_i_glide_emodel_strain>  (1) 
0.38892004032980587

>  <r_i_glide_energy>  (1) 
-28.923690930273768

>  <r_i_glide_erotb>  (1) 
4.7714226567050355

>  <r_i_glide_esite>  (1) 
0

>  <r_i_glide_evdw>  (1) 
-22.63945501332346

>  <r_i_glide_gscore>  (1) 
-2.276969215003418

>  <r_i_glide_gscore_strain>  (1) 
0

>  <r_i_glide_hbond>  (1) 
-0.32000000000000001

>  <r_i_glide_ligand_efficiency>  (1) 
-0.12384214825678316

>  <r_i_glide_ligand_efficiency_ln>  (1) 
-0.45160471185053891

>  <r_i_glide_ligand_efficiency_sa>  (1) 
-0.29119433899803104

>  <r_i_glide_lipo>  (1) 
-2.0561160909949741

>  <r_i_glide_metal>  (1) 
-0

>  <r_i_glide_rewards>  (1) 
-2.5976676425047605

>  <r_lp_Energy>  (1) 
2.898231

>  <s_epik_cmdline>  (1) 
J2VwaWtfcHl0aG9uJywgJy1waHQnLCAnMS4wJywgJy1waCcsICc3LjQnLCAnLXRuJywgJzgnLCAnLW1hJywgJzUwMCcsICctaW1hZScsICc8aW5maWxlLm1hZT4nLCAnLW9tYWUnLCAnPG91dGZpbGUubWFlPic=

>  <s_epik_input>  (1) 
W05IMl1bQ0gyXUMoPU8pW05IXVtDSDJdW0NIMl1bQ0gyXVtDSDJdUy9bQ0hdPVtDSF1cQ2w=

>  <s_glide_docking_method>  (1) 
confgen

>  <s_i_glide_gridfile>  (1) 
gpcr_5ht2c_6bqh_protein_autoprepared_prepared

>  <s_lp_Force_Field>  (1) 
S-OPLS

>  <s_lp_Variant>  (1) 
DiffSBDD_73_num_sample_100-4

>  <s_m_source_file>  (1) 
generated__ligand_DiffSBDD_2026-05-06_prepared.sdf

>  <GenAI_Model>  (1) 
DiffSBDD

>  <Protein>  (1) 
GPCR_5HT2C

$$$$
DiffSBDD_93_num_sample_100
     RDKit          3D

  0  0  0  0  0  0  0  0  0  0999 V3000
M  V30 BEGIN CTAB
M  V30 COUNTS 74 77 0 0 1
M  V30 BEGIN ATOM
M  V30 1 C 51.281798 41.796936 50.948888 0
M  V30 2 S 46.670751 45.233412 48.868795 0
M  V30 3 C 52.679101 43.921903 51.098825 0 CFG=2
M  V30 4 O 46.941301 42.423703 44.612583 0
M  V30 5 C 50.252831 46.732170 53.936177 0
M  V30 6 C 48.876199 43.247821 46.564641 0 CFG=1
M  V30 7 C 48.256136 44.402092 53.268657 0
M  V30 8 C 47.576954 45.823139 51.369532 0
M  V30 9 C 53.854022 43.042406 51.526301 0
M  V30 10 N 48.609398 43.903172 50.268577 0
M  V30 11 C 50.381143 45.786551 55.135330 0
M  V30 12 C 51.520441 43.084176 50.580235 0
M  V30 13 C 50.128080 40.986114 50.380954 0
M  V30 14 C 48.842366 42.944240 49.180421 0 CFG=2
M  V30 15 C 53.356775 42.018864 52.532508 0
M  V30 16 Cl 51.439237 40.415233 53.394596 0
M  V30 17 O 50.533890 43.427725 54.638030 0
M  V30 18 C 52.241848 41.122447 51.961908 0 CFG=1
M  V30 19 C 50.096078 39.486760 50.657172 0
M  V30 20 C 47.324278 45.238528 47.157817 0
M  V30 21 C 48.842728 41.820250 45.998588 0
M  V30 22 C 49.096427 41.503345 49.618962 0
M  V30 23 C 48.302190 44.439502 54.778778 0
M  V30 24 C 47.440659 43.825407 46.539747 0 CFG=1
M  V30 25 C 48.108402 45.260489 50.010407 0 CFG=1
M  V30 26 C 49.735085 44.420741 55.254725 0 CFG=2
M  V30 27 C 46.934071 43.771523 45.082536 0
M  V30 28 C 48.240257 41.838340 44.584867 0
M  V30 29 C 49.402520 46.647063 52.870950 0
M  V30 30 S 49.476069 46.377785 49.566946 0
M  V30 31 N 48.437142 45.665419 52.559196 0
M  V30 32 C 53.128423 44.957249 50.057846 0
M  V30 33 C 49.631950 43.353500 47.904510 0
M  V30 34 H 52.302247 44.466701 51.966516 0
M  V30 35 H 50.915817 47.582550 53.971519 0
M  V30 36 H 49.469252 43.837279 45.862447 0
M  V30 37 H 47.268184 44.022724 53.012319 0
M  V30 38 H 48.944944 43.661806 52.864950 0
M  V30 39 H 46.610512 45.364833 51.581720 0
M  V30 40 H 47.343144 46.882381 51.251827 0
M  V30 41 H 54.291360 42.540225 50.661656 0
M  V30 42 H 54.640051 43.652093 51.972947 0
M  V30 43 H 49.409394 43.973949 50.883289 0
M  V30 44 H 50.015524 46.377242 55.975837 0
M  V30 45 H 51.449097 45.676250 55.327377 0
M  V30 46 H 50.913910 43.568381 49.881399 0
M  V30 47 H 47.818528 42.812014 48.848587 0
M  V30 48 H 54.182939 41.403256 52.890817 0
M  V30 49 H 52.983420 42.558559 53.404183 0
M  V30 50 H 51.384221 43.422328 55.050272 0
M  V30 51 H 52.719334 40.295818 51.435240 0
M  V30 52 H 49.870480 39.266858 51.696031 0
M  V30 53 H 49.321972 38.990468 50.068034 0
M  V30 54 H 51.048083 39.022305 50.401472 0
M  V30 55 H 46.595316 45.811352 46.584671 0
M  V30 56 H 48.253052 45.800788 47.076331 0
M  V30 57 H 48.252931 41.170138 46.645827 0
M  V30 58 H 49.846761 41.396496 45.961246 0
M  V30 59 H 48.346004 40.810894 49.273356 0
M  V30 60 H 47.791388 43.560758 55.167342 0
M  V30 61 H 47.757245 45.299147 55.171041 0
M  V30 62 H 46.767809 43.165429 47.087676 0
M  V30 63 H 49.722740 44.162157 56.314675 0
M  V30 64 H 45.912671 44.147694 45.024903 0
M  V30 65 H 47.537769 44.402746 44.428410 0
M  V30 66 H 48.181967 40.822442 44.194637 0
M  V30 67 H 48.879148 42.396519 43.899006 0
M  V30 68 H 49.432601 47.427512 52.125728 0
M  V30 69 H 49.820421 45.742074 48.445603 0
M  V30 70 H 52.320330 45.643621 49.807321 0
M  V30 71 H 53.955671 45.558920 50.435826 0
M  V30 72 H 53.456222 44.478656 49.133933 0
M  V30 73 H 50.536271 42.747619 47.829388 0
M  V30 74 H 50.017512 44.361789 47.977582 0
M  V30 END ATOM
M  V30 BEGIN BOND
M  V30 1 1 9 3
M  V30 2 1 11 5
M  V30 3 2 12 1
M  V30 4 1 12 3
M  V30 5 1 13 1
M  V30 6 1 14 10
M  V30 7 1 15 9
M  V30 8 1 18 1
M  V30 9 1 18 15
M  V30 10 1 18 16
M  V30 11 1 19 13
M  V30 12 1 20 2
M  V30 13 1 21 6
M  V30 14 2 22 13
M  V30 15 1 22 14
M  V30 16 1 23 7
M  V30 17 1 24 6
M  V30 18 1 24 20
M  V30 19 1 25 2
M  V30 20 1 25 8
M  V30 21 1 25 10
M  V30 22 1 26 11
M  V30 23 1 26 17
M  V30 24 1 26 23
M  V30 25 1 27 4
M  V30 26 1 27 24
M  V30 27 1 28 4
M  V30 28 1 28 21
M  V30 29 2 29 5
M  V30 30 1 25 30 CFG=3
M  V30 31 1 31 7
M  V30 32 1 31 8
M  V30 33 1 31 29
M  V30 34 1 32 3
M  V30 35 1 33 6
M  V30 36 1 33 14
M  V30 37 1 3 34 CFG=1
M  V30 38 1 35 5
M  V30 39 1 6 36 CFG=3
M  V30 40 1 37 7
M  V30 41 1 38 7
M  V30 42 1 39 8
M  V30 43 1 40 8
M  V30 44 1 41 9
M  V30 45 1 42 9
M  V30 46 1 43 10
M  V30 47 1 44 11
M  V30 48 1 45 11
M  V30 49 1 46 12
M  V30 50 1 14 47 CFG=3
M  V30 51 1 48 15
M  V30 52 1 49 15
M  V30 53 1 50 17
M  V30 54 1 18 51 CFG=3
M  V30 55 1 52 19
M  V30 56 1 53 19
M  V30 57 1 54 19
M  V30 58 1 55 20
M  V30 59 1 56 20
M  V30 60 1 57 21
M  V30 61 1 58 21
M  V30 62 1 59 22
M  V30 63 1 60 23
M  V30 64 1 61 23
M  V30 65 1 24 62 CFG=1
M  V30 66 1 26 63 CFG=1
M  V30 67 1 64 27
M  V30 68 1 65 27
M  V30 69 1 66 28
M  V30 70 1 67 28
M  V30 71 1 68 29
M  V30 72 1 69 30
M  V30 73 1 70 32
M  V30 74 1 71 32
M  V30 75 1 72 32
M  V30 76 1 73 33
M  V30 77 1 74 33
M  V30 END BOND
M  V30 END CTAB
M  END
>  <i_epik_Tot_Q>  (1) 
0

>  <i_epik_Tot_abs_Q>  (1) 
0

>  <i_i_glide_confnum>  (1) 
74

>  <i_i_glide_lignum>  (1) 
256

>  <i_i_glide_posenum>  (1) 
94

>  <i_i_glide_rotatable_bonds>  (1) 
6

>  <i_lp_mmshare_version>  (1) 
72125

>  <i_m_source_file_index>  (1) 
94

>  <i_f3d_flags>  (1) 
0

>  <num_sample>  (1) 
100

>  <b_lp_Chiralities_Consistent>  (1) 
1

>  <r_epik_Charging_Adjusted_Penalty>  (1) 
0.20325292957253988

>  <r_epik_Ionization_Penalty>  (1) 
0.031936562948065232

>  <r_epik_Ionization_Penalty_Charging>  (1) 
3.6030848355623751e-07

>  <r_epik_Ionization_Penalty_Neutral>  (1) 
0.031936202639581676

>  <r_epik_State_Penalty>  (1) 
0.20325256926405633

>  <r_glide_ring_energy>  (1) 
0

>  <r_i_docking_score>  (1) 
-1.5763605212585603

>  <r_i_glide_ecoul>  (1) 
0.14848083014499286

>  <r_i_glide_eff_state_penalty>  (1) 
0.20325256926405633

>  <r_i_glide_einternal>  (1) 
17.588296253897795

>  <r_i_glide_emodel>  (1) 
-7.4301006662304871

>  <r_i_glide_emodel_strain>  (1) 
0.79064420123003742

>  <r_i_glide_energy>  (1) 
-15.432666951445517

>  <r_i_glide_erotb>  (1) 
0.31140238833871409

>  <r_i_glide_esite>  (1) 
0

>  <r_i_glide_evdw>  (1) 
-15.581147781590509

>  <r_i_glide_gscore>  (1) 
-1.7796130905226166

>  <r_i_glide_gscore_strain>  (1) 
0

>  <r_i_glide_hbond>  (1) 
0

>  <r_i_glide_ligand_efficiency>  (1) 
-0.047768500644198797

>  <r_i_glide_ligand_efficiency_ln>  (1) 
-0.35057441796994332

>  <r_i_glide_ligand_efficiency_sa>  (1) 
-0.1532191057086954

>  <r_i_glide_lipo>  (1) 
-1.3342302143035543

>  <r_i_glide_metal>  (1) 
-0

>  <r_i_glide_rewards>  (1) 
0

>  <r_lp_Energy>  (1) 
35.986021999999998

>  <s_epik_Chemistry_Notes>  (1) 
This compound has an imine and may undergo hydrolysis.

>  <s_epik_cmdline>  (1) 
J2VwaWtfcHl0aG9uJywgJy1waHQnLCAnMS4wJywgJy1waCcsICc3LjQnLCAnLXRuJywgJzgnLCAnLW1hJywgJzUwMCcsICctaW1hZScsICc8aW5maWxlLm1hZT4nLCAnLW9tYWUnLCAnPG91dGZpbGUubWFlPic=

>  <s_epik_input>  (1) 
Q2xbQ0BIXTFbQ0gyXVtDSDJdW0NAQEhdKFtDSDNdKVtDSF09QzEvQyhbQ0gzXSk9W0NIXVxbQ0BASF0oW0NIMl0yKVtOSF1bQ0BAXShbU0hdKShTW0NIMl1bQ0BIXShbQ0BASF0yMylbQ0gyXU9bQ0gyXVtDSDJdMylbQ0gyXU4oW0NIMl1bQ0gyXTQpW0NIXT1bQ0hdW0NIMl1bQ0BASF00W09IXQ==

>  <s_glide_docking_method>  (1) 
confgen

>  <s_i_glide_gridfile>  (1) 
gpcr_5ht2c_6bqh_protein_autoprepared_prepared

>  <s_lp_Force_Field>  (1) 
S-OPLS

>  <s_lp_Variant>  (1) 
DiffSBDD_93_num_sample_100-8

>  <s_m_source_file>  (1) 
generated__ligand_DiffSBDD_2026-05-06_prepared.sdf

>  <GenAI_Model>  (1) 
DiffSBDD

>  <Protein>  (1) 
GPCR_5HT2C

$$$$
DiffSBDD_93_num_sample_100
     RDKit          3D

  0  0  0  0  0  0  0  0  0  0999 V3000
M  V30 BEGIN CTAB
M  V30 COUNTS 74 77 0 0 1
M  V30 BEGIN ATOM
M  V30 1 C 52.972059 25.926026 47.930029 0
M  V30 2 S 53.230573 19.960910 50.402424 0
M  V30 3 C 51.829758 26.409621 50.163591 0 CFG=2
M  V30 4 O 54.737702 18.538696 45.815605 0
M  V30 5 C 52.729250 21.055827 54.840826 0
M  V30 6 C 52.675329 20.388967 46.598841 0 CFG=1
M  V30 7 C 52.158055 23.547140 53.262817 0
M  V30 8 C 53.457324 22.495718 51.428021 0
M  V30 9 C 51.816475 27.896798 49.783095 0
M  V30 10 N 53.409507 22.244185 49.052232 0
M  V30 11 C 51.792956 21.975039 55.610272 0
M  V30 12 C 52.542751 25.516902 49.153446 0
M  V30 13 C 53.676620 24.993729 46.985172 0
M  V30 14 C 52.636714 22.786768 47.926073 0 CFG=1
M  V30 15 C 51.628477 28.083590 48.280583 0
M  V30 16 Cl 54.240470 28.360632 47.682198 0
M  V30 17 O 49.844955 21.171027 54.427089 0
M  V30 18 C 52.753162 27.385298 47.507429 0 CFG=1
M  V30 19 C 54.594549 25.590982 45.929209 0
M  V30 20 C 52.586553 19.194549 48.887573 0
M  V30 21 C 53.564348 20.592323 45.358359 0
M  V30 22 C 53.540761 23.623967 47.016431 0
M  V30 23 C 50.698068 23.304584 53.675443 0
M  V30 24 C 53.434001 19.531230 47.638354 0 CFG=1
M  V30 25 C 52.760242 21.715681 50.266913 0 CFG=1
M  V30 26 C 50.500180 22.344913 54.858899 0 CFG=2
M  V30 27 C 53.941264 18.239688 46.956939 0
M  V30 28 C 54.024471 19.237101 44.803306 0
M  V30 29 C 53.172851 21.270438 53.583136 0
M  V30 30 S 50.965673 22.064506 50.335422 0
M  V30 31 N 52.872720 22.365712 52.769136 0
M  V30 32 C 50.419044 25.871077 50.438218 0
M  V30 33 C 51.930270 21.665235 47.103369 0
M  V30 34 H 52.389464 26.329938 51.096194 0
M  V30 35 H 53.046027 20.163138 55.360196 0
M  V30 36 H 51.867647 19.745410 46.253516 0
M  V30 37 H 52.725059 23.982122 54.085877 0
M  V30 38 H 52.149689 24.322299 52.498335 0
M  V30 39 H 53.526811 23.553396 51.183026 0
M  V30 40 H 54.497452 22.172420 51.492535 0
M  V30 41 H 51.036459 28.421464 50.334752 0
M  V30 42 H 52.757185 28.356421 50.089666 0
M  V30 43 H 54.086559 22.934469 49.341450 0
M  V30 44 H 52.334628 22.858249 55.946234 0
M  V30 45 H 51.518964 21.444828 56.522714 0
M  V30 46 H 52.718642 24.528305 49.481560 0
M  V30 47 H 51.795812 23.403210 48.224718 0
M  V30 48 H 50.667319 27.669706 47.980298 0
M  V30 49 H 51.599627 29.144515 48.031043 0
M  V30 50 H 49.026727 21.413594 54.020339 0
M  V30 51 H 52.492487 27.409869 46.449501 0
M  V30 52 H 54.046449 26.245221 45.252069 0
M  V30 53 H 55.389152 26.166351 46.402419 0
M  V30 54 H 55.070997 24.822180 45.320452 0
M  V30 55 H 52.603994 18.119688 49.067678 0
M  V30 56 H 51.533632 19.441258 48.762232 0
M  V30 57 H 54.459433 21.155245 45.611075 0
M  V30 58 H 53.031030 21.150720 44.588285 0
M  V30 59 H 54.116243 23.055530 46.310992 0
M  V30 60 H 50.098723 22.994142 52.821498 0
M  V30 61 H 50.286574 24.273441 53.958997 0
M  V30 62 H 54.327706 20.073144 47.947063 0
M  V30 63 H 49.816646 22.818981 55.563699 0
M  V30 64 H 54.555343 17.667694 47.653014 0
M  V30 65 H 53.109681 17.595435 46.666167 0
M  V30 66 H 54.684102 19.385887 43.948366 0
M  V30 67 H 53.179035 18.642601 44.453648 0
M  V30 68 H 53.831006 20.558932 53.106372 0
M  V30 69 H 50.647262 21.360557 49.246230 0
M  V30 70 H 50.452551 24.887870 50.905115 0
M  V30 71 H 49.865178 26.526798 51.109123 0
M  V30 72 H 49.853828 25.772623 49.513675 0
M  V30 73 H 51.467981 22.139468 46.236612 0
M  V30 74 H 51.067574 21.325386 47.669991 0
M  V30 END ATOM
M  V30 BEGIN BOND
M  V30 1 1 9 3
M  V30 2 1 11 5
M  V30 3 2 12 1
M  V30 4 1 12 3
M  V30 5 1 13 1
M  V30 6 1 14 10
M  V30 7 1 15 9
M  V30 8 1 18 1
M  V30 9 1 18 15
M  V30 10 1 18 16
M  V30 11 1 19 13
M  V30 12 1 20 2
M  V30 13 1 21 6
M  V30 14 2 22 13
M  V30 15 1 22 14
M  V30 16 1 23 7
M  V30 17 1 24 6
M  V30 18 1 24 20
M  V30 19 1 25 2
M  V30 20 1 25 8
M  V30 21 1 25 10
M  V30 22 1 26 11
M  V30 23 1 26 17
M  V30 24 1 26 23
M  V30 25 1 27 4
M  V30 26 1 27 24
M  V30 27 1 28 4
M  V30 28 1 28 21
M  V30 29 2 29 5
M  V30 30 1 25 30 CFG=3
M  V30 31 1 31 7
M  V30 32 1 31 8
M  V30 33 1 31 29
M  V30 34 1 32 3
M  V30 35 1 33 6
M  V30 36 1 33 14
M  V30 37 1 3 34 CFG=1
M  V30 38 1 35 5
M  V30 39 1 6 36 CFG=3
M  V30 40 1 37 7
M  V30 41 1 38 7
M  V30 42 1 39 8
M  V30 43 1 40 8
M  V30 44 1 41 9
M  V30 45 1 42 9
M  V30 46 1 43 10
M  V30 47 1 44 11
M  V30 48 1 45 11
M  V30 49 1 46 12
M  V30 50 1 14 47 CFG=1
M  V30 51 1 48 15
M  V30 52 1 49 15
M  V30 53 1 50 17
M  V30 54 1 18 51 CFG=3
M  V30 55 1 52 19
M  V30 56 1 53 19
M  V30 57 1 54 19
M  V30 58 1 55 20
M  V30 59 1 56 20
M  V30 60 1 57 21
M  V30 61 1 58 21
M  V30 62 1 59 22
M  V30 63 1 60 23
M  V30 64 1 61 23
M  V30 65 1 24 62 CFG=1
M  V30 66 1 26 63 CFG=1
M  V30 67 1 64 27
M  V30 68 1 65 27
M  V30 69 1 66 28
M  V30 70 1 67 28
M  V30 71 1 68 29
M  V30 72 1 69 30
M  V30 73 1 70 32
M  V30 74 1 71 32
M  V30 75 1 72 32
M  V30 76 1 73 33
M  V30 77 1 74 33
M  V30 END BOND
M  V30 END CTAB
M  END
>  <i_epik_Tot_Q>  (1) 
0

>  <i_epik_Tot_abs_Q>  (1) 
0

>  <i_i_glide_confnum>  (1) 
31

>  <i_i_glide_lignum>  (1) 
254

>  <i_i_glide_posenum>  (1) 
116

>  <i_i_glide_rotatable_bonds>  (1) 
6

>  <i_lp_mmshare_version>  (1) 
72125

>  <i_m_source_file_index>  (1) 
94

>  <i_f3d_flags>  (1) 
0

>  <num_sample>  (1) 
100

>  <b_lp_Chiralities_Consistent>  (1) 
1

>  <r_epik_Charging_Adjusted_Penalty>  (1) 
0.20325292957253988

>  <r_epik_Ionization_Penalty>  (1) 
0.031936562948065232

>  <r_epik_Ionization_Penalty_Charging>  (1) 
3.6030848355623751e-07

>  <r_epik_Ionization_Penalty_Neutral>  (1) 
0.031936202639581676

>  <r_epik_State_Penalty>  (1) 
0.20325256926405633

>  <r_glide_ring_energy>  (1) 
0.82930930823906657

>  <r_i_docking_score>  (1) 
-1.5590146013813262

>  <r_i_glide_ecoul>  (1) 
-1.2963955592051846

>  <r_i_glide_eff_state_penalty>  (1) 
0.20325256926405633

>  <r_i_glide_einternal>  (1) 
7.2307987157713782

>  <r_i_glide_emodel>  (1) 
-17.573793719736759

>  <r_i_glide_emodel_strain>  (1) 
0

>  <r_i_glide_energy>  (1) 
-19.273802201906999

>  <r_i_glide_erotb>  (1) 
0.31140238833871409

>  <r_i_glide_esite>  (1) 
0

>  <r_i_glide_evdw>  (1) 
-17.977406642701816

>  <r_i_glide_gscore>  (1) 
-1.7622671706453825

>  <r_i_glide_gscore_strain>  (1) 
0

>  <r_i_glide_hbond>  (1) 
0

>  <r_i_glide_ligand_efficiency>  (1) 
-0.047242866708525039

>  <r_i_glide_ligand_efficiency_ln>  (1) 
-0.34671677520161293

>  <r_i_glide_ligand_efficiency_sa>  (1) 
-0.151533116815011

>  <r_i_glide_lipo>  (1) 
-0.91567118737634778

>  <r_i_glide_metal>  (1) 
-0

>  <r_i_glide_rewards>  (1) 
-0.064668705591880163

>  <r_lp_Energy>  (1) 
33.901114999999997

>  <s_epik_Chemistry_Notes>  (1) 
This compound has an imine and may undergo hydrolysis.

>  <s_epik_cmdline>  (1) 
J2VwaWtfcHl0aG9uJywgJy1waHQnLCAnMS4wJywgJy1waCcsICc3LjQnLCAnLXRuJywgJzgnLCAnLW1hJywgJzUwMCcsICctaW1hZScsICc8aW5maWxlLm1hZT4nLCAnLW9tYWUnLCAnPG91dGZpbGUubWFlPic=

>  <s_epik_input>  (1) 
Q2xbQ0BIXTFbQ0gyXVtDSDJdW0NAQEhdKFtDSDNdKVtDSF09QzEvQyhbQ0gzXSk9W0NIXVxbQ0BASF0oW0NIMl0yKVtOSF1bQ0BAXShbU0hdKShTW0NIMl1bQ0BIXShbQ0BASF0yMylbQ0gyXU9bQ0gyXVtDSDJdMylbQ0gyXU4oW0NIMl1bQ0gyXTQpW0NIXT1bQ0hdW0NIMl1bQ0BASF00W09IXQ==

>  <s_glide_docking_method>  (1) 
confgen

>  <s_i_glide_gridfile>  (1) 
gpcr_5ht2c_6bqh_protein_autoprepared_prepared

>  <s_lp_Force_Field>  (1) 
S-OPLS

>  <s_lp_Variant>  (1) 
DiffSBDD_93_num_sample_100-6

>  <s_m_source_file>  (1) 
generated__ligand_DiffSBDD_2026-05-06_prepared.sdf

>  <GenAI_Model>  (1) 
DiffSBDD

>  <Protein>  (1) 
GPCR_5HT2C

$$$$
DiffSBDD_93_num_sample_100
     RDKit          3D

  0  0  0  0  0  0  0  0  0  0999 V3000
M  V30 BEGIN CTAB
M  V30 COUNTS 74 77 0 0 1
M  V30 BEGIN ATOM
M  V30 1 C 51.927663 41.040122 50.352221 0
M  V30 2 S 46.735235 44.408340 49.593409 0
M  V30 3 C 53.288515 43.193723 50.427088 0 CFG=2
M  V30 4 O 46.979301 42.279592 44.928934 0
M  V30 5 C 50.366478 46.640307 54.212702 0
M  V30 6 C 48.927712 42.921645 46.934993 0 CFG=1
M  V30 7 C 49.198900 43.712893 53.775949 0
M  V30 8 C 47.790201 44.809451 52.071716 0
M  V30 9 C 54.494886 42.365649 49.983312 0
M  V30 10 N 48.878535 43.138382 50.694437 0
M  V30 11 C 51.212519 45.774543 55.137203 0
M  V30 12 C 51.997994 42.397629 50.302230 0
M  V30 13 C 50.618596 40.279111 50.178886 0
M  V30 14 C 49.076418 42.302378 49.502914 0 CFG=2
M  V30 15 C 54.515291 41.071176 50.775797 0
M  V30 16 Cl 53.181402 39.163524 52.021067 0
M  V30 17 O 51.957467 43.999844 53.701092 0
M  V30 18 C 53.232218 40.237511 50.588920 0 CFG=1
M  V30 19 C 50.624836 38.772636 50.395485 0
M  V30 20 C 47.257536 44.690579 47.861367 0
M  V30 21 C 48.959212 41.595261 46.162147 0
M  V30 22 C 49.409146 40.847860 49.828247 0
M  V30 23 C 49.956048 43.694824 55.081792 0
M  V30 24 C 47.456923 43.391076 47.047328 0 CFG=1
M  V30 25 C 48.254527 44.464381 50.618833 0 CFG=1
M  V30 26 C 51.329733 44.290505 54.934575 0 CFG=2
M  V30 27 C 46.909428 43.526996 45.612370 0
M  V30 28 C 48.304295 41.778619 44.785282 0
M  V30 29 C 49.368690 46.253608 53.365686 0
M  V30 30 S 49.486132 45.732980 50.175314 0
M  V30 31 N 48.838431 44.966099 53.100555 0
M  V30 32 C 53.211741 44.496644 49.617122 0
M  V30 33 C 49.760369 42.880037 48.230968 0
M  V30 34 H 53.406136 43.461769 51.477899 0
M  V30 35 H 50.603476 47.688886 54.249649 0
M  V30 36 H 49.446614 43.647096 46.304957 0
M  V30 37 H 48.252809 43.222017 53.988449 0
M  V30 38 H 49.710819 43.062832 53.068591 0
M  V30 39 H 47.076374 44.052536 52.402931 0
M  V30 40 H 47.209946 45.733054 52.039884 0
M  V30 41 H 54.454146 42.153348 48.913056 0
M  V30 42 H 55.413101 42.924914 50.160563 0
M  V30 43 H 49.737331 43.229661 51.215824 0
M  V30 44 H 50.872284 45.973998 56.153934 0
M  V30 45 H 52.222084 46.186570 55.095118 0
M  V30 46 H 51.143970 42.978388 50.164372 0
M  V30 47 H 48.046498 42.139464 49.203093 0
M  V30 48 H 55.388575 40.474714 50.511777 0
M  V30 49 H 54.638057 41.330194 51.829485 0
M  V30 50 H 51.470524 44.451231 53.026470 0
M  V30 51 H 53.370258 39.599207 49.715628 0
M  V30 52 H 50.648329 38.531986 51.453503 0
M  V30 53 H 49.722695 38.313877 49.994005 0
M  V30 54 H 51.462071 38.285646 49.898662 0
M  V30 55 H 46.434204 45.254101 47.419176 0
M  V30 56 H 48.117290 45.350860 47.791026 0
M  V30 57 H 48.435021 40.821438 46.721287 0
M  V30 58 H 49.984566 41.247585 46.030975 0
M  V30 59 H 48.561446 40.184297 49.755350 0
M  V30 60 H 50.070048 42.657975 55.392110 0
M  V30 61 H 49.381822 44.176338 55.874294 0
M  V30 62 H 46.854021 42.608597 47.512200 0
M  V30 63 H 51.965393 43.890121 55.725182 0
M  V30 64 H 45.867784 43.833553 45.640746 0
M  V30 65 H 47.446780 44.293350 45.051016 0
M  V30 66 H 48.274491 40.827641 44.255464 0
M  V30 67 H 48.888952 42.462323 44.168575 0
M  V30 68 H 48.876063 47.012244 52.775046 0
M  V30 69 H 49.689177 45.303559 48.928370 0
M  V30 70 H 52.380876 45.119798 49.947909 0
M  V30 71 H 54.123571 45.083610 49.734462 0
M  V30 72 H 53.077189 44.297979 48.551995 0
M  V30 73 H 50.662340 42.309786 48.011391 0
M  V30 74 H 50.135084 43.880903 48.406473 0
M  V30 END ATOM
M  V30 BEGIN BOND
M  V30 1 1 9 3
M  V30 2 1 11 5
M  V30 3 2 12 1
M  V30 4 1 12 3
M  V30 5 1 13 1
M  V30 6 1 14 10
M  V30 7 1 15 9
M  V30 8 1 18 1
M  V30 9 1 18 15
M  V30 10 1 18 16
M  V30 11 1 19 13
M  V30 12 1 20 2
M  V30 13 1 21 6
M  V30 14 2 22 13
M  V30 15 1 22 14
M  V30 16 1 23 7
M  V30 17 1 24 6
M  V30 18 1 24 20
M  V30 19 1 25 2
M  V30 20 1 25 8
M  V30 21 1 25 10
M  V30 22 1 26 11
M  V30 23 1 26 17
M  V30 24 1 26 23
M  V30 25 1 27 4
M  V30 26 1 27 24
M  V30 27 1 28 4
M  V30 28 1 28 21
M  V30 29 2 29 5
M  V30 30 1 25 30 CFG=3
M  V30 31 1 31 7
M  V30 32 1 31 8
M  V30 33 1 31 29
M  V30 34 1 32 3
M  V30 35 1 33 6
M  V30 36 1 33 14
M  V30 37 1 3 34 CFG=1
M  V30 38 1 35 5
M  V30 39 1 6 36 CFG=3
M  V30 40 1 37 7
M  V30 41 1 38 7
M  V30 42 1 39 8
M  V30 43 1 40 8
M  V30 44 1 41 9
M  V30 45 1 42 9
M  V30 46 1 43 10
M  V30 47 1 44 11
M  V30 48 1 45 11
M  V30 49 1 46 12
M  V30 50 1 14 47 CFG=3
M  V30 51 1 48 15
M  V30 52 1 49 15
M  V30 53 1 50 17
M  V30 54 1 18 51 CFG=3
M  V30 55 1 52 19
M  V30 56 1 53 19
M  V30 57 1 54 19
M  V30 58 1 55 20
M  V30 59 1 56 20
M  V30 60 1 57 21
M  V30 61 1 58 21
M  V30 62 1 59 22
M  V30 63 1 60 23
M  V30 64 1 61 23
M  V30 65 1 24 62 CFG=1
M  V30 66 1 26 63 CFG=1
M  V30 67 1 64 27
M  V30 68 1 65 27
M  V30 69 1 66 28
M  V30 70 1 67 28
M  V30 71 1 68 29
M  V30 72 1 69 30
M  V30 73 1 70 32
M  V30 74 1 71 32
M  V30 75 1 72 32
M  V30 76 1 73 33
M  V30 77 1 74 33
M  V30 END BOND
M  V30 END CTAB
M  END
>  <i_epik_Tot_Q>  (1) 
0

>  <i_epik_Tot_abs_Q>  (1) 
0

>  <i_i_glide_confnum>  (1) 
74

>  <i_i_glide_lignum>  (1) 
256

>  <i_i_glide_posenum>  (1) 
94

>  <i_i_glide_rotatable_bonds>  (1) 
6

>  <i_lp_mmshare_version>  (1) 
72125

>  <i_m_source_file_index>  (1) 
94

>  <i_f3d_flags>  (1) 
0

>  <num_sample>  (1) 
100

>  <b_lp_Chiralities_Consistent>  (1) 
1

>  <r_epik_Charging_Adjusted_Penalty>  (1) 
0.20325292957253988

>  <r_epik_Ionization_Penalty>  (1) 
0.031936562948065232

>  <r_epik_Ionization_Penalty_Charging>  (1) 
3.6030848355623751e-07

>  <r_epik_Ionization_Penalty_Neutral>  (1) 
0.031936202639581676

>  <r_epik_State_Penalty>  (1) 
0.20325256926405633

>  <r_glide_ring_energy>  (1) 
0

>  <r_i_docking_score>  (1) 
-1.5311710161239804

>  <r_i_glide_ecoul>  (1) 
0.55798224430565979

>  <r_i_glide_eff_state_penalty>  (1) 
0.20325256926405633

>  <r_i_glide_einternal>  (1) 
17.08301369625616

>  <r_i_glide_emodel>  (1) 
-7.6274812940374197

>  <r_i_glide_emodel_strain>  (1) 
0.85902242828245789

>  <r_i_glide_energy>  (1) 
-15.485961806620374

>  <r_i_glide_erotb>  (1) 
0.31140238833871409

>  <r_i_glide_esite>  (1) 
0

>  <r_i_glide_evdw>  (1) 
-16.043944050926033

>  <r_i_glide_gscore>  (1) 
-1.7344235853880368

>  <r_i_glide_gscore_strain>  (1) 
0

>  <r_i_glide_hbond>  (1) 
0

>  <r_i_glide_ligand_efficiency>  (1) 
-0.04639912170072668

>  <r_i_glide_ligand_efficiency_ln>  (1) 
-0.34052450600674805

>  <r_i_glide_ligand_efficiency_sa>  (1) 
-0.14882677573673517

>  <r_i_glide_lipo>  (1) 
-1.3172382766799111

>  <r_i_glide_metal>  (1) 
-0

>  <r_i_glide_rewards>  (1) 
-0.010087831146386981

>  <r_lp_Energy>  (1) 
35.986021999999998

>  <s_epik_Chemistry_Notes>  (1) 
This compound has an imine and may undergo hydrolysis.

>  <s_epik_cmdline>  (1) 
J2VwaWtfcHl0aG9uJywgJy1waHQnLCAnMS4wJywgJy1waCcsICc3LjQnLCAnLXRuJywgJzgnLCAnLW1hJywgJzUwMCcsICctaW1hZScsICc8aW5maWxlLm1hZT4nLCAnLW9tYWUnLCAnPG91dGZpbGUubWFlPic=

>  <s_epik_input>  (1) 
Q2xbQ0BIXTFbQ0gyXVtDSDJdW0NAQEhdKFtDSDNdKVtDSF09QzEvQyhbQ0gzXSk9W0NIXVxbQ0BASF0oW0NIMl0yKVtOSF1bQ0BAXShbU0hdKShTW0NIMl1bQ0BIXShbQ0BASF0yMylbQ0gyXU9bQ0gyXVtDSDJdMylbQ0gyXU4oW0NIMl1bQ0gyXTQpW0NIXT1bQ0hdW0NIMl1bQ0BASF00W09IXQ==

>  <s_glide_docking_method>  (1) 
confgen

>  <s_i_glide_gridfile>  (1) 
gpcr_5ht2c_6bqh_protein_autoprepared_prepared

>  <s_lp_Force_Field>  (1) 
S-OPLS

>  <s_lp_Variant>  (1) 
DiffSBDD_93_num_sample_100-8

>  <s_m_source_file>  (1) 
generated__ligand_DiffSBDD_2026-05-06_prepared.sdf

>  <GenAI_Model>  (1) 
DiffSBDD

>  <Protein>  (1) 
GPCR_5HT2C

$$$$
DiffSBDD_12_num_sample_100
     RDKit          3D

  0  0  0  0  0  0  0  0  0  0999 V3000
M  V30 BEGIN CTAB
M  V30 COUNTS 31 30 0 0 1
M  V30 BEGIN ATOM
M  V30 1 C 39.309240 29.126354 50.825891 0
M  V30 2 S 39.467461 27.168644 54.910655 0
M  V30 3 C 40.101385 25.682129 57.091952 0
M  V30 4 C 41.283623 30.483288 49.994127 0
M  V30 5 C 38.709476 28.228562 51.916629 0
M  V30 6 C 38.891998 26.282180 56.358909 0 CFG=2
M  V30 7 N 37.979766 25.264335 55.859723 0
M  V30 8 C 38.323196 28.975602 53.212037 0
M  V30 9 C 37.977894 28.037954 54.369028 0
M  V30 10 C 37.336360 24.421428 56.667378 0
M  V30 11 C 40.708915 29.652043 51.144720 0
M  V30 12 O 37.466185 24.419832 57.887374 0
M  V30 13 H 39.341234 28.568167 49.889295 0
M  V30 14 H 38.667655 29.982605 50.653368 0
M  V30 15 H 39.840191 25.275176 58.068154 0
M  V30 16 H 40.529993 24.877983 56.495301 0
M  V30 17 H 40.877537 26.429228 57.255582 0
M  V30 18 H 42.290454 30.821232 50.232630 0
M  V30 19 H 41.328730 29.925220 49.058713 0
M  V30 20 H 40.670233 31.366318 49.816649 0
M  V30 21 H 39.421455 27.430559 52.126393 0
M  V30 22 H 37.823921 27.731976 51.518863 0
M  V30 23 H 38.365421 26.981203 57.010260 0
M  V30 24 H 37.830545 25.208495 54.863299 0
M  V30 25 H 37.467409 29.621366 53.039440 0
M  V30 26 H 39.130681 29.633361 53.533787 0
M  V30 27 H 37.204936 27.327093 54.075464 0
M  V30 28 H 37.586616 28.615616 55.206930 0
M  V30 29 H 36.686403 23.738834 56.099068 0
M  V30 30 H 40.667405 30.278750 52.035109 0
M  V30 31 H 41.376856 28.823567 51.381637 0
M  V30 END ATOM
M  V30 BEGIN BOND
M  V30 1 1 5 1
M  V30 2 1 6 2
M  V30 3 1 6 3
M  V30 4 1 7 6
M  V30 5 1 8 5
M  V30 6 1 9 2
M  V30 7 1 9 8
M  V30 8 1 10 7
M  V30 9 1 11 1
M  V30 10 1 11 4
M  V30 11 2 12 10
M  V30 12 1 13 1
M  V30 13 1 14 1
M  V30 14 1 15 3
M  V30 15 1 16 3
M  V30 16 1 17 3
M  V30 17 1 18 4
M  V30 18 1 19 4
M  V30 19 1 20 4
M  V30 20 1 21 5
M  V30 21 1 22 5
M  V30 22 1 6 23 CFG=1
M  V30 23 1 24 7
M  V30 24 1 25 8
M  V30 25 1 26 8
M  V30 26 1 27 9
M  V30 27 1 28 9
M  V30 28 1 29 10
M  V30 29 1 30 11
M  V30 30 1 31 11
M  V30 END BOND
M  V30 END CTAB
M  END
>  <i_epik_Tot_Q>  (1) 
0

>  <i_epik_Tot_abs_Q>  (1) 
0

>  <i_i_glide_confnum>  (1) 
152

>  <i_i_glide_lignum>  (1) 
30

>  <i_i_glide_posenum>  (1) 
384

>  <i_i_glide_rotatable_bonds>  (1) 
8

>  <i_lp_mmshare_version>  (1) 
72125

>  <i_m_source_file_index>  (1) 
13

>  <i_f3d_flags>  (1) 
0

>  <num_sample>  (1) 
100

>  <b_lp_Chiralities_Consistent>  (1) 
1

>  <r_epik_Charging_Adjusted_Penalty>  (1) 
0

>  <r_epik_Ionization_Penalty>  (1) 
1.0816103535090204e-07

>  <r_epik_Ionization_Penalty_Charging>  (1) 
0

>  <r_epik_Ionization_Penalty_Neutral>  (1) 
1.0816103535090204e-07

>  <r_epik_State_Penalty>  (1) 
-0

>  <r_glide_ring_energy>  (1) 
0

>  <r_i_docking_score>  (1) 
-1.4539047371114566

>  <r_i_glide_ecoul>  (1) 
-0.8366720453910137

>  <r_i_glide_eff_state_penalty>  (1) 
-0

>  <r_i_glide_einternal>  (1) 
2.3475153737813592

>  <r_i_glide_emodel>  (1) 
-26.513714197623301

>  <r_i_glide_emodel_strain>  (1) 
0.31440407339176391

>  <r_i_glide_energy>  (1) 
-25.521361739256072

>  <r_i_glide_erotb>  (1) 
5.3674158400269425

>  <r_i_glide_esite>  (1) 
0

>  <r_i_glide_evdw>  (1) 
-24.684689693865057

>  <r_i_glide_gscore>  (1) 
-1.4539047371114566

>  <r_i_glide_gscore_strain>  (1) 
0

>  <r_i_glide_hbond>  (1) 
0

>  <r_i_glide_ligand_efficiency>  (1) 
-0.12115872809262139

>  <r_i_glide_ligand_efficiency_ln>  (1) 
-0.41720048288808625

>  <r_i_glide_ligand_efficiency_sa>  (1) 
-0.27738424331454037

>  <r_i_glide_lipo>  (1) 
-2.5283392874585453

>  <r_i_glide_metal>  (1) 
-0

>  <r_i_glide_rewards>  (1) 
-2.9332459981779486

>  <r_lp_Energy>  (1) 
-1.4832109999999998

>  <r_lp_tautomer_probability>  (1) 
1

>  <s_epik_Chemistry_Notes>  (1) 
This compound contains an acetal/aminal-like group ( X-CH(R)-Y where X, Y are N, S, or O) that may be acid/base labile, releasing an aldehyde.

>  <s_epik_cmdline>  (1) 
J2VwaWtfcHl0aG9uJywgJy1waHQnLCAnMS4wJywgJy1waCcsICc3LjQnLCAnLXRuJywgJzgnLCAnLW1hJywgJzUwMCcsICctaW1hZScsICc8aW5maWxlLm1hZT4nLCAnLW9tYWUnLCAnPG91dGZpbGUubWFlPic=

>  <s_epik_input>  (1) 
W0NIM11bQ0gyXVtDSDJdW0NIMl1bQ0gyXVtDSDJdU1tDQEhdKFtDSDNdKVtOSF1bQ0hdPU8=

>  <s_glide_docking_method>  (1) 
confgen

>  <s_i_glide_gridfile>  (1) 
gpcr_5ht2c_6bqh_protein_autoprepared_prepared

>  <s_lp_Force_Field>  (1) 
S-OPLS

>  <s_lp_Variant>  (1) 
DiffSBDD_12_num_sample_100-1

>  <s_m_source_file>  (1) 
generated__ligand_DiffSBDD_2026-05-06_prepared.sdf

>  <GenAI_Model>  (1) 
DiffSBDD

>  <Protein>  (1) 
GPCR_5HT2C

$$$$
DiffSBDD_58_num_sample_100
     RDKit          3D

  0  0  0  0  0  0  0  0  0  0999 V3000
M  V30 BEGIN CTAB
M  V30 COUNTS 29 28 0 0 1
M  V30 BEGIN ATOM
M  V30 1 S 40.044836 28.467394 51.080265 0
M  V30 2 C 38.452407 31.995584 55.649358 0
M  V30 3 C 38.666489 32.514545 57.079675 0
M  V30 4 C 39.457005 30.609223 53.721950 0
M  V30 5 S 38.246833 28.752470 51.998419 0
M  V30 6 Cl 40.418286 30.375855 50.312100 0
M  V30 7 O 35.155928 32.646385 59.453512 0
M  V30 8 C 37.407527 33.411271 59.026673 0
M  V30 9 N 37.467402 33.221373 57.564069 0 CHG=1
M  V30 10 C 38.592876 29.337068 53.682883 0
M  V30 11 C 35.991125 33.786921 59.482249 0
M  V30 12 C 39.646790 31.169486 55.140623 0
M  V30 13 H 37.547715 31.385463 55.625460 0
M  V30 14 H 38.270170 32.836557 54.977669 0
M  V30 15 H 39.524890 33.180010 57.131863 0
M  V30 16 H 38.873502 31.665510 57.733522 0
M  V30 17 H 39.052934 31.379878 53.067632 0
M  V30 18 H 40.439633 30.374576 53.315963 0
M  V30 19 H 35.070062 32.338784 58.546951 0
M  V30 20 H 38.112093 34.194978 59.301463 0
M  V30 21 H 37.728928 32.505609 59.545382 0
M  V30 22 H 36.667485 32.643732 57.288524 0
M  V30 23 H 39.079577 28.532404 54.232714 0
M  V30 24 H 37.632401 29.513680 54.168626 0
M  V30 25 H 35.569445 34.583581 58.869804 0
M  V30 26 H 36.018077 34.156787 60.507195 0
M  V30 27 H 40.531991 31.800622 55.149393 0
M  V30 28 H 39.862006 30.351744 55.828898 0
M  V30 29 H 37.375925 34.113598 57.097287 0
M  V30 END ATOM
M  V30 BEGIN BOND
M  V30 1 1 3 2
M  V30 2 1 5 1
M  V30 3 1 6 1
M  V30 4 1 9 3
M  V30 5 1 9 8
M  V30 6 1 10 4
M  V30 7 1 10 5
M  V30 8 1 11 7
M  V30 9 1 11 8
M  V30 10 1 12 2
M  V30 11 1 12 4
M  V30 12 1 13 2
M  V30 13 1 14 2
M  V30 14 1 15 3
M  V30 15 1 16 3
M  V30 16 1 17 4
M  V30 17 1 18 4
M  V30 18 1 19 7
M  V30 19 1 20 8
M  V30 20 1 21 8
M  V30 21 1 22 9
M  V30 22 1 23 10
M  V30 23 1 24 10
M  V30 24 1 25 11
M  V30 25 1 26 11
M  V30 26 1 27 12
M  V30 27 1 28 12
M  V30 28 1 29 9
M  V30 END BOND
M  V30 END CTAB
M  END
>  <i_epik_Tot_Q>  (1) 
1

>  <i_epik_Tot_abs_Q>  (1) 
1

>  <i_i_glide_confnum>  (1) 
64

>  <i_i_glide_lignum>  (1) 
147

>  <i_i_glide_posenum>  (1) 
302

>  <i_i_glide_rotatable_bonds>  (1) 
10

>  <i_lp_mmshare_version>  (1) 
72125

>  <i_m_source_file_index>  (1) 
59

>  <i_f3d_flags>  (1) 
0

>  <num_sample>  (1) 
100

>  <b_lp_Chiralities_Consistent>  (1) 
1

>  <r_epik_Charging_Adjusted_Penalty>  (1) 
0.014760532929550717

>  <r_epik_Ionization_Penalty>  (1) 
0.0073815081172038301

>  <r_epik_Ionization_Penalty_Charging>  (1) 
0.0073802664647753631

>  <r_epik_Ionization_Penalty_Neutral>  (1) 
1.241652428467383e-06

>  <r_epik_State_Penalty>  (1) 
0.0073802664647753553

>  <r_glide_ring_energy>  (1) 
0

>  <r_i_docking_score>  (1) 
-1.4399909631742547

>  <r_i_glide_ecoul>  (1) 
-8.1152231129743626

>  <r_i_glide_eff_state_penalty>  (1) 
0.0073802664647753553

>  <r_i_glide_einternal>  (1) 
4.2917332509280683

>  <r_i_glide_emodel>  (1) 
-31.743923309511608

>  <r_i_glide_emodel_strain>  (1) 
0.033889013236285237

>  <r_i_glide_energy>  (1) 
-29.918329806784474

>  <r_i_glide_erotb>  (1) 
5.1343174495443797

>  <r_i_glide_esite>  (1) 
-0.08809167520489472

>  <r_i_glide_evdw>  (1) 
-21.803106693810111

>  <r_i_glide_gscore>  (1) 
-1.44737122963903

>  <r_i_glide_gscore_strain>  (1) 
0

>  <r_i_glide_hbond>  (1) 
-0.35999999999999999

>  <r_i_glide_ligand_efficiency>  (1) 
-0.11999924693118789

>  <r_i_glide_ligand_efficiency_ln>  (1) 
-0.41320790135421692

>  <r_i_glide_ligand_efficiency_sa>  (1) 
-0.27472969411560999

>  <r_i_glide_lipo>  (1) 
-1.6407211024113768

>  <r_i_glide_metal>  (1) 
-0

>  <r_i_glide_rewards>  (1) 
-2.1854370999304775

>  <r_lp_Energy>  (1) 
0.71688799999999997

>  <s_epik_cmdline>  (1) 
J2VwaWtfcHl0aG9uJywgJy1waHQnLCAnMS4wJywgJy1waCcsICc3LjQnLCAnLXRuJywgJzgnLCAnLW1hJywgJzUwMCcsICctaW1hZScsICc8aW5maWxlLm1hZT4nLCAnLW9tYWUnLCAnPG91dGZpbGUubWFlPic=

>  <s_epik_input>  (1) 
Q2xTU1tDSDJdW0NIMl1bQ0gyXVtDSDJdW0NIMl1bTkhdW0NIMl1bQ0gyXVtPSF0=

>  <s_glide_docking_method>  (1) 
confgen

>  <s_i_glide_gridfile>  (1) 
gpcr_5ht2c_6bqh_protein_autoprepared_prepared

>  <s_lp_Force_Field>  (1) 
S-OPLS

>  <s_lp_Variant>  (1) 
DiffSBDD_58_num_sample_100-1

>  <s_m_source_file>  (1) 
generated__ligand_DiffSBDD_2026-05-06_prepared.sdf

>  <GenAI_Model>  (1) 
DiffSBDD

>  <Protein>  (1) 
GPCR_5HT2C

$$$$
DiffSBDD_93_num_sample_100
     RDKit          3D

  0  0  0  0  0  0  0  0  0  0999 V3000
M  V30 BEGIN CTAB
M  V30 COUNTS 74 77 0 0 1
M  V30 BEGIN ATOM
M  V30 1 C 51.411834 42.101093 50.838276 0
M  V30 2 S 47.075773 43.389209 46.817802 0
M  V30 3 C 52.576566 41.036573 52.835771 0 CFG=2
M  V30 4 O 49.293434 45.981763 42.793706 0
M  V30 5 C 44.817381 43.626584 52.481131 0
M  V30 6 C 49.694802 45.216172 45.563433 0 CFG=1
M  V30 7 C 47.785904 44.228551 51.681059 0
M  V30 8 C 47.189814 43.161316 49.549408 0
M  V30 9 C 52.881510 39.844683 51.921519 0
M  V30 10 N 48.574145 44.989583 48.443032 0 CHG=1
M  V30 11 C 45.304778 44.593050 53.560254 0
M  V30 12 C 52.046090 42.213132 52.033041 0
M  V30 13 C 50.976916 43.336879 50.131344 0
M  V30 14 C 49.915733 44.432354 48.069363 0 CFG=1
M  V30 15 C 51.647876 39.516661 51.091713 0
M  V30 16 Cl 49.467402 40.323049 49.853077 0
M  V30 17 O 46.856766 45.895443 54.792519 0
M  V30 18 C 51.174746 40.699144 50.220101 0 CFG=1
M  V30 19 C 51.202255 44.708721 50.778203 0
M  V30 20 C 47.122123 44.774511 45.635294 0
M  V30 21 C 50.838297 45.470326 44.559454 0
M  V30 22 C 50.386103 43.244928 48.909789 0
M  V30 23 C 47.414516 45.417273 52.533359 0
M  V30 24 C 48.403200 44.849305 44.777622 0 CFG=1
M  V30 25 C 47.294418 44.231964 48.419505 0 CFG=1
M  V30 26 C 46.772133 44.897294 53.795357 0 CFG=2
M  V30 27 C 48.162342 45.874453 43.645659 0
M  V30 28 C 50.435507 46.475386 43.475062 0
M  V30 29 C 45.460468 43.252940 51.338275 0
M  V30 30 S 46.062203 45.535991 48.687357 0 CHG=-1
M  V30 31 N 46.739118 43.621436 50.868659 0
M  V30 32 C 53.819100 41.438075 53.643189 0
M  V30 33 C 50.130753 44.120810 46.569211 0
M  V30 34 H 51.794187 40.755841 53.542586 0
M  V30 35 H 43.828173 43.227264 52.650898 0
M  V30 36 H 49.525891 46.153549 46.095192 0
M  V30 37 H 48.257393 43.448142 52.279820 0
M  V30 38 H 48.564608 44.570124 51.008008 0
M  V30 39 H 48.109010 42.600721 49.665199 0
M  V30 40 H 46.471206 42.421429 49.212315 0
M  V30 41 H 53.721556 40.071576 51.263265 0
M  V30 42 H 53.172126 38.977112 52.515323 0
M  V30 43 H 48.406118 45.782285 47.842213 0
M  V30 44 H 44.897846 44.208969 54.496537 0
M  V30 45 H 44.772259 45.527940 53.378623 0
M  V30 46 H 52.217732 43.186506 52.461659 0
M  V30 47 H 50.604005 45.256671 48.247701 0
M  V30 48 H 51.828555 38.641495 50.466291 0
M  V30 49 H 50.853048 39.230137 51.782589 0
M  V30 50 H 46.439651 45.575438 55.577882 0
M  V30 51 H 51.719521 40.666533 49.275849 0
M  V30 52 H 50.869285 44.703143 51.816065 0
M  V30 53 H 52.262366 44.963246 50.759565 0
M  V30 54 H 50.655533 45.529946 50.323012 0
M  V30 55 H 46.265209 44.625749 44.978134 0
M  V30 56 H 46.946901 45.727783 46.130001 0
M  V30 57 H 51.124924 44.533072 44.079757 0
M  V30 58 H 51.723479 45.837105 45.080813 0
M  V30 59 H 50.231359 42.278553 48.465443 0
M  V30 60 H 46.781933 46.125143 51.995249 0
M  V30 61 H 48.332895 45.947405 52.789703 0
M  V30 62 H 48.551504 43.877402 44.304216 0
M  V30 63 H 47.295077 44.021437 54.178655 0
M  V30 64 H 47.312559 45.567515 43.035217 0
M  V30 65 H 47.914059 46.855918 44.053893 0
M  V30 66 H 51.247054 46.599666 42.757886 0
M  V30 67 H 50.233100 47.458892 43.902217 0
M  V30 68 H 44.957620 42.584117 50.653754 0
M  V30 69 H 53.597238 42.256450 54.328811 0
M  V30 70 H 54.185051 40.602327 54.240291 0
M  V30 71 H 54.631073 41.761165 52.990560 0
M  V30 72 H 49.704876 43.156870 46.293539 0
M  V30 73 H 51.202547 43.948560 46.455498 0
M  V30 74 H 48.638649 45.352130 49.382112 0
M  V30 END ATOM
M  V30 BEGIN BOND
M  V30 1 1 9 3
M  V30 2 1 11 5
M  V30 3 2 12 1
M  V30 4 1 12 3
M  V30 5 1 13 1
M  V30 6 1 14 10
M  V30 7 1 15 9
M  V30 8 1 18 1
M  V30 9 1 18 15
M  V30 10 1 18 16
M  V30 11 1 19 13
M  V30 12 1 20 2
M  V30 13 1 21 6
M  V30 14 2 22 13
M  V30 15 1 22 14
M  V30 16 1 23 7
M  V30 17 1 24 6
M  V30 18 1 24 20
M  V30 19 1 25 2
M  V30 20 1 25 8
M  V30 21 1 25 10
M  V30 22 1 26 11
M  V30 23 1 26 17
M  V30 24 1 26 23
M  V30 25 1 27 4
M  V30 26 1 27 24
M  V30 27 1 28 4
M  V30 28 1 28 21
M  V30 29 2 29 5
M  V30 30 1 25 30 CFG=1
M  V30 31 1 31 7
M  V30 32 1 31 8
M  V30 33 1 31 29
M  V30 34 1 32 3
M  V30 35 1 33 6
M  V30 36 1 33 14
M  V30 37 1 3 34 CFG=1
M  V30 38 1 35 5
M  V30 39 1 6 36 CFG=1
M  V30 40 1 37 7
M  V30 41 1 38 7
M  V30 42 1 39 8
M  V30 43 1 40 8
M  V30 44 1 41 9
M  V30 45 1 42 9
M  V30 46 1 43 10
M  V30 47 1 44 11
M  V30 48 1 45 11
M  V30 49 1 46 12
M  V30 50 1 14 47 CFG=1
M  V30 51 1 48 15
M  V30 52 1 49 15
M  V30 53 1 50 17
M  V30 54 1 18 51 CFG=3
M  V30 55 1 52 19
M  V30 56 1 53 19
M  V30 57 1 54 19
M  V30 58 1 55 20
M  V30 59 1 56 20
M  V30 60 1 57 21
M  V30 61 1 58 21
M  V30 62 1 59 22
M  V30 63 1 60 23
M  V30 64 1 61 23
M  V30 65 1 24 62 CFG=3
M  V30 66 1 26 63 CFG=1
M  V30 67 1 64 27
M  V30 68 1 65 27
M  V30 69 1 66 28
M  V30 70 1 67 28
M  V30 71 1 68 29
M  V30 72 1 69 32
M  V30 73 1 70 32
M  V30 74 1 71 32
M  V30 75 1 72 33
M  V30 76 1 73 33
M  V30 77 1 74 10
M  V30 END BOND
M  V30 END CTAB
M  END
>  <i_epik_Tot_Q>  (1) 
0

>  <i_epik_Tot_abs_Q>  (1) 
2

>  <i_i_glide_confnum>  (1) 
116

>  <i_i_glide_lignum>  (1) 
261

>  <i_i_glide_posenum>  (1) 
16

>  <i_i_glide_rotatable_bonds>  (1) 
5

>  <i_lp_mmshare_version>  (1) 
72125

>  <i_m_source_file_index>  (1) 
94

>  <i_f3d_flags>  (1) 
0

>  <num_sample>  (1) 
100

>  <b_lp_Chiralities_Consistent>  (1) 
1

>  <r_epik_Charging_Adjusted_Penalty>  (1) 
0.80501984278308969

>  <r_epik_Ionization_Penalty>  (1) 
0.072421558423421364

>  <r_epik_Ionization_Penalty_Charging>  (1) 
0.072408791886815996

>  <r_epik_Ionization_Penalty_Neutral>  (1) 
1.2766536605372598e-05

>  <r_epik_State_Penalty>  (1) 
0.73261105089627365

>  <r_glide_ring_energy>  (1) 
0

>  <r_i_docking_score>  (1) 
-1.4382185183080498

>  <r_i_glide_ecoul>  (1) 
-0.26812862978750629

>  <r_i_glide_eff_state_penalty>  (1) 
0.73261105089627365

>  <r_i_glide_einternal>  (1) 
9.191786014773573

>  <r_i_glide_emodel>  (1) 
-12.863009575549976

>  <r_i_glide_emodel_strain>  (1) 
0

>  <r_i_glide_energy>  (1) 
-17.244543974060978

>  <r_i_glide_erotb>  (1) 
0.31140238833871409

>  <r_i_glide_esite>  (1) 
0

>  <r_i_glide_evdw>  (1) 
-16.976415344273473

>  <r_i_glide_gscore>  (1) 
-2.1708295692043236

>  <r_i_glide_gscore_strain>  (1) 
0

>  <r_i_glide_hbond>  (1) 
0

>  <r_i_glide_ligand_efficiency>  (1) 
-0.043582379342668176

>  <r_i_glide_ligand_efficiency_ln>  (1) 
-0.31985235177476112

>  <r_i_glide_ligand_efficiency_sa>  (1) 
-0.13979197792450912

>  <r_i_glide_lipo>  (1) 
-1.4081874327697839

>  <r_i_glide_metal>  (1) 
-0

>  <r_i_glide_rewards>  (1) 
-0.18500446309145402

>  <r_lp_Energy>  (1) 
38.886989999999997

>  <s_epik_Chemistry_Notes>  (1) 
This compound has an imine and may undergo hydrolysis.

>  <s_epik_cmdline>  (1) 
J2VwaWtfcHl0aG9uJywgJy1waHQnLCAnMS4wJywgJy1waCcsICc3LjQnLCAnLXRuJywgJzgnLCAnLW1hJywgJzUwMCcsICctaW1hZScsICc8aW5maWxlLm1hZT4nLCAnLW9tYWUnLCAnPG91dGZpbGUubWFlPic=

>  <s_epik_input>  (1) 
Q2xbQ0BIXTFbQ0gyXVtDSDJdW0NAQEhdKFtDSDNdKVtDSF09QzEvQyhbQ0gzXSk9W0NIXS9bQ0BASF0oW0NIMl0yKVtOSF1bQ0BAXShbU0hdKShTW0NIMl1bQ0BIXShbQ0BASF0yMylbQ0gyXU9bQ0gyXVtDSDJdMylbQ0gyXU4oW0NIMl1bQ0gyXTQpW0NIXT1bQ0hdW0NIMl1bQ0BASF00W09IXQ==

>  <s_glide_docking_method>  (1) 
confgen

>  <s_i_glide_gridfile>  (1) 
gpcr_5ht2c_6bqh_protein_autoprepared_prepared

>  <s_lp_Force_Field>  (1) 
S-OPLS

>  <s_lp_Variant>  (1) 
DiffSBDD_93_num_sample_100-13

>  <s_m_source_file>  (1) 
generated__ligand_DiffSBDD_2026-05-06_prepared.sdf

>  <GenAI_Model>  (1) 
DiffSBDD

>  <Protein>  (1) 
GPCR_5HT2C

$$$$
DiffSBDD_93_num_sample_100
     RDKit          3D

  0  0  0  0  0  0  0  0  0  0999 V3000
M  V30 BEGIN CTAB
M  V30 COUNTS 74 77 0 0 1
M  V30 BEGIN ATOM
M  V30 1 C 38.725793 28.810032 57.202455 0
M  V30 2 S 40.146810 32.169326 62.243901 0
M  V30 3 C 38.296779 29.471432 54.791181 0 CFG=2
M  V30 4 O 42.467762 29.106987 65.642241 0
M  V30 5 C 39.341435 35.715471 60.647382 0
M  V30 6 C 40.854183 28.915661 63.212698 0 CFG=1
M  V30 7 C 37.455799 33.997642 58.836442 0
M  V30 8 C 38.705997 32.110051 59.823536 0
M  V30 9 C 39.467378 28.590341 54.426726 0
M  V30 10 N 38.526971 30.157518 61.509303 0 CHG=1
M  V30 11 C 38.052716 36.509780 60.614711 0
M  V30 12 C 38.060254 29.547880 56.282468 0
M  V30 13 C 38.432765 29.022186 58.615035 0
M  V30 14 C 39.354852 29.023186 61.032905 0 CFG=1
M  V30 15 C 39.545384 27.333677 55.288398 0
M  V30 16 Cl 41.467366 28.021443 57.053506 0
M  V30 17 O 36.058607 37.221391 59.748123 0
M  V30 18 C 39.734402 27.726270 56.759631 0 CFG=1
M  V30 19 C 37.013964 29.444984 59.031442 0
M  V30 20 C 40.040033 31.289405 63.808415 0
M  V30 21 C 41.850722 27.833145 63.690571 0
M  V30 22 C 39.434208 28.827688 59.523986 0
M  V30 23 C 36.462300 34.939351 59.464117 0
M  V30 24 C 41.164590 30.257077 63.940641 0 CFG=1
M  V30 25 C 38.698737 31.603360 61.288684 0 CFG=1
M  V30 26 C 37.073075 36.319068 59.475933 0 CFG=2
M  V30 27 C 41.435879 30.054956 65.444888 0
M  V30 28 C 42.066905 27.822168 65.208249 0
M  V30 29 C 39.503383 34.430398 60.258753 0
M  V30 30 S 37.073008 32.102610 61.853503 0 CHG=-1
M  V30 31 N 38.551478 33.563903 59.707879 0
M  V30 32 C 37.059664 29.142307 54.009172 0
M  V30 33 C 40.781452 29.010880 61.661207 0
M  V30 34 H 38.563496 30.487943 54.495929 0
M  V30 35 H 40.189173 36.230084 61.075967 0
M  V30 36 H 39.873268 28.583033 63.508120 0
M  V30 37 H 37.867404 34.421322 57.922489 0
M  V30 38 H 36.876633 33.145836 58.481489 0
M  V30 39 H 37.824281 31.706188 59.378599 0
M  V30 40 H 39.467408 31.706946 59.195198 0
M  V30 41 H 39.467477 28.357773 53.360610 0
M  V30 42 H 40.318348 29.221808 54.653610 0
M  V30 43 H 38.446979 30.050249 62.509885 0
M  V30 44 H 38.326002 37.564471 60.653549 0
M  V30 45 H 37.552074 36.313230 61.564939 0
M  V30 46 H 37.342873 30.288274 56.605534 0
M  V30 47 H 38.868844 28.114497 61.387954 0
M  V30 48 H 38.624056 26.762170 55.169642 0
M  V30 49 H 40.353831 26.680313 54.959240 0
M  V30 50 H 35.357097 37.036725 59.144173 0
M  V30 51 H 39.506615 26.838963 57.351258 0
M  V30 52 H 36.666113 30.384182 58.612900 0
M  V30 53 H 36.335873 28.741035 58.554231 0
M  V30 54 H 36.752186 29.396905 60.077118 0
M  V30 55 H 40.133855 32.056159 64.578215 0
M  V30 56 H 39.067808 30.821521 63.951536 0
M  V30 57 H 42.810439 27.954910 63.186581 0
M  V30 58 H 41.468573 26.845210 63.453496 0
M  V30 59 H 40.393455 28.517094 59.170979 0
M  V30 60 H 36.161316 34.603515 60.456636 0
M  V30 61 H 35.563231 34.937474 58.846359 0
M  V30 62 H 42.079692 30.674560 63.518412 0
M  V30 63 H 37.467357 36.589372 58.499097 0
M  V30 64 H 41.760126 30.994903 65.893190 0
M  V30 65 H 40.531323 29.750280 65.974964 0
M  V30 66 H 42.845609 27.105766 65.469175 0
M  V30 67 H 41.161418 27.507026 65.730879 0
M  V30 68 H 40.450779 33.954931 60.399639 0
M  V30 69 H 36.314817 29.908380 54.248421 0
M  V30 70 H 37.256867 29.165131 52.938881 0
M  V30 71 H 36.667436 28.155948 54.253955 0
M  V30 72 H 41.349717 29.865147 61.306015 0
M  V30 73 H 41.304951 28.145424 61.251627 0
M  V30 74 H 37.607206 29.999078 61.129629 0
M  V30 END ATOM
M  V30 BEGIN BOND
M  V30 1 1 9 3
M  V30 2 1 11 5
M  V30 3 2 12 1
M  V30 4 1 12 3
M  V30 5 1 13 1
M  V30 6 1 14 10
M  V30 7 1 15 9
M  V30 8 1 18 1
M  V30 9 1 18 15
M  V30 10 1 18 16
M  V30 11 1 19 13
M  V30 12 1 20 2
M  V30 13 1 21 6
M  V30 14 2 22 13
M  V30 15 1 22 14
M  V30 16 1 23 7
M  V30 17 1 24 6
M  V30 18 1 24 20
M  V30 19 1 25 2
M  V30 20 1 25 8
M  V30 21 1 25 10
M  V30 22 1 26 11
M  V30 23 1 26 17
M  V30 24 1 26 23
M  V30 25 1 27 4
M  V30 26 1 27 24
M  V30 27 1 28 4
M  V30 28 1 28 21
M  V30 29 2 29 5
M  V30 30 1 25 30 CFG=1
M  V30 31 1 31 7
M  V30 32 1 31 8
M  V30 33 1 31 29
M  V30 34 1 32 3
M  V30 35 1 33 6
M  V30 36 1 33 14
M  V30 37 1 3 34 CFG=3
M  V30 38 1 35 5
M  V30 39 1 6 36 CFG=1
M  V30 40 1 37 7
M  V30 41 1 38 7
M  V30 42 1 39 8
M  V30 43 1 40 8
M  V30 44 1 41 9
M  V30 45 1 42 9
M  V30 46 1 43 10
M  V30 47 1 44 11
M  V30 48 1 45 11
M  V30 49 1 46 12
M  V30 50 1 14 47 CFG=1
M  V30 51 1 48 15
M  V30 52 1 49 15
M  V30 53 1 50 17
M  V30 54 1 18 51 CFG=1
M  V30 55 1 52 19
M  V30 56 1 53 19
M  V30 57 1 54 19
M  V30 58 1 55 20
M  V30 59 1 56 20
M  V30 60 1 57 21
M  V30 61 1 58 21
M  V30 62 1 59 22
M  V30 63 1 60 23
M  V30 64 1 61 23
M  V30 65 1 24 62 CFG=3
M  V30 66 1 26 63 CFG=3
M  V30 67 1 64 27
M  V30 68 1 65 27
M  V30 69 1 66 28
M  V30 70 1 67 28
M  V30 71 1 68 29
M  V30 72 1 69 32
M  V30 73 1 70 32
M  V30 74 1 71 32
M  V30 75 1 72 33
M  V30 76 1 73 33
M  V30 77 1 74 10
M  V30 END BOND
M  V30 END CTAB
M  END
>  <i_epik_Tot_Q>  (1) 
0

>  <i_epik_Tot_abs_Q>  (1) 
2

>  <i_i_glide_confnum>  (1) 
19

>  <i_i_glide_lignum>  (1) 
261

>  <i_i_glide_posenum>  (1) 
372

>  <i_i_glide_rotatable_bonds>  (1) 
5

>  <i_lp_mmshare_version>  (1) 
72125

>  <i_m_source_file_index>  (1) 
94

>  <i_f3d_flags>  (1) 
0

>  <num_sample>  (1) 
100

>  <b_lp_Chiralities_Consistent>  (1) 
1

>  <r_epik_Charging_Adjusted_Penalty>  (1) 
0.80501984278308969

>  <r_epik_Ionization_Penalty>  (1) 
0.072421558423421364

>  <r_epik_Ionization_Penalty_Charging>  (1) 
0.072408791886815996

>  <r_epik_Ionization_Penalty_Neutral>  (1) 
1.2766536605372598e-05

>  <r_epik_State_Penalty>  (1) 
0.73261105089627365

>  <r_glide_ring_energy>  (1) 
0.82930930823906657

>  <r_i_docking_score>  (1) 
-1.3966300651289134

>  <r_i_glide_ecoul>  (1) 
-2.7515355249701572

>  <r_i_glide_eff_state_penalty>  (1) 
0.73261105089627365

>  <r_i_glide_einternal>  (1) 
17.633547531468867

>  <r_i_glide_emodel>  (1) 
1.7696212599870886

>  <r_i_glide_emodel_strain>  (1) 
16.511745105301159

>  <r_i_glide_energy>  (1) 
-23.348645654806923

>  <r_i_glide_erotb>  (1) 
0.21798167183709985

>  <r_i_glide_esite>  (1) 
0

>  <r_i_glide_evdw>  (1) 
-20.597110129836764

>  <r_i_glide_gscore>  (1) 
-2.1292411160251872

>  <r_i_glide_gscore_strain>  (1) 
3.1279362763252898

>  <r_i_glide_hbond>  (1) 
-0.1392837166565036

>  <r_i_glide_ligand_efficiency>  (1) 
-0.042322123185724647

>  <r_i_glide_ligand_efficiency_ln>  (1) 
-0.31060329512120732

>  <r_i_glide_ligand_efficiency_sa>  (1) 
-0.13574966303652417

>  <r_i_glide_lipo>  (1) 
-2.6701356073013676

>  <r_i_glide_metal>  (1) 
-0

>  <r_i_glide_rewards>  (1) 
-1.2231539049923428

>  <r_lp_Energy>  (1) 
38.886989999999997

>  <s_epik_Chemistry_Notes>  (1) 
This compound has an imine and may undergo hydrolysis.

>  <s_epik_cmdline>  (1) 
J2VwaWtfcHl0aG9uJywgJy1waHQnLCAnMS4wJywgJy1waCcsICc3LjQnLCAnLXRuJywgJzgnLCAnLW1hJywgJzUwMCcsICctaW1hZScsICc8aW5maWxlLm1hZT4nLCAnLW9tYWUnLCAnPG91dGZpbGUubWFlPic=

>  <s_epik_input>  (1) 
Q2xbQ0BIXTFbQ0gyXVtDSDJdW0NAQEhdKFtDSDNdKVtDSF09QzEvQyhbQ0gzXSk9W0NIXS9bQ0BASF0oW0NIMl0yKVtOSF1bQ0BAXShbU0hdKShTW0NIMl1bQ0BIXShbQ0BASF0yMylbQ0gyXU9bQ0gyXVtDSDJdMylbQ0gyXU4oW0NIMl1bQ0gyXTQpW0NIXT1bQ0hdW0NIMl1bQ0BASF00W09IXQ==

>  <s_glide_docking_method>  (1) 
confgen

>  <s_i_glide_gridfile>  (1) 
gpcr_5ht2c_6bqh_protein_autoprepared_prepared

>  <s_lp_Force_Field>  (1) 
S-OPLS

>  <s_lp_Variant>  (1) 
DiffSBDD_93_num_sample_100-13

>  <s_m_source_file>  (1) 
generated__ligand_DiffSBDD_2026-05-06_prepared.sdf

>  <GenAI_Model>  (1) 
DiffSBDD

>  <Protein>  (1) 
GPCR_5HT2C

$$$$
DiffSBDD_90_num_sample_100
     RDKit          3D

  0  0  0  0  0  0  0  0  0  0999 V3000
M  V30 BEGIN CTAB
M  V30 COUNTS 84 87 0 0 1
M  V30 BEGIN ATOM
M  V30 1 C 36.590772 33.609281 60.397445 0
M  V30 2 O 38.764578 25.787422 57.919761 0
M  V30 3 F 42.961385 34.420732 64.142078 0
M  V30 4 C 37.806846 37.402139 62.509659 0 CFG=1
M  V30 5 C 39.105890 27.829469 55.595215 0 CFG=2
M  V30 6 C 38.676186 30.214671 56.115303 0 CFG=1
M  V30 7 C 34.929272 37.776470 64.287663 0
M  V30 8 C 39.011778 32.646205 56.923524 0
M  V30 9 C 36.401897 38.097293 62.297069 0
M  V30 10 N 39.310304 27.122438 58.021021 0
M  V30 11 C 41.820957 33.688370 62.176437 0
M  V30 12 C 36.267370 39.640336 62.438400 0
M  V30 13 C 39.506994 29.272747 55.222558 0
M  V30 14 C 38.657034 29.432560 57.441294 0
M  V30 15 O 37.336017 28.048808 53.994391 0
M  V30 16 N 37.976094 33.111589 60.661521 0
M  V30 17 C 39.255955 31.638963 56.049251 0
M  V30 18 F 41.964029 32.510101 64.208823 0
M  V30 19 C 40.455625 35.847942 63.701714 0 CFG=1
M  V30 20 N 38.664788 33.767355 61.756886 0
M  V30 21 C 41.520383 35.108837 61.596007 0
M  V30 22 C 38.850759 32.818314 59.484086 0
M  V30 23 O 35.467371 37.334077 63.053645 0
M  V30 24 C 35.958538 37.964322 60.834981 0
M  V30 25 C 35.982003 33.257923 59.060514 0
M  V30 26 C 40.667424 34.441767 64.311160 0
M  V30 27 C 38.119279 32.562559 58.148097 0 CFG=1
M  V30 28 C 38.580225 27.942264 57.056160 0 CFG=1
M  V30 29 C 38.064547 36.937168 63.957183 0
M  V30 30 O 37.893267 25.995822 54.661190 0 CHG=-1
M  V30 31 C 39.021448 35.196574 61.550549 0 CFG=1
M  V30 32 C 37.041810 33.617621 58.020930 0
M  V30 33 O 40.234002 26.974798 55.502289 0
M  V30 34 C 37.837441 36.131124 61.656027 0
M  V30 35 C 40.300161 35.768961 62.176961 0 CFG=1
M  V30 36 C 39.510214 36.835511 64.415342 0
M  V30 37 C 41.893790 33.748825 63.721047 0
M  V30 38 C 38.015589 27.242421 54.669134 0
M  V30 39 H 35.933531 33.364827 61.232806 0
M  V30 40 H 36.589558 34.678067 60.286500 0
M  V30 41 H 38.457148 25.638514 58.800618 0
M  V30 42 H 38.600752 38.055646 62.163202 0
M  V30 43 H 37.662031 30.257143 55.713327 0
M  V30 44 H 34.011528 37.221787 64.482340 0
M  V30 45 H 35.577444 37.594189 65.139927 0
M  V30 46 H 34.667349 38.821352 64.259706 0
M  V30 47 H 39.469672 33.605804 56.750512 0
M  V30 48 H 40.270657 26.987889 57.720453 0
M  V30 49 H 42.720386 33.221507 61.762804 0
M  V30 50 H 41.041404 32.986052 61.898439 0
M  V30 51 H 37.037061 40.153663 61.855089 0
M  V30 52 H 35.330774 40.007162 62.027819 0
M  V30 53 H 36.267275 40.010350 63.453382 0
M  V30 54 H 39.386667 29.497058 54.162892 0
M  V30 55 H 40.564785 29.418142 55.445621 0
M  V30 56 H 37.793699 29.628790 58.069329 0
M  V30 57 H 39.551608 29.648932 58.021793 0
M  V30 58 H 39.910378 31.834084 55.212384 0
M  V30 59 H 41.418229 36.333243 63.867315 0
M  V30 60 H 39.499378 33.225881 61.968306 0
M  V30 61 H 42.267408 35.817611 61.898853 0
M  V30 62 H 41.505276 35.221474 60.518082 0
M  V30 63 H 39.467317 31.958238 59.741623 0
M  V30 64 H 39.540270 33.642703 59.321637 0
M  V30 65 H 36.730444 38.421463 60.231225 0
M  V30 66 H 35.867463 36.957646 60.449821 0
M  V30 67 H 34.991549 38.421405 60.653406 0
M  V30 68 H 35.702584 32.203032 59.053706 0
M  V30 69 H 35.064236 33.825557 58.894214 0
M  V30 70 H 40.738197 34.484286 65.397684 0
M  V30 71 H 39.867460 33.766747 64.048732 0
M  V30 72 H 37.610498 31.614892 58.177790 0
M  V30 73 H 37.526854 27.655353 57.094378 0
M  V30 74 H 37.632705 37.621433 64.650158 0
M  V30 75 H 37.538585 36.021456 64.138450 0
M  V30 76 H 39.279371 35.249128 60.493737 0
M  V30 77 H 37.442404 34.622507 58.176239 0
M  V30 78 H 36.667395 33.621438 57.014890 0
M  V30 79 H 39.866953 26.100109 55.559387 0
M  V30 80 H 37.762720 36.417568 60.611045 0
M  V30 81 H 36.957972 35.579013 61.979322 0
M  V30 82 H 40.373988 36.794257 61.810072 0
M  V30 83 H 39.867445 37.856118 64.300664 0
M  V30 84 H 39.543150 36.635243 65.486908 0
M  V30 END ATOM
M  V30 BEGIN BOND
M  V30 1 1 9 4
M  V30 2 1 10 2
M  V30 3 1 12 9
M  V30 4 1 13 5
M  V30 5 1 13 6
M  V30 6 1 14 6
M  V30 7 1 16 1
M  V30 8 1 17 6
M  V30 9 2 17 8
M  V30 10 1 20 16
M  V30 11 1 21 11
M  V30 12 1 22 16
M  V30 13 1 23 7
M  V30 14 1 23 9
M  V30 15 1 24 9
M  V30 16 1 25 1
M  V30 17 1 26 19
M  V30 18 1 27 8
M  V30 19 1 27 22
M  V30 20 1 28 5
M  V30 21 1 28 10
M  V30 22 1 28 14
M  V30 23 1 29 4
M  V30 24 1 31 20
M  V30 25 1 32 25
M  V30 26 1 32 27
M  V30 27 1 5 33 CFG=1
M  V30 28 1 34 4
M  V30 29 1 34 31
M  V30 30 1 35 19
M  V30 31 1 35 21
M  V30 32 1 35 31
M  V30 33 1 36 19
M  V30 34 1 36 29
M  V30 35 1 37 3
M  V30 36 1 37 11
M  V30 37 1 37 18
M  V30 38 1 37 26
M  V30 39 1 38 5
M  V30 40 2 38 15
M  V30 41 1 38 30
M  V30 42 1 39 1
M  V30 43 1 40 1
M  V30 44 1 41 2
M  V30 45 1 4 42 CFG=3
M  V30 46 1 6 43 CFG=3
M  V30 47 1 44 7
M  V30 48 1 45 7
M  V30 49 1 46 7
M  V30 50 1 47 8
M  V30 51 1 48 10
M  V30 52 1 49 11
M  V30 53 1 50 11
M  V30 54 1 51 12
M  V30 55 1 52 12
M  V30 56 1 53 12
M  V30 57 1 54 13
M  V30 58 1 55 13
M  V30 59 1 56 14
M  V30 60 1 57 14
M  V30 61 1 58 17
M  V30 62 1 19 59 CFG=3
M  V30 63 1 60 20
M  V30 64 1 61 21
M  V30 65 1 62 21
M  V30 66 1 63 22
M  V30 67 1 64 22
M  V30 68 1 65 24
M  V30 69 1 66 24
M  V30 70 1 67 24
M  V30 71 1 68 25
M  V30 72 1 69 25
M  V30 73 1 70 26
M  V30 74 1 71 26
M  V30 75 1 27 72 CFG=1
M  V30 76 1 28 73 CFG=3
M  V30 77 1 74 29
M  V30 78 1 75 29
M  V30 79 1 31 76 CFG=3
M  V30 80 1 77 32
M  V30 81 1 78 32
M  V30 82 1 79 33
M  V30 83 1 80 34
M  V30 84 1 81 34
M  V30 85 1 35 82 CFG=3
M  V30 86 1 83 36
M  V30 87 1 84 36
M  V30 END BOND
M  V30 END CTAB
M  END
>  <i_epik_Tot_Q>  (1) 
-1

>  <i_epik_Tot_abs_Q>  (1) 
1

>  <i_i_glide_confnum>  (1) 
668

>  <i_i_glide_lignum>  (1) 
231

>  <i_i_glide_posenum>  (1) 
95

>  <i_i_glide_rotatable_bonds>  (1) 
10

>  <i_lp_mmshare_version>  (1) 
72125

>  <i_m_source_file_index>  (1) 
91

>  <i_f3d_flags>  (1) 
0

>  <num_sample>  (1) 
100

>  <b_lp_Chiralities_Consistent>  (1) 
1

>  <r_epik_Charging_Adjusted_Penalty>  (1) 
0.43821527866000726

>  <r_epik_Ionization_Penalty>  (1) 
0.52002734918543769

>  <r_epik_Ionization_Penalty_Charging>  (1) 
0.00012691742049533285

>  <r_epik_Ionization_Penalty_Neutral>  (1) 
0.51990043176494238

>  <r_epik_State_Penalty>  (1) 
0.43808836123951195

>  <r_glide_ring_energy>  (1) 
0.35261698705849204

>  <r_i_docking_score>  (1) 
-1.3930011141282816

>  <r_i_glide_ecoul>  (1) 
0.47287579044454114

>  <r_i_glide_eff_state_penalty>  (1) 
0.43808836123951195

>  <r_i_glide_einternal>  (1) 
29.528539953678784

>  <r_i_glide_emodel>  (1) 
8.8270303062937447

>  <r_i_glide_emodel_strain>  (1) 
14.629575106310526

>  <r_i_glide_energy>  (1) 
-18.993254460699536

>  <r_i_glide_erotb>  (1) 
0.42146348941000378

>  <r_i_glide_esite>  (1) 
0

>  <r_i_glide_evdw>  (1) 
-19.466130251144076

>  <r_i_glide_gscore>  (1) 
-1.8310894753677935

>  <r_i_glide_gscore_strain>  (1) 
2.6573937765776314

>  <r_i_glide_hbond>  (1) 
0

>  <r_i_glide_ligand_efficiency>  (1) 
-0.036657924056007408

>  <r_i_glide_ligand_efficiency_ln>  (1) 
-0.30037201814714481

>  <r_i_glide_ligand_efficiency_sa>  (1) 
-0.12324303914060104

>  <r_i_glide_lipo>  (1) 
-2.755140171756286

>  <r_i_glide_metal>  (1) 
-0

>  <r_i_glide_rewards>  (1) 
-1.2524314256086204

>  <r_lp_Energy>  (1) 
56.361058

>  <s_epik_Chemistry_Notes>  (1) 
This compound has a N-S or N-O group and may undergo hydrolysis at high or low pH.

>  <s_epik_cmdline>  (1) 
J2VwaWtfcHl0aG9uJywgJy1waHQnLCAnMS4wJywgJy1waCcsICc3LjQnLCAnLXRuJywgJzgnLCAnLW1hJywgJzUwMCcsICctaW1hZScsICc8aW5maWxlLm1hZT4nLCAnLW9tYWUnLCAnPG91dGZpbGUubWFlPic=

>  <s_epik_input>  (1) 
RkMoRikoW0NIMl0xKVtDSDJdW0NIMl1bQ0BIXShbQ0BASF0xMilbQ0BIXShbQ0gyXVtDQEhdKFtDSDJdW0NIMl0yKUMoW0NIM10pKFtDSDNdKU9bQ0gzXSlbTkhdTjNbQ0gyXVtDSDJdW0NIMl1bQ0BIXShbQ0gyXTMpL1tDSF09W0NIXVxbQ0BASF0oW0NIMl1bQ0BdNChbT0hdKUMoPU8pW09IXSlbQ0gyXVtDQEBIXTRbTkhdW09IXQ==

>  <s_glide_docking_method>  (1) 
confgen

>  <s_i_glide_gridfile>  (1) 
gpcr_5ht2c_6bqh_protein_autoprepared_prepared

>  <s_lp_Force_Field>  (1) 
S-OPLS

>  <s_lp_Variant>  (1) 
DiffSBDD_90_num_sample_100-3

>  <s_m_source_file>  (1) 
generated__ligand_DiffSBDD_2026-05-06_prepared.sdf

>  <GenAI_Model>  (1) 
DiffSBDD

>  <Protein>  (1) 
GPCR_5HT2C

$$$$
DiffSBDD_44_num_sample_100
     RDKit          3D

  0  0  0  0  0  0  0  0  0  0999 V3000
M  V30 BEGIN CTAB
M  V30 COUNTS 58 59 0 0 1
M  V30 BEGIN ATOM
M  V30 1 C 39.406493 28.214589 51.282842 0
M  V30 2 O 40.232451 28.606729 55.453706 0 CHG=-1
M  V30 3 C 36.528665 32.387732 59.456391 0
M  V30 4 C 39.866947 30.006555 52.927082 0 CFG=1
M  V30 5 N 39.029962 28.935560 53.545414 0 CFG=1 CHG=1
M  V30 6 C 38.479216 33.870831 59.624403 0
M  V30 7 N 38.252833 30.408963 58.197162 0
M  V30 8 C 37.761348 32.626913 59.111141 0
M  V30 9 O 37.896977 32.256878 56.725205 0
M  V30 10 C 39.847058 29.680979 51.408525 0 CFG=1
M  V30 11 C 41.124864 30.024106 50.635884 0
M  V30 12 C 38.286387 29.775421 55.770351 0 CFG=1
M  V30 13 C 38.156887 29.500835 57.294968 0
M  V30 14 C 39.148935 27.726095 52.707204 0
M  V30 15 C 37.814031 33.628972 56.443726 0
M  V30 16 C 35.051266 34.315128 59.543444 0
M  V30 17 C 39.001772 28.651375 55.014839 0 CFG=2
M  V30 18 C 38.419062 31.843316 57.979054 0 CFG=2
M  V30 19 F 36.304212 34.764180 61.510126 0
M  V30 20 C 36.184561 35.135526 60.237063 0 CFG=1
M  V30 21 C 35.311920 32.838411 59.453157 0
M  V30 22 C 36.937830 30.056499 55.051769 0
M  V30 23 C 37.915447 28.051970 57.665816 0
M  V30 24 C 39.459804 31.448950 53.199717 0
M  V30 25 C 37.589125 35.158052 59.573833 0
M  V30 26 H 40.135211 27.587242 50.771146 0
M  V30 27 H 38.481146 28.152350 50.709114 0
M  V30 28 H 40.863323 30.021004 53.332204 0
M  V30 29 H 38.782186 33.688150 60.655155 0
M  V30 30 H 39.416137 34.016428 59.078102 0
M  V30 31 H 39.066656 30.267163 50.931699 0
M  V30 32 H 41.969904 29.491682 51.053437 0
M  V30 33 H 41.035413 29.740941 49.586028 0
M  V30 34 H 41.355504 31.089340 50.663072 0
M  V30 35 H 38.942286 30.628548 55.649930 0
M  V30 36 H 39.981695 27.112850 53.052808 0
M  V30 37 H 38.240988 27.122714 52.779367 0
M  V30 38 H 37.704621 33.791896 55.372688 0
M  V30 39 H 36.940893 34.020866 56.951611 0
M  V30 40 H 38.667935 34.174012 56.800980 0
M  V30 41 H 34.918458 34.674527 58.519439 0
M  V30 42 H 34.077721 34.419843 59.995342 0
M  V30 43 H 38.343714 27.781993 55.078951 0
M  V30 44 H 39.466256 32.090255 57.966802 0
M  V30 45 H 35.867485 36.175523 60.254209 0
M  V30 46 H 34.491190 32.227564 59.110359 0
M  V30 47 H 36.369653 30.859583 55.453445 0
M  V30 48 H 37.056955 30.342100 54.013867 0
M  V30 49 H 36.272777 29.222199 55.053174 0
M  V30 50 H 37.140562 27.592861 57.054521 0
M  V30 51 H 38.836218 27.473091 57.581999 0
M  V30 52 H 37.570376 28.019187 58.685463 0
M  V30 53 H 39.898657 32.021429 52.393422 0
M  V30 54 H 38.405677 31.685967 53.202895 0
M  V30 55 H 39.863021 31.811467 54.142000 0
M  V30 56 H 38.157409 35.969094 60.031127 0
M  V30 57 H 37.457866 35.475599 58.541835 0
M  V30 58 H 38.092452 29.259562 53.371962 0
M  V30 END ATOM
M  V30 BEGIN BOND
M  V30 1 1 5 4
M  V30 2 2 8 3
M  V30 3 1 8 6
M  V30 4 1 10 1
M  V30 5 1 10 4
M  V30 6 1 11 10
M  V30 7 2 13 7
M  V30 8 1 13 12
M  V30 9 1 14 1
M  V30 10 1 14 5
M  V30 11 1 15 9
M  V30 12 1 17 2
M  V30 13 1 17 5
M  V30 14 1 17 12
M  V30 15 1 18 7
M  V30 16 1 18 8
M  V30 17 1 18 9
M  V30 18 1 20 16
M  V30 19 1 20 19
M  V30 20 2 21 3
M  V30 21 1 21 16
M  V30 22 1 22 12
M  V30 23 1 23 13
M  V30 24 1 24 4
M  V30 25 1 25 6
M  V30 26 1 25 20
M  V30 27 1 26 1
M  V30 28 1 27 1
M  V30 29 1 4 28 CFG=1
M  V30 30 1 29 6
M  V30 31 1 30 6
M  V30 32 1 10 31 CFG=3
M  V30 33 1 32 11
M  V30 34 1 33 11
M  V30 35 1 34 11
M  V30 36 1 12 35 CFG=1
M  V30 37 1 36 14
M  V30 38 1 37 14
M  V30 39 1 38 15
M  V30 40 1 39 15
M  V30 41 1 40 15
M  V30 42 1 41 16
M  V30 43 1 42 16
M  V30 44 1 17 43 CFG=3
M  V30 45 1 18 44 CFG=3
M  V30 46 1 20 45 CFG=1
M  V30 47 1 46 21
M  V30 48 1 47 22
M  V30 49 1 48 22
M  V30 50 1 49 22
M  V30 51 1 50 23
M  V30 52 1 51 23
M  V30 53 1 52 23
M  V30 54 1 53 24
M  V30 55 1 54 24
M  V30 56 1 55 24
M  V30 57 1 56 25
M  V30 58 1 57 25
M  V30 59 1 5 58 CFG=3
M  V30 END BOND
M  V30 END CTAB
M  END
>  <i_epik_Tot_Q>  (1) 
0

>  <i_epik_Tot_abs_Q>  (1) 
2

>  <i_i_glide_confnum>  (1) 
32

>  <i_i_glide_lignum>  (1) 
110

>  <i_i_glide_posenum>  (1) 
39

>  <i_i_glide_rotatable_bonds>  (1) 
6

>  <i_lp_mmshare_version>  (1) 
72125

>  <i_m_source_file_index>  (1) 
45

>  <i_f3d_flags>  (1) 
0

>  <num_sample>  (1) 
100

>  <b_lp_Chiralities_Consistent>  (1) 
1

>  <r_epik_Charging_Adjusted_Penalty>  (1) 
0.41733257654759531

>  <r_epik_Ionization_Penalty>  (1) 
0.0069177268181324029

>  <r_epik_Ionization_Penalty_Charging>  (1) 
0.0066527375949913311

>  <r_epik_Ionization_Penalty_Neutral>  (1) 
0.00026498922314107146

>  <r_epik_State_Penalty>  (1) 
0.41067983895260396

>  <r_glide_ring_energy>  (1) 
0

>  <r_i_docking_score>  (1) 
-1.3481802006419463

>  <r_i_glide_ecoul>  (1) 
0.60903494823099358

>  <r_i_glide_eff_state_penalty>  (1) 
0.41067983895260396

>  <r_i_glide_einternal>  (1) 
12.797436887267903

>  <r_i_glide_emodel>  (1) 
7.0752894895936738

>  <r_i_glide_emodel_strain>  (1) 
13.860540676349764

>  <r_i_glide_energy>  (1) 
-8.9056588785975421

>  <r_i_glide_erotb>  (1) 
0.61440649929112812

>  <r_i_glide_esite>  (1) 
-0.104716692480401

>  <r_i_glide_evdw>  (1) 
-9.5146938268285357

>  <r_i_glide_gscore>  (1) 
-1.7588600395945502

>  <r_i_glide_gscore_strain>  (1) 
2.465135169087441

>  <r_i_glide_hbond>  (1) 
0

>  <r_i_glide_ligand_efficiency>  (1) 
-0.053927208025677853

>  <r_i_glide_ligand_efficiency_ln>  (1) 
-0.31955910925253739

>  <r_i_glide_ligand_efficiency_sa>  (1) 
-0.15768411283937728

>  <r_i_glide_lipo>  (1) 
-2.1367123783958744

>  <r_i_glide_metal>  (1) 
-0

>  <r_i_glide_rewards>  (1) 
-2.2125931879900662

>  <r_lp_Energy>  (1) 
10.814218

>  <r_lp_tautomer_probability>  (1) 
0.49999399997599986

>  <s_epik_Chemistry_Notes>  (1) 
This compound has an imine and may undergo hydrolysis. This compound contains an acetal/aminal-like group ( X-CH(R)-Y where X, Y are N, S, or O) that may be acid/base labile, releasing an aldehyde.

>  <s_epik_cmdline>  (1) 
J2VwaWtfcHl0aG9uJywgJy1waHQnLCAnMS4wJywgJy1waCcsICc3LjQnLCAnLXRuJywgJzgnLCAnLW1hJywgJzUwMCcsICctaW1hZScsICc8aW5maWxlLm1hZT4nLCAnLW9tYWUnLCAnPG91dGZpbGUubWFlPic=

>  <s_epik_input>  (1) 
W0NIM11bQ0BIXTFbQ0gyXVtDSDJdTihbQ0BASF0xW0NIM10pW0NAQEhdKFtPSF0pW0NAQEhdKFtDSDNdKS9DKFtDSDNdKT1OXFtDQEBIXShPW0NIM10pQzI9Qz1bQ0hdW0NIMl1bQ0BASF0oRilbQ0gyXVtDSDJdMg==

>  <s_glide_docking_method>  (1) 
confgen

>  <s_i_glide_gridfile>  (1) 
gpcr_5ht2c_6bqh_protein_autoprepared_prepared

>  <s_lp_Force_Field>  (1) 
S-OPLS

>  <s_lp_Variant>  (1) 
DiffSBDD_44_num_sample_100-3

>  <s_m_source_file>  (1) 
generated__ligand_DiffSBDD_2026-05-06_prepared.sdf

>  <GenAI_Model>  (1) 
DiffSBDD

>  <Protein>  (1) 
GPCR_5HT2C

$$$$
DiffSBDD_12_num_sample_100
     RDKit          3D

  0  0  0  0  0  0  0  0  0  0999 V3000
M  V30 BEGIN CTAB
M  V30 COUNTS 31 30 0 0 1
M  V30 BEGIN ATOM
M  V30 1 C 39.303465 28.955681 51.614696 0
M  V30 2 S 39.107569 27.928092 56.821473 0
M  V30 3 C 41.606761 27.935053 58.008394 0
M  V30 4 C 41.166870 30.421420 50.603398 0
M  V30 5 C 39.354463 29.620459 53.005251 0
M  V30 6 C 40.197155 28.534217 58.141217 0 CFG=2
M  V30 7 N 39.582869 28.164392 59.411857 0
M  V30 8 C 39.002311 28.639720 54.137546 0
M  V30 9 C 39.466569 29.136328 55.513917 0
M  V30 10 C 39.867404 28.789558 60.565489 0
M  V30 11 C 39.759369 29.845272 50.440829 0
M  V30 12 O 40.667395 29.720080 60.660160 0
M  V30 13 H 39.929462 28.062402 51.626124 0
M  V30 14 H 38.288919 28.604417 51.420899 0
M  V30 15 H 42.267402 28.301845 58.793609 0
M  V30 16 H 41.584330 26.846785 58.075785 0
M  V30 17 H 42.061738 28.196086 57.053493 0
M  V30 18 H 41.529568 30.841844 49.665279 0
M  V30 19 H 41.171404 31.221411 51.343561 0
M  V30 20 H 41.867399 29.652842 50.925638 0
M  V30 21 H 38.682166 30.476029 53.053501 0
M  V30 22 H 40.351714 30.021430 53.179429 0
M  V30 23 H 40.242505 29.621426 58.064086 0
M  V30 24 H 38.913940 27.409211 59.410717 0
M  V30 25 H 39.467404 27.672475 53.944510 0
M  V30 26 H 37.926338 28.460813 54.146104 0
M  V30 27 H 38.991652 30.085468 55.765280 0
M  V30 28 H 40.541916 29.312259 55.489151 0
M  V30 29 H 39.295020 28.361094 61.402797 0
M  V30 30 H 39.729238 29.247307 49.529069 0
M  V30 31 H 39.067403 30.668704 50.275176 0
M  V30 END ATOM
M  V30 BEGIN BOND
M  V30 1 1 5 1
M  V30 2 1 6 2
M  V30 3 1 6 3
M  V30 4 1 7 6
M  V30 5 1 8 5
M  V30 6 1 9 2
M  V30 7 1 9 8
M  V30 8 1 10 7
M  V30 9 1 11 1
M  V30 10 1 11 4
M  V30 11 2 12 10
M  V30 12 1 13 1
M  V30 13 1 14 1
M  V30 14 1 15 3
M  V30 15 1 16 3
M  V30 16 1 17 3
M  V30 17 1 18 4
M  V30 18 1 19 4
M  V30 19 1 20 4
M  V30 20 1 21 5
M  V30 21 1 22 5
M  V30 22 1 6 23 CFG=1
M  V30 23 1 24 7
M  V30 24 1 25 8
M  V30 25 1 26 8
M  V30 26 1 27 9
M  V30 27 1 28 9
M  V30 28 1 29 10
M  V30 29 1 30 11
M  V30 30 1 31 11
M  V30 END BOND
M  V30 END CTAB
M  END
>  <i_epik_Tot_Q>  (1) 
0

>  <i_epik_Tot_abs_Q>  (1) 
0

>  <i_i_glide_confnum>  (1) 
111

>  <i_i_glide_lignum>  (1) 
30

>  <i_i_glide_posenum>  (1) 
126

>  <i_i_glide_rotatable_bonds>  (1) 
8

>  <i_lp_mmshare_version>  (1) 
72125

>  <i_m_source_file_index>  (1) 
13

>  <i_f3d_flags>  (1) 
0

>  <num_sample>  (1) 
100

>  <b_lp_Chiralities_Consistent>  (1) 
1

>  <r_epik_Charging_Adjusted_Penalty>  (1) 
0

>  <r_epik_Ionization_Penalty>  (1) 
1.0816103535090204e-07

>  <r_epik_Ionization_Penalty_Charging>  (1) 
0

>  <r_epik_Ionization_Penalty_Neutral>  (1) 
1.0816103535090204e-07

>  <r_epik_State_Penalty>  (1) 
-0

>  <r_glide_ring_energy>  (1) 
0

>  <r_i_docking_score>  (1) 
-1.3258446423842081

>  <r_i_glide_ecoul>  (1) 
-2.1278619567146855

>  <r_i_glide_eff_state_penalty>  (1) 
-0

>  <r_i_glide_einternal>  (1) 
5.2429825186506944

>  <r_i_glide_emodel>  (1) 
-25.060967040026721

>  <r_i_glide_emodel_strain>  (1) 
0.25914797255813871

>  <r_i_glide_energy>  (1) 
-25.679576027969677

>  <r_i_glide_erotb>  (1) 
5.3674158400269425

>  <r_i_glide_esite>  (1) 
0

>  <r_i_glide_evdw>  (1) 
-23.551714071254992

>  <r_i_glide_gscore>  (1) 
-1.3258446423842081

>  <r_i_glide_gscore_strain>  (1) 
0

>  <r_i_glide_hbond>  (1) 
-0.23824174246106414

>  <r_i_glide_ligand_efficiency>  (1) 
-0.11048705353201733

>  <r_i_glide_ligand_efficiency_ln>  (1) 
-0.38045341686982176

>  <r_i_glide_ligand_efficiency_sa>  (1) 
-0.25295220759170534

>  <r_i_glide_lipo>  (1) 
-2.1066453040309647

>  <r_i_glide_metal>  (1) 
-0

>  <r_i_glide_rewards>  (1) 
-2.85160843884917

>  <r_lp_Energy>  (1) 
-1.4832109999999998

>  <r_lp_tautomer_probability>  (1) 
1

>  <s_epik_Chemistry_Notes>  (1) 
This compound contains an acetal/aminal-like group ( X-CH(R)-Y where X, Y are N, S, or O) that may be acid/base labile, releasing an aldehyde.

>  <s_epik_cmdline>  (1) 
J2VwaWtfcHl0aG9uJywgJy1waHQnLCAnMS4wJywgJy1waCcsICc3LjQnLCAnLXRuJywgJzgnLCAnLW1hJywgJzUwMCcsICctaW1hZScsICc8aW5maWxlLm1hZT4nLCAnLW9tYWUnLCAnPG91dGZpbGUubWFlPic=

>  <s_epik_input>  (1) 
W0NIM11bQ0gyXVtDSDJdW0NIMl1bQ0gyXVtDSDJdU1tDQEhdKFtDSDNdKVtOSF1bQ0hdPU8=

>  <s_glide_docking_method>  (1) 
confgen

>  <s_i_glide_gridfile>  (1) 
gpcr_5ht2c_6bqh_protein_autoprepared_prepared

>  <s_lp_Force_Field>  (1) 
S-OPLS

>  <s_lp_Variant>  (1) 
DiffSBDD_12_num_sample_100-1

>  <s_m_source_file>  (1) 
generated__ligand_DiffSBDD_2026-05-06_prepared.sdf

>  <GenAI_Model>  (1) 
DiffSBDD

>  <Protein>  (1) 
GPCR_5HT2C

$$$$
DiffSBDD_92_num_sample_100
     RDKit          3D

  0  0  0  0  0  0  0  0  0  0999 V3000
M  V30 BEGIN CTAB
M  V30 COUNTS 98 103 0 0 1
M  V30 BEGIN ATOM
M  V30 1 C 36.651470 31.208903 61.255383 0
M  V30 2 C 38.245522 33.690814 59.806520 0 CFG=1
M  V30 3 C 38.258519 36.301407 60.283405 0
M  V30 4 O 41.170072 26.821460 58.078959 0
M  V30 5 C 39.977732 27.550877 58.356355 0 CFG=1
M  V30 6 C 38.542345 29.941043 60.281009 0 CFG=1
M  V30 7 C 39.418646 28.094196 54.804438 0
M  V30 8 C 39.769450 30.045030 62.644964 0 CFG=1
M  V30 9 C 40.214478 26.968098 57.016658 0 CFG=2
M  V30 10 N 42.175178 34.529387 64.375740 0 CHG=1
M  V30 11 O 38.719872 33.336308 62.180941 0
M  V30 12 O 39.370792 25.865038 56.750109 0
M  V30 13 O 37.425964 30.827712 60.145526 0
M  V30 14 O 39.890697 29.271232 56.830216 0
M  V30 15 C 40.298966 28.141236 56.072324 0 CFG=2
M  V30 16 C 35.304352 34.030296 59.865862 0
M  V30 17 O 39.047090 33.621421 58.663763 0
M  V30 18 N 41.412627 35.523950 62.423882 0 CFG=1 CHG=1
M  V30 19 C 38.764221 29.794706 58.760316 0
M  V30 20 C 40.612579 35.748800 61.197549 0
M  V30 21 O 42.437799 27.427438 63.453730 0
M  V30 22 O 38.940745 26.890428 59.052300 0
M  V30 23 C 35.252209 31.640835 60.862052 0 CFG=1
M  V30 24 C 37.906135 28.175824 55.068757 0
M  V30 25 C 39.867104 37.164137 63.623816 0
M  V30 26 C 42.041492 26.939729 64.732885 0
M  V30 27 C 41.923537 28.653435 63.025620 0 CFG=1
M  V30 28 C 40.382387 28.634102 62.927416 0
M  V30 29 O 42.379291 29.647751 63.890706 0
M  V30 30 C 38.987763 33.062104 61.022822 0
M  V30 31 C 41.812717 35.898241 64.750221 0
M  V30 32 C 40.423166 30.982976 63.669183 0
M  V30 33 C 39.176593 36.224846 61.499708 0 CFG=1
M  V30 34 C 39.988370 29.051043 58.234541 0 CFG=1
M  V30 35 C 36.278192 35.058581 60.446567 0
M  V30 36 C 39.245545 37.526142 62.281649 0
M  V30 37 C 41.282489 36.537775 63.453436 0 CFG=1
M  V30 38 F 34.667409 31.025609 61.853500 0
M  V30 39 C 41.951062 30.951941 63.585783 0
M  V30 40 C 41.420213 34.248509 63.144571 0
M  V30 41 C 39.746145 30.483995 61.129995 0 CFG=2
M  V30 42 C 34.810949 33.114566 60.976298 0
M  V30 43 C 40.009998 31.957506 60.756529 0
M  V30 44 N 37.598224 35.048957 59.853523 0
M  V30 45 H 36.664336 30.338158 61.853484 0
M  V30 46 H 37.013496 31.903049 61.984646 0
M  V30 47 H 37.461987 32.987999 59.585961 0
M  V30 48 H 38.667334 36.821369 59.453467 0
M  V30 49 H 37.514824 37.061090 60.532946 0
M  V30 50 H 38.267472 28.960386 60.652821 0
M  V30 51 H 39.679190 28.937661 54.165239 0
M  V30 52 H 39.645339 27.194568 54.233374 0
M  V30 53 H 38.720296 30.013618 62.937452 0
M  V30 54 H 43.167596 34.490123 64.195529 0
M  V30 55 H 38.803307 25.807435 57.508941 0
M  V30 56 H 41.352448 28.281762 55.853588 0
M  V30 57 H 35.660095 33.477955 58.998076 0
M  V30 58 H 34.455336 34.575424 59.452605 0
M  V30 59 H 38.501813 33.844209 57.920947 0
M  V30 60 H 38.778127 30.784838 58.299396 0
M  V30 61 H 37.874428 29.319669 58.339182 0
M  V30 62 H 40.667897 34.893342 60.534576 0
M  V30 63 H 41.131946 36.535463 60.653778 0
M  V30 64 H 39.168370 26.881370 59.970226 0
M  V30 65 H 34.946099 31.221468 59.910623 0
M  V30 66 H 37.355174 28.197891 54.128075 0
M  V30 67 H 37.543371 27.323644 55.641332 0
M  V30 68 H 37.645284 29.080530 55.618855 0
M  V30 69 H 39.867367 38.037526 64.271699 0
M  V30 70 H 39.217605 36.456093 64.139871 0
M  V30 71 H 42.725960 26.155055 65.055738 0
M  V30 72 H 42.038660 27.721528 65.492985 0
M  V30 73 H 41.050310 26.485763 64.692788 0
M  V30 74 H 42.267240 28.821475 62.016671 0
M  V30 75 H 40.108442 28.288411 63.905154 0
M  V30 76 H 40.067216 27.889688 62.197788 0
M  V30 77 H 42.669430 36.421085 65.166104 0
M  V30 78 H 41.047636 35.870795 65.525271 0
M  V30 79 H 40.034510 31.982499 63.593333 0
M  V30 80 H 40.132558 30.657401 64.669553 0
M  V30 81 H 38.666085 35.579463 62.195068 0
M  V30 82 H 40.936259 29.451951 58.593493 0
M  V30 83 H 35.846003 36.027640 60.217456 0
M  V30 84 H 36.372770 35.011777 61.531235 0
M  V30 85 H 39.825724 38.291169 61.763725 0
M  V30 86 H 38.239314 37.920929 62.427245 0
M  V30 87 H 41.998093 37.221361 63.053644 0
M  V30 88 H 42.326758 31.266867 62.613855 0
M  V30 89 H 42.385974 31.615071 64.332764 0
M  V30 90 H 41.836683 33.436374 62.558333 0
M  V30 91 H 40.425163 34.040222 63.509856 0
M  V30 92 H 40.620903 29.974913 60.733755 0
M  V30 93 H 33.733689 33.221444 60.908662 0
M  V30 94 H 35.029745 33.493595 61.975493 0
M  V30 95 H 39.867338 31.875810 59.710334 0
M  V30 96 H 41.034587 32.273637 60.933292 0
M  V30 97 H 42.358810 35.612702 62.087828 0
M  V30 98 H 41.938455 33.881900 65.115182 0
M  V30 END ATOM
M  V30 BEGIN BOND
M  V30 1 1 5 4
M  V30 2 1 9 4
M  V30 3 1 9 5
M  V30 4 1 9 12 CFG=3
M  V30 5 1 13 1
M  V30 6 1 13 6
M  V30 7 1 15 7
M  V30 8 1 15 9
M  V30 9 1 15 14
M  V30 10 1 17 2
M  V30 11 1 19 6
M  V30 12 1 20 18
M  V30 13 1 5 22 CFG=1
M  V30 14 1 23 1
M  V30 15 1 24 7
M  V30 16 1 26 21
M  V30 17 1 27 21
M  V30 18 1 28 8
M  V30 19 1 28 27
M  V30 20 1 29 27
M  V30 21 1 30 2
M  V30 22 2 30 11
M  V30 23 1 31 10
M  V30 24 1 32 8
M  V30 25 1 33 3
M  V30 26 1 33 20
M  V30 27 1 34 5
M  V30 28 1 34 14
M  V30 29 1 34 19
M  V30 30 1 35 16
M  V30 31 1 36 25
M  V30 32 1 36 33
M  V30 33 1 37 18
M  V30 34 1 37 25
M  V30 35 1 37 31
M  V30 36 1 38 23
M  V30 37 1 39 29
M  V30 38 1 39 32
M  V30 39 1 40 10
M  V30 40 1 40 18
M  V30 41 1 41 6
M  V30 42 1 41 8
M  V30 43 1 42 16
M  V30 44 1 42 23
M  V30 45 1 43 30
M  V30 46 1 43 41
M  V30 47 1 44 2
M  V30 48 1 44 3
M  V30 49 1 44 35
M  V30 50 1 45 1
M  V30 51 1 46 1
M  V30 52 1 2 47 CFG=3
M  V30 53 1 48 3
M  V30 54 1 49 3
M  V30 55 1 6 50 CFG=1
M  V30 56 1 51 7
M  V30 57 1 52 7
M  V30 58 1 8 53 CFG=1
M  V30 59 1 54 10
M  V30 60 1 55 12
M  V30 61 1 15 56 CFG=3
M  V30 62 1 57 16
M  V30 63 1 58 16
M  V30 64 1 59 17
M  V30 65 1 60 19
M  V30 66 1 61 19
M  V30 67 1 62 20
M  V30 68 1 63 20
M  V30 69 1 64 22
M  V30 70 1 23 65 CFG=3
M  V30 71 1 66 24
M  V30 72 1 67 24
M  V30 73 1 68 24
M  V30 74 1 69 25
M  V30 75 1 70 25
M  V30 76 1 71 26
M  V30 77 1 72 26
M  V30 78 1 73 26
M  V30 79 1 27 74 CFG=3
M  V30 80 1 75 28
M  V30 81 1 76 28
M  V30 82 1 77 31
M  V30 83 1 78 31
M  V30 84 1 79 32
M  V30 85 1 80 32
M  V30 86 1 33 81 CFG=1
M  V30 87 1 34 82 CFG=1
M  V30 88 1 83 35
M  V30 89 1 84 35
M  V30 90 1 85 36
M  V30 91 1 86 36
M  V30 92 1 37 87 CFG=3
M  V30 93 1 88 39
M  V30 94 1 89 39
M  V30 95 1 90 40
M  V30 96 1 91 40
M  V30 97 1 41 92 CFG=3
M  V30 98 1 93 42
M  V30 99 1 94 42
M  V30 100 1 95 43
M  V30 101 1 96 43
M  V30 102 1 18 97 CFG=3
M  V30 103 1 98 10
M  V30 END BOND
M  V30 END CTAB
M  END
>  <i_epik_Tot_Q>  (1) 
2

>  <i_epik_Tot_abs_Q>  (1) 
2

>  <i_i_glide_confnum>  (1) 
261

>  <i_i_glide_lignum>  (1) 
248

>  <i_i_glide_posenum>  (1) 
103

>  <i_i_glide_rotatable_bonds>  (1) 
10

>  <i_lp_mmshare_version>  (1) 
72125

>  <i_m_source_file_index>  (1) 
93

>  <i_f3d_flags>  (1) 
0

>  <num_sample>  (1) 
100

>  <b_lp_Chiralities_Consistent>  (1) 
1

>  <r_epik_Charging_Adjusted_Penalty>  (1) 
0.13487033779534635

>  <r_epik_Ionization_Penalty>  (1) 
0.19914084790593331

>  <r_epik_Ionization_Penalty_Charging>  (1) 
0.13485274742695982

>  <r_epik_Ionization_Penalty_Neutral>  (1) 
0.064288100478973487

>  <r_epik_State_Penalty>  (1) 
1.7590368386534964e-05

>  <r_glide_ring_energy>  (1) 
2.0924469438874413

>  <r_i_docking_score>  (1) 
-1.2285058850957127

>  <r_i_glide_ecoul>  (1) 
-0.47939826342160918

>  <r_i_glide_eff_state_penalty>  (1) 
1.7590368386534964e-05

>  <r_i_glide_einternal>  (1) 
144.73372194545732

>  <r_i_glide_emodel>  (1) 
72.167263072547001

>  <r_i_glide_emodel_strain>  (1) 
17.183493448318245

>  <r_i_glide_energy>  (1) 
-7.3455472301111406

>  <r_i_glide_erotb>  (1) 
0.12528393626735909

>  <r_i_glide_esite>  (1) 
-0.033829797506075156

>  <r_i_glide_evdw>  (1) 
-6.8661489666895319

>  <r_i_glide_gscore>  (1) 
-1.2285234754640992

>  <r_i_glide_gscore_strain>  (1) 
3.2958733620795613

>  <r_i_glide_hbond>  (1) 
0

>  <r_i_glide_ligand_efficiency>  (1) 
-0.027920588297629834

>  <r_i_glide_ligand_efficiency_ln>  (1) 
-0.25678452969046794

>  <r_i_glide_ligand_efficiency_sa>  (1) 
-0.098569402417861857

>  <r_i_glide_lipo>  (1) 
-2.5798220555426052

>  <r_i_glide_metal>  (1) 
-0

>  <r_i_glide_rewards>  (1) 
-1.6208117329146221

>  <r_lp_Energy>  (1) 
73.918281999999991

>  <s_epik_Chemistry_Notes>  (1) 
This compound contains an acetal/aminal-like group ( X-CH(R)-Y where X, Y are N, S, or O) that may be acid/base labile, releasing an aldehyde.

>  <s_epik_cmdline>  (1) 
J2VwaWtfcHl0aG9uJywgJy1waHQnLCAnMS4wJywgJy1waCcsICc3LjQnLCAnLXRuJywgJzgnLCAnLW1hJywgJzUwMCcsICctaW1hZScsICc8aW5maWxlLm1hZT4nLCAnLW9tYWUnLCAnPG91dGZpbGUubWFlPic=

>  <s_epik_input>  (1) 
W09IXVtDQF0xMkMoTzEpKFtPSF0pW0NAQEhdKFtDSDJdW0NIM10pT1tDQEhdMltDSDJdW0NAQEhdKFtDQEBIXShbQ0gyXUMoPU8pW0NAQEhdM1tPSF0pW0NASF00W0NIMl1bQ0BIXShPW0NIM10pT1tDSDJdW0NIMl00KU9bQ0gyXVtDQEBIXShGKVtDSDJdW0NIMl1bQ0gyXU4zW0NIMl1bQ0BASF0oW0NIMl01KVtDSDJdW0NIMl1bQ0BIXShONTYpW0NIMl1bTkhdW0NIMl02

>  <s_glide_docking_method>  (1) 
confgen

>  <s_i_glide_gridfile>  (1) 
gpcr_5ht2c_6bqh_protein_autoprepared_prepared

>  <s_lp_Force_Field>  (1) 
S-OPLS

>  <s_lp_Variant>  (1) 
DiffSBDD_92_num_sample_100-2

>  <s_m_source_file>  (1) 
generated__ligand_DiffSBDD_2026-05-06_prepared.sdf

>  <GenAI_Model>  (1) 
DiffSBDD

>  <Protein>  (1) 
GPCR_5HT2C

$$$$
DiffSBDD_73_num_sample_100
     RDKit          3D

  0  0  0  0  0  0  0  0  0  0999 V3000
M  V30 BEGIN CTAB
M  V30 COUNTS 28 27 0 0 1
M  V30 BEGIN ATOM
M  V30 1 C 37.190376 30.854756 59.578810 0
M  V30 2 N 37.067404 30.421413 58.318160 0
M  V30 3 C 40.215907 29.525749 50.796639 0
M  V30 4 O 38.038194 30.421437 60.361797 0
M  V30 5 C 38.803011 29.973491 56.619582 0
M  V30 6 C 36.210089 31.944843 60.019258 0
M  V30 7 Cl 39.762730 27.864783 50.653521 0
M  V30 8 C 39.933061 30.264649 51.881065 0
M  V30 9 C 37.926404 29.393318 57.740374 0
M  V30 10 C 38.000424 30.759270 55.563578 0
M  V30 11 N 36.267363 32.221399 61.453496 0
M  V30 12 S 39.067407 29.621425 53.282228 0
M  V30 13 C 38.811501 31.092813 54.308189 0
M  V30 14 H 36.351681 30.845295 57.716652 0
M  V30 15 H 40.745744 29.932790 49.947876 0
M  V30 16 H 39.343461 29.151562 56.148590 0
M  V30 17 H 39.563173 30.626076 57.049912 0
M  V30 18 H 36.440837 32.857924 59.469234 0
M  V30 19 H 35.193803 31.655895 59.746261 0
M  V30 20 H 40.230810 31.301842 51.936991 0
M  V30 21 H 37.279262 28.617830 57.333145 0
M  V30 22 H 38.553010 28.896635 58.483068 0
M  V30 23 H 37.645218 31.691781 56.003606 0
M  V30 24 H 37.105710 30.202824 55.279780 0
M  V30 25 H 37.218874 32.426471 61.728474 0
M  V30 26 H 35.722864 33.041074 61.684281 0
M  V30 27 H 39.774499 31.531035 54.572549 0
M  V30 28 H 38.275213 31.835340 53.716207 0
M  V30 END ATOM
M  V30 BEGIN BOND
M  V30 1 1 2 1
M  V30 2 2 4 1
M  V30 3 1 6 1
M  V30 4 1 7 3
M  V30 5 2 8 3
M  V30 6 1 9 2
M  V30 7 1 9 5
M  V30 8 1 10 5
M  V30 9 1 11 6
M  V30 10 1 12 8
M  V30 11 1 13 10
M  V30 12 1 13 12
M  V30 13 1 14 2
M  V30 14 1 15 3
M  V30 15 1 16 5
M  V30 16 1 17 5
M  V30 17 1 18 6
M  V30 18 1 19 6
M  V30 19 1 20 8
M  V30 20 1 21 9
M  V30 21 1 22 9
M  V30 22 1 23 10
M  V30 23 1 24 10
M  V30 24 1 25 11
M  V30 25 1 26 11
M  V30 26 1 27 13
M  V30 27 1 28 13
M  V30 END BOND
M  V30 END CTAB
M  END
>  <i_epik_Tot_Q>  (1) 
0

>  <i_epik_Tot_abs_Q>  (1) 
0

>  <i_i_glide_confnum>  (1) 
64

>  <i_i_glide_lignum>  (1) 
185

>  <i_i_glide_posenum>  (1) 
342

>  <i_i_glide_rotatable_bonds>  (1) 
8

>  <i_lp_mmshare_version>  (1) 
72125

>  <i_m_source_file_index>  (1) 
74

>  <i_f3d_flags>  (1) 
0

>  <num_sample>  (1) 
100

>  <b_lp_Chiralities_Consistent>  (1) 
1

>  <r_epik_Charging_Adjusted_Penalty>  (1) 
0.66702128766523683

>  <r_epik_Ionization_Penalty>  (1) 
0.66702135281148944

>  <r_epik_Ionization_Penalty_Charging>  (1) 
0

>  <r_epik_Ionization_Penalty_Neutral>  (1) 
0.66702135281148944

>  <r_epik_State_Penalty>  (1) 
0.66702128766523683

>  <r_glide_ring_energy>  (1) 
0

>  <r_i_docking_score>  (1) 
-1.2174120645783353

>  <r_i_glide_ecoul>  (1) 
-8.0895958714513263

>  <r_i_glide_eff_state_penalty>  (1) 
0.66702128766523683

>  <r_i_glide_einternal>  (1) 
3.6449808392593996

>  <r_i_glide_emodel>  (1) 
-32.865178062189841

>  <r_i_glide_emodel_strain>  (1) 
0.8115171240407415

>  <r_i_glide_energy>  (1) 
-31.390926527106636

>  <r_i_glide_erotb>  (1) 
4.7714226567050355

>  <r_i_glide_esite>  (1) 
-0.1586866975960903

>  <r_i_glide_evdw>  (1) 
-23.30133065565531

>  <r_i_glide_gscore>  (1) 
-1.8844333522435721

>  <r_i_glide_gscore_strain>  (1) 
0

>  <r_i_glide_hbond>  (1) 
-0.33249112510290929

>  <r_i_glide_ligand_efficiency>  (1) 
-0.093647081890641179

>  <r_i_glide_ligand_efficiency_ln>  (1) 
-0.34149491128962561

>  <r_i_glide_ligand_efficiency_sa>  (1) 
-0.22019563205329101

>  <r_i_glide_lipo>  (1) 
-1.397753113782765

>  <r_i_glide_metal>  (1) 
-0

>  <r_i_glide_rewards>  (1) 
-2.3884191589663781

>  <r_lp_Energy>  (1) 
2.898231

>  <s_epik_cmdline>  (1) 
J2VwaWtfcHl0aG9uJywgJy1waHQnLCAnMS4wJywgJy1waCcsICc3LjQnLCAnLXRuJywgJzgnLCAnLW1hJywgJzUwMCcsICctaW1hZScsICc8aW5maWxlLm1hZT4nLCAnLW9tYWUnLCAnPG91dGZpbGUubWFlPic=

>  <s_epik_input>  (1) 
W05IMl1bQ0gyXUMoPU8pW05IXVtDSDJdW0NIMl1bQ0gyXVtDSDJdUy9bQ0hdPVtDSF1cQ2w=

>  <s_glide_docking_method>  (1) 
confgen

>  <s_i_glide_gridfile>  (1) 
gpcr_5ht2c_6bqh_protein_autoprepared_prepared

>  <s_lp_Force_Field>  (1) 
S-OPLS

>  <s_lp_Variant>  (1) 
DiffSBDD_73_num_sample_100-4

>  <s_m_source_file>  (1) 
generated__ligand_DiffSBDD_2026-05-06_prepared.sdf

>  <GenAI_Model>  (1) 
DiffSBDD

>  <Protein>  (1) 
GPCR_5HT2C

$$$$
DiffSBDD_73_num_sample_100
     RDKit          3D

  0  0  0  0  0  0  0  0  0  0999 V3000
M  V30 BEGIN CTAB
M  V30 COUNTS 28 27 0 0 1
M  V30 BEGIN ATOM
M  V30 1 C 37.931678 31.497858 59.190646 0
M  V30 2 N 37.867406 31.994385 57.945591 0
M  V30 3 C 40.023520 29.638587 50.875360 0
M  V30 4 O 38.968950 31.477563 59.853508 0
M  V30 5 C 38.638456 33.035518 55.849163 0
M  V30 6 C 36.626263 30.944778 59.776323 0
M  V30 7 Cl 39.461494 28.018940 50.653394 0
M  V30 8 C 39.867406 30.312442 52.027036 0
M  V30 9 C 39.012132 32.570563 57.263874 0
M  V30 10 C 38.296552 31.893290 54.869683 0
M  V30 11 N 36.228200 31.621482 61.012987 0
M  V30 12 S 39.067392 29.621430 53.446181 0
M  V30 13 C 39.405568 30.832554 54.746643 0
M  V30 14 H 36.966918 31.988315 57.453763 0
M  V30 15 H 40.513797 30.076234 50.018120 0
M  V30 16 H 39.467256 33.616714 55.453531 0
M  V30 17 H 37.798311 33.728849 55.901597 0
M  V30 18 H 35.817640 31.050430 59.053493 0
M  V30 19 H 36.739076 29.876896 59.962324 0
M  V30 20 H 40.233768 31.323638 52.129422 0
M  V30 21 H 39.810211 31.837979 57.192403 0
M  V30 22 H 39.389625 33.406827 57.853395 0
M  V30 23 H 38.103887 32.327970 53.888420 0
M  V30 24 H 37.364803 31.413440 55.173557 0
M  V30 25 H 36.308997 32.622921 60.901352 0
M  V30 26 H 35.251354 31.452534 61.206917 0
M  V30 27 H 39.491029 30.271372 55.676552 0
M  V30 28 H 40.376605 31.293345 54.565505 0
M  V30 END ATOM
M  V30 BEGIN BOND
M  V30 1 1 2 1
M  V30 2 2 4 1
M  V30 3 1 6 1
M  V30 4 1 7 3
M  V30 5 2 8 3
M  V30 6 1 9 2
M  V30 7 1 9 5
M  V30 8 1 10 5
M  V30 9 1 11 6
M  V30 10 1 12 8
M  V30 11 1 13 10
M  V30 12 1 13 12
M  V30 13 1 14 2
M  V30 14 1 15 3
M  V30 15 1 16 5
M  V30 16 1 17 5
M  V30 17 1 18 6
M  V30 18 1 19 6
M  V30 19 1 20 8
M  V30 20 1 21 9
M  V30 21 1 22 9
M  V30 22 1 23 10
M  V30 23 1 24 10
M  V30 24 1 25 11
M  V30 25 1 26 11
M  V30 26 1 27 13
M  V30 27 1 28 13
M  V30 END BOND
M  V30 END CTAB
M  END
>  <i_epik_Tot_Q>  (1) 
0

>  <i_epik_Tot_abs_Q>  (1) 
0

>  <i_i_glide_confnum>  (1) 
179

>  <i_i_glide_lignum>  (1) 
185

>  <i_i_glide_posenum>  (1) 
155

>  <i_i_glide_rotatable_bonds>  (1) 
8

>  <i_lp_mmshare_version>  (1) 
72125

>  <i_m_source_file_index>  (1) 
74

>  <i_f3d_flags>  (1) 
0

>  <num_sample>  (1) 
100

>  <b_lp_Chiralities_Consistent>  (1) 
1

>  <r_epik_Charging_Adjusted_Penalty>  (1) 
0.66702128766523683

>  <r_epik_Ionization_Penalty>  (1) 
0.66702135281148944

>  <r_epik_Ionization_Penalty_Charging>  (1) 
0

>  <r_epik_Ionization_Penalty_Neutral>  (1) 
0.66702135281148944

>  <r_epik_State_Penalty>  (1) 
0.66702128766523683

>  <r_glide_ring_energy>  (1) 
0

>  <r_i_docking_score>  (1) 
-1.1964380986839331

>  <r_i_glide_ecoul>  (1) 
-7.0740417155649675

>  <r_i_glide_eff_state_penalty>  (1) 
0.66702128766523683

>  <r_i_glide_einternal>  (1) 
4.4703163376137329

>  <r_i_glide_emodel>  (1) 
-33.233447481682681

>  <r_i_glide_emodel_strain>  (1) 
0.23582285138226489

>  <r_i_glide_energy>  (1) 
-31.641894832138632

>  <r_i_glide_erotb>  (1) 
4.7714226567050355

>  <r_i_glide_esite>  (1) 
-0.14827350490767455

>  <r_i_glide_evdw>  (1) 
-24.567853116573666

>  <r_i_glide_gscore>  (1) 
-1.86345938634917

>  <r_i_glide_gscore_strain>  (1) 
0

>  <r_i_glide_hbond>  (1) 
-0.35723358229714691

>  <r_i_glide_ligand_efficiency>  (1) 
-0.092033699898764088

>  <r_i_glide_ligand_efficiency_ln>  (1) 
-0.33561152732219196

>  <r_i_glide_ligand_efficiency_sa>  (1) 
-0.21640203101124639

>  <r_i_glide_lipo>  (1) 
-1.5419676160059741

>  <r_i_glide_metal>  (1) 
-0

>  <r_i_glide_rewards>  (1) 
-2.2979084266799812

>  <r_lp_Energy>  (1) 
2.898231

>  <s_epik_cmdline>  (1) 
J2VwaWtfcHl0aG9uJywgJy1waHQnLCAnMS4wJywgJy1waCcsICc3LjQnLCAnLXRuJywgJzgnLCAnLW1hJywgJzUwMCcsICctaW1hZScsICc8aW5maWxlLm1hZT4nLCAnLW9tYWUnLCAnPG91dGZpbGUubWFlPic=

>  <s_epik_input>  (1) 
W05IMl1bQ0gyXUMoPU8pW05IXVtDSDJdW0NIMl1bQ0gyXVtDSDJdUy9bQ0hdPVtDSF1cQ2w=

>  <s_glide_docking_method>  (1) 
confgen

>  <s_i_glide_gridfile>  (1) 
gpcr_5ht2c_6bqh_protein_autoprepared_prepared

>  <s_lp_Force_Field>  (1) 
S-OPLS

>  <s_lp_Variant>  (1) 
DiffSBDD_73_num_sample_100-4

>  <s_m_source_file>  (1) 
generated__ligand_DiffSBDD_2026-05-06_prepared.sdf

>  <GenAI_Model>  (1) 
DiffSBDD

>  <Protein>  (1) 
GPCR_5HT2C

$$$$
DiffSBDD_58_num_sample_100
     RDKit          3D

  0  0  0  0  0  0  0  0  0  0999 V3000
M  V30 BEGIN CTAB
M  V30 COUNTS 29 28 0 0 1
M  V30 BEGIN ATOM
M  V30 1 S 38.667423 27.993589 51.091205 0
M  V30 2 C 39.013844 30.661039 55.816151 0
M  V30 3 C 38.768192 32.132392 56.184783 0
M  V30 4 C 39.150127 30.736755 53.259535 0
M  V30 5 S 40.427840 28.956797 51.453502 0
M  V30 6 Cl 38.215694 27.239169 52.987719 0
M  V30 7 O 36.643368 35.058343 59.453465 0
M  V30 8 C 37.823844 33.597558 57.942110 0
M  V30 9 N 37.867404 32.248217 57.348820 0 CHG=1
M  V30 10 C 39.998062 30.646474 51.972895 0
M  V30 11 C 36.738221 33.716316 59.023591 0
M  V30 12 C 39.903168 30.474356 54.574257 0
M  V30 13 H 39.492583 30.164274 56.661297 0
M  V30 14 H 38.062493 30.148692 55.662948 0
M  V30 15 H 38.322193 32.676212 55.351257 0
M  V30 16 H 39.722109 32.613340 56.407569 0
M  V30 17 H 38.293136 30.067012 53.190543 0
M  V30 18 H 38.735318 31.743518 53.303563 0
M  V30 19 H 36.294992 35.579021 58.741274 0
M  V30 20 H 37.645113 34.323322 57.148815 0
M  V30 21 H 38.798950 33.817047 58.376440 0
M  V30 22 H 38.139831 31.586787 58.059639 0
M  V30 23 H 39.467412 31.108359 51.141057 0
M  V30 24 H 40.914871 31.221424 52.086094 0
M  V30 25 H 36.976480 33.084185 59.879775 0
M  V30 26 H 35.762732 33.400978 58.653494 0
M  V30 27 H 40.785195 31.112836 54.643400 0
M  V30 28 H 40.267382 29.450225 54.580378 0
M  V30 29 H 36.905843 32.021430 57.053555 0
M  V30 END ATOM
M  V30 BEGIN BOND
M  V30 1 1 3 2
M  V30 2 1 5 1
M  V30 3 1 6 1
M  V30 4 1 9 3
M  V30 5 1 9 8
M  V30 6 1 10 4
M  V30 7 1 10 5
M  V30 8 1 11 7
M  V30 9 1 11 8
M  V30 10 1 12 2
M  V30 11 1 12 4
M  V30 12 1 13 2
M  V30 13 1 14 2
M  V30 14 1 15 3
M  V30 15 1 16 3
M  V30 16 1 17 4
M  V30 17 1 18 4
M  V30 18 1 19 7
M  V30 19 1 20 8
M  V30 20 1 21 8
M  V30 21 1 22 9
M  V30 22 1 23 10
M  V30 23 1 24 10
M  V30 24 1 25 11
M  V30 25 1 26 11
M  V30 26 1 27 12
M  V30 27 1 28 12
M  V30 28 1 29 9
M  V30 END BOND
M  V30 END CTAB
M  END
>  <i_epik_Tot_Q>  (1) 
1

>  <i_epik_Tot_abs_Q>  (1) 
1

>  <i_i_glide_confnum>  (1) 
88

>  <i_i_glide_lignum>  (1) 
147

>  <i_i_glide_posenum>  (1) 
217

>  <i_i_glide_rotatable_bonds>  (1) 
10

>  <i_lp_mmshare_version>  (1) 
72125

>  <i_m_source_file_index>  (1) 
59

>  <i_f3d_flags>  (1) 
0

>  <num_sample>  (1) 
100

>  <b_lp_Chiralities_Consistent>  (1) 
1

>  <r_epik_Charging_Adjusted_Penalty>  (1) 
0.014760532929550717

>  <r_epik_Ionization_Penalty>  (1) 
0.0073815081172038301

>  <r_epik_Ionization_Penalty_Charging>  (1) 
0.0073802664647753631

>  <r_epik_Ionization_Penalty_Neutral>  (1) 
1.241652428467383e-06

>  <r_epik_State_Penalty>  (1) 
0.0073802664647753553

>  <r_glide_ring_energy>  (1) 
0

>  <r_i_docking_score>  (1) 
-1.1901007741447274

>  <r_i_glide_ecoul>  (1) 
-7.3880433835609525

>  <r_i_glide_eff_state_penalty>  (1) 
0.0073802664647753553

>  <r_i_glide_einternal>  (1) 
3.2142463402570387

>  <r_i_glide_emodel>  (1) 
-30.201689010566263

>  <r_i_glide_emodel_strain>  (1) 
0

>  <r_i_glide_energy>  (1) 
-28.49499084746494

>  <r_i_glide_erotb>  (1) 
5.1343174495443797

>  <r_i_glide_esite>  (1) 
-0.10000000000000001

>  <r_i_glide_evdw>  (1) 
-21.106947463903989

>  <r_i_glide_gscore>  (1) 
-1.1974810406095027

>  <r_i_glide_gscore_strain>  (1) 
0

>  <r_i_glide_hbond>  (1) 
-0.30363041053270562

>  <r_i_glide_ligand_efficiency>  (1) 
-0.099175064512060609

>  <r_i_glide_ligand_efficiency_ln>  (1) 
-0.34150147873175474

>  <r_i_glide_ligand_efficiency_sa>  (1) 
-0.2270542177062026

>  <r_i_glide_lipo>  (1) 
-1.6406897888753738

>  <r_i_glide_metal>  (1) 
-0

>  <r_i_glide_rewards>  (1) 
-2.1239244100164614

>  <r_lp_Energy>  (1) 
0.71688799999999997

>  <s_epik_cmdline>  (1) 
J2VwaWtfcHl0aG9uJywgJy1waHQnLCAnMS4wJywgJy1waCcsICc3LjQnLCAnLXRuJywgJzgnLCAnLW1hJywgJzUwMCcsICctaW1hZScsICc8aW5maWxlLm1hZT4nLCAnLW9tYWUnLCAnPG91dGZpbGUubWFlPic=

>  <s_epik_input>  (1) 
Q2xTU1tDSDJdW0NIMl1bQ0gyXVtDSDJdW0NIMl1bTkhdW0NIMl1bQ0gyXVtPSF0=

>  <s_glide_docking_method>  (1) 
confgen

>  <s_i_glide_gridfile>  (1) 
gpcr_5ht2c_6bqh_protein_autoprepared_prepared

>  <s_lp_Force_Field>  (1) 
S-OPLS

>  <s_lp_Variant>  (1) 
DiffSBDD_58_num_sample_100-1

>  <s_m_source_file>  (1) 
generated__ligand_DiffSBDD_2026-05-06_prepared.sdf

>  <GenAI_Model>  (1) 
DiffSBDD

>  <Protein>  (1) 
GPCR_5HT2C

$$$$
DiffSBDD_93_num_sample_100
     RDKit          3D

  0  0  0  0  0  0  0  0  0  0999 V3000
M  V30 BEGIN CTAB
M  V30 COUNTS 74 77 0 0 1
M  V30 BEGIN ATOM
M  V30 1 C 48.667446 43.225183 69.859275 0
M  V30 2 S 48.474218 45.418642 63.065449 0
M  V30 3 C 46.798748 42.929305 71.570569 0 CFG=2
M  V30 4 O 43.660125 46.673253 64.839717 0
M  V30 5 C 53.066828 42.603023 61.746935 0
M  V30 6 C 46.274009 45.776710 65.700591 0 CFG=1
M  V30 7 C 51.839415 45.426745 62.362556 0
M  V30 8 C 50.753331 44.271144 64.244566 0
M  V30 9 C 47.892133 42.625079 72.596188 0
M  V30 10 N 48.540583 43.879992 65.285732 0
M  V30 11 C 53.176721 43.336994 60.414134 0
M  V30 12 C 47.383462 43.441322 70.264809 0
M  V30 13 C 49.152856 43.785996 68.564651 0
M  V30 14 C 48.661611 44.905492 66.323480 0 CFG=2
M  V30 15 C 48.945687 41.734005 71.958131 0
M  V30 16 Cl 50.413948 41.065515 69.853454 0
M  V30 17 O 54.333686 45.380756 60.956186 0
M  V30 18 C 49.618227 42.397650 70.745253 0 CFG=1
M  V30 19 C 50.648022 43.798177 68.248167 0
M  V30 20 C 46.689446 45.094713 63.219318 0
M  V30 21 C 45.303753 46.576348 66.588248 0
M  V30 22 C 48.271945 44.292102 67.660297 0
M  V30 23 C 51.882834 45.425997 60.848660 0
M  V30 24 C 45.941882 46.023117 64.203794 0 CFG=1
M  V30 25 C 49.227214 44.042670 64.001294 0 CFG=1
M  V30 26 C 53.183428 44.848700 60.328832 0 CFG=2
M  V30 27 C 44.423033 45.853385 63.965457 0
M  V30 28 C 43.841466 46.326882 66.203459 0
M  V30 29 C 52.362920 42.985560 62.846854 0
M  V30 30 S 49.067672 42.421439 63.201364 0
M  V30 31 N 51.607851 44.158131 63.055426 0
M  V30 32 C 45.769824 43.918091 72.136904 0
M  V30 33 C 47.743095 46.124110 66.076358 0
M  V30 34 H 46.273349 42.003820 71.331946 0
M  V30 35 H 53.576339 41.650941 61.782481 0
M  V30 36 H 46.075752 44.725603 65.912436 0
M  V30 37 H 51.058216 46.129049 62.648273 0
M  V30 38 H 52.744957 45.870738 62.775066 0
M  V30 39 H 51.102812 43.561008 64.994815 0
M  V30 40 H 50.918596 45.254123 64.685271 0
M  V30 41 H 48.350737 43.546157 72.959429 0
M  V30 42 H 47.456099 42.121490 73.456691 0
M  V30 43 H 47.565998 43.686841 65.116391 0
M  V30 44 H 52.378452 42.948730 59.780574 0
M  V30 45 H 54.097750 42.981056 59.950495 0
M  V30 46 H 46.712420 44.021334 69.664188 0
M  V30 47 H 49.684611 45.262183 66.384604 0
M  V30 48 H 49.696118 41.435264 72.690751 0
M  V30 49 H 48.449879 40.821541 71.632671 0
M  V30 50 H 54.366086 45.044815 61.839590 0
M  V30 51 H 50.401640 43.063979 71.107102 0
M  V30 52 H 51.279364 43.512631 69.085277 0
M  V30 53 H 50.863181 43.124140 67.418476 0
M  V30 54 H 50.979127 44.799648 67.976183 0
M  V30 55 H 46.278844 45.255655 62.223606 0
M  V30 56 H 46.507302 44.045912 63.453532 0
M  V30 57 H 45.518566 47.638520 66.495310 0
M  V30 58 H 45.452986 46.319530 67.637727 0
M  V30 59 H 47.220779 44.277278 67.862561 0
M  V30 60 H 51.806788 46.458764 60.506800 0
M  V30 61 H 51.017777 44.905377 60.435434 0
M  V30 62 H 46.193328 47.056631 63.960419 0
M  V30 63 H 53.261183 45.114883 59.273914 0
M  V30 64 H 44.170759 46.132367 62.941810 0
M  V30 65 H 44.123784 44.810719 64.085865 0
M  V30 66 H 43.181474 46.942579 66.814948 0
M  V30 67 H 43.559386 45.286790 66.375229 0
M  V30 68 H 52.333539 42.327854 63.703918 0
M  V30 69 H 47.769903 42.218153 63.453440 0
M  V30 70 H 44.963473 44.102224 71.426279 0
M  V30 71 H 45.318035 43.535163 73.052431 0
M  V30 72 H 46.229947 44.878683 72.371712 0
M  V30 73 H 48.180503 46.804365 65.347635 0
M  V30 74 H 47.754387 46.720566 66.990312 0
M  V30 END ATOM
M  V30 BEGIN BOND
M  V30 1 1 9 3
M  V30 2 1 11 5
M  V30 3 2 12 1
M  V30 4 1 12 3
M  V30 5 1 13 1
M  V30 6 1 14 10
M  V30 7 1 15 9
M  V30 8 1 18 1
M  V30 9 1 18 15
M  V30 10 1 18 16
M  V30 11 1 19 13
M  V30 12 1 20 2
M  V30 13 1 21 6
M  V30 14 2 22 13
M  V30 15 1 22 14
M  V30 16 1 23 7
M  V30 17 1 24 6
M  V30 18 1 24 20
M  V30 19 1 25 2
M  V30 20 1 25 8
M  V30 21 1 25 10
M  V30 22 1 26 11
M  V30 23 1 26 17
M  V30 24 1 26 23
M  V30 25 1 27 4
M  V30 26 1 27 24
M  V30 27 1 28 4
M  V30 28 1 28 21
M  V30 29 2 29 5
M  V30 30 1 25 30 CFG=3
M  V30 31 1 31 7
M  V30 32 1 31 8
M  V30 33 1 31 29
M  V30 34 1 32 3
M  V30 35 1 33 6
M  V30 36 1 33 14
M  V30 37 1 3 34 CFG=3
M  V30 38 1 35 5
M  V30 39 1 6 36 CFG=1
M  V30 40 1 37 7
M  V30 41 1 38 7
M  V30 42 1 39 8
M  V30 43 1 40 8
M  V30 44 1 41 9
M  V30 45 1 42 9
M  V30 46 1 43 10
M  V30 47 1 44 11
M  V30 48 1 45 11
M  V30 49 1 46 12
M  V30 50 1 14 47 CFG=1
M  V30 51 1 48 15
M  V30 52 1 49 15
M  V30 53 1 50 17
M  V30 54 1 18 51 CFG=1
M  V30 55 1 52 19
M  V30 56 1 53 19
M  V30 57 1 54 19
M  V30 58 1 55 20
M  V30 59 1 56 20
M  V30 60 1 57 21
M  V30 61 1 58 21
M  V30 62 1 59 22
M  V30 63 1 60 23
M  V30 64 1 61 23
M  V30 65 1 24 62 CFG=3
M  V30 66 1 26 63 CFG=3
M  V30 67 1 64 27
M  V30 68 1 65 27
M  V30 69 1 66 28
M  V30 70 1 67 28
M  V30 71 1 68 29
M  V30 72 1 69 30
M  V30 73 1 70 32
M  V30 74 1 71 32
M  V30 75 1 72 32
M  V30 76 1 73 33
M  V30 77 1 74 33
M  V30 END BOND
M  V30 END CTAB
M  END
>  <i_epik_Tot_Q>  (1) 
0

>  <i_epik_Tot_abs_Q>  (1) 
0

>  <i_i_glide_confnum>  (1) 
50

>  <i_i_glide_lignum>  (1) 
255

>  <i_i_glide_posenum>  (1) 
395

>  <i_i_glide_rotatable_bonds>  (1) 
6

>  <i_lp_mmshare_version>  (1) 
72125

>  <i_m_source_file_index>  (1) 
94

>  <i_f3d_flags>  (1) 
0

>  <num_sample>  (1) 
100

>  <b_lp_Chiralities_Consistent>  (1) 
1

>  <r_epik_Charging_Adjusted_Penalty>  (1) 
0.20325292957253988

>  <r_epik_Ionization_Penalty>  (1) 
0.031936562948065232

>  <r_epik_Ionization_Penalty_Charging>  (1) 
3.6030848355623751e-07

>  <r_epik_Ionization_Penalty_Neutral>  (1) 
0.031936202639581676

>  <r_epik_State_Penalty>  (1) 
0.20325256926405633

>  <r_glide_ring_energy>  (1) 
0

>  <r_i_docking_score>  (1) 
-1.1641016231298629

>  <r_i_glide_ecoul>  (1) 
-0.79225283766311771

>  <r_i_glide_eff_state_penalty>  (1) 
0.20325256926405633

>  <r_i_glide_einternal>  (1) 
3.270504306678637

>  <r_i_glide_emodel>  (1) 
-18.473299905787009

>  <r_i_glide_emodel_strain>  (1) 
0.06558896986871332

>  <r_i_glide_energy>  (1) 
-17.176301101238547

>  <r_i_glide_erotb>  (1) 
0.31140238833871409

>  <r_i_glide_esite>  (1) 
0

>  <r_i_glide_evdw>  (1) 
-16.38404826357543

>  <r_i_glide_gscore>  (1) 
-1.3673541923939192

>  <r_i_glide_gscore_strain>  (1) 
0

>  <r_i_glide_hbond>  (1) 
-0.21973948343906724

>  <r_i_glide_ligand_efficiency>  (1) 
-0.035275806761510993

>  <r_i_glide_ligand_efficiency_ln>  (1) 
-0.25889017358845623

>  <r_i_glide_ligand_efficiency_sa>  (1) 
-0.11314836120584543

>  <r_i_glide_lipo>  (1) 
-0.38746636516213523

>  <r_i_glide_metal>  (1) 
-0

>  <r_i_glide_rewards>  (1) 
-0.13351039330319184

>  <r_lp_Energy>  (1) 
30.005939999999999

>  <s_epik_Chemistry_Notes>  (1) 
This compound has an imine and may undergo hydrolysis.

>  <s_epik_cmdline>  (1) 
J2VwaWtfcHl0aG9uJywgJy1waHQnLCAnMS4wJywgJy1waCcsICc3LjQnLCAnLXRuJywgJzgnLCAnLW1hJywgJzUwMCcsICctaW1hZScsICc8aW5maWxlLm1hZT4nLCAnLW9tYWUnLCAnPG91dGZpbGUubWFlPic=

>  <s_epik_input>  (1) 
Q2xbQ0BIXTFbQ0gyXVtDSDJdW0NAQEhdKFtDSDNdKVtDSF09QzEvQyhbQ0gzXSk9W0NIXS9bQ0BASF0oW0NIMl0yKVtOSF1bQ0BAXShbU0hdKShTW0NIMl1bQ0BIXShbQ0BASF0yMylbQ0gyXU9bQ0gyXVtDSDJdMylbQ0gyXU4oW0NIMl1bQ0gyXTQpW0NIXT1bQ0hdW0NIMl1bQ0BASF00W09IXQ==

>  <s_glide_docking_method>  (1) 
confgen

>  <s_i_glide_gridfile>  (1) 
gpcr_5ht2c_6bqh_protein_autoprepared_prepared

>  <s_lp_Force_Field>  (1) 
S-OPLS

>  <s_lp_Variant>  (1) 
DiffSBDD_93_num_sample_100-7

>  <s_m_source_file>  (1) 
generated__ligand_DiffSBDD_2026-05-06_prepared.sdf

>  <GenAI_Model>  (1) 
DiffSBDD

>  <Protein>  (1) 
GPCR_5HT2C

$$$$
DiffSBDD_9_num_sample_100
     RDKit          3D

  0  0  0  0  0  0  0  0  0  0999 V3000
M  V30 BEGIN CTAB
M  V30 COUNTS 13 12 0 0 1
M  V30 BEGIN ATOM
M  V30 1 C 39.879706 29.815543 51.038741 0
M  V30 2 C 39.488489 28.377172 50.717919 0
M  V30 3 O 37.866939 27.781173 52.423438 0
M  V30 4 C 39.867397 30.353534 52.270079 0
M  V30 5 C 39.132015 27.460308 51.901872 0
M  V30 6 H 40.184878 30.425858 50.200186 0
M  V30 7 H 40.324344 27.926904 50.191856 0
M  V30 8 H 38.667635 28.405804 50.003465 0
M  V30 9 H 37.209883 27.388760 51.860898 0
M  V30 10 H 40.158059 31.382043 52.427436 0
M  V30 11 H 39.567843 29.777297 53.132279 0
M  V30 12 H 39.866886 27.518360 52.699968 0
M  V30 13 H 39.111125 26.421433 51.573457 0
M  V30 END ATOM
M  V30 BEGIN BOND
M  V30 1 1 2 1
M  V30 2 2 4 1
M  V30 3 1 5 2
M  V30 4 1 5 3
M  V30 5 1 6 1
M  V30 6 1 7 2
M  V30 7 1 8 2
M  V30 8 1 9 3
M  V30 9 1 10 4
M  V30 10 1 11 4
M  V30 11 1 12 5
M  V30 12 1 13 5
M  V30 END BOND
M  V30 END CTAB
M  END
>  <i_epik_Tot_Q>  (1) 
0

>  <i_epik_Tot_abs_Q>  (1) 
0

>  <i_i_glide_confnum>  (1) 
7

>  <i_i_glide_lignum>  (1) 
28

>  <i_i_glide_posenum>  (1) 
78

>  <i_i_glide_rotatable_bonds>  (1) 
3

>  <i_lp_mmshare_version>  (1) 
72125

>  <i_m_source_file_index>  (1) 
10

>  <i_f3d_flags>  (1) 
0

>  <num_sample>  (1) 
100

>  <b_lp_Chiralities_Consistent>  (1) 
1

>  <r_epik_Charging_Adjusted_Penalty>  (1) 
0

>  <r_epik_Ionization_Penalty>  (1) 
1.9109875336178571e-07

>  <r_epik_Ionization_Penalty_Charging>  (1) 
0

>  <r_epik_Ionization_Penalty_Neutral>  (1) 
1.9109875336178571e-07

>  <r_epik_State_Penalty>  (1) 
-0

>  <r_glide_ring_energy>  (1) 
0

>  <r_i_docking_score>  (1) 
-1.1414649768892988

>  <r_i_glide_ecoul>  (1) 
-2.6666353564258656

>  <r_i_glide_eff_state_penalty>  (1) 
-0

>  <r_i_glide_einternal>  (1) 
2.5371577069151652

>  <r_i_glide_emodel>  (1) 
-13.551883810951502

>  <r_i_glide_emodel_strain>  (1) 
0.02279431810848731

>  <r_i_glide_energy>  (1) 
-13.899915275703899

>  <r_i_glide_erotb>  (1) 
3.9483316319645314

>  <r_i_glide_esite>  (1) 
0

>  <r_i_glide_evdw>  (1) 
-11.233279919278033

>  <r_i_glide_gscore>  (1) 
-1.1414649768892988

>  <r_i_glide_gscore_strain>  (1) 
0

>  <r_i_glide_hbond>  (1) 
-0.32000000000000001

>  <r_i_glide_ligand_efficiency>  (1) 
-0.22829299537785977

>  <r_i_glide_ligand_efficiency_ln>  (1) 
-0.43743710913762762

>  <r_i_glide_ligand_efficiency_sa>  (1) 
-0.39037553089091459

>  <r_i_glide_lipo>  (1) 
-1.3200000000000001

>  <r_i_glide_metal>  (1) 
-0

>  <r_i_glide_rewards>  (1) 
-2.4881373094260484

>  <r_lp_Energy>  (1) 
-1.2663519999999999

>  <r_lp_tautomer_probability>  (1) 
1

>  <s_epik_cmdline>  (1) 
J2VwaWtfcHl0aG9uJywgJy1waHQnLCAnMS4wJywgJy1waCcsICc3LjQnLCAnLXRuJywgJzgnLCAnLW1hJywgJzUwMCcsICctaW1hZScsICc8aW5maWxlLm1hZT4nLCAnLW9tYWUnLCAnPG91dGZpbGUubWFlPic=

>  <s_epik_input>  (1) 
W0NIMl09W0NIXVtDSDJdW0NIMl1bT0hd

>  <s_glide_docking_method>  (1) 
confgen

>  <s_i_glide_gridfile>  (1) 
gpcr_5ht2c_6bqh_protein_autoprepared_prepared

>  <s_lp_Force_Field>  (1) 
S-OPLS

>  <s_lp_Variant>  (1) 
DiffSBDD_9_num_sample_100-1

>  <s_m_source_file>  (1) 
generated__ligand_DiffSBDD_2026-05-06_prepared.sdf

>  <GenAI_Model>  (1) 
DiffSBDD

>  <Protein>  (1) 
GPCR_5HT2C

$$$$
DiffSBDD_73_num_sample_100
     RDKit          3D

  0  0  0  0  0  0  0  0  0  0999 V3000
M  V30 BEGIN CTAB
M  V30 COUNTS 28 27 0 0 1
M  V30 BEGIN ATOM
M  V30 1 C 36.112849 31.556579 60.213932 0
M  V30 2 N 36.349274 30.914388 59.057684 0
M  V30 3 C 39.710825 29.740252 52.005899 0
M  V30 4 O 36.655806 31.253095 61.280482 0
M  V30 5 C 38.698267 30.316272 58.517067 0
M  V30 6 C 35.111812 32.714999 60.152353 0
M  V30 7 Cl 39.987505 28.417451 50.934259 0
M  V30 8 C 39.242071 29.567122 53.253046 0
M  V30 9 C 37.297972 29.815928 58.925552 0
M  V30 10 C 38.725713 31.036358 57.155427 0
M  V30 11 N 35.649260 33.890387 59.461594 0
M  V30 12 S 38.950594 30.910192 54.375831 0
M  V30 13 C 38.570664 30.078792 55.963110 0
M  V30 14 H 35.867314 31.231063 58.205656 0
M  V30 15 H 39.943439 30.721609 51.598871 0
M  V30 16 H 39.397376 29.477213 58.494724 0
M  V30 17 H 39.065503 30.993031 59.289212 0
M  V30 18 H 34.204345 32.389595 59.637275 0
M  V30 19 H 34.826602 32.994390 61.163505 0
M  V30 20 H 39.023452 28.579545 53.622161 0
M  V30 21 H 36.927948 29.130463 58.153181 0
M  V30 22 H 37.348258 29.246258 59.842911 0
M  V30 23 H 39.664372 31.580221 57.051515 0
M  V30 24 H 37.938199 31.789611 57.123949 0
M  V30 25 H 35.855340 33.686426 58.489601 0
M  V30 26 H 34.982508 34.650624 59.448733 0
M  V30 27 H 37.552867 29.683898 55.940904 0
M  V30 28 H 39.241997 29.225964 56.093108 0
M  V30 END ATOM
M  V30 BEGIN BOND
M  V30 1 1 2 1
M  V30 2 2 4 1
M  V30 3 1 6 1
M  V30 4 1 7 3
M  V30 5 2 8 3
M  V30 6 1 9 2
M  V30 7 1 9 5
M  V30 8 1 10 5
M  V30 9 1 11 6
M  V30 10 1 12 8
M  V30 11 1 13 10
M  V30 12 1 13 12
M  V30 13 1 14 2
M  V30 14 1 15 3
M  V30 15 1 16 5
M  V30 16 1 17 5
M  V30 17 1 18 6
M  V30 18 1 19 6
M  V30 19 1 20 8
M  V30 20 1 21 9
M  V30 21 1 22 9
M  V30 22 1 23 10
M  V30 23 1 24 10
M  V30 24 1 25 11
M  V30 25 1 26 11
M  V30 26 1 27 13
M  V30 27 1 28 13
M  V30 END BOND
M  V30 END CTAB
M  END
>  <i_epik_Tot_Q>  (1) 
0

>  <i_epik_Tot_abs_Q>  (1) 
0

>  <i_i_glide_confnum>  (1) 
221

>  <i_i_glide_lignum>  (1) 
184

>  <i_i_glide_posenum>  (1) 
58

>  <i_i_glide_rotatable_bonds>  (1) 
8

>  <i_lp_mmshare_version>  (1) 
72125

>  <i_m_source_file_index>  (1) 
74

>  <i_f3d_flags>  (1) 
0

>  <num_sample>  (1) 
100

>  <b_lp_Chiralities_Consistent>  (1) 
1

>  <r_epik_Charging_Adjusted_Penalty>  (1) 
0.66702128766523683

>  <r_epik_Ionization_Penalty>  (1) 
0.66702135281148944

>  <r_epik_Ionization_Penalty_Charging>  (1) 
0

>  <r_epik_Ionization_Penalty_Neutral>  (1) 
0.66702135281148944

>  <r_epik_State_Penalty>  (1) 
0.66702128766523683

>  <r_glide_ring_energy>  (1) 
0

>  <r_i_docking_score>  (1) 
-1.1138026162165342

>  <r_i_glide_ecoul>  (1) 
-10.267050253465225

>  <r_i_glide_eff_state_penalty>  (1) 
0.66702128766523683

>  <r_i_glide_einternal>  (1) 
3.7216421382017506

>  <r_i_glide_emodel>  (1) 
-33.817782740104349

>  <r_i_glide_emodel_strain>  (1) 
0.077483149695964926

>  <r_i_glide_energy>  (1) 
-31.85032943727137

>  <r_i_glide_erotb>  (1) 
4.7714226567050355

>  <r_i_glide_esite>  (1) 
-0.17671572556044657

>  <r_i_glide_evdw>  (1) 
-21.583279183806145

>  <r_i_glide_gscore>  (1) 
-1.780823903881771

>  <r_i_glide_gscore_strain>  (1) 
0

>  <r_i_glide_hbond>  (1) 
-0.4486458298552608

>  <r_i_glide_ligand_efficiency>  (1) 
-0.085677124324348791

>  <r_i_glide_ligand_efficiency_ln>  (1) 
-0.31243153956319597

>  <r_i_glide_ligand_efficiency_sa>  (1) 
-0.2014555943680052

>  <r_i_glide_lipo>  (1) 
-1.0922492236404959

>  <r_i_glide_metal>  (1) 
-0

>  <r_i_glide_rewards>  (1) 
-2.2154142843205125

>  <r_lp_Energy>  (1) 
-0.222306

>  <s_epik_cmdline>  (1) 
J2VwaWtfcHl0aG9uJywgJy1waHQnLCAnMS4wJywgJy1waCcsICc3LjQnLCAnLXRuJywgJzgnLCAnLW1hJywgJzUwMCcsICctaW1hZScsICc8aW5maWxlLm1hZT4nLCAnLW9tYWUnLCAnPG91dGZpbGUubWFlPic=

>  <s_epik_input>  (1) 
W05IMl1bQ0gyXUMoPU8pW05IXVtDSDJdW0NIMl1bQ0gyXVtDSDJdU1xbQ0hdPVtDSF1cQ2w=

>  <s_glide_docking_method>  (1) 
confgen

>  <s_i_glide_gridfile>  (1) 
gpcr_5ht2c_6bqh_protein_autoprepared_prepared

>  <s_lp_Force_Field>  (1) 
S-OPLS

>  <s_lp_Variant>  (1) 
DiffSBDD_73_num_sample_100-3

>  <s_m_source_file>  (1) 
generated__ligand_DiffSBDD_2026-05-06_prepared.sdf

>  <GenAI_Model>  (1) 
DiffSBDD

>  <Protein>  (1) 
GPCR_5HT2C

$$$$
DiffSBDD_73_num_sample_100
     RDKit          3D

  0  0  0  0  0  0  0  0  0  0999 V3000
M  V30 BEGIN CTAB
M  V30 COUNTS 28 27 0 0 1
M  V30 BEGIN ATOM
M  V30 1 C 36.208875 31.791051 60.328936 0
M  V30 2 N 36.667386 31.173756 59.229231 0
M  V30 3 C 38.793138 28.394394 51.575396 0
M  V30 4 O 36.666792 31.589490 61.453525 0
M  V30 5 C 38.563369 30.232846 57.947367 0
M  V30 6 C 35.066168 32.783855 60.129628 0
M  V30 7 Cl 39.867406 28.665885 50.253608 0
M  V30 8 C 38.962068 28.976754 52.770719 0
M  V30 9 C 37.769851 30.217246 59.263667 0
M  V30 10 C 37.836428 29.559142 56.772113 0
M  V30 11 N 35.516155 33.997864 59.453435 0
M  V30 12 S 37.867415 28.703310 54.126666 0
M  V30 13 C 38.649868 29.632741 55.472012 0
M  V30 14 H 36.237065 31.382017 58.326465 0
M  V30 15 H 37.972339 27.720154 51.372510 0
M  V30 16 H 39.513205 29.721025 58.106975 0
M  V30 17 H 38.817049 31.261644 57.687245 0
M  V30 18 H 34.267477 32.316051 59.552019 0
M  V30 19 H 34.653283 33.053251 61.102292 0
M  V30 20 H 39.790288 29.646941 52.950063 0
M  V30 21 H 37.378489 29.221009 59.468559 0
M  V30 22 H 38.455883 30.458121 60.077883 0
M  V30 23 H 36.861525 30.021388 56.615495 0
M  V30 24 H 37.643526 28.515942 57.025261 0
M  V30 25 H 35.851288 33.786465 58.520962 0
M  V30 26 H 34.760222 34.657096 59.333938 0
M  V30 27 H 39.650413 29.228246 55.628917 0
M  V30 28 H 38.767110 30.671804 55.161234 0
M  V30 END ATOM
M  V30 BEGIN BOND
M  V30 1 1 2 1
M  V30 2 2 4 1
M  V30 3 1 6 1
M  V30 4 1 7 3
M  V30 5 2 8 3
M  V30 6 1 9 2
M  V30 7 1 9 5
M  V30 8 1 10 5
M  V30 9 1 11 6
M  V30 10 1 12 8
M  V30 11 1 13 10
M  V30 12 1 13 12
M  V30 13 1 14 2
M  V30 14 1 15 3
M  V30 15 1 16 5
M  V30 16 1 17 5
M  V30 17 1 18 6
M  V30 18 1 19 6
M  V30 19 1 20 8
M  V30 20 1 21 9
M  V30 21 1 22 9
M  V30 22 1 23 10
M  V30 23 1 24 10
M  V30 24 1 25 11
M  V30 25 1 26 11
M  V30 26 1 27 13
M  V30 27 1 28 13
M  V30 END BOND
M  V30 END CTAB
M  END
>  <i_epik_Tot_Q>  (1) 
0

>  <i_epik_Tot_abs_Q>  (1) 
0

>  <i_i_glide_confnum>  (1) 
103

>  <i_i_glide_lignum>  (1) 
184

>  <i_i_glide_posenum>  (1) 
47

>  <i_i_glide_rotatable_bonds>  (1) 
8

>  <i_lp_mmshare_version>  (1) 
72125

>  <i_m_source_file_index>  (1) 
74

>  <i_f3d_flags>  (1) 
0

>  <num_sample>  (1) 
100

>  <b_lp_Chiralities_Consistent>  (1) 
1

>  <r_epik_Charging_Adjusted_Penalty>  (1) 
0.66702128766523683

>  <r_epik_Ionization_Penalty>  (1) 
0.66702135281148944

>  <r_epik_Ionization_Penalty_Charging>  (1) 
0

>  <r_epik_Ionization_Penalty_Neutral>  (1) 
0.66702135281148944

>  <r_epik_State_Penalty>  (1) 
0.66702128766523683

>  <r_glide_ring_energy>  (1) 
0

>  <r_i_docking_score>  (1) 
-1.082626905308339

>  <r_i_glide_ecoul>  (1) 
-7.429394272468727

>  <r_i_glide_eff_state_penalty>  (1) 
0.66702128766523683

>  <r_i_glide_einternal>  (1) 
2.5790244505749698

>  <r_i_glide_emodel>  (1) 
-35.225373722341224

>  <r_i_glide_emodel_strain>  (1) 
0.069101910817968459

>  <r_i_glide_energy>  (1) 
-32.746605860700171

>  <r_i_glide_erotb>  (1) 
4.7714226567050355

>  <r_i_glide_esite>  (1) 
-0.16914097785222756

>  <r_i_glide_evdw>  (1) 
-25.317211588231448

>  <r_i_glide_gscore>  (1) 
-1.7496481929735759

>  <r_i_glide_gscore_strain>  (1) 
0

>  <r_i_glide_hbond>  (1) 
-0.45599999999999996

>  <r_i_glide_ligand_efficiency>  (1) 
-0.083278992716026082

>  <r_i_glide_ligand_efficiency_ln>  (1) 
-0.30368647538915838

>  <r_i_glide_ligand_efficiency_sa>  (1) 
-0.19581678433163646

>  <r_i_glide_lipo>  (1) 
-1.3649688352670477

>  <r_i_glide_metal>  (1) 
-0

>  <r_i_glide_rewards>  (1) 
-2.1506913162774546

>  <r_lp_Energy>  (1) 
-0.222306

>  <s_epik_cmdline>  (1) 
J2VwaWtfcHl0aG9uJywgJy1waHQnLCAnMS4wJywgJy1waCcsICc3LjQnLCAnLXRuJywgJzgnLCAnLW1hJywgJzUwMCcsICctaW1hZScsICc8aW5maWxlLm1hZT4nLCAnLW9tYWUnLCAnPG91dGZpbGUubWFlPic=

>  <s_epik_input>  (1) 
W05IMl1bQ0gyXUMoPU8pW05IXVtDSDJdW0NIMl1bQ0gyXVtDSDJdU1xbQ0hdPVtDSF1cQ2w=

>  <s_glide_docking_method>  (1) 
confgen

>  <s_i_glide_gridfile>  (1) 
gpcr_5ht2c_6bqh_protein_autoprepared_prepared

>  <s_lp_Force_Field>  (1) 
S-OPLS

>  <s_lp_Variant>  (1) 
DiffSBDD_73_num_sample_100-3

>  <s_m_source_file>  (1) 
generated__ligand_DiffSBDD_2026-05-06_prepared.sdf

>  <GenAI_Model>  (1) 
DiffSBDD

>  <Protein>  (1) 
GPCR_5HT2C

$$$$
DiffSBDD_9_num_sample_100
     RDKit          3D

  0  0  0  0  0  0  0  0  0  0999 V3000
M  V30 BEGIN CTAB
M  V30 COUNTS 13 12 0 0 1
M  V30 BEGIN ATOM
M  V30 1 C 39.303082 28.484722 51.087064 0
M  V30 2 C 40.415255 29.498518 51.272097 0
M  V30 3 O 39.467404 31.221419 49.853501 0
M  V30 4 C 38.232319 28.393235 51.889631 0
M  V30 5 C 40.607545 30.414187 50.055510 0
M  V30 6 H 39.401765 27.806020 50.253260 0
M  V30 7 H 41.336543 28.945729 51.453493 0
M  V30 8 H 40.232647 30.099154 52.164639 0
M  V30 9 H 38.776372 30.683986 49.479442 0
M  V30 10 H 37.467406 27.650895 51.713507 0
M  V30 11 H 38.107657 29.058765 52.731699 0
M  V30 12 H 40.807002 29.830092 49.156805 0
M  V30 13 H 41.467486 31.064935 50.213181 0
M  V30 END ATOM
M  V30 BEGIN BOND
M  V30 1 1 2 1
M  V30 2 2 4 1
M  V30 3 1 5 2
M  V30 4 1 5 3
M  V30 5 1 6 1
M  V30 6 1 7 2
M  V30 7 1 8 2
M  V30 8 1 9 3
M  V30 9 1 10 4
M  V30 10 1 11 4
M  V30 11 1 12 5
M  V30 12 1 13 5
M  V30 END BOND
M  V30 END CTAB
M  END
>  <i_epik_Tot_Q>  (1) 
0

>  <i_epik_Tot_abs_Q>  (1) 
0

>  <i_i_glide_confnum>  (1) 
9

>  <i_i_glide_lignum>  (1) 
28

>  <i_i_glide_posenum>  (1) 
95

>  <i_i_glide_rotatable_bonds>  (1) 
3

>  <i_lp_mmshare_version>  (1) 
72125

>  <i_m_source_file_index>  (1) 
10

>  <i_f3d_flags>  (1) 
0

>  <num_sample>  (1) 
100

>  <b_lp_Chiralities_Consistent>  (1) 
1

>  <r_epik_Charging_Adjusted_Penalty>  (1) 
0

>  <r_epik_Ionization_Penalty>  (1) 
1.9109875336178571e-07

>  <r_epik_Ionization_Penalty_Charging>  (1) 
0

>  <r_epik_Ionization_Penalty_Neutral>  (1) 
1.9109875336178571e-07

>  <r_epik_State_Penalty>  (1) 
-0

>  <r_glide_ring_energy>  (1) 
0

>  <r_i_docking_score>  (1) 
-1.0795840398391352

>  <r_i_glide_ecoul>  (1) 
-3.0667417202212568

>  <r_i_glide_eff_state_penalty>  (1) 
-0

>  <r_i_glide_einternal>  (1) 
3.3124484280429005

>  <r_i_glide_emodel>  (1) 
-13.264917558487493

>  <r_i_glide_emodel_strain>  (1) 
0

>  <r_i_glide_energy>  (1) 
-14.028940372194391

>  <r_i_glide_erotb>  (1) 
3.9483316319645314

>  <r_i_glide_esite>  (1) 
0

>  <r_i_glide_evdw>  (1) 
-10.962198651973134

>  <r_i_glide_gscore>  (1) 
-1.0795840398391352

>  <r_i_glide_gscore_strain>  (1) 
0

>  <r_i_glide_hbond>  (1) 
-0.32000000000000001

>  <r_i_glide_ligand_efficiency>  (1) 
-0.21591680796782703

>  <r_i_glide_ligand_efficiency_ln>  (1) 
-0.41372283076553151

>  <r_i_glide_ligand_efficiency_sa>  (1) 
-0.36921254810819565

>  <r_i_glide_lipo>  (1) 
-1.2991372104297998

>  <r_i_glide_metal>  (1) 
-0

>  <r_i_glide_rewards>  (1) 
-2.4006572707420211

>  <r_lp_Energy>  (1) 
-1.2663519999999999

>  <r_lp_tautomer_probability>  (1) 
1

>  <s_epik_cmdline>  (1) 
J2VwaWtfcHl0aG9uJywgJy1waHQnLCAnMS4wJywgJy1waCcsICc3LjQnLCAnLXRuJywgJzgnLCAnLW1hJywgJzUwMCcsICctaW1hZScsICc8aW5maWxlLm1hZT4nLCAnLW9tYWUnLCAnPG91dGZpbGUubWFlPic=

>  <s_epik_input>  (1) 
W0NIMl09W0NIXVtDSDJdW0NIMl1bT0hd

>  <s_glide_docking_method>  (1) 
confgen

>  <s_i_glide_gridfile>  (1) 
gpcr_5ht2c_6bqh_protein_autoprepared_prepared

>  <s_lp_Force_Field>  (1) 
S-OPLS

>  <s_lp_Variant>  (1) 
DiffSBDD_9_num_sample_100-1

>  <s_m_source_file>  (1) 
generated__ligand_DiffSBDD_2026-05-06_prepared.sdf

>  <GenAI_Model>  (1) 
DiffSBDD

>  <Protein>  (1) 
GPCR_5HT2C

$$$$
DiffSBDD_9_num_sample_100
     RDKit          3D

  0  0  0  0  0  0  0  0  0  0999 V3000
M  V30 BEGIN CTAB
M  V30 COUNTS 13 12 0 0 1
M  V30 BEGIN ATOM
M  V30 1 C 39.883992 29.908444 50.282393 0
M  V30 2 C 39.542394 28.537237 50.830832 0
M  V30 3 O 38.267696 27.298733 52.472504 0
M  V30 4 C 41.120872 30.421498 50.263438 0
M  V30 5 C 38.627637 28.600841 52.061032 0
M  V30 6 H 39.067403 30.489051 49.887068 0
M  V30 7 H 40.466115 28.021413 51.088868 0
M  V30 8 H 39.067447 27.963141 50.035001 0
M  V30 9 H 37.646313 26.934760 51.853470 0
M  V30 10 H 41.307042 31.402144 49.856211 0
M  V30 11 H 41.959149 29.870283 50.653520 0
M  V30 12 H 37.719240 29.162171 51.852541 0
M  V30 13 H 39.136834 29.103966 52.883830 0
M  V30 END ATOM
M  V30 BEGIN BOND
M  V30 1 1 2 1
M  V30 2 2 4 1
M  V30 3 1 5 2
M  V30 4 1 5 3
M  V30 5 1 6 1
M  V30 6 1 7 2
M  V30 7 1 8 2
M  V30 8 1 9 3
M  V30 9 1 10 4
M  V30 10 1 11 4
M  V30 11 1 12 5
M  V30 12 1 13 5
M  V30 END BOND
M  V30 END CTAB
M  END
>  <i_epik_Tot_Q>  (1) 
0

>  <i_epik_Tot_abs_Q>  (1) 
0

>  <i_i_glide_confnum>  (1) 
1

>  <i_i_glide_lignum>  (1) 
28

>  <i_i_glide_posenum>  (1) 
369

>  <i_i_glide_rotatable_bonds>  (1) 
3

>  <i_lp_mmshare_version>  (1) 
72125

>  <i_m_source_file_index>  (1) 
10

>  <i_f3d_flags>  (1) 
0

>  <num_sample>  (1) 
100

>  <b_lp_Chiralities_Consistent>  (1) 
1

>  <r_epik_Charging_Adjusted_Penalty>  (1) 
0

>  <r_epik_Ionization_Penalty>  (1) 
1.9109875336178571e-07

>  <r_epik_Ionization_Penalty_Charging>  (1) 
0

>  <r_epik_Ionization_Penalty_Neutral>  (1) 
1.9109875336178571e-07

>  <r_epik_State_Penalty>  (1) 
-0

>  <r_glide_ring_energy>  (1) 
0

>  <r_i_docking_score>  (1) 
-1.0703823399796428

>  <r_i_glide_ecoul>  (1) 
-2.5144811518131109

>  <r_i_glide_eff_state_penalty>  (1) 
-0

>  <r_i_glide_einternal>  (1) 
0.1997616382779277

>  <r_i_glide_emodel>  (1) 
-14.067775504383984

>  <r_i_glide_emodel_strain>  (1) 
0

>  <r_i_glide_energy>  (1) 
-13.28305949052039

>  <r_i_glide_erotb>  (1) 
3.9483316319645314

>  <r_i_glide_esite>  (1) 
0

>  <r_i_glide_evdw>  (1) 
-10.768578338707279

>  <r_i_glide_gscore>  (1) 
-1.0703823399796428

>  <r_i_glide_gscore_strain>  (1) 
0

>  <r_i_glide_hbond>  (1) 
-0.25200275713435516

>  <r_i_glide_ligand_efficiency>  (1) 
-0.21407646799592855

>  <r_i_glide_ligand_efficiency_ln>  (1) 
-0.41019651583937605

>  <r_i_glide_ligand_efficiency_sa>  (1) 
-0.36606561102254159

>  <r_i_glide_lipo>  (1) 
-1.3177767917691552

>  <r_i_glide_metal>  (1) 
-0

>  <r_i_glide_rewards>  (1) 
-2.5333333333333332

>  <r_lp_Energy>  (1) 
-1.2663519999999999

>  <r_lp_tautomer_probability>  (1) 
1

>  <s_epik_cmdline>  (1) 
J2VwaWtfcHl0aG9uJywgJy1waHQnLCAnMS4wJywgJy1waCcsICc3LjQnLCAnLXRuJywgJzgnLCAnLW1hJywgJzUwMCcsICctaW1hZScsICc8aW5maWxlLm1hZT4nLCAnLW9tYWUnLCAnPG91dGZpbGUubWFlPic=

>  <s_epik_input>  (1) 
W0NIMl09W0NIXVtDSDJdW0NIMl1bT0hd

>  <s_glide_docking_method>  (1) 
confgen

>  <s_i_glide_gridfile>  (1) 
gpcr_5ht2c_6bqh_protein_autoprepared_prepared

>  <s_lp_Force_Field>  (1) 
S-OPLS

>  <s_lp_Variant>  (1) 
DiffSBDD_9_num_sample_100-1

>  <s_m_source_file>  (1) 
generated__ligand_DiffSBDD_2026-05-06_prepared.sdf

>  <GenAI_Model>  (1) 
DiffSBDD

>  <Protein>  (1) 
GPCR_5HT2C

$$$$
DiffSBDD_93_num_sample_100
     RDKit          3D

  0  0  0  0  0  0  0  0  0  0999 V3000
M  V30 BEGIN CTAB
M  V30 COUNTS 74 77 0 0 1
M  V30 BEGIN ATOM
M  V30 1 C 53.201263 26.163246 49.288877 0
M  V30 2 S 52.790046 20.167767 51.514383 0
M  V30 3 C 53.410982 28.548458 50.204222 0 CFG=2
M  V30 4 O 53.831493 18.712298 46.870959 0
M  V30 5 C 53.861238 20.822084 55.833658 0
M  V30 6 C 51.968827 20.733430 47.776052 0 CFG=1
M  V30 7 C 52.031807 22.898527 54.671654 0
M  V30 8 C 53.329387 22.644090 52.571693 0
M  V30 9 C 52.427884 28.169733 51.319443 0
M  V30 10 N 53.074048 22.479054 50.199546 0
M  V30 11 C 52.875091 21.322596 56.877089 0
M  V30 12 C 53.670857 27.437780 49.188448 0
M  V30 13 C 53.577860 25.178913 48.199202 0
M  V30 14 C 52.270595 23.106075 49.139166 0 CFG=1
M  V30 15 C 52.591034 26.702896 51.710016 0
M  V30 16 Cl 50.597171 25.910549 50.141533 0
M  V30 17 O 51.067410 19.820671 56.385674 0
M  V30 18 C 52.341514 25.785544 50.502809 0 CFG=1
M  V30 19 C 54.472024 25.661447 47.061426 0
M  V30 20 C 51.925478 19.512823 50.060054 0
M  V30 21 C 52.829171 20.879164 46.504556 0
M  V30 22 C 53.170571 23.862634 48.160859 0
M  V30 23 C 50.974055 21.922042 55.206104 0
M  V30 24 C 52.701869 19.784223 48.753008 0 CFG=1
M  V30 25 C 52.479801 21.962346 51.450392 0 CFG=1
M  V30 26 C 51.389786 21.191046 56.496107 0 CFG=2
M  V30 27 C 53.041315 18.463120 48.028040 0
M  V30 28 C 53.162386 19.506407 45.900886 0
M  V30 29 C 53.922334 21.247240 54.552457 0
M  V30 30 S 50.736892 22.472214 51.675272 0
M  V30 31 N 53.098277 22.203778 53.951601 0
M  V30 32 C 54.743688 29.052806 50.776294 0
M  V30 33 C 51.397260 22.068467 48.358791 0
M  V30 34 H 52.972158 29.376730 49.647816 0
M  V30 35 H 54.564914 20.074216 56.169212 0
M  V30 36 H 51.073384 20.196202 47.454120 0
M  V30 37 H 52.454209 23.517729 55.460720 0
M  V30 38 H 51.541936 23.612879 54.011375 0
M  V30 39 H 53.203132 23.724340 52.553085 0
M  V30 40 H 54.387529 22.485759 52.356485 0
M  V30 41 H 52.560482 28.811853 52.189829 0
M  V30 42 H 51.408993 28.356201 50.979712 0
M  V30 43 H 53.825816 23.104544 50.448373 0
M  V30 44 H 53.128169 22.349260 57.140794 0
M  V30 45 H 53.051342 20.751632 57.789778 0
M  V30 46 H 54.280815 27.718748 48.346772 0
M  V30 47 H 51.524663 23.770317 49.520706 0
M  V30 48 H 53.596587 26.536258 52.097696 0
M  V30 49 H 51.907546 26.451199 52.522189 0
M  V30 50 H 51.611051 19.450892 55.706053 0
M  V30 51 H 52.567765 24.811743 50.889528 0
M  V30 52 H 55.420148 26.034702 47.446059 0
M  V30 53 H 54.706190 24.861096 46.358893 0
M  V30 54 H 53.980746 26.452241 46.493340 0
M  V30 55 H 51.830715 18.438970 50.221565 0
M  V30 56 H 50.903367 19.884946 50.031794 0
M  V30 57 H 53.782432 21.346889 46.739431 0
M  V30 58 H 52.324260 21.502746 45.765891 0
M  V30 59 H 53.518198 23.273148 47.336115 0
M  V30 60 H 50.719148 21.210285 54.418849 0
M  V30 61 H 50.051069 22.468795 55.402228 0
M  V30 62 H 53.663148 20.233850 49.003177 0
M  V30 63 H 50.799937 21.593312 57.320844 0
M  V30 64 H 53.611351 17.808488 48.688159 0
M  V30 65 H 52.134699 17.921734 47.751971 0
M  V30 66 H 53.816433 19.626168 45.037052 0
M  V30 67 H 52.269628 18.991680 45.549734 0
M  V30 68 H 54.661960 20.843827 53.875344 0
M  V30 69 H 50.263970 21.826063 50.607273 0
M  V30 70 H 55.402543 29.394959 49.978681 0
M  V30 71 H 54.593976 29.892083 51.455351 0
M  V30 72 H 55.265331 28.268423 51.324858 0
M  V30 73 H 50.923617 22.600441 47.532036 0
M  V30 74 H 50.546521 21.804496 48.981717 0
M  V30 END ATOM
M  V30 BEGIN BOND
M  V30 1 1 9 3
M  V30 2 1 11 5
M  V30 3 2 12 1
M  V30 4 1 12 3
M  V30 5 1 13 1
M  V30 6 1 14 10
M  V30 7 1 15 9
M  V30 8 1 18 1
M  V30 9 1 18 15
M  V30 10 1 18 16
M  V30 11 1 19 13
M  V30 12 1 20 2
M  V30 13 1 21 6
M  V30 14 2 22 13
M  V30 15 1 22 14
M  V30 16 1 23 7
M  V30 17 1 24 6
M  V30 18 1 24 20
M  V30 19 1 25 2
M  V30 20 1 25 8
M  V30 21 1 25 10
M  V30 22 1 26 11
M  V30 23 1 26 17
M  V30 24 1 26 23
M  V30 25 1 27 4
M  V30 26 1 27 24
M  V30 27 1 28 4
M  V30 28 1 28 21
M  V30 29 2 29 5
M  V30 30 1 25 30 CFG=1
M  V30 31 1 31 7
M  V30 32 1 31 8
M  V30 33 1 31 29
M  V30 34 1 32 3
M  V30 35 1 33 6
M  V30 36 1 33 14
M  V30 37 1 3 34 CFG=3
M  V30 38 1 35 5
M  V30 39 1 6 36 CFG=3
M  V30 40 1 37 7
M  V30 41 1 38 7
M  V30 42 1 39 8
M  V30 43 1 40 8
M  V30 44 1 41 9
M  V30 45 1 42 9
M  V30 46 1 43 10
M  V30 47 1 44 11
M  V30 48 1 45 11
M  V30 49 1 46 12
M  V30 50 1 14 47 CFG=1
M  V30 51 1 48 15
M  V30 52 1 49 15
M  V30 53 1 50 17
M  V30 54 1 18 51 CFG=1
M  V30 55 1 52 19
M  V30 56 1 53 19
M  V30 57 1 54 19
M  V30 58 1 55 20
M  V30 59 1 56 20
M  V30 60 1 57 21
M  V30 61 1 58 21
M  V30 62 1 59 22
M  V30 63 1 60 23
M  V30 64 1 61 23
M  V30 65 1 24 62 CFG=1
M  V30 66 1 26 63 CFG=1
M  V30 67 1 64 27
M  V30 68 1 65 27
M  V30 69 1 66 28
M  V30 70 1 67 28
M  V30 71 1 68 29
M  V30 72 1 69 30
M  V30 73 1 70 32
M  V30 74 1 71 32
M  V30 75 1 72 32
M  V30 76 1 73 33
M  V30 77 1 74 33
M  V30 END BOND
M  V30 END CTAB
M  END
>  <i_epik_Tot_Q>  (1) 
0

>  <i_epik_Tot_abs_Q>  (1) 
0

>  <i_i_glide_confnum>  (1) 
31

>  <i_i_glide_lignum>  (1) 
254

>  <i_i_glide_posenum>  (1) 
116

>  <i_i_glide_rotatable_bonds>  (1) 
6

>  <i_lp_mmshare_version>  (1) 
72125

>  <i_m_source_file_index>  (1) 
94

>  <i_f3d_flags>  (1) 
0

>  <num_sample>  (1) 
100

>  <b_lp_Chiralities_Consistent>  (1) 
1

>  <r_epik_Charging_Adjusted_Penalty>  (1) 
0.20325292957253988

>  <r_epik_Ionization_Penalty>  (1) 
0.031936562948065232

>  <r_epik_Ionization_Penalty_Charging>  (1) 
3.6030848355623751e-07

>  <r_epik_Ionization_Penalty_Neutral>  (1) 
0.031936202639581676

>  <r_epik_State_Penalty>  (1) 
0.20325256926405633

>  <r_glide_ring_energy>  (1) 
0.82930930823906657

>  <r_i_docking_score>  (1) 
-1.0592346278670448

>  <r_i_glide_ecoul>  (1) 
-0.72165836862807353

>  <r_i_glide_eff_state_penalty>  (1) 
0.20325256926405633

>  <r_i_glide_einternal>  (1) 
7.6324236206132312

>  <r_i_glide_emodel>  (1) 
-14.315734278264745

>  <r_i_glide_emodel_strain>  (1) 
0

>  <r_i_glide_energy>  (1) 
-16.759761156358785

>  <r_i_glide_erotb>  (1) 
0.31140238833871409

>  <r_i_glide_esite>  (1) 
0

>  <r_i_glide_evdw>  (1) 
-16.038102787730711

>  <r_i_glide_gscore>  (1) 
-1.2624871971311011

>  <r_i_glide_gscore_strain>  (1) 
0

>  <r_i_glide_hbond>  (1) 
0

>  <r_i_glide_ligand_efficiency>  (1) 
-0.032098019026274086

>  <r_i_glide_ligand_efficiency_ln>  (1) 
-0.23556829681424768

>  <r_i_glide_ligand_efficiency_sa>  (1) 
-0.10295549795163335

>  <r_i_glide_lipo>  (1) 
-0.54059869165332575

>  <r_i_glide_metal>  (1) 
-0

>  <r_i_glide_rewards>  (1) 
-0.12313699913574268

>  <r_lp_Energy>  (1) 
33.901114999999997

>  <s_epik_Chemistry_Notes>  (1) 
This compound has an imine and may undergo hydrolysis.

>  <s_epik_cmdline>  (1) 
J2VwaWtfcHl0aG9uJywgJy1waHQnLCAnMS4wJywgJy1waCcsICc3LjQnLCAnLXRuJywgJzgnLCAnLW1hJywgJzUwMCcsICctaW1hZScsICc8aW5maWxlLm1hZT4nLCAnLW9tYWUnLCAnPG91dGZpbGUubWFlPic=

>  <s_epik_input>  (1) 
Q2xbQ0BIXTFbQ0gyXVtDSDJdW0NAQEhdKFtDSDNdKVtDSF09QzEvQyhbQ0gzXSk9W0NIXVxbQ0BASF0oW0NIMl0yKVtOSF1bQ0BAXShbU0hdKShTW0NIMl1bQ0BIXShbQ0BASF0yMylbQ0gyXU9bQ0gyXVtDSDJdMylbQ0gyXU4oW0NIMl1bQ0gyXTQpW0NIXT1bQ0hdW0NIMl1bQ0BASF00W09IXQ==

>  <s_glide_docking_method>  (1) 
confgen

>  <s_i_glide_gridfile>  (1) 
gpcr_5ht2c_6bqh_protein_autoprepared_prepared

>  <s_lp_Force_Field>  (1) 
S-OPLS

>  <s_lp_Variant>  (1) 
DiffSBDD_93_num_sample_100-6

>  <s_m_source_file>  (1) 
generated__ligand_DiffSBDD_2026-05-06_prepared.sdf

>  <GenAI_Model>  (1) 
DiffSBDD

>  <Protein>  (1) 
GPCR_5HT2C

$$$$
DiffSBDD_73_num_sample_100
     RDKit          3D

  0  0  0  0  0  0  0  0  0  0999 V3000
M  V30 BEGIN CTAB
M  V30 COUNTS 28 27 0 0 1
M  V30 BEGIN ATOM
M  V30 1 C 36.556282 31.487377 60.095078 0
M  V30 2 N 37.067403 31.039992 58.941311 0
M  V30 3 C 39.591416 29.621433 51.518639 0
M  V30 4 O 37.067415 31.255582 61.193768 0
M  V30 5 C 38.757415 30.072301 57.410890 0
M  V30 6 C 35.278045 32.326158 59.990795 0
M  V30 7 Cl 40.454854 29.952407 50.061989 0
M  V30 8 C 39.750907 30.351626 52.631913 0
M  V30 9 C 38.297073 30.262183 58.869220 0
M  V30 10 C 38.758453 31.372419 56.579100 0
M  V30 11 N 35.067404 33.201264 61.143709 0
M  V30 12 S 38.866734 30.021437 54.124684 0
M  V30 13 C 39.523730 31.281791 55.250473 0
M  V30 14 H 36.583104 31.259326 58.068517 0
M  V30 15 H 38.910541 28.783683 51.471019 0
M  V30 16 H 38.112729 29.338249 56.925800 0
M  V30 17 H 39.758244 29.639138 57.416565 0
M  V30 18 H 35.327832 32.941052 59.090478 0
M  V30 19 H 34.422571 31.663810 59.868656 0
M  V30 20 H 40.438069 31.185453 52.655404 0
M  V30 21 H 38.151334 29.293295 59.349125 0
M  V30 22 H 39.076303 30.780154 59.430228 0
M  V30 23 H 39.200072 32.175795 57.169699 0
M  V30 24 H 37.732672 31.681321 56.374006 0
M  V30 25 H 35.851800 33.823609 61.275192 0
M  V30 26 H 34.255475 33.790802 61.019532 0
M  V30 27 H 40.578974 31.077685 55.423455 0
M  V30 28 H 39.467397 32.246619 54.746745 0
M  V30 END ATOM
M  V30 BEGIN BOND
M  V30 1 1 2 1
M  V30 2 2 4 1
M  V30 3 1 6 1
M  V30 4 1 7 3
M  V30 5 2 8 3
M  V30 6 1 9 2
M  V30 7 1 9 5
M  V30 8 1 10 5
M  V30 9 1 11 6
M  V30 10 1 12 8
M  V30 11 1 13 10
M  V30 12 1 13 12
M  V30 13 1 14 2
M  V30 14 1 15 3
M  V30 15 1 16 5
M  V30 16 1 17 5
M  V30 17 1 18 6
M  V30 18 1 19 6
M  V30 19 1 20 8
M  V30 20 1 21 9
M  V30 21 1 22 9
M  V30 22 1 23 10
M  V30 23 1 24 10
M  V30 24 1 25 11
M  V30 25 1 26 11
M  V30 26 1 27 13
M  V30 27 1 28 13
M  V30 END BOND
M  V30 END CTAB
M  END
>  <i_epik_Tot_Q>  (1) 
0

>  <i_epik_Tot_abs_Q>  (1) 
0

>  <i_i_glide_confnum>  (1) 
214

>  <i_i_glide_lignum>  (1) 
184

>  <i_i_glide_posenum>  (1) 
34

>  <i_i_glide_rotatable_bonds>  (1) 
8

>  <i_lp_mmshare_version>  (1) 
72125

>  <i_m_source_file_index>  (1) 
74

>  <i_f3d_flags>  (1) 
0

>  <num_sample>  (1) 
100

>  <b_lp_Chiralities_Consistent>  (1) 
1

>  <r_epik_Charging_Adjusted_Penalty>  (1) 
0.66702128766523683

>  <r_epik_Ionization_Penalty>  (1) 
0.66702135281148944

>  <r_epik_Ionization_Penalty_Charging>  (1) 
0

>  <r_epik_Ionization_Penalty_Neutral>  (1) 
0.66702135281148944

>  <r_epik_State_Penalty>  (1) 
0.66702128766523683

>  <r_glide_ring_energy>  (1) 
0

>  <r_i_docking_score>  (1) 
-1.0504859021438859

>  <r_i_glide_ecoul>  (1) 
-7.2662302372521737

>  <r_i_glide_eff_state_penalty>  (1) 
0.66702128766523683

>  <r_i_glide_einternal>  (1) 
4.7513559521842339

>  <r_i_glide_emodel>  (1) 
-33.204337809719902

>  <r_i_glide_emodel_strain>  (1) 
0.070904959708403936

>  <r_i_glide_energy>  (1) 
-31.884031380194589

>  <r_i_glide_erotb>  (1) 
4.7714226567050355

>  <r_i_glide_esite>  (1) 
-0.16608982241005033

>  <r_i_glide_evdw>  (1) 
-24.617801142942415

>  <r_i_glide_gscore>  (1) 
-1.7175071898091228

>  <r_i_glide_gscore_strain>  (1) 
0

>  <r_i_glide_hbond>  (1) 
-0.42820441299018674

>  <r_i_glide_ligand_efficiency>  (1) 
-0.08080660785722199

>  <r_i_glide_ligand_efficiency_ln>  (1) 
-0.2946706381523177

>  <r_i_glide_ligand_efficiency_sa>  (1) 
-0.19000338005173481

>  <r_i_glide_lipo>  (1) 
-1.3553598825024677

>  <r_i_glide_metal>  (1) 
-0

>  <r_i_glide_rewards>  (1) 
-2.2184511358765064

>  <r_lp_Energy>  (1) 
-0.222306

>  <s_epik_cmdline>  (1) 
J2VwaWtfcHl0aG9uJywgJy1waHQnLCAnMS4wJywgJy1waCcsICc3LjQnLCAnLXRuJywgJzgnLCAnLW1hJywgJzUwMCcsICctaW1hZScsICc8aW5maWxlLm1hZT4nLCAnLW9tYWUnLCAnPG91dGZpbGUubWFlPic=

>  <s_epik_input>  (1) 
W05IMl1bQ0gyXUMoPU8pW05IXVtDSDJdW0NIMl1bQ0gyXVtDSDJdU1xbQ0hdPVtDSF1cQ2w=

>  <s_glide_docking_method>  (1) 
confgen

>  <s_i_glide_gridfile>  (1) 
gpcr_5ht2c_6bqh_protein_autoprepared_prepared

>  <s_lp_Force_Field>  (1) 
S-OPLS

>  <s_lp_Variant>  (1) 
DiffSBDD_73_num_sample_100-3

>  <s_m_source_file>  (1) 
generated__ligand_DiffSBDD_2026-05-06_prepared.sdf

>  <GenAI_Model>  (1) 
DiffSBDD

>  <Protein>  (1) 
GPCR_5HT2C

$$$$
DiffSBDD_73_num_sample_100
     RDKit          3D

  0  0  0  0  0  0  0  0  0  0999 V3000
M  V30 BEGIN CTAB
M  V30 COUNTS 28 27 0 0 1
M  V30 BEGIN ATOM
M  V30 1 C 36.559307 31.475441 60.036259 0
M  V30 2 N 37.067403 30.978934 58.900096 0
M  V30 3 C 39.711875 29.640026 52.059292 0
M  V30 4 O 37.024638 31.221596 61.150366 0
M  V30 5 C 38.895616 30.113382 57.482111 0
M  V30 6 C 35.344035 32.399467 59.890150 0
M  V30 7 Cl 40.474820 29.902946 50.534401 0
M  V30 8 C 38.668527 28.806714 52.208247 0
M  V30 9 C 38.232090 30.101358 58.869940 0
M  V30 10 C 38.056084 29.444917 56.378979 0
M  V30 11 N 35.067560 33.193126 61.086989 0
M  V30 12 S 37.861316 28.517463 53.764766 0
M  V30 13 C 38.735751 29.521196 55.002925 0
M  V30 14 H 36.620800 31.221450 58.013849 0
M  V30 15 H 40.133703 30.194060 52.882939 0
M  V30 16 H 39.856279 29.601678 57.550752 0
M  V30 17 H 39.123413 31.142094 57.198451 0
M  V30 18 H 35.515187 33.078067 59.053506 0
M  V30 19 H 34.467026 31.803752 59.638467 0
M  V30 20 H 38.270321 28.266366 51.361016 0
M  V30 21 H 37.934187 29.089075 59.146899 0
M  V30 22 H 38.964321 30.429408 59.610241 0
M  V30 23 H 37.072525 29.914295 56.317670 0
M  V30 24 H 37.884041 28.401258 56.645364 0
M  V30 25 H 35.870741 33.747543 61.346725 0
M  V30 26 H 34.309290 33.843986 60.933899 0
M  V30 27 H 39.765322 29.167784 55.069349 0
M  V30 28 H 38.763472 30.560096 54.673134 0
M  V30 END ATOM
M  V30 BEGIN BOND
M  V30 1 1 2 1
M  V30 2 2 4 1
M  V30 3 1 6 1
M  V30 4 1 7 3
M  V30 5 2 8 3
M  V30 6 1 9 2
M  V30 7 1 9 5
M  V30 8 1 10 5
M  V30 9 1 11 6
M  V30 10 1 12 8
M  V30 11 1 13 10
M  V30 12 1 13 12
M  V30 13 1 14 2
M  V30 14 1 15 3
M  V30 15 1 16 5
M  V30 16 1 17 5
M  V30 17 1 18 6
M  V30 18 1 19 6
M  V30 19 1 20 8
M  V30 20 1 21 9
M  V30 21 1 22 9
M  V30 22 1 23 10
M  V30 23 1 24 10
M  V30 24 1 25 11
M  V30 25 1 26 11
M  V30 26 1 27 13
M  V30 27 1 28 13
M  V30 END BOND
M  V30 END CTAB
M  END
>  <i_epik_Tot_Q>  (1) 
0

>  <i_epik_Tot_abs_Q>  (1) 
0

>  <i_i_glide_confnum>  (1) 
103

>  <i_i_glide_lignum>  (1) 
184

>  <i_i_glide_posenum>  (1) 
47

>  <i_i_glide_rotatable_bonds>  (1) 
8

>  <i_lp_mmshare_version>  (1) 
72125

>  <i_m_source_file_index>  (1) 
74

>  <i_f3d_flags>  (1) 
0

>  <num_sample>  (1) 
100

>  <b_lp_Chiralities_Consistent>  (1) 
1

>  <r_epik_Charging_Adjusted_Penalty>  (1) 
0.66702128766523683

>  <r_epik_Ionization_Penalty>  (1) 
0.66702135281148944

>  <r_epik_Ionization_Penalty_Charging>  (1) 
0

>  <r_epik_Ionization_Penalty_Neutral>  (1) 
0.66702135281148944

>  <r_epik_State_Penalty>  (1) 
0.66702128766523683

>  <r_glide_ring_energy>  (1) 
0

>  <r_i_docking_score>  (1) 
-1.0480293353973691

>  <r_i_glide_ecoul>  (1) 
-7.0888606067137276

>  <r_i_glide_eff_state_penalty>  (1) 
0.66702128766523683

>  <r_i_glide_einternal>  (1) 
3.2609311873195583

>  <r_i_glide_emodel>  (1) 
-34.246305846392055

>  <r_i_glide_emodel_strain>  (1) 
0.11506753052765273

>  <r_i_glide_energy>  (1) 
-32.230337422671582

>  <r_i_glide_erotb>  (1) 
4.7714226567050355

>  <r_i_glide_esite>  (1) 
-0.16718220785778551

>  <r_i_glide_evdw>  (1) 
-25.141476815957851

>  <r_i_glide_gscore>  (1) 
-1.7150506230626059

>  <r_i_glide_gscore_strain>  (1) 
0

>  <r_i_glide_hbond>  (1) 
-0.42366766765431157

>  <r_i_glide_ligand_efficiency>  (1) 
-0.080617641184413003

>  <r_i_glide_ligand_efficiency_ln>  (1) 
-0.29398154933219878

>  <r_i_glide_ligand_efficiency_sa>  (1) 
-0.18955905615913587

>  <r_i_glide_lipo>  (1) 
-1.4598016473061211

>  <r_i_glide_metal>  (1) 
-0

>  <r_i_glide_rewards>  (1) 
-2.1154188251444714

>  <r_lp_Energy>  (1) 
-0.222306

>  <s_epik_cmdline>  (1) 
J2VwaWtfcHl0aG9uJywgJy1waHQnLCAnMS4wJywgJy1waCcsICc3LjQnLCAnLXRuJywgJzgnLCAnLW1hJywgJzUwMCcsICctaW1hZScsICc8aW5maWxlLm1hZT4nLCAnLW9tYWUnLCAnPG91dGZpbGUubWFlPic=

>  <s_epik_input>  (1) 
W05IMl1bQ0gyXUMoPU8pW05IXVtDSDJdW0NIMl1bQ0gyXVtDSDJdU1xbQ0hdPVtDSF1cQ2w=

>  <s_glide_docking_method>  (1) 
confgen

>  <s_i_glide_gridfile>  (1) 
gpcr_5ht2c_6bqh_protein_autoprepared_prepared

>  <s_lp_Force_Field>  (1) 
S-OPLS

>  <s_lp_Variant>  (1) 
DiffSBDD_73_num_sample_100-3

>  <s_m_source_file>  (1) 
generated__ligand_DiffSBDD_2026-05-06_prepared.sdf

>  <GenAI_Model>  (1) 
DiffSBDD

>  <Protein>  (1) 
GPCR_5HT2C

$$$$
DiffSBDD_73_num_sample_100
     RDKit          3D

  0  0  0  0  0  0  0  0  0  0999 V3000
M  V30 BEGIN CTAB
M  V30 COUNTS 28 27 0 0 1
M  V30 BEGIN ATOM
M  V30 1 C 36.341961 31.543644 60.266707 0
M  V30 2 N 36.667406 31.079250 59.053501 0
M  V30 3 C 38.037676 27.901970 53.029118 0
M  V30 4 O 36.937970 31.221433 61.295257 0
M  V30 5 C 37.983130 30.032194 57.298051 0
M  V30 6 C 35.166456 32.516921 60.326413 0
M  V30 7 Cl 39.467392 27.712847 52.075260 0
M  V30 8 C 37.860507 28.923155 53.885274 0
M  V30 9 C 37.772029 30.162834 58.818625 0
M  V30 10 C 38.456405 31.341077 56.627617 0
M  V30 11 N 35.366709 33.669951 59.453501 0
M  V30 12 S 39.067401 30.193512 54.138333 0
M  V30 13 C 38.166686 31.427978 55.120388 0
M  V30 14 H 36.125230 31.388854 58.235068 0
M  V30 15 H 37.288514 27.136663 52.889137 0
M  V30 16 H 37.042331 29.714521 56.846890 0
M  V30 17 H 38.700852 29.237654 57.090535 0
M  V30 18 H 34.267408 31.995419 60.005741 0
M  V30 19 H 35.010250 32.854782 61.351397 0
M  V30 20 H 36.952602 29.007008 54.463228 0
M  V30 21 H 37.531119 29.192005 59.253387 0
M  V30 22 H 38.682486 30.523154 59.300933 0
M  V30 23 H 39.519965 31.485649 56.814829 0
M  V30 24 H 37.958310 32.194347 57.089218 0
M  V30 25 H 35.467387 33.373100 58.487605 0
M  V30 26 H 34.573748 34.295424 59.472724 0
M  V30 27 H 38.464390 32.413556 54.761163 0
M  V30 28 H 37.095813 31.348949 54.929076 0
M  V30 END ATOM
M  V30 BEGIN BOND
M  V30 1 1 2 1
M  V30 2 2 4 1
M  V30 3 1 6 1
M  V30 4 1 7 3
M  V30 5 2 8 3
M  V30 6 1 9 2
M  V30 7 1 9 5
M  V30 8 1 10 5
M  V30 9 1 11 6
M  V30 10 1 12 8
M  V30 11 1 13 10
M  V30 12 1 13 12
M  V30 13 1 14 2
M  V30 14 1 15 3
M  V30 15 1 16 5
M  V30 16 1 17 5
M  V30 17 1 18 6
M  V30 18 1 19 6
M  V30 19 1 20 8
M  V30 20 1 21 9
M  V30 21 1 22 9
M  V30 22 1 23 10
M  V30 23 1 24 10
M  V30 24 1 25 11
M  V30 25 1 26 11
M  V30 26 1 27 13
M  V30 27 1 28 13
M  V30 END BOND
M  V30 END CTAB
M  END
>  <i_epik_Tot_Q>  (1) 
0

>  <i_epik_Tot_abs_Q>  (1) 
0

>  <i_i_glide_confnum>  (1) 
227

>  <i_i_glide_lignum>  (1) 
185

>  <i_i_glide_posenum>  (1) 
197

>  <i_i_glide_rotatable_bonds>  (1) 
8

>  <i_lp_mmshare_version>  (1) 
72125

>  <i_m_source_file_index>  (1) 
74

>  <i_f3d_flags>  (1) 
0

>  <num_sample>  (1) 
100

>  <b_lp_Chiralities_Consistent>  (1) 
1

>  <r_epik_Charging_Adjusted_Penalty>  (1) 
0.66702128766523683

>  <r_epik_Ionization_Penalty>  (1) 
0.66702135281148944

>  <r_epik_Ionization_Penalty_Charging>  (1) 
0

>  <r_epik_Ionization_Penalty_Neutral>  (1) 
0.66702135281148944

>  <r_epik_State_Penalty>  (1) 
0.66702128766523683

>  <r_glide_ring_energy>  (1) 
0

>  <r_i_docking_score>  (1) 
-1.0435479953580618

>  <r_i_glide_ecoul>  (1) 
-8.0325608413394285

>  <r_i_glide_eff_state_penalty>  (1) 
0.66702128766523683

>  <r_i_glide_einternal>  (1) 
5.248067971532425

>  <r_i_glide_emodel>  (1) 
-32.959110793317592

>  <r_i_glide_emodel_strain>  (1) 
0.065646504389034632

>  <r_i_glide_energy>  (1) 
-31.919573808919644

>  <r_i_glide_erotb>  (1) 
4.7714226567050355

>  <r_i_glide_esite>  (1) 
-0.16858863555799219

>  <r_i_glide_evdw>  (1) 
-23.887012967580215

>  <r_i_glide_gscore>  (1) 
-1.7105692830232986

>  <r_i_glide_gscore_strain>  (1) 
0

>  <r_i_glide_hbond>  (1) 
-0.54113761959991791

>  <r_i_glide_ligand_efficiency>  (1) 
-0.080272922719850898

>  <r_i_glide_ligand_efficiency_ln>  (1) 
-0.29272449359592928

>  <r_i_glide_ligand_efficiency_sa>  (1) 
-0.18874850767591317

>  <r_i_glide_lipo>  (1) 
-1.1935626600937748

>  <r_i_glide_metal>  (1) 
-0

>  <r_i_glide_rewards>  (1) 
-2.1794682498967233

>  <r_lp_Energy>  (1) 
2.898231

>  <s_epik_cmdline>  (1) 
J2VwaWtfcHl0aG9uJywgJy1waHQnLCAnMS4wJywgJy1waCcsICc3LjQnLCAnLXRuJywgJzgnLCAnLW1hJywgJzUwMCcsICctaW1hZScsICc8aW5maWxlLm1hZT4nLCAnLW9tYWUnLCAnPG91dGZpbGUubWFlPic=

>  <s_epik_input>  (1) 
W05IMl1bQ0gyXUMoPU8pW05IXVtDSDJdW0NIMl1bQ0gyXVtDSDJdUy9bQ0hdPVtDSF1cQ2w=

>  <s_glide_docking_method>  (1) 
confgen

>  <s_i_glide_gridfile>  (1) 
gpcr_5ht2c_6bqh_protein_autoprepared_prepared

>  <s_lp_Force_Field>  (1) 
S-OPLS

>  <s_lp_Variant>  (1) 
DiffSBDD_73_num_sample_100-4

>  <s_m_source_file>  (1) 
generated__ligand_DiffSBDD_2026-05-06_prepared.sdf

>  <GenAI_Model>  (1) 
DiffSBDD

>  <Protein>  (1) 
GPCR_5HT2C

$$$$
DiffSBDD_73_num_sample_100
     RDKit          3D

  0  0  0  0  0  0  0  0  0  0999 V3000
M  V30 BEGIN CTAB
M  V30 COUNTS 28 27 0 0 1
M  V30 BEGIN ATOM
M  V30 1 C 36.288915 31.521011 60.250299 0
M  V30 2 N 36.667403 31.048538 59.053501 0
M  V30 3 C 40.203996 30.078436 51.868112 0
M  V30 4 O 36.854536 31.221443 61.302752 0
M  V30 5 C 37.964021 29.806009 57.384081 0
M  V30 6 C 35.093139 32.473052 60.258788 0
M  V30 7 Cl 39.996176 28.433814 51.377283 0
M  V30 8 C 39.647536 30.583655 52.983002 0
M  V30 9 C 37.800446 30.148513 58.876805 0
M  V30 10 C 38.299708 31.018587 56.486616 0
M  V30 11 N 35.336456 33.664910 59.453503 0
M  V30 12 S 38.638071 29.625780 54.079039 0
M  V30 13 C 37.764664 30.888380 55.050495 0
M  V30 14 H 36.150152 31.337508 58.212628 0
M  V30 15 H 40.816170 30.679199 51.211503 0
M  V30 16 H 37.036903 29.345652 57.044713 0
M  V30 17 H 38.733967 29.043851 57.260830 0
M  V30 18 H 34.225404 31.955238 59.853501 0
M  V30 19 H 34.859339 32.769389 61.282387 0
M  V30 20 H 39.799180 31.617854 53.254603 0
M  V30 21 H 37.632632 29.235909 59.451273 0
M  V30 22 H 38.710656 30.610789 59.261767 0
M  V30 23 H 39.376557 31.191217 56.477068 0
M  V30 24 H 37.867401 31.925734 56.907867 0
M  V30 25 H 35.467400 33.412364 58.478814 0
M  V30 26 H 34.548551 34.297310 59.474637 0
M  V30 27 H 37.837791 31.848486 54.538554 0
M  V30 28 H 36.701462 30.644309 55.066917 0
M  V30 END ATOM
M  V30 BEGIN BOND
M  V30 1 1 2 1
M  V30 2 2 4 1
M  V30 3 1 6 1
M  V30 4 1 7 3
M  V30 5 2 8 3
M  V30 6 1 9 2
M  V30 7 1 9 5
M  V30 8 1 10 5
M  V30 9 1 11 6
M  V30 10 1 12 8
M  V30 11 1 13 10
M  V30 12 1 13 12
M  V30 13 1 14 2
M  V30 14 1 15 3
M  V30 15 1 16 5
M  V30 16 1 17 5
M  V30 17 1 18 6
M  V30 18 1 19 6
M  V30 19 1 20 8
M  V30 20 1 21 9
M  V30 21 1 22 9
M  V30 22 1 23 10
M  V30 23 1 24 10
M  V30 24 1 25 11
M  V30 25 1 26 11
M  V30 26 1 27 13
M  V30 27 1 28 13
M  V30 END BOND
M  V30 END CTAB
M  END
>  <i_epik_Tot_Q>  (1) 
0

>  <i_epik_Tot_abs_Q>  (1) 
0

>  <i_i_glide_confnum>  (1) 
227

>  <i_i_glide_lignum>  (1) 
185

>  <i_i_glide_posenum>  (1) 
220

>  <i_i_glide_rotatable_bonds>  (1) 
8

>  <i_lp_mmshare_version>  (1) 
72125

>  <i_m_source_file_index>  (1) 
74

>  <i_f3d_flags>  (1) 
0

>  <num_sample>  (1) 
100

>  <b_lp_Chiralities_Consistent>  (1) 
1

>  <r_epik_Charging_Adjusted_Penalty>  (1) 
0.66702128766523683

>  <r_epik_Ionization_Penalty>  (1) 
0.66702135281148944

>  <r_epik_Ionization_Penalty_Charging>  (1) 
0

>  <r_epik_Ionization_Penalty_Neutral>  (1) 
0.66702135281148944

>  <r_epik_State_Penalty>  (1) 
0.66702128766523683

>  <r_glide_ring_energy>  (1) 
0

>  <r_i_docking_score>  (1) 
-1.0406978994421225

>  <r_i_glide_ecoul>  (1) 
-8.5041012430491882

>  <r_i_glide_eff_state_penalty>  (1) 
0.66702128766523683

>  <r_i_glide_einternal>  (1) 
5.941128588257957

>  <r_i_glide_emodel>  (1) 
-32.309529817866597

>  <r_i_glide_emodel_strain>  (1) 
1.2278890187017497

>  <r_i_glide_energy>  (1) 
-32.78497915921551

>  <r_i_glide_erotb>  (1) 
4.7714226567050355

>  <r_i_glide_esite>  (1) 
-0.17066739198102798

>  <r_i_glide_evdw>  (1) 
-24.280877916166318

>  <r_i_glide_gscore>  (1) 
-1.7077191871073594

>  <r_i_glide_gscore_strain>  (1) 
0

>  <r_i_glide_hbond>  (1) 
-0.5317150504628152

>  <r_i_glide_ligand_efficiency>  (1) 
-0.080053684572470959

>  <r_i_glide_ligand_efficiency_ln>  (1) 
-0.2919250163438965

>  <r_i_glide_ligand_efficiency_sa>  (1) 
-0.18823300541510707

>  <r_i_glide_lipo>  (1) 
-1.1209599338091949

>  <r_i_glide_metal>  (1) 
-0

>  <r_i_glide_rewards>  (1) 
-2.1661403852936632

>  <r_lp_Energy>  (1) 
2.898231

>  <s_epik_cmdline>  (1) 
J2VwaWtfcHl0aG9uJywgJy1waHQnLCAnMS4wJywgJy1waCcsICc3LjQnLCAnLXRuJywgJzgnLCAnLW1hJywgJzUwMCcsICctaW1hZScsICc8aW5maWxlLm1hZT4nLCAnLW9tYWUnLCAnPG91dGZpbGUubWFlPic=

>  <s_epik_input>  (1) 
W05IMl1bQ0gyXUMoPU8pW05IXVtDSDJdW0NIMl1bQ0gyXVtDSDJdUy9bQ0hdPVtDSF1cQ2w=

>  <s_glide_docking_method>  (1) 
confgen

>  <s_i_glide_gridfile>  (1) 
gpcr_5ht2c_6bqh_protein_autoprepared_prepared

>  <s_lp_Force_Field>  (1) 
S-OPLS

>  <s_lp_Variant>  (1) 
DiffSBDD_73_num_sample_100-4

>  <s_m_source_file>  (1) 
generated__ligand_DiffSBDD_2026-05-06_prepared.sdf

>  <GenAI_Model>  (1) 
DiffSBDD

>  <Protein>  (1) 
GPCR_5HT2C

$$$$
DiffSBDD_12_num_sample_100
     RDKit          3D

  0  0  0  0  0  0  0  0  0  0999 V3000
M  V30 BEGIN CTAB
M  V30 COUNTS 31 30 0 0 1
M  V30 BEGIN ATOM
M  V30 1 C 39.391215 28.823999 50.748006 0
M  V30 2 S 38.298335 28.627177 55.400828 0
M  V30 3 C 39.069743 31.313104 55.581137 0
M  V30 4 C 41.304148 30.421427 50.312309 0
M  V30 5 C 38.874007 27.533376 51.412601 0
M  V30 6 C 37.906682 30.347345 55.863184 0 CFG=2
M  V30 7 N 37.467402 30.421430 57.255798 0
M  V30 8 C 38.847243 27.513458 52.947910 0
M  V30 9 C 38.089120 28.676210 53.601358 0
M  V30 10 C 38.192654 29.953536 58.281154 0
M  V30 11 C 40.728405 29.362316 51.265210 0
M  V30 12 O 37.830171 30.021458 59.453408 0
M  V30 13 H 39.466922 28.642800 49.676575 0
M  V30 14 H 38.663424 29.621392 50.854273 0
M  V30 15 H 38.803942 32.333550 55.859888 0
M  V30 16 H 39.960697 31.036851 56.141608 0
M  V30 17 H 39.335786 31.325918 54.524617 0
M  V30 18 H 42.267467 30.795934 50.653507 0
M  V30 19 H 41.453655 30.021432 49.309930 0
M  V30 20 H 40.627062 31.270451 50.226750 0
M  V30 21 H 39.471018 26.690611 51.064547 0
M  V30 22 H 37.867400 27.338988 51.053501 0
M  V30 23 H 37.048245 30.655113 55.264534 0
M  V30 24 H 36.566089 30.873873 57.441136 0
M  V30 25 H 39.867402 27.491285 53.318810 0
M  V30 26 H 38.401527 26.573700 53.276347 0
M  V30 27 H 37.027820 28.638568 53.356297 0
M  V30 28 H 38.466839 29.628432 53.235685 0
M  V30 29 H 39.139249 29.508287 57.937167 0
M  V30 30 H 40.587776 29.811105 52.248265 0
M  V30 31 H 41.439292 28.550746 51.415202 0
M  V30 END ATOM
M  V30 BEGIN BOND
M  V30 1 1 5 1
M  V30 2 1 6 2
M  V30 3 1 6 3
M  V30 4 1 7 6
M  V30 5 1 8 5
M  V30 6 1 9 2
M  V30 7 1 9 8
M  V30 8 1 10 7
M  V30 9 1 11 1
M  V30 10 1 11 4
M  V30 11 2 12 10
M  V30 12 1 13 1
M  V30 13 1 14 1
M  V30 14 1 15 3
M  V30 15 1 16 3
M  V30 16 1 17 3
M  V30 17 1 18 4
M  V30 18 1 19 4
M  V30 19 1 20 4
M  V30 20 1 21 5
M  V30 21 1 22 5
M  V30 22 1 6 23 CFG=3
M  V30 23 1 24 7
M  V30 24 1 25 8
M  V30 25 1 26 8
M  V30 26 1 27 9
M  V30 27 1 28 9
M  V30 28 1 29 10
M  V30 29 1 30 11
M  V30 30 1 31 11
M  V30 END BOND
M  V30 END CTAB
M  END
>  <i_epik_Tot_Q>  (1) 
0

>  <i_epik_Tot_abs_Q>  (1) 
0

>  <i_i_glide_confnum>  (1) 
144

>  <i_i_glide_lignum>  (1) 
30

>  <i_i_glide_posenum>  (1) 
293

>  <i_i_glide_rotatable_bonds>  (1) 
8

>  <i_lp_mmshare_version>  (1) 
72125

>  <i_m_source_file_index>  (1) 
13

>  <i_f3d_flags>  (1) 
0

>  <num_sample>  (1) 
100

>  <b_lp_Chiralities_Consistent>  (1) 
1

>  <r_epik_Charging_Adjusted_Penalty>  (1) 
0

>  <r_epik_Ionization_Penalty>  (1) 
1.0816103535090204e-07

>  <r_epik_Ionization_Penalty_Charging>  (1) 
0

>  <r_epik_Ionization_Penalty_Neutral>  (1) 
1.0816103535090204e-07

>  <r_epik_State_Penalty>  (1) 
-0

>  <r_glide_ring_energy>  (1) 
0

>  <r_i_docking_score>  (1) 
-1.0273233867636629

>  <r_i_glide_ecoul>  (1) 
-4.3262507354254005

>  <r_i_glide_eff_state_penalty>  (1) 
-0

>  <r_i_glide_einternal>  (1) 
4.6605054955819085

>  <r_i_glide_emodel>  (1) 
-25.821883437381164

>  <r_i_glide_emodel_strain>  (1) 
0.10126000020677139

>  <r_i_glide_energy>  (1) 
-26.500674564097555

>  <r_i_glide_erotb>  (1) 
5.3674158400269425

>  <r_i_glide_esite>  (1) 
-0.12827302669407015

>  <r_i_glide_evdw>  (1) 
-22.174423828672154

>  <r_i_glide_gscore>  (1) 
-1.0273233867636629

>  <r_i_glide_gscore_strain>  (1) 
0

>  <r_i_glide_hbond>  (1) 
-0.15588474469679978

>  <r_i_glide_ligand_efficiency>  (1) 
-0.085610282230305243

>  <r_i_glide_ligand_efficiency_ln>  (1) 
-0.29479222544631395

>  <r_i_glide_ligand_efficiency_sa>  (1) 
-0.19599861875608168

>  <r_i_glide_lipo>  (1) 
-1.8626151117423755

>  <r_i_glide_metal>  (1) 
-0

>  <r_i_glide_rewards>  (1) 
-2.4903075419099423

>  <r_lp_Energy>  (1) 
-1.4832109999999998

>  <r_lp_tautomer_probability>  (1) 
1

>  <s_epik_Chemistry_Notes>  (1) 
This compound contains an acetal/aminal-like group ( X-CH(R)-Y where X, Y are N, S, or O) that may be acid/base labile, releasing an aldehyde.

>  <s_epik_cmdline>  (1) 
J2VwaWtfcHl0aG9uJywgJy1waHQnLCAnMS4wJywgJy1waCcsICc3LjQnLCAnLXRuJywgJzgnLCAnLW1hJywgJzUwMCcsICctaW1hZScsICc8aW5maWxlLm1hZT4nLCAnLW9tYWUnLCAnPG91dGZpbGUubWFlPic=

>  <s_epik_input>  (1) 
W0NIM11bQ0gyXVtDSDJdW0NIMl1bQ0gyXVtDSDJdU1tDQEhdKFtDSDNdKVtOSF1bQ0hdPU8=

>  <s_glide_docking_method>  (1) 
confgen

>  <s_i_glide_gridfile>  (1) 
gpcr_5ht2c_6bqh_protein_autoprepared_prepared

>  <s_lp_Force_Field>  (1) 
S-OPLS

>  <s_lp_Variant>  (1) 
DiffSBDD_12_num_sample_100-1

>  <s_m_source_file>  (1) 
generated__ligand_DiffSBDD_2026-05-06_prepared.sdf

>  <GenAI_Model>  (1) 
DiffSBDD

>  <Protein>  (1) 
GPCR_5HT2C

$$$$
DiffSBDD_93_num_sample_100
     RDKit          3D

  0  0  0  0  0  0  0  0  0  0999 V3000
M  V30 BEGIN CTAB
M  V30 COUNTS 74 77 0 0 1
M  V30 BEGIN ATOM
M  V30 1 C 39.653779 29.097715 56.834930 0
M  V30 2 S 41.452432 32.021457 61.453508 0
M  V30 3 C 39.136691 30.902531 55.091656 0 CFG=2
M  V30 4 O 42.797513 28.731156 65.372795 0
M  V30 5 C 35.836205 34.308385 60.747375 0
M  V30 6 C 41.067919 29.066927 63.006756 0 CFG=1
M  V30 7 C 38.840702 35.183794 60.736832 0
M  V30 8 C 39.144688 32.831574 59.989323 0
M  V30 9 C 39.588005 29.925435 54.013398 0
M  V30 10 N 39.058771 30.599981 61.373462 0 CHG=1
M  V30 11 C 35.988773 34.978440 62.101123 0
M  V30 12 C 39.372811 30.395994 56.504316 0
M  V30 13 C 39.873667 28.722188 58.270216 0
M  V30 14 C 39.591671 29.363881 60.760991 0 CFG=1
M  V30 15 C 39.168546 28.498797 54.367579 0
M  V30 16 Cl 38.794198 26.546784 56.124903 0
M  V30 17 O 36.667405 37.181793 61.267074 0
M  V30 18 C 39.722270 28.026823 55.730401 0 CFG=2
M  V30 19 C 40.544688 27.407989 58.630095 0
M  V30 20 C 41.798259 31.587652 63.180069 0
M  V30 21 C 41.464833 27.735150 63.672123 0
M  V30 22 C 39.464576 29.569340 59.247473 0
M  V30 23 C 38.443292 35.795015 62.084253 0
M  V30 24 C 42.144909 30.114230 63.443383 0 CFG=1
M  V30 25 C 39.643474 31.957213 61.228355 0 CFG=1
M  V30 26 C 36.968964 36.166399 62.205931 0 CFG=2
M  V30 27 C 42.448723 30.038383 64.962536 0
M  V30 28 C 41.724317 27.835277 65.175191 0
M  V30 29 C 36.856869 33.818601 60.014353 0
M  V30 30 S 38.863532 32.524102 62.653499 0 CHG=-1
M  V30 31 N 38.214929 33.918416 60.321238 0
M  V30 32 C 37.690516 31.376661 54.914192 0
M  V30 33 C 40.888407 28.837988 61.451318 0
M  V30 34 H 39.763800 31.789306 54.988157 0
M  V30 35 H 34.824193 34.154187 60.403475 0
M  V30 36 H 40.113530 29.356050 63.447257 0
M  V30 37 H 39.924437 35.057061 60.742704 0
M  V30 38 H 38.639404 35.914350 59.953635 0
M  V30 39 H 38.619843 32.270766 59.232268 0
M  V30 40 H 39.993252 33.264439 59.467853 0
M  V30 41 H 39.184003 30.214070 53.043012 0
M  V30 42 H 40.667448 30.021434 53.923474 0
M  V30 43 H 39.060882 30.459716 62.373310 0
M  V30 44 H 36.267383 34.099289 62.653496 0
M  V30 45 H 35.067492 35.199922 62.653420 0
M  V30 46 H 39.327656 31.152452 57.260456 0
M  V30 47 H 38.827098 28.623789 60.994481 0
M  V30 48 H 38.078669 28.466811 54.389819 0
M  V30 49 H 39.467256 27.805376 53.580573 0
M  V30 50 H 36.671296 36.789864 60.406111 0
M  V30 51 H 40.764241 27.729856 55.620823 0
M  V30 52 H 40.819057 26.794165 57.776109 0
M  V30 53 H 41.484155 27.619361 59.137815 0
M  V30 54 H 39.896724 26.821145 59.279278 0
M  V30 55 H 42.667474 32.184535 63.448738 0
M  V30 56 H 41.031501 31.926791 63.870118 0
M  V30 57 H 42.364890 27.338247 63.200583 0
M  V30 58 H 40.667455 27.022812 63.538173 0
M  V30 59 H 38.986715 30.461780 58.969382 0
M  V30 60 H 39.032813 36.703894 62.215644 0
M  V30 61 H 38.748107 35.169641 62.914715 0
M  V30 62 H 43.080125 29.867876 62.945934 0
M  V30 63 H 36.837607 36.612830 63.191946 0
M  V30 64 H 43.286545 30.691657 65.209471 0
M  V30 65 H 41.599913 30.388064 65.553567 0
M  V30 66 H 42.008191 26.860249 65.570817 0
M  V30 67 H 40.834280 28.157626 65.717978 0
M  V30 68 H 36.666714 33.266551 59.103376 0
M  V30 69 H 37.467811 32.178595 55.619357 0
M  V30 70 H 37.529284 31.777267 53.914753 0
M  V30 71 H 36.972085 30.573605 55.081580 0
M  V30 72 H 41.752792 29.159210 60.902229 0
M  V30 73 H 40.883097 27.761361 61.286882 0
M  V30 74 H 38.092353 30.700468 61.104641 0
M  V30 END ATOM
M  V30 BEGIN BOND
M  V30 1 1 9 3
M  V30 2 1 11 5
M  V30 3 2 12 1
M  V30 4 1 12 3
M  V30 5 1 13 1
M  V30 6 1 14 10
M  V30 7 1 15 9
M  V30 8 1 18 1
M  V30 9 1 18 15
M  V30 10 1 18 16
M  V30 11 1 19 13
M  V30 12 1 20 2
M  V30 13 1 21 6
M  V30 14 2 22 13
M  V30 15 1 22 14
M  V30 16 1 23 7
M  V30 17 1 24 6
M  V30 18 1 24 20
M  V30 19 1 25 2
M  V30 20 1 25 8
M  V30 21 1 25 10
M  V30 22 1 26 11
M  V30 23 1 26 17
M  V30 24 1 26 23
M  V30 25 1 27 4
M  V30 26 1 27 24
M  V30 27 1 28 4
M  V30 28 1 28 21
M  V30 29 2 29 5
M  V30 30 1 25 30 CFG=1
M  V30 31 1 31 7
M  V30 32 1 31 8
M  V30 33 1 31 29
M  V30 34 1 32 3
M  V30 35 1 33 6
M  V30 36 1 33 14
M  V30 37 1 3 34 CFG=3
M  V30 38 1 35 5
M  V30 39 1 6 36 CFG=1
M  V30 40 1 37 7
M  V30 41 1 38 7
M  V30 42 1 39 8
M  V30 43 1 40 8
M  V30 44 1 41 9
M  V30 45 1 42 9
M  V30 46 1 43 10
M  V30 47 1 44 11
M  V30 48 1 45 11
M  V30 49 1 46 12
M  V30 50 1 14 47 CFG=1
M  V30 51 1 48 15
M  V30 52 1 49 15
M  V30 53 1 50 17
M  V30 54 1 18 51 CFG=3
M  V30 55 1 52 19
M  V30 56 1 53 19
M  V30 57 1 54 19
M  V30 58 1 55 20
M  V30 59 1 56 20
M  V30 60 1 57 21
M  V30 61 1 58 21
M  V30 62 1 59 22
M  V30 63 1 60 23
M  V30 64 1 61 23
M  V30 65 1 24 62 CFG=3
M  V30 66 1 26 63 CFG=1
M  V30 67 1 64 27
M  V30 68 1 65 27
M  V30 69 1 66 28
M  V30 70 1 67 28
M  V30 71 1 68 29
M  V30 72 1 69 32
M  V30 73 1 70 32
M  V30 74 1 71 32
M  V30 75 1 72 33
M  V30 76 1 73 33
M  V30 77 1 74 10
M  V30 END BOND
M  V30 END CTAB
M  END
>  <i_epik_Tot_Q>  (1) 
0

>  <i_epik_Tot_abs_Q>  (1) 
2

>  <i_i_glide_confnum>  (1) 
19

>  <i_i_glide_lignum>  (1) 
257

>  <i_i_glide_posenum>  (1) 
379

>  <i_i_glide_rotatable_bonds>  (1) 
5

>  <i_lp_mmshare_version>  (1) 
72125

>  <i_m_source_file_index>  (1) 
94

>  <i_f3d_flags>  (1) 
0

>  <num_sample>  (1) 
100

>  <b_lp_Chiralities_Consistent>  (1) 
1

>  <r_epik_Charging_Adjusted_Penalty>  (1) 
0.80501984278308969

>  <r_epik_Ionization_Penalty>  (1) 
0.072421558423421364

>  <r_epik_Ionization_Penalty_Charging>  (1) 
0.072408791886815996

>  <r_epik_Ionization_Penalty_Neutral>  (1) 
1.2766536605372598e-05

>  <r_epik_State_Penalty>  (1) 
0.73261105089627365

>  <r_glide_ring_energy>  (1) 
1.2305908303779995

>  <r_i_docking_score>  (1) 
-1.0186805873355174

>  <r_i_glide_ecoul>  (1) 
-1.2396189712944712

>  <r_i_glide_eff_state_penalty>  (1) 
0.73261105089627365

>  <r_i_glide_einternal>  (1) 
25.370735806806149

>  <r_i_glide_emodel>  (1) 
6.3632531573628004

>  <r_i_glide_emodel_strain>  (1) 
15.30003826519615

>  <r_i_glide_energy>  (1) 
-19.392897941028558

>  <r_i_glide_erotb>  (1) 
0.31140238833871409

>  <r_i_glide_esite>  (1) 
0

>  <r_i_glide_evdw>  (1) 
-18.153278969734085

>  <r_i_glide_gscore>  (1) 
-1.7512916382317911

>  <r_i_glide_gscore_strain>  (1) 
2.8250095662990375

>  <r_i_glide_hbond>  (1) 
0

>  <r_i_glide_ligand_efficiency>  (1) 
-0.03086910870713689

>  <r_i_glide_ligand_efficiency_ln>  (1) 
-0.2265492881776201

>  <r_i_glide_ligand_efficiency_sa>  (1) 
-0.099013725914514669

>  <r_i_glide_lipo>  (1) 
-3.101235490594402

>  <r_i_glide_metal>  (1) 
-0

>  <r_i_glide_rewards>  (1) 
-0.69286130809426583

>  <r_lp_Energy>  (1) 
37.065154999999997

>  <s_epik_Chemistry_Notes>  (1) 
This compound has an imine and may undergo hydrolysis.

>  <s_epik_cmdline>  (1) 
J2VwaWtfcHl0aG9uJywgJy1waHQnLCAnMS4wJywgJy1waCcsICc3LjQnLCAnLXRuJywgJzgnLCAnLW1hJywgJzUwMCcsICctaW1hZScsICc8aW5maWxlLm1hZT4nLCAnLW9tYWUnLCAnPG91dGZpbGUubWFlPic=

>  <s_epik_input>  (1) 
Q2xbQ0BIXTFbQ0gyXVtDSDJdW0NAQEhdKFtDSDNdKVtDSF09QzEvQyhbQ0gzXSk9W0NIXS9bQ0BASF0oW0NIMl0yKVtOSF1bQ0BAXShbU0hdKShTW0NIMl1bQ0BIXShbQ0BASF0yMylbQ0gyXU9bQ0gyXVtDSDJdMylbQ0gyXU4oW0NIMl1bQ0gyXTQpW0NIXT1bQ0hdW0NIMl1bQ0BASF00W09IXQ==

>  <s_glide_docking_method>  (1) 
confgen

>  <s_i_glide_gridfile>  (1) 
gpcr_5ht2c_6bqh_protein_autoprepared_prepared

>  <s_lp_Force_Field>  (1) 
S-OPLS

>  <s_lp_Variant>  (1) 
DiffSBDD_93_num_sample_100-9

>  <s_m_source_file>  (1) 
generated__ligand_DiffSBDD_2026-05-06_prepared.sdf

>  <GenAI_Model>  (1) 
DiffSBDD

>  <Protein>  (1) 
GPCR_5HT2C

$$$$
DiffSBDD_93_num_sample_100
     RDKit          3D

  0  0  0  0  0  0  0  0  0  0999 V3000
M  V30 BEGIN CTAB
M  V30 COUNTS 74 77 0 0 1
M  V30 BEGIN ATOM
M  V30 1 C 52.826759 26.451433 51.605302 0
M  V30 2 S 51.540540 19.586651 52.923066 0
M  V30 3 C 53.213392 28.705397 50.476123 0 CFG=2
M  V30 4 O 54.170715 20.921148 57.307754 0
M  V30 5 C 50.520385 18.044550 47.978170 0
M  V30 6 C 52.970863 22.032712 54.913775 0 CFG=1
M  V30 7 C 49.251815 19.001139 50.533001 0
M  V30 8 C 50.924668 20.827887 50.482465 0
M  V30 9 C 54.632919 28.663108 51.049324 0
M  V30 10 N 52.667407 21.836326 51.952180 0 CHG=1
M  V30 11 C 49.442547 17.081072 48.436681 0
M  V30 12 C 52.477551 27.387496 50.684021 0
M  V30 13 C 52.048811 25.187649 51.697666 0
M  V30 14 C 51.833109 22.826819 52.672506 0 CFG=2
M  V30 15 C 54.570052 28.146217 52.478324 0
M  V30 16 Cl 53.668500 26.437531 54.282690 0
M  V30 17 O 47.467372 18.021432 47.453549 0
M  V30 18 C 54.025618 26.710415 52.547401 0 CFG=1
M  V30 19 C 50.735589 25.024838 50.919658 0
M  V30 20 C 53.038473 19.582414 53.962500 0
M  V30 21 C 53.133888 22.800604 56.240517 0
M  V30 22 C 52.514410 24.175105 52.477639 0
M  V30 23 C 48.019897 18.902631 49.624170 0
M  V30 24 C 52.975346 20.501428 55.206444 0 CFG=1
M  V30 25 C 52.090109 20.562389 51.482164 0 CFG=1
M  V30 26 C 48.049763 17.680896 48.691662 0 CFG=2
M  V30 27 C 54.172669 20.145111 56.118949 0
M  V30 28 C 54.337851 22.304971 57.046977 0
M  V30 29 C 50.900787 19.156895 48.638713 0
M  V30 30 S 53.498754 19.854654 50.597164 0 CHG=-1
M  V30 31 N 50.378039 19.631550 49.844582 0
M  V30 32 C 53.232576 29.101290 48.992327 0
M  V30 33 C 51.689030 22.525775 54.183724 0
M  V30 34 H 52.653466 29.465076 51.019818 0
M  V30 35 H 51.019893 17.791203 47.054653 0
M  V30 36 H 53.851401 22.271270 54.316096 0
M  V30 37 H 49.542339 18.032333 50.939415 0
M  V30 38 H 48.976296 19.605658 51.397781 0
M  V30 39 H 51.268040 21.504338 49.697961 0
M  V30 40 H 50.103273 21.349573 50.969739 0
M  V30 41 H 55.274456 28.018291 50.446577 0
M  V30 42 H 55.076252 29.659814 51.028526 0
M  V30 43 H 53.472539 21.609188 52.514250 0
M  V30 44 H 49.807758 16.544705 49.312297 0
M  V30 45 H 49.350190 16.333295 47.653124 0
M  V30 46 H 51.645729 27.211481 50.025411 0
M  V30 47 H 50.835236 22.819394 52.257937 0
M  V30 48 H 55.544088 28.197112 52.955980 0
M  V30 49 H 53.925023 28.811949 53.052573 0
M  V30 50 H 48.018819 18.680117 47.054705 0
M  V30 51 H 54.823000 26.020282 52.268777 0
M  V30 52 H 50.225989 25.967621 50.735788 0
M  V30 53 H 50.912021 24.530186 49.964189 0
M  V30 54 H 49.981550 24.467087 51.466101 0
M  V30 55 H 53.158693 18.550512 54.293418 0
M  V30 56 H 53.926422 19.797901 53.369651 0
M  V30 57 H 52.241313 22.677786 56.852343 0
M  V30 58 H 53.240952 23.868630 56.048434 0
M  V30 59 H 53.440019 24.299439 53.009583 0
M  V30 60 H 47.927455 19.828956 49.054333 0
M  V30 61 H 47.118962 18.846302 50.235805 0
M  V30 62 H 52.067677 20.256569 55.760305 0
M  V30 63 H 47.432633 16.895704 49.130488 0
M  V30 64 H 54.127837 19.094801 56.408362 0
M  V30 65 H 55.119507 20.281746 55.592635 0
M  V30 66 H 54.398455 22.837222 57.996334 0
M  V30 67 H 55.274175 22.486743 56.516936 0
M  V30 68 H 51.689990 19.782866 48.247299 0
M  V30 69 H 52.222235 29.187982 48.591940 0
M  V30 70 H 53.719919 30.066807 48.852237 0
M  V30 71 H 53.767647 28.366607 48.389811 0
M  V30 72 H 50.873328 21.824474 54.355532 0
M  V30 73 H 51.323794 23.440233 54.653345 0
M  V30 74 H 53.005894 22.280416 51.110905 0
M  V30 END ATOM
M  V30 BEGIN BOND
M  V30 1 1 9 3
M  V30 2 1 11 5
M  V30 3 2 12 1
M  V30 4 1 12 3
M  V30 5 1 13 1
M  V30 6 1 14 10
M  V30 7 1 15 9
M  V30 8 1 18 1
M  V30 9 1 18 15
M  V30 10 1 18 16
M  V30 11 1 19 13
M  V30 12 1 20 2
M  V30 13 1 21 6
M  V30 14 2 22 13
M  V30 15 1 22 14
M  V30 16 1 23 7
M  V30 17 1 24 6
M  V30 18 1 24 20
M  V30 19 1 25 2
M  V30 20 1 25 8
M  V30 21 1 25 10
M  V30 22 1 26 11
M  V30 23 1 26 17
M  V30 24 1 26 23
M  V30 25 1 27 4
M  V30 26 1 27 24
M  V30 27 1 28 4
M  V30 28 1 28 21
M  V30 29 2 29 5
M  V30 30 1 25 30 CFG=3
M  V30 31 1 31 7
M  V30 32 1 31 8
M  V30 33 1 31 29
M  V30 34 1 32 3
M  V30 35 1 33 6
M  V30 36 1 33 14
M  V30 37 1 3 34 CFG=1
M  V30 38 1 35 5
M  V30 39 1 6 36 CFG=3
M  V30 40 1 37 7
M  V30 41 1 38 7
M  V30 42 1 39 8
M  V30 43 1 40 8
M  V30 44 1 41 9
M  V30 45 1 42 9
M  V30 46 1 43 10
M  V30 47 1 44 11
M  V30 48 1 45 11
M  V30 49 1 46 12
M  V30 50 1 14 47 CFG=3
M  V30 51 1 48 15
M  V30 52 1 49 15
M  V30 53 1 50 17
M  V30 54 1 18 51 CFG=3
M  V30 55 1 52 19
M  V30 56 1 53 19
M  V30 57 1 54 19
M  V30 58 1 55 20
M  V30 59 1 56 20
M  V30 60 1 57 21
M  V30 61 1 58 21
M  V30 62 1 59 22
M  V30 63 1 60 23
M  V30 64 1 61 23
M  V30 65 1 24 62 CFG=1
M  V30 66 1 26 63 CFG=1
M  V30 67 1 64 27
M  V30 68 1 65 27
M  V30 69 1 66 28
M  V30 70 1 67 28
M  V30 71 1 68 29
M  V30 72 1 69 32
M  V30 73 1 70 32
M  V30 74 1 71 32
M  V30 75 1 72 33
M  V30 76 1 73 33
M  V30 77 1 74 10
M  V30 END BOND
M  V30 END CTAB
M  END
>  <i_epik_Tot_Q>  (1) 
0

>  <i_epik_Tot_abs_Q>  (1) 
2

>  <i_i_glide_confnum>  (1) 
57

>  <i_i_glide_lignum>  (1) 
263

>  <i_i_glide_posenum>  (1) 
56

>  <i_i_glide_rotatable_bonds>  (1) 
5

>  <i_lp_mmshare_version>  (1) 
72125

>  <i_m_source_file_index>  (1) 
94

>  <i_f3d_flags>  (1) 
0

>  <num_sample>  (1) 
100

>  <b_lp_Chiralities_Consistent>  (1) 
1

>  <r_epik_Charging_Adjusted_Penalty>  (1) 
0.80501984278308969

>  <r_epik_Ionization_Penalty>  (1) 
0.072421558423421364

>  <r_epik_Ionization_Penalty_Charging>  (1) 
0.072408791886815996

>  <r_epik_Ionization_Penalty_Neutral>  (1) 
1.2766536605372598e-05

>  <r_epik_State_Penalty>  (1) 
0.73261105089627365

>  <r_glide_ring_energy>  (1) 
0

>  <r_i_docking_score>  (1) 
-0.9514989415267906

>  <r_i_glide_ecoul>  (1) 
-0.65362290725273586

>  <r_i_glide_eff_state_penalty>  (1) 
0.73261105089627365

>  <r_i_glide_einternal>  (1) 
43.266612158368645

>  <r_i_glide_emodel>  (1) 
0.90423826263094753

>  <r_i_glide_emodel_strain>  (1) 
0

>  <r_i_glide_energy>  (1) 
-19.167264554127236

>  <r_i_glide_erotb>  (1) 
0.31140238833871409

>  <r_i_glide_esite>  (1) 
0

>  <r_i_glide_evdw>  (1) 
-18.5136416468745

>  <r_i_glide_gscore>  (1) 
-1.6841099924230643

>  <r_i_glide_gscore_strain>  (1) 
0

>  <r_i_glide_hbond>  (1) 
-0.028664885389618977

>  <r_i_glide_ligand_efficiency>  (1) 
-0.028833301258387595

>  <r_i_glide_ligand_efficiency_ln>  (1) 
-0.21160843799770485

>  <r_i_glide_ligand_efficiency_sa>  (1) 
-0.09248380363339008

>  <r_i_glide_lipo>  (1) 
-0.92915106761206279

>  <r_i_glide_metal>  (1) 
-0

>  <r_i_glide_rewards>  (1) 
-0.013970909328461035

>  <r_lp_Energy>  (1) 
38.618955

>  <s_epik_Chemistry_Notes>  (1) 
This compound has an imine and may undergo hydrolysis.

>  <s_epik_cmdline>  (1) 
J2VwaWtfcHl0aG9uJywgJy1waHQnLCAnMS4wJywgJy1waCcsICc3LjQnLCAnLXRuJywgJzgnLCAnLW1hJywgJzUwMCcsICctaW1hZScsICc8aW5maWxlLm1hZT4nLCAnLW9tYWUnLCAnPG91dGZpbGUubWFlPic=

>  <s_epik_input>  (1) 
Q2xbQ0BIXTFbQ0gyXVtDSDJdW0NAQEhdKFtDSDNdKVtDSF09QzEvQyhbQ0gzXSk9W0NIXS9bQ0BASF0oW0NIMl0yKVtOSF1bQ0BAXShbU0hdKShTW0NIMl1bQ0BIXShbQ0BASF0yMylbQ0gyXU9bQ0gyXVtDSDJdMylbQ0gyXU4oW0NIMl1bQ0gyXTQpW0NIXT1bQ0hdW0NIMl1bQ0BASF00W09IXQ==

>  <s_glide_docking_method>  (1) 
confgen

>  <s_i_glide_gridfile>  (1) 
gpcr_5ht2c_6bqh_protein_autoprepared_prepared

>  <s_lp_Force_Field>  (1) 
S-OPLS

>  <s_lp_Variant>  (1) 
DiffSBDD_93_num_sample_100-15

>  <s_m_source_file>  (1) 
generated__ligand_DiffSBDD_2026-05-06_prepared.sdf

>  <GenAI_Model>  (1) 
DiffSBDD

>  <Protein>  (1) 
GPCR_5HT2C

$$$$
DiffSBDD_12_num_sample_100
     RDKit          3D

  0  0  0  0  0  0  0  0  0  0999 V3000
M  V30 BEGIN CTAB
M  V30 COUNTS 31 30 0 0 1
M  V30 BEGIN ATOM
M  V30 1 C 39.388328 28.843851 50.881070 0
M  V30 2 S 38.346674 26.510145 54.959156 0
M  V30 3 C 40.409934 26.341771 56.766314 0
M  V30 4 C 41.211535 30.421429 50.079151 0
M  V30 5 C 38.821135 27.946543 51.991103 0
M  V30 6 C 39.343361 27.311529 56.247150 0 CFG=2
M  V30 7 N 38.437904 27.725679 57.313900 0
M  V30 8 C 38.417585 28.730455 53.252159 0
M  V30 9 C 37.516073 27.940556 54.208137 0
M  V30 10 C 38.770175 28.649274 58.228388 0
M  V30 11 C 40.716074 29.524985 51.220186 0
M  V30 12 O 39.858786 29.221433 58.257248 0
M  V30 13 H 39.503898 28.255732 49.970517 0
M  V30 14 H 38.667406 29.621425 50.653483 0
M  V30 15 H 41.042891 26.806606 57.522875 0
M  V30 16 H 39.962739 25.449552 57.205725 0
M  V30 17 H 41.060930 26.021538 55.951968 0
M  V30 18 H 42.199822 30.821425 50.302893 0
M  V30 19 H 41.279177 29.878934 49.136794 0
M  V30 20 H 40.536141 31.262129 49.922091 0
M  V30 21 H 39.535930 27.162470 52.243404 0
M  V30 22 H 37.941826 27.436869 51.594354 0
M  V30 23 H 39.837865 28.181334 55.812821 0
M  V30 24 H 37.525123 27.297612 57.352758 0
M  V30 25 H 37.867759 29.621419 52.955974 0
M  V30 26 H 39.303737 29.089412 53.774151 0
M  V30 27 H 36.640467 27.584652 53.666762 0
M  V30 28 H 37.151819 28.602656 54.993106 0
M  V30 29 H 37.947038 28.821286 58.939007 0
M  V30 30 H 40.606341 30.135802 52.115993 0
M  V30 31 H 41.466905 28.770812 51.453500 0
M  V30 END ATOM
M  V30 BEGIN BOND
M  V30 1 1 5 1
M  V30 2 1 6 2
M  V30 3 1 6 3
M  V30 4 1 7 6
M  V30 5 1 8 5
M  V30 6 1 9 2
M  V30 7 1 9 8
M  V30 8 1 10 7
M  V30 9 1 11 1
M  V30 10 1 11 4
M  V30 11 2 12 10
M  V30 12 1 13 1
M  V30 13 1 14 1
M  V30 14 1 15 3
M  V30 15 1 16 3
M  V30 16 1 17 3
M  V30 17 1 18 4
M  V30 18 1 19 4
M  V30 19 1 20 4
M  V30 20 1 21 5
M  V30 21 1 22 5
M  V30 22 1 6 23 CFG=3
M  V30 23 1 24 7
M  V30 24 1 25 8
M  V30 25 1 26 8
M  V30 26 1 27 9
M  V30 27 1 28 9
M  V30 28 1 29 10
M  V30 29 1 30 11
M  V30 30 1 31 11
M  V30 END BOND
M  V30 END CTAB
M  END
>  <i_epik_Tot_Q>  (1) 
0

>  <i_epik_Tot_abs_Q>  (1) 
0

>  <i_i_glide_confnum>  (1) 
152

>  <i_i_glide_lignum>  (1) 
30

>  <i_i_glide_posenum>  (1) 
376

>  <i_i_glide_rotatable_bonds>  (1) 
8

>  <i_lp_mmshare_version>  (1) 
72125

>  <i_m_source_file_index>  (1) 
13

>  <i_f3d_flags>  (1) 
0

>  <num_sample>  (1) 
100

>  <b_lp_Chiralities_Consistent>  (1) 
1

>  <r_epik_Charging_Adjusted_Penalty>  (1) 
0

>  <r_epik_Ionization_Penalty>  (1) 
1.0816103535090204e-07

>  <r_epik_Ionization_Penalty_Charging>  (1) 
0

>  <r_epik_Ionization_Penalty_Neutral>  (1) 
1.0816103535090204e-07

>  <r_epik_State_Penalty>  (1) 
-0

>  <r_glide_ring_energy>  (1) 
0

>  <r_i_docking_score>  (1) 
-0.92478630177581078

>  <r_i_glide_ecoul>  (1) 
-0.16748862348023058

>  <r_i_glide_eff_state_penalty>  (1) 
-0

>  <r_i_glide_einternal>  (1) 
1.8342717060815763

>  <r_i_glide_emodel>  (1) 
-25.516036972867614

>  <r_i_glide_emodel_strain>  (1) 
0

>  <r_i_glide_energy>  (1) 
-24.855390243450596

>  <r_i_glide_erotb>  (1) 
5.3674158400269425

>  <r_i_glide_esite>  (1) 
0

>  <r_i_glide_evdw>  (1) 
-24.687901619970365

>  <r_i_glide_gscore>  (1) 
-0.92478630177581078

>  <r_i_glide_gscore_strain>  (1) 
0

>  <r_i_glide_hbond>  (1) 
0

>  <r_i_glide_ligand_efficiency>  (1) 
-0.077065525147984232

>  <r_i_glide_ligand_efficiency_ln>  (1) 
-0.26536903128583628

>  <r_i_glide_ligand_efficiency_sa>  (1) 
-0.17643600849349905

>  <r_i_glide_lipo>  (1) 
-2.4385528264643876

>  <r_i_glide_metal>  (1) 
-0

>  <r_i_glide_rewards>  (1) 
-2.5941309408178128

>  <r_lp_Energy>  (1) 
-1.4832109999999998

>  <r_lp_tautomer_probability>  (1) 
1

>  <s_epik_Chemistry_Notes>  (1) 
This compound contains an acetal/aminal-like group ( X-CH(R)-Y where X, Y are N, S, or O) that may be acid/base labile, releasing an aldehyde.

>  <s_epik_cmdline>  (1) 
J2VwaWtfcHl0aG9uJywgJy1waHQnLCAnMS4wJywgJy1waCcsICc3LjQnLCAnLXRuJywgJzgnLCAnLW1hJywgJzUwMCcsICctaW1hZScsICc8aW5maWxlLm1hZT4nLCAnLW9tYWUnLCAnPG91dGZpbGUubWFlPic=

>  <s_epik_input>  (1) 
W0NIM11bQ0gyXVtDSDJdW0NIMl1bQ0gyXVtDSDJdU1tDQEhdKFtDSDNdKVtOSF1bQ0hdPU8=

>  <s_glide_docking_method>  (1) 
confgen

>  <s_i_glide_gridfile>  (1) 
gpcr_5ht2c_6bqh_protein_autoprepared_prepared

>  <s_lp_Force_Field>  (1) 
S-OPLS

>  <s_lp_Variant>  (1) 
DiffSBDD_12_num_sample_100-1

>  <s_m_source_file>  (1) 
generated__ligand_DiffSBDD_2026-05-06_prepared.sdf

>  <GenAI_Model>  (1) 
DiffSBDD

>  <Protein>  (1) 
GPCR_5HT2C

$$$$
DiffSBDD_9_num_sample_100
     RDKit          3D

  0  0  0  0  0  0  0  0  0  0999 V3000
M  V30 BEGIN CTAB
M  V30 COUNTS 13 12 0 0 1
M  V30 BEGIN ATOM
M  V30 1 C 40.667404 29.227984 51.053507 0
M  V30 2 C 39.256267 28.689540 51.148144 0
M  V30 3 O 37.473919 28.021437 52.653501 0
M  V30 4 C 40.982262 30.414876 50.509586 0
M  V30 5 C 38.832970 28.406650 52.597040 0
M  V30 6 H 41.450713 28.601906 51.453501 0
M  V30 7 H 39.182873 27.783753 50.544959 0
M  V30 8 H 38.593780 29.421934 50.697733 0
M  V30 9 H 37.332162 27.272403 52.088381 0
M  V30 10 H 42.007260 30.752794 50.466133 0
M  V30 11 H 40.219035 31.062251 50.101723 0
M  V30 12 H 38.964812 29.295739 53.215334 0
M  V30 13 H 39.448755 27.617546 53.029947 0
M  V30 END ATOM
M  V30 BEGIN BOND
M  V30 1 1 2 1
M  V30 2 2 4 1
M  V30 3 1 5 2
M  V30 4 1 5 3
M  V30 5 1 6 1
M  V30 6 1 7 2
M  V30 7 1 8 2
M  V30 8 1 9 3
M  V30 9 1 10 4
M  V30 10 1 11 4
M  V30 11 1 12 5
M  V30 12 1 13 5
M  V30 END BOND
M  V30 END CTAB
M  END
>  <i_epik_Tot_Q>  (1) 
0

>  <i_epik_Tot_abs_Q>  (1) 
0

>  <i_i_glide_confnum>  (1) 
3

>  <i_i_glide_lignum>  (1) 
28

>  <i_i_glide_posenum>  (1) 
243

>  <i_i_glide_rotatable_bonds>  (1) 
3

>  <i_lp_mmshare_version>  (1) 
72125

>  <i_m_source_file_index>  (1) 
10

>  <i_f3d_flags>  (1) 
0

>  <num_sample>  (1) 
100

>  <b_lp_Chiralities_Consistent>  (1) 
1

>  <r_epik_Charging_Adjusted_Penalty>  (1) 
0

>  <r_epik_Ionization_Penalty>  (1) 
1.9109875336178571e-07

>  <r_epik_Ionization_Penalty_Charging>  (1) 
0

>  <r_epik_Ionization_Penalty_Neutral>  (1) 
1.9109875336178571e-07

>  <r_epik_State_Penalty>  (1) 
-0

>  <r_glide_ring_energy>  (1) 
0

>  <r_i_docking_score>  (1) 
-0.91471840290266349

>  <r_i_glide_ecoul>  (1) 
-2.5028219110640872

>  <r_i_glide_eff_state_penalty>  (1) 
-0

>  <r_i_glide_einternal>  (1) 
0.92668819830397609

>  <r_i_glide_emodel>  (1) 
-14.25794286344815

>  <r_i_glide_emodel_strain>  (1) 
0

>  <r_i_glide_energy>  (1) 
-13.965335587026955

>  <r_i_glide_erotb>  (1) 
3.9483316319645314

>  <r_i_glide_esite>  (1) 
0

>  <r_i_glide_evdw>  (1) 
-11.462513675962867

>  <r_i_glide_gscore>  (1) 
-0.91471840290266349

>  <r_i_glide_gscore_strain>  (1) 
0

>  <r_i_glide_hbond>  (1) 
-0.21753359886503199

>  <r_i_glide_ligand_efficiency>  (1) 
-0.1829436805805327

>  <r_i_glide_ligand_efficiency_ln>  (1) 
-0.35054231355495569

>  <r_i_glide_ligand_efficiency_sa>  (1) 
-0.31282929338921567

>  <r_i_glide_lipo>  (1) 
-1.2203373801443209

>  <r_i_glide_metal>  (1) 
-0

>  <r_i_glide_rewards>  (1) 
-2.4766300854000853

>  <r_lp_Energy>  (1) 
-1.2663519999999999

>  <r_lp_tautomer_probability>  (1) 
1

>  <s_epik_cmdline>  (1) 
J2VwaWtfcHl0aG9uJywgJy1waHQnLCAnMS4wJywgJy1waCcsICc3LjQnLCAnLXRuJywgJzgnLCAnLW1hJywgJzUwMCcsICctaW1hZScsICc8aW5maWxlLm1hZT4nLCAnLW9tYWUnLCAnPG91dGZpbGUubWFlPic=

>  <s_epik_input>  (1) 
W0NIMl09W0NIXVtDSDJdW0NIMl1bT0hd

>  <s_glide_docking_method>  (1) 
confgen

>  <s_i_glide_gridfile>  (1) 
gpcr_5ht2c_6bqh_protein_autoprepared_prepared

>  <s_lp_Force_Field>  (1) 
S-OPLS

>  <s_lp_Variant>  (1) 
DiffSBDD_9_num_sample_100-1

>  <s_m_source_file>  (1) 
generated__ligand_DiffSBDD_2026-05-06_prepared.sdf

>  <GenAI_Model>  (1) 
DiffSBDD

>  <Protein>  (1) 
GPCR_5HT2C

$$$$
DiffSBDD_90_num_sample_100
     RDKit          3D

  0  0  0  0  0  0  0  0  0  0999 V3000
M  V30 BEGIN CTAB
M  V30 COUNTS 85 88 0 0 1
M  V30 BEGIN ATOM
M  V30 1 C 47.071258 45.896262 48.771639 0
M  V30 2 O 53.786026 43.021745 45.053495 0
M  V30 3 F 49.299109 44.022389 57.059821 0
M  V30 4 C 51.394029 44.711811 50.482563 0 CFG=1
M  V30 5 C 51.238514 40.437076 44.144795 0 CFG=2
M  V30 6 C 50.020453 41.138793 46.194855 0 CFG=1
M  V30 7 C 53.578849 43.737287 48.538940 0
M  V30 8 C 48.329542 42.822488 47.059801 0
M  V30 9 C 52.291106 45.576040 49.532325 0
M  V30 10 N 52.914256 42.313299 44.142981 0
M  V30 11 C 48.040448 44.731773 55.221238 0
M  V30 12 C 51.614201 45.846864 48.165958 0
M  V30 13 C 49.954280 40.192390 44.984038 0
M  V30 14 C 50.986212 42.251724 45.768488 0
M  V30 15 O 53.294945 39.323035 43.628256 0
M  V30 16 N 47.588671 44.678025 49.441299 0 CFG=1 CHG=1
M  V30 17 C 48.638554 41.579263 46.652400 0
M  V30 18 F 50.019035 45.737697 55.966083 0
M  V30 19 C 50.402723 44.110979 53.541307 0 CFG=2
M  V30 20 N 47.673067 44.839338 50.902501 0
M  V30 21 C 48.130170 45.186040 53.753887 0
M  V30 22 C 46.850751 43.459357 49.031125 0
M  V30 23 O 53.550548 44.930790 49.315159 0
M  V30 24 C 52.680118 46.926183 50.165622 0
M  V30 25 C 47.162475 45.760620 47.242869 0
M  V30 26 C 50.324363 43.621875 55.000393 0
M  V30 27 C 46.936790 43.240692 47.506918 0 CFG=1
M  V30 28 C 52.039167 41.484356 44.964548 0 CFG=1
M  V30 29 C 52.187822 44.163269 51.698871 0
M  V30 30 O 51.467120 38.067797 43.853291 0 CHG=-1
M  V30 31 C 48.995309 44.451800 51.385990 0 CFG=1
M  V30 32 C 46.442096 44.491666 46.757135 0
M  V30 33 O 50.821294 41.017482 42.915547 0
M  V30 34 C 50.089407 45.439271 50.907928 0
M  V30 35 C 48.981938 44.196494 52.920794 0 CFG=1
M  V30 36 C 51.399123 43.291206 52.695956 0
M  V30 37 C 49.432149 44.546257 55.843835 0
M  V30 38 C 52.072620 39.163979 43.851132 0
M  V30 39 H 47.641106 46.768172 49.096194 0
M  V30 40 H 46.036650 46.066566 49.074287 0
M  V30 41 H 53.675377 43.918292 44.772783 0
M  V30 42 H 51.088516 43.843086 49.899541 0
M  V30 43 H 50.477163 40.590083 47.020158 0
M  V30 44 H 54.591201 43.333784 48.545807 0
M  V30 45 H 52.918069 42.963741 48.927005 0
M  V30 46 H 53.320112 43.932169 47.500032 0
M  V30 47 H 49.093983 43.584232 47.078745 0
M  V30 48 H 53.557537 41.723810 43.622958 0
M  V30 49 H 47.492000 43.790060 55.273869 0
M  V30 50 H 47.464723 45.452813 55.802769 0
M  V30 51 H 50.790060 46.554608 48.243920 0
M  V30 52 H 52.326031 46.277295 47.460704 0
M  V30 53 H 51.216638 44.936871 47.717950 0
M  V30 54 H 49.840196 39.164046 45.329871 0
M  V30 55 H 49.067278 40.414116 44.389087 0
M  V30 56 H 51.412895 42.777381 46.621319 0
M  V30 57 H 50.484123 42.980694 45.130623 0
M  V30 58 H 47.870007 40.822436 46.638513 0
M  V30 59 H 50.802429 45.123323 53.609353 0
M  V30 60 H 46.987308 44.155965 51.192331 0
M  V30 61 H 47.113933 45.262579 53.368305 0
M  V30 62 H 48.558427 46.187492 53.698377 0
M  V30 63 H 45.807423 43.547272 49.338734 0
M  V30 64 H 47.256552 42.589668 49.551373 0
M  V30 65 H 51.807000 47.543390 50.375282 0
M  V30 66 H 53.228209 46.798966 51.098300 0
M  V30 67 H 53.324900 47.496773 49.496378 0
M  V30 68 H 48.208788 45.738201 46.935872 0
M  V30 69 H 46.727023 46.639396 46.765549 0
M  V30 70 H 49.944423 42.602214 55.038955 0
M  V30 71 H 51.321611 43.590116 55.441426 0
M  V30 72 H 46.267372 42.421754 47.247305 0
M  V30 73 H 52.667870 40.942728 45.675217 0
M  V30 74 H 53.018207 43.559015 51.334026 0
M  V30 75 H 52.653821 44.981335 52.246539 0
M  V30 76 H 49.193754 43.483394 50.923922 0
M  V30 77 H 46.571042 44.368242 45.680672 0
M  V30 78 H 45.370029 44.607104 46.924200 0
M  V30 79 H 50.477868 41.875021 43.106351 0
M  V30 80 H 49.720196 46.017506 50.066252 0
M  V30 81 H 50.291046 46.191874 51.670330 0
M  V30 82 H 48.511542 43.221536 53.043892 0
M  V30 83 H 50.905804 42.459578 52.192047 0
M  V30 84 H 52.131635 42.830904 53.360161 0
M  V30 85 H 48.546379 44.559151 49.142548 0
M  V30 END ATOM
M  V30 BEGIN BOND
M  V30 1 1 9 4
M  V30 2 1 10 2
M  V30 3 1 12 9
M  V30 4 1 13 5
M  V30 5 1 13 6
M  V30 6 1 14 6
M  V30 7 1 16 1
M  V30 8 1 17 6
M  V30 9 2 17 8
M  V30 10 1 20 16
M  V30 11 1 21 11
M  V30 12 1 22 16
M  V30 13 1 23 7
M  V30 14 1 23 9
M  V30 15 1 24 9
M  V30 16 1 25 1
M  V30 17 1 26 19
M  V30 18 1 27 8
M  V30 19 1 27 22
M  V30 20 1 28 5
M  V30 21 1 28 10
M  V30 22 1 28 14
M  V30 23 1 29 4
M  V30 24 1 31 20
M  V30 25 1 32 25
M  V30 26 1 32 27
M  V30 27 1 5 33 CFG=3
M  V30 28 1 34 4
M  V30 29 1 34 31
M  V30 30 1 35 19
M  V30 31 1 35 21
M  V30 32 1 35 31
M  V30 33 1 36 19
M  V30 34 1 36 29
M  V30 35 1 37 3
M  V30 36 1 37 11
M  V30 37 1 37 18
M  V30 38 1 37 26
M  V30 39 1 38 5
M  V30 40 2 38 15
M  V30 41 1 38 30
M  V30 42 1 39 1
M  V30 43 1 40 1
M  V30 44 1 41 2
M  V30 45 1 4 42 CFG=3
M  V30 46 1 6 43 CFG=1
M  V30 47 1 44 7
M  V30 48 1 45 7
M  V30 49 1 46 7
M  V30 50 1 47 8
M  V30 51 1 48 10
M  V30 52 1 49 11
M  V30 53 1 50 11
M  V30 54 1 51 12
M  V30 55 1 52 12
M  V30 56 1 53 12
M  V30 57 1 54 13
M  V30 58 1 55 13
M  V30 59 1 56 14
M  V30 60 1 57 14
M  V30 61 1 58 17
M  V30 62 1 19 59 CFG=1
M  V30 63 1 60 20
M  V30 64 1 61 21
M  V30 65 1 62 21
M  V30 66 1 63 22
M  V30 67 1 64 22
M  V30 68 1 65 24
M  V30 69 1 66 24
M  V30 70 1 67 24
M  V30 71 1 68 25
M  V30 72 1 69 25
M  V30 73 1 70 26
M  V30 74 1 71 26
M  V30 75 1 27 72 CFG=1
M  V30 76 1 28 73 CFG=1
M  V30 77 1 74 29
M  V30 78 1 75 29
M  V30 79 1 31 76 CFG=3
M  V30 80 1 77 32
M  V30 81 1 78 32
M  V30 82 1 79 33
M  V30 83 1 80 34
M  V30 84 1 81 34
M  V30 85 1 35 82 CFG=3
M  V30 86 1 83 36
M  V30 87 1 84 36
M  V30 88 1 16 85 CFG=3
M  V30 END BOND
M  V30 END CTAB
M  END
>  <i_epik_Tot_Q>  (1) 
0

>  <i_epik_Tot_abs_Q>  (1) 
2

>  <i_i_glide_confnum>  (1) 
56

>  <i_i_glide_lignum>  (1) 
239

>  <i_i_glide_posenum>  (1) 
122

>  <i_i_glide_rotatable_bonds>  (1) 
10

>  <i_lp_mmshare_version>  (1) 
72125

>  <i_m_source_file_index>  (1) 
91

>  <i_f3d_flags>  (1) 
0

>  <num_sample>  (1) 
100

>  <b_lp_Chiralities_Consistent>  (1) 
1

>  <r_epik_Charging_Adjusted_Penalty>  (1) 
1.5083745474312953

>  <r_epik_Ionization_Penalty>  (1) 
0.65750586125956467

>  <r_epik_Ionization_Penalty_Charging>  (1) 
0.6544614066189578

>  <r_epik_Ionization_Penalty_Neutral>  (1) 
0.0030444546406068235

>  <r_epik_State_Penalty>  (1) 
0.8539131408123376

>  <r_glide_ring_energy>  (1) 
0.52270073413302542

>  <r_i_docking_score>  (1) 
-0.90216492463689646

>  <r_i_glide_ecoul>  (1) 
-0.28966951571574501

>  <r_i_glide_eff_state_penalty>  (1) 
0.8539131408123376

>  <r_i_glide_einternal>  (1) 
2.450285717423041

>  <r_i_glide_emodel>  (1) 
-14.198207489600179

>  <r_i_glide_emodel_strain>  (1) 
0.14586904371974185

>  <r_i_glide_energy>  (1) 
-14.280497592396591

>  <r_i_glide_erotb>  (1) 
0.42002339013477186

>  <r_i_glide_esite>  (1) 
0

>  <r_i_glide_evdw>  (1) 
-13.990828076680845

>  <r_i_glide_gscore>  (1) 
-1.7560780654492341

>  <r_i_glide_gscore_strain>  (1) 
0

>  <r_i_glide_hbond>  (1) 
0

>  <r_i_glide_ligand_efficiency>  (1) 
-0.023741182227286748

>  <r_i_glide_ligand_efficiency_ln>  (1) 
-0.19453329675499195

>  <r_i_glide_ligand_efficiency_sa>  (1) 
-0.079817270776470703

>  <r_i_glide_lipo>  (1) 
-1.2292661910198883

>  <r_i_glide_metal>  (1) 
-0

>  <r_i_glide_rewards>  (1) 
-0.20384343337271352

>  <r_lp_Energy>  (1) 
48.876987999999997

>  <s_epik_Chemistry_Notes>  (1) 
This compound has a N-S or N-O group and may undergo hydrolysis at high or low pH.

>  <s_epik_cmdline>  (1) 
J2VwaWtfcHl0aG9uJywgJy1waHQnLCAnMS4wJywgJy1waCcsICc3LjQnLCAnLXRuJywgJzgnLCAnLW1hJywgJzUwMCcsICctaW1hZScsICc8aW5maWxlLm1hZT4nLCAnLW9tYWUnLCAnPG91dGZpbGUubWFlPic=

>  <s_epik_input>  (1) 
RkMoRikoW0NIMl0xKVtDSDJdW0NIMl1bQ0BIXShbQ0BASF0xMilbQ0BIXShbQ0gyXVtDQEhdKFtDSDJdW0NIMl0yKUMoW0NIM10pKFtDSDNdKU9bQ0gzXSlbTkhdTjNbQ0gyXVtDSDJdW0NIMl1bQ0BIXShbQ0gyXTMpL1tDSF09W0NIXS9bQ0BASF0oW0NIMl1bQ0BdNChbT0hdKUMoPU8pW09IXSlbQ0gyXVtDQEBIXTRbTkhdW09IXQ==

>  <s_glide_docking_method>  (1) 
confgen

>  <s_i_glide_gridfile>  (1) 
gpcr_5ht2c_6bqh_protein_autoprepared_prepared

>  <s_lp_Force_Field>  (1) 
S-OPLS

>  <s_lp_Variant>  (1) 
DiffSBDD_90_num_sample_100-11

>  <s_m_source_file>  (1) 
generated__ligand_DiffSBDD_2026-05-06_prepared.sdf

>  <GenAI_Model>  (1) 
DiffSBDD

>  <Protein>  (1) 
GPCR_5HT2C

$$$$
DiffSBDD_93_num_sample_100
     RDKit          3D

  0  0  0  0  0  0  0  0  0  0999 V3000
M  V30 BEGIN CTAB
M  V30 COUNTS 74 77 0 0 1
M  V30 BEGIN ATOM
M  V30 1 C 50.416646 19.186804 49.123526 0
M  V30 2 S 53.178856 23.673113 53.677694 0
M  V30 3 C 48.737755 17.360068 48.496538 0 CFG=2
M  V30 4 O 55.712481 19.264741 53.826198 0
M  V30 5 C 53.814789 27.697810 51.761184 0
M  V30 6 C 53.062739 19.855634 53.064793 0 CFG=1
M  V30 7 C 53.127863 25.325439 50.043064 0
M  V30 8 C 51.438846 24.768765 51.768604 0
M  V30 9 C 47.731787 18.046991 49.413797 0
M  V30 10 N 52.386880 22.518083 51.428745 0
M  V30 11 C 54.723065 27.629351 50.545736 0
M  V30 12 C 50.124812 17.991493 48.544329 0
M  V30 13 C 51.848704 19.669658 49.053391 0
M  V30 14 C 51.728834 21.251649 51.114496 0 CFG=1
M  V30 15 C 47.863193 19.554959 49.271859 0
M  V30 16 Cl 49.027306 20.021431 51.453504 0
M  V30 17 O 53.426742 28.822887 48.879094 0
M  V30 18 C 49.261459 20.041865 49.715252 0 CFG=1
M  V30 19 C 52.753641 19.103986 47.965933 0
M  V30 20 C 53.227405 22.041550 54.492791 0
M  V30 21 C 53.912959 18.833742 52.301829 0
M  V30 22 C 52.393159 20.591918 49.917086 0
M  V30 23 C 52.964322 26.466234 49.030406 0
M  V30 24 C 53.961569 20.956155 53.669720 0 CFG=1
M  V30 25 C 51.860589 23.437160 52.456189 0 CFG=1
M  V30 26 C 54.019724 27.574930 49.176798 0 CFG=2
M  V30 27 C 54.974231 20.227256 54.570169 0
M  V30 28 C 54.919290 18.222449 53.276102 0
M  V30 29 C 52.858666 26.794917 52.069200 0
M  V30 30 S 50.267408 22.941662 53.188336 0
M  V30 31 N 52.518006 25.655128 51.331658 0
M  V30 32 C 48.204107 17.203746 47.064366 0
M  V30 33 C 51.780630 20.247140 52.323927 0
M  V30 34 H 48.875498 16.357683 48.892949 0
M  V30 35 H 53.972377 28.537432 52.422189 0
M  V30 36 H 52.671163 19.305156 53.922178 0
M  V30 37 H 54.168255 25.028816 50.171306 0
M  V30 38 H 52.625907 24.455050 49.621610 0
M  V30 39 H 50.820128 25.347156 52.456927 0
M  V30 40 H 50.785616 24.560105 50.920926 0
M  V30 41 H 46.717930 17.729081 49.186370 0
M  V30 42 H 47.909292 17.746596 50.447125 0
M  V30 43 H 52.500645 23.052559 50.582068 0
M  V30 44 H 55.386636 26.774232 50.671505 0
M  V30 45 H 55.380248 28.498597 50.576779 0
M  V30 46 H 50.914820 17.410950 48.096049 0
M  V30 47 H 50.746844 21.590330 50.837973 0
M  V30 48 H 47.641057 19.824767 48.253505 0
M  V30 49 H 47.069926 20.021411 49.852687 0
M  V30 50 H 54.079758 29.500036 48.968321 0
M  V30 51 H 49.370836 21.077167 49.391825 0
M  V30 52 H 52.222342 19.023539 47.016903 0
M  V30 53 H 53.619735 19.744646 47.793922 0
M  V30 54 H 53.121847 18.117911 48.250883 0
M  V30 55 H 53.758600 22.214997 55.428346 0
M  V30 56 H 52.232904 21.717111 54.795513 0
M  V30 57 H 54.435860 19.309281 51.472420 0
M  V30 58 H 53.295127 18.041318 51.878037 0
M  V30 59 H 53.423062 20.880489 49.759513 0
M  V30 60 H 51.953704 26.871441 49.116988 0
M  V30 61 H 53.029040 26.064334 48.018905 0
M  V30 62 H 54.521234 21.440237 52.866322 0
M  V30 63 H 54.793727 27.409483 48.426760 0
M  V30 64 H 55.648881 20.958946 55.005970 0
M  V30 65 H 54.475149 19.739260 55.408482 0
M  V30 66 H 55.540680 17.502723 52.748640 0
M  V30 67 H 54.415129 17.672736 54.073487 0
M  V30 68 H 52.261157 26.913534 52.961609 0
M  V30 69 H 49.542660 23.050471 52.072851 0
M  V30 70 H 48.959580 16.788513 46.397887 0
M  V30 71 H 47.346450 16.530765 47.045787 0
M  V30 72 H 47.867422 18.153442 46.653284 0
M  V30 73 H 51.398964 19.293134 51.963755 0
M  V30 74 H 51.071358 20.511342 53.097263 0
M  V30 END ATOM
M  V30 BEGIN BOND
M  V30 1 1 9 3
M  V30 2 1 11 5
M  V30 3 2 12 1
M  V30 4 1 12 3
M  V30 5 1 13 1
M  V30 6 1 14 10
M  V30 7 1 15 9
M  V30 8 1 18 1
M  V30 9 1 18 15
M  V30 10 1 18 16
M  V30 11 1 19 13
M  V30 12 1 20 2
M  V30 13 1 21 6
M  V30 14 2 22 13
M  V30 15 1 22 14
M  V30 16 1 23 7
M  V30 17 1 24 6
M  V30 18 1 24 20
M  V30 19 1 25 2
M  V30 20 1 25 8
M  V30 21 1 25 10
M  V30 22 1 26 11
M  V30 23 1 26 17
M  V30 24 1 26 23
M  V30 25 1 27 4
M  V30 26 1 27 24
M  V30 27 1 28 4
M  V30 28 1 28 21
M  V30 29 2 29 5
M  V30 30 1 25 30 CFG=1
M  V30 31 1 31 7
M  V30 32 1 31 8
M  V30 33 1 31 29
M  V30 34 1 32 3
M  V30 35 1 33 6
M  V30 36 1 33 14
M  V30 37 1 3 34 CFG=1
M  V30 38 1 35 5
M  V30 39 1 6 36 CFG=1
M  V30 40 1 37 7
M  V30 41 1 38 7
M  V30 42 1 39 8
M  V30 43 1 40 8
M  V30 44 1 41 9
M  V30 45 1 42 9
M  V30 46 1 43 10
M  V30 47 1 44 11
M  V30 48 1 45 11
M  V30 49 1 46 12
M  V30 50 1 14 47 CFG=3
M  V30 51 1 48 15
M  V30 52 1 49 15
M  V30 53 1 50 17
M  V30 54 1 18 51 CFG=3
M  V30 55 1 52 19
M  V30 56 1 53 19
M  V30 57 1 54 19
M  V30 58 1 55 20
M  V30 59 1 56 20
M  V30 60 1 57 21
M  V30 61 1 58 21
M  V30 62 1 59 22
M  V30 63 1 60 23
M  V30 64 1 61 23
M  V30 65 1 24 62 CFG=3
M  V30 66 1 26 63 CFG=3
M  V30 67 1 64 27
M  V30 68 1 65 27
M  V30 69 1 66 28
M  V30 70 1 67 28
M  V30 71 1 68 29
M  V30 72 1 69 30
M  V30 73 1 70 32
M  V30 74 1 71 32
M  V30 75 1 72 32
M  V30 76 1 73 33
M  V30 77 1 74 33
M  V30 END BOND
M  V30 END CTAB
M  END
>  <i_epik_Tot_Q>  (1) 
0

>  <i_epik_Tot_abs_Q>  (1) 
0

>  <i_i_glide_confnum>  (1) 
7

>  <i_i_glide_lignum>  (1) 
254

>  <i_i_glide_posenum>  (1) 
146

>  <i_i_glide_rotatable_bonds>  (1) 
6

>  <i_lp_mmshare_version>  (1) 
72125

>  <i_m_source_file_index>  (1) 
94

>  <i_f3d_flags>  (1) 
0

>  <num_sample>  (1) 
100

>  <b_lp_Chiralities_Consistent>  (1) 
1

>  <r_epik_Charging_Adjusted_Penalty>  (1) 
0.20325292957253988

>  <r_epik_Ionization_Penalty>  (1) 
0.031936562948065232

>  <r_epik_Ionization_Penalty_Charging>  (1) 
3.6030848355623751e-07

>  <r_epik_Ionization_Penalty_Neutral>  (1) 
0.031936202639581676

>  <r_epik_State_Penalty>  (1) 
0.20325256926405633

>  <r_glide_ring_energy>  (1) 
0.82930930823906657

>  <r_i_docking_score>  (1) 
-0.88912385680579398

>  <r_i_glide_ecoul>  (1) 
0.18096947134404789

>  <r_i_glide_eff_state_penalty>  (1) 
0.20325256926405633

>  <r_i_glide_einternal>  (1) 
17.233186352808524

>  <r_i_glide_emodel>  (1) 
-2.8148379713380702

>  <r_i_glide_emodel_strain>  (1) 
0.72312312500585563

>  <r_i_glide_energy>  (1) 
-10.967261066477663

>  <r_i_glide_erotb>  (1) 
0.31140238833871409

>  <r_i_glide_esite>  (1) 
0

>  <r_i_glide_evdw>  (1) 
-11.148230537821711

>  <r_i_glide_gscore>  (1) 
-1.0923764260698503

>  <r_i_glide_gscore_strain>  (1) 
0

>  <r_i_glide_hbond>  (1) 
0

>  <r_i_glide_ligand_efficiency>  (1) 
-0.026943147175933151

>  <r_i_glide_ligand_efficiency_ln>  (1) 
-0.19773654211665939

>  <r_i_glide_ligand_efficiency_sa>  (1) 
-0.086421069524935695

>  <r_i_glide_lipo>  (1) 
-0.75569941782692185

>  <r_i_glide_metal>  (1) 
-0

>  <r_i_glide_rewards>  (1) 
-0.11781329039216425

>  <r_lp_Energy>  (1) 
33.901114999999997

>  <s_epik_Chemistry_Notes>  (1) 
This compound has an imine and may undergo hydrolysis.

>  <s_epik_cmdline>  (1) 
J2VwaWtfcHl0aG9uJywgJy1waHQnLCAnMS4wJywgJy1waCcsICc3LjQnLCAnLXRuJywgJzgnLCAnLW1hJywgJzUwMCcsICctaW1hZScsICc8aW5maWxlLm1hZT4nLCAnLW9tYWUnLCAnPG91dGZpbGUubWFlPic=

>  <s_epik_input>  (1) 
Q2xbQ0BIXTFbQ0gyXVtDSDJdW0NAQEhdKFtDSDNdKVtDSF09QzEvQyhbQ0gzXSk9W0NIXVxbQ0BASF0oW0NIMl0yKVtOSF1bQ0BAXShbU0hdKShTW0NIMl1bQ0BIXShbQ0BASF0yMylbQ0gyXU9bQ0gyXVtDSDJdMylbQ0gyXU4oW0NIMl1bQ0gyXTQpW0NIXT1bQ0hdW0NIMl1bQ0BASF00W09IXQ==

>  <s_glide_docking_method>  (1) 
confgen

>  <s_i_glide_gridfile>  (1) 
gpcr_5ht2c_6bqh_protein_autoprepared_prepared

>  <s_lp_Force_Field>  (1) 
S-OPLS

>  <s_lp_Variant>  (1) 
DiffSBDD_93_num_sample_100-6

>  <s_m_source_file>  (1) 
generated__ligand_DiffSBDD_2026-05-06_prepared.sdf

>  <GenAI_Model>  (1) 
DiffSBDD

>  <Protein>  (1) 
GPCR_5HT2C

$$$$
DiffSBDD_92_num_sample_100
     RDKit          3D

  0  0  0  0  0  0  0  0  0  0999 V3000
M  V30 BEGIN CTAB
M  V30 COUNTS 98 103 0 0 1
M  V30 BEGIN ATOM
M  V30 1 C 51.525912 42.861114 66.261709 0
M  V30 2 C 49.411022 46.065863 69.149421 0 CFG=1
M  V30 3 C 47.282994 45.194257 70.148323 0
M  V30 4 O 53.226366 47.591816 63.772100 0
M  V30 5 C 53.884192 46.758635 64.733545 0 CFG=1
M  V30 6 C 52.995165 44.182667 67.648864 0 CFG=1
M  V30 7 C 53.377854 43.996909 62.276512 0
M  V30 8 C 52.994014 43.143865 70.069187 0 CFG=1
M  V30 9 C 53.799873 46.367150 63.296295 0 CFG=2
M  V30 10 N 41.266309 46.610870 69.649234 0 CHG=1
M  V30 11 O 50.145712 44.170168 70.503984 0
M  V30 12 O 55.001322 46.461478 62.553134 0
M  V30 13 O 51.675597 43.959987 67.162988 0
M  V30 14 O 53.028968 44.649878 64.596978 0
M  V30 15 C 52.957631 45.114545 63.250091 0 CFG=2
M  V30 16 C 48.689387 44.567502 66.645545 0
M  V30 17 O 49.266244 47.191258 69.975228 0
M  V30 18 N 43.610536 46.398412 69.695440 0 CFG=2 CHG=1
M  V30 19 C 53.695093 45.335437 66.877731 0
M  V30 20 C 44.859528 45.672899 69.338098 0
M  V30 21 O 51.613793 41.154100 71.719683 0
M  V30 22 O 55.178667 47.136042 65.166911 0
M  V30 23 C 50.382278 43.155139 65.275862 0 CFG=1
M  V30 24 C 54.637529 43.224578 62.691008 0
M  V30 25 C 44.120303 46.489304 72.086491 0
M  V30 26 C 50.199302 41.049502 71.737552 0
M  V30 27 C 52.202824 40.783991 70.511569 0 CFG=1
M  V30 28 C 52.169665 41.963919 69.516636 0
M  V30 29 O 53.530675 40.383830 70.683045 0
M  V30 30 C 50.462566 45.135459 69.810999 0
M  V30 31 C 41.703632 46.615124 71.060854 0
M  V30 32 C 54.421977 42.617964 70.303271 0
M  V30 33 C 45.984992 46.017882 70.356582 0 CFG=1
M  V30 34 C 53.085471 45.740210 65.517303 0 CFG=1
M  V30 35 C 48.034473 44.365044 68.033011 0
M  V30 36 C 45.483386 45.820863 71.815375 0
M  V30 37 C 43.115224 46.028933 71.026552 0 CFG=1
M  V30 38 F 50.338203 42.152369 64.399191 0
M  V30 39 C 54.384435 41.388980 71.228487 0
M  V30 40 C 42.439830 46.290291 68.794594 0
M  V30 41 C 52.962486 44.432583 69.189750 0 CFG=2
M  V30 42 C 49.026336 43.220329 65.978797 0
M  V30 43 C 51.946583 45.523007 69.665846 0
M  V30 44 N 48.019086 45.547877 68.911784 0
M  V30 45 H 52.440462 42.648128 65.708507 0
M  V30 46 H 51.308252 41.951238 66.818745 0
M  V30 47 H 49.820896 46.430267 68.210670 0
M  V30 48 H 47.047678 44.129143 70.198267 0
M  V30 49 H 47.912455 45.356241 71.024215 0
M  V30 50 H 53.603121 43.293498 67.473728 0
M  V30 51 H 52.557503 43.283021 62.199127 0
M  V30 52 H 53.507110 44.412724 61.277563 0
M  V30 53 H 52.604332 43.413639 71.051695 0
M  V30 54 H 40.534158 45.925318 69.514595 0
M  V30 55 H 54.784912 46.740692 61.678498 0
M  V30 56 H 51.930597 45.415598 63.038884 0
M  V30 57 H 49.605185 45.145735 66.703572 0
M  V30 58 H 48.031160 45.147269 65.997985 0
M  V30 59 H 48.514256 47.665948 69.662156 0
M  V30 60 H 54.743126 45.063583 66.744085 0
M  V30 61 H 53.709238 46.232915 67.495427 0
M  V30 62 H 45.167999 45.941173 68.326987 0
M  V30 63 H 44.672333 44.598660 69.334768 0
M  V30 64 H 55.091531 47.633636 65.963135 0
M  V30 65 H 50.565580 44.059365 64.696792 0
M  V30 66 H 54.913853 42.494261 61.929366 0
M  V30 67 H 55.479960 43.896909 62.834228 0
M  V30 68 H 54.482566 42.685033 63.625972 0
M  V30 69 H 43.770998 46.229090 73.086144 0
M  V30 70 H 44.225708 47.573670 72.069185 0
M  V30 71 H 49.821176 41.368257 72.708972 0
M  V30 72 H 49.725815 41.667278 70.976488 0
M  V30 73 H 49.887588 40.021116 71.574377 0
M  V30 74 H 51.683148 39.916474 70.101510 0
M  V30 75 H 51.139279 42.233128 69.296199 0
M  V30 76 H 52.609662 41.619935 68.584466 0
M  V30 77 H 41.020726 46.045260 71.693059 0
M  V30 78 H 41.717549 47.640867 71.424064 0
M  V30 79 H 54.889700 42.346317 69.356000 0
M  V30 80 H 55.047893 43.389508 70.753103 0
M  V30 81 H 46.234763 47.074542 70.242854 0
M  V30 82 H 52.076647 46.131207 65.660218 0
M  V30 83 H 48.536737 43.548737 68.552870 0
M  V30 84 H 47.011985 44.023536 67.866462 0
M  V30 85 H 45.402540 44.754857 72.031935 0
M  V30 86 H 46.221079 46.210300 72.518801 0
M  V30 87 H 43.022136 44.941389 71.071388 0
M  V30 88 H 55.385633 40.971958 71.337093 0
M  V30 89 H 54.051179 41.669565 72.229660 0
M  V30 90 H 42.338111 45.267650 68.426365 0
M  V30 91 H 42.514684 46.959849 67.937583 0
M  V30 92 H 53.922942 44.904358 69.401203 0
M  V30 93 H 48.235272 42.953438 65.275900 0
M  V30 94 H 49.067946 42.433373 66.731455 0
M  V30 95 H 52.011964 46.391774 69.012016 0
M  V30 96 H 52.263095 45.877110 70.647592 0
M  V30 97 H 43.850685 47.379717 69.736238 0
M  V30 98 H 40.868363 47.514717 69.424536 0
M  V30 END ATOM
M  V30 BEGIN BOND
M  V30 1 1 5 4
M  V30 2 1 9 4
M  V30 3 1 9 5
M  V30 4 1 9 12 CFG=3
M  V30 5 1 13 1
M  V30 6 1 13 6
M  V30 7 1 15 7
M  V30 8 1 15 9
M  V30 9 1 15 14
M  V30 10 1 17 2
M  V30 11 1 19 6
M  V30 12 1 20 18
M  V30 13 1 5 22 CFG=1
M  V30 14 1 23 1
M  V30 15 1 24 7
M  V30 16 1 26 21
M  V30 17 1 27 21
M  V30 18 1 28 8
M  V30 19 1 28 27
M  V30 20 1 29 27
M  V30 21 1 30 2
M  V30 22 2 30 11
M  V30 23 1 31 10
M  V30 24 1 32 8
M  V30 25 1 33 3
M  V30 26 1 33 20
M  V30 27 1 34 5
M  V30 28 1 34 14
M  V30 29 1 34 19
M  V30 30 1 35 16
M  V30 31 1 36 25
M  V30 32 1 36 33
M  V30 33 1 37 18
M  V30 34 1 37 25
M  V30 35 1 37 31
M  V30 36 1 38 23
M  V30 37 1 39 29
M  V30 38 1 39 32
M  V30 39 1 40 10
M  V30 40 1 40 18
M  V30 41 1 41 6
M  V30 42 1 41 8
M  V30 43 1 42 16
M  V30 44 1 42 23
M  V30 45 1 43 30
M  V30 46 1 43 41
M  V30 47 1 44 2
M  V30 48 1 44 3
M  V30 49 1 44 35
M  V30 50 1 45 1
M  V30 51 1 46 1
M  V30 52 1 2 47 CFG=3
M  V30 53 1 48 3
M  V30 54 1 49 3
M  V30 55 1 6 50 CFG=1
M  V30 56 1 51 7
M  V30 57 1 52 7
M  V30 58 1 8 53 CFG=1
M  V30 59 1 54 10
M  V30 60 1 55 12
M  V30 61 1 15 56 CFG=3
M  V30 62 1 57 16
M  V30 63 1 58 16
M  V30 64 1 59 17
M  V30 65 1 60 19
M  V30 66 1 61 19
M  V30 67 1 62 20
M  V30 68 1 63 20
M  V30 69 1 64 22
M  V30 70 1 23 65 CFG=3
M  V30 71 1 66 24
M  V30 72 1 67 24
M  V30 73 1 68 24
M  V30 74 1 69 25
M  V30 75 1 70 25
M  V30 76 1 71 26
M  V30 77 1 72 26
M  V30 78 1 73 26
M  V30 79 1 27 74 CFG=3
M  V30 80 1 75 28
M  V30 81 1 76 28
M  V30 82 1 77 31
M  V30 83 1 78 31
M  V30 84 1 79 32
M  V30 85 1 80 32
M  V30 86 1 33 81 CFG=1
M  V30 87 1 34 82 CFG=1
M  V30 88 1 83 35
M  V30 89 1 84 35
M  V30 90 1 85 36
M  V30 91 1 86 36
M  V30 92 1 37 87 CFG=3
M  V30 93 1 88 39
M  V30 94 1 89 39
M  V30 95 1 90 40
M  V30 96 1 91 40
M  V30 97 1 41 92 CFG=1
M  V30 98 1 93 42
M  V30 99 1 94 42
M  V30 100 1 95 43
M  V30 101 1 96 43
M  V30 102 1 18 97 CFG=1
M  V30 103 1 98 10
M  V30 END BOND
M  V30 END CTAB
M  END
>  <i_epik_Tot_Q>  (1) 
2

>  <i_epik_Tot_abs_Q>  (1) 
2

>  <i_i_glide_confnum>  (1) 
40

>  <i_i_glide_lignum>  (1) 
247

>  <i_i_glide_posenum>  (1) 
242

>  <i_i_glide_rotatable_bonds>  (1) 
10

>  <i_lp_mmshare_version>  (1) 
72125

>  <i_m_source_file_index>  (1) 
93

>  <i_f3d_flags>  (1) 
0

>  <num_sample>  (1) 
100

>  <b_lp_Chiralities_Consistent>  (1) 
1

>  <r_epik_Charging_Adjusted_Penalty>  (1) 
0.13487033779534635

>  <r_epik_Ionization_Penalty>  (1) 
0.19914084790593331

>  <r_epik_Ionization_Penalty_Charging>  (1) 
0.13485274742695982

>  <r_epik_Ionization_Penalty_Neutral>  (1) 
0.064288100478973487

>  <r_epik_State_Penalty>  (1) 
1.7590368386534964e-05

>  <r_glide_ring_energy>  (1) 
1.0322880792727893

>  <r_i_docking_score>  (1) 
-0.84821193655118332

>  <r_i_glide_ecoul>  (1) 
0.5312051271840077

>  <r_i_glide_eff_state_penalty>  (1) 
1.7590368386534964e-05

>  <r_i_glide_einternal>  (1) 
25.731239597086223

>  <r_i_glide_emodel>  (1) 
-29.697794976812361

>  <r_i_glide_emodel_strain>  (1) 
3.4155491628493877

>  <r_i_glide_energy>  (1) 
-10.293877607675283

>  <r_i_glide_erotb>  (1) 
0.12528393626735909

>  <r_i_glide_esite>  (1) 
0

>  <r_i_glide_evdw>  (1) 
-10.82508273485929

>  <r_i_glide_gscore>  (1) 
-0.84822952691956988

>  <r_i_glide_gscore_strain>  (1) 
0

>  <r_i_glide_hbond>  (1) 
0

>  <r_i_glide_ligand_efficiency>  (1) 
-0.019277544012526893

>  <r_i_glide_ligand_efficiency_ln>  (1) 
-0.17729479837873732

>  <r_i_glide_ligand_efficiency_sa>  (1) 
-0.068056445413799252

>  <r_i_glide_lipo>  (1) 
-0.22151280301434101

>  <r_i_glide_metal>  (1) 
-0

>  <r_i_glide_rewards>  (1) 
-0.2904272925072246

>  <r_lp_Energy>  (1) 
73.076747999999995

>  <s_epik_Chemistry_Notes>  (1) 
This compound contains an acetal/aminal-like group ( X-CH(R)-Y where X, Y are N, S, or O) that may be acid/base labile, releasing an aldehyde.

>  <s_epik_cmdline>  (1) 
J2VwaWtfcHl0aG9uJywgJy1waHQnLCAnMS4wJywgJy1waCcsICc3LjQnLCAnLXRuJywgJzgnLCAnLW1hJywgJzUwMCcsICctaW1hZScsICc8aW5maWxlLm1hZT4nLCAnLW9tYWUnLCAnPG91dGZpbGUubWFlPic=

>  <s_epik_input>  (1) 
W09IXVtDQF0xMkMoTzEpKFtPSF0pW0NAQEhdKFtDSDJdW0NIM10pT1tDQEhdMltDSDJdW0NAQEhdKFtDQEBIXShbQ0gyXUMoPU8pW0NAQEhdM1tPSF0pW0NASF00W0NIMl1bQ0BIXShPW0NIM10pT1tDSDJdW0NIMl00KU9bQ0gyXVtDQEBIXShGKVtDSDJdW0NIMl1bQ0gyXU4zW0NIMl1bQ0BASF0oW0NIMl01KVtDSDJdW0NIMl1bQ0BIXShONTYpW0NIMl1bTkhdW0NIMl02

>  <s_glide_docking_method>  (1) 
confgen

>  <s_i_glide_gridfile>  (1) 
gpcr_5ht2c_6bqh_protein_autoprepared_prepared

>  <s_lp_Force_Field>  (1) 
S-OPLS

>  <s_lp_Variant>  (1) 
DiffSBDD_92_num_sample_100-1

>  <s_m_source_file>  (1) 
generated__ligand_DiffSBDD_2026-05-06_prepared.sdf

>  <GenAI_Model>  (1) 
DiffSBDD

>  <Protein>  (1) 
GPCR_5HT2C

$$$$
DiffSBDD_92_num_sample_100
     RDKit          3D

  0  0  0  0  0  0  0  0  0  0999 V3000
M  V30 BEGIN CTAB
M  V30 COUNTS 98 103 0 0 1
M  V30 BEGIN ATOM
M  V30 1 C 51.956314 42.556280 66.799989 0
M  V30 2 C 49.526931 45.699278 68.625624 0 CFG=1
M  V30 3 C 47.117145 45.262343 69.154145 0
M  V30 4 O 53.419194 47.724645 65.316063 0
M  V30 5 C 54.085134 46.790733 66.172214 0 CFG=1
M  V30 6 C 52.923083 43.836781 68.569383 0 CFG=1
M  V30 7 C 54.318531 44.562886 63.237008 0
M  V30 8 C 52.207019 42.930109 70.950478 0 CFG=1
M  V30 9 C 54.204363 46.704164 64.689510 0 CFG=2
M  V30 10 N 41.067444 46.385248 69.102747 0 CHG=1
M  V30 11 O 49.431047 44.677652 70.856567 0
M  V30 12 O 55.455374 47.085920 64.151251 0
M  V30 13 O 51.772962 43.600341 67.753373 0
M  V30 14 O 53.530858 44.683379 65.521689 0
M  V30 15 C 53.563139 45.398943 64.283851 0 CFG=2
M  V30 16 C 48.898839 43.859687 66.194329 0
M  V30 17 O 49.360084 47.089401 68.743968 0
M  V30 18 N 43.278513 45.592903 69.009832 0 CFG=2 CHG=1
M  V30 19 C 53.845652 44.920871 67.939703 0
M  V30 20 C 44.623183 45.483034 69.623094 0
M  V30 21 O 50.341140 41.195020 72.507680 0
M  V30 22 O 55.255911 47.217712 66.846331 0
M  V30 23 C 51.120297 42.743314 65.522373 0 CFG=1
M  V30 24 C 54.174177 45.109836 61.809558 0
M  V30 25 C 44.142162 46.591492 66.924640 0
M  V30 26 C 48.973035 41.545146 72.360376 0
M  V30 27 C 50.977151 40.742565 71.349793 0 CFG=1
M  V30 28 C 51.230788 41.895448 70.347659 0
M  V30 29 O 52.199988 40.132609 71.644570 0
M  V30 30 C 50.109078 45.187027 69.967075 0
M  V30 31 C 41.667950 46.753524 67.804530 0
M  V30 32 C 53.484514 42.173019 71.376217 0
M  V30 33 C 45.708457 45.346763 68.517251 0 CFG=1
M  V30 34 C 53.340130 45.564758 66.632634 0 CFG=1
M  V30 35 C 48.381782 43.814224 67.645832 0
M  V30 36 C 45.577993 46.492056 67.480630 0
M  V30 37 C 43.162995 46.734017 68.096466 0 CFG=1
M  V30 38 F 51.522126 41.816448 64.653908 0
M  V30 39 C 53.138697 40.988145 72.293032 0
M  V30 40 C 42.101789 45.687573 69.907791 0
M  V30 41 C 52.536158 44.165140 70.044221 0 CFG=2
M  V30 42 C 49.611689 42.572813 65.729708 0
M  V30 43 C 51.602225 45.398982 70.218222 0
M  V30 44 N 48.203977 45.177397 68.161437 0
M  V30 45 H 53.004471 42.466423 66.509240 0
M  V30 46 H 51.691554 41.621684 67.275857 0
M  V30 47 H 50.269456 45.530224 67.849144 0
M  V30 48 H 47.157264 44.409707 69.833524 0
M  V30 49 H 47.248984 46.150585 69.775131 0
M  V30 50 H 53.512292 42.920727 68.614766 0
M  V30 51 H 55.370940 44.482725 63.508951 0
M  V30 52 H 53.929276 43.543867 63.254339 0
M  V30 53 H 51.756469 43.319210 71.864927 0
M  V30 54 H 40.773052 47.222743 69.591216 0
M  V30 55 H 55.307213 47.472266 63.302944 0
M  V30 56 H 52.539245 45.591425 63.961196 0
M  V30 57 H 49.556799 44.712832 66.033190 0
M  V30 58 H 48.048533 44.049060 65.537950 0
M  V30 59 H 48.934481 47.393531 67.957117 0
M  V30 60 H 54.834370 44.493331 67.764216 0
M  V30 61 H 54.008249 45.718855 68.663490 0
M  V30 62 H 44.649542 44.612967 70.280531 0
M  V30 63 H 44.817191 46.357395 70.245730 0
M  V30 64 H 55.000356 47.589464 67.674995 0
M  V30 65 H 51.333007 43.693515 65.038727 0
M  V30 66 H 54.723819 44.490196 61.101252 0
M  V30 67 H 53.129496 45.116753 61.497980 0
M  V30 68 H 54.554877 46.127116 61.723120 0
M  V30 69 H 44.061245 47.447842 66.254661 0
M  V30 70 H 43.907200 45.707280 66.331513 0
M  V30 71 H 48.512668 41.608536 73.346667 0
M  V30 72 H 48.860653 42.518651 71.891544 0
M  V30 73 H 48.410934 40.821504 71.770914 0
M  V30 74 H 50.361242 39.965383 70.892870 0
M  V30 75 H 50.281334 42.335890 70.055615 0
M  V30 76 H 51.659242 41.445651 69.456084 0
M  V30 77 H 41.301510 47.709214 67.440415 0
M  V30 78 H 41.408541 45.992530 67.066701 0
M  V30 79 H 54.019181 41.798354 70.503428 0
M  V30 80 H 54.172597 42.839028 71.898156 0
M  V30 81 H 45.514478 44.421400 67.978610 0
M  V30 82 H 52.286315 45.832686 66.713184 0
M  V30 83 H 47.444798 43.261087 67.651592 0
M  V30 84 H 49.054573 43.243057 68.286160 0
M  V30 85 H 45.859859 47.439408 67.943830 0
M  V30 86 H 46.272507 46.336672 66.654953 0
M  V30 87 H 43.415203 47.635502 68.655084 0
M  V30 88 H 54.037931 40.413978 72.515600 0
M  V30 89 H 52.750111 41.338576 73.251006 0
M  V30 90 H 42.327712 46.291072 70.788012 0
M  V30 91 H 41.762372 44.705232 70.238229 0
M  V30 92 H 53.463873 44.534413 70.483111 0
M  V30 93 H 49.164978 42.259679 64.784442 0
M  V30 94 H 49.467399 41.746731 66.423516 0
M  V30 95 H 51.943980 46.219963 69.588087 0
M  V30 96 H 51.692888 45.761705 71.241883 0
M  V30 97 H 43.150136 44.767242 68.442646 0
M  V30 98 H 40.237943 45.819137 68.968124 0
M  V30 END ATOM
M  V30 BEGIN BOND
M  V30 1 1 5 4
M  V30 2 1 9 4
M  V30 3 1 9 5
M  V30 4 1 9 12 CFG=1
M  V30 5 1 13 1
M  V30 6 1 13 6
M  V30 7 1 15 7
M  V30 8 1 15 9
M  V30 9 1 15 14
M  V30 10 1 17 2
M  V30 11 1 19 6
M  V30 12 1 20 18
M  V30 13 1 5 22 CFG=1
M  V30 14 1 23 1
M  V30 15 1 24 7
M  V30 16 1 26 21
M  V30 17 1 27 21
M  V30 18 1 28 8
M  V30 19 1 28 27
M  V30 20 1 29 27
M  V30 21 1 30 2
M  V30 22 2 30 11
M  V30 23 1 31 10
M  V30 24 1 32 8
M  V30 25 1 33 3
M  V30 26 1 33 20
M  V30 27 1 34 5
M  V30 28 1 34 14
M  V30 29 1 34 19
M  V30 30 1 35 16
M  V30 31 1 36 25
M  V30 32 1 36 33
M  V30 33 1 37 18
M  V30 34 1 37 25
M  V30 35 1 37 31
M  V30 36 1 38 23
M  V30 37 1 39 29
M  V30 38 1 39 32
M  V30 39 1 40 10
M  V30 40 1 40 18
M  V30 41 1 41 6
M  V30 42 1 41 8
M  V30 43 1 42 16
M  V30 44 1 42 23
M  V30 45 1 43 30
M  V30 46 1 43 41
M  V30 47 1 44 2
M  V30 48 1 44 3
M  V30 49 1 44 35
M  V30 50 1 45 1
M  V30 51 1 46 1
M  V30 52 1 2 47 CFG=3
M  V30 53 1 48 3
M  V30 54 1 49 3
M  V30 55 1 6 50 CFG=1
M  V30 56 1 51 7
M  V30 57 1 52 7
M  V30 58 1 8 53 CFG=1
M  V30 59 1 54 10
M  V30 60 1 55 12
M  V30 61 1 15 56 CFG=3
M  V30 62 1 57 16
M  V30 63 1 58 16
M  V30 64 1 59 17
M  V30 65 1 60 19
M  V30 66 1 61 19
M  V30 67 1 62 20
M  V30 68 1 63 20
M  V30 69 1 64 22
M  V30 70 1 23 65 CFG=3
M  V30 71 1 66 24
M  V30 72 1 67 24
M  V30 73 1 68 24
M  V30 74 1 69 25
M  V30 75 1 70 25
M  V30 76 1 71 26
M  V30 77 1 72 26
M  V30 78 1 73 26
M  V30 79 1 27 74 CFG=3
M  V30 80 1 75 28
M  V30 81 1 76 28
M  V30 82 1 77 31
M  V30 83 1 78 31
M  V30 84 1 79 32
M  V30 85 1 80 32
M  V30 86 1 33 81 CFG=3
M  V30 87 1 34 82 CFG=1
M  V30 88 1 83 35
M  V30 89 1 84 35
M  V30 90 1 85 36
M  V30 91 1 86 36
M  V30 92 1 37 87 CFG=1
M  V30 93 1 88 39
M  V30 94 1 89 39
M  V30 95 1 90 40
M  V30 96 1 91 40
M  V30 97 1 41 92 CFG=1
M  V30 98 1 93 42
M  V30 99 1 94 42
M  V30 100 1 95 43
M  V30 101 1 96 43
M  V30 102 1 18 97 CFG=3
M  V30 103 1 98 10
M  V30 END BOND
M  V30 END CTAB
M  END
>  <i_epik_Tot_Q>  (1) 
2

>  <i_epik_Tot_abs_Q>  (1) 
2

>  <i_i_glide_confnum>  (1) 
40

>  <i_i_glide_lignum>  (1) 
247

>  <i_i_glide_posenum>  (1) 
242

>  <i_i_glide_rotatable_bonds>  (1) 
10

>  <i_lp_mmshare_version>  (1) 
72125

>  <i_m_source_file_index>  (1) 
93

>  <i_f3d_flags>  (1) 
0

>  <num_sample>  (1) 
100

>  <b_lp_Chiralities_Consistent>  (1) 
1

>  <r_epik_Charging_Adjusted_Penalty>  (1) 
0.13487033779534635

>  <r_epik_Ionization_Penalty>  (1) 
0.19914084790593331

>  <r_epik_Ionization_Penalty_Charging>  (1) 
0.13485274742695982

>  <r_epik_Ionization_Penalty_Neutral>  (1) 
0.064288100478973487

>  <r_epik_State_Penalty>  (1) 
1.7590368386534964e-05

>  <r_glide_ring_energy>  (1) 
1.0322880792727893

>  <r_i_docking_score>  (1) 
-0.84723903156049518

>  <r_i_glide_ecoul>  (1) 
1.0577661702773167

>  <r_i_glide_eff_state_penalty>  (1) 
1.7590368386534964e-05

>  <r_i_glide_einternal>  (1) 
22.051417175606915

>  <r_i_glide_emodel>  (1) 
-35.127829488084096

>  <r_i_glide_emodel_strain>  (1) 
1.430648418272213

>  <r_i_glide_energy>  (1) 
-11.940030357029837

>  <r_i_glide_erotb>  (1) 
0.12528393626735909

>  <r_i_glide_esite>  (1) 
0

>  <r_i_glide_evdw>  (1) 
-12.997796527307154

>  <r_i_glide_gscore>  (1) 
-0.84725662192888174

>  <r_i_glide_gscore_strain>  (1) 
0

>  <r_i_glide_hbond>  (1) 
0

>  <r_i_glide_ligand_efficiency>  (1) 
-0.0192554325354658

>  <r_i_glide_ligand_efficiency_ln>  (1) 
-0.17709144001188026

>  <r_i_glide_ligand_efficiency_sa>  (1) 
-0.067978384197565009

>  <r_i_glide_lipo>  (1) 
-0.32738802468695788

>  <r_i_glide_metal>  (1) 
-0

>  <r_i_glide_rewards>  (1) 
-0.15392763268552265

>  <r_lp_Energy>  (1) 
73.076747999999995

>  <s_epik_Chemistry_Notes>  (1) 
This compound contains an acetal/aminal-like group ( X-CH(R)-Y where X, Y are N, S, or O) that may be acid/base labile, releasing an aldehyde.

>  <s_epik_cmdline>  (1) 
J2VwaWtfcHl0aG9uJywgJy1waHQnLCAnMS4wJywgJy1waCcsICc3LjQnLCAnLXRuJywgJzgnLCAnLW1hJywgJzUwMCcsICctaW1hZScsICc8aW5maWxlLm1hZT4nLCAnLW9tYWUnLCAnPG91dGZpbGUubWFlPic=

>  <s_epik_input>  (1) 
W09IXVtDQF0xMkMoTzEpKFtPSF0pW0NAQEhdKFtDSDJdW0NIM10pT1tDQEhdMltDSDJdW0NAQEhdKFtDQEBIXShbQ0gyXUMoPU8pW0NAQEhdM1tPSF0pW0NASF00W0NIMl1bQ0BIXShPW0NIM10pT1tDSDJdW0NIMl00KU9bQ0gyXVtDQEBIXShGKVtDSDJdW0NIMl1bQ0gyXU4zW0NIMl1bQ0BASF0oW0NIMl01KVtDSDJdW0NIMl1bQ0BIXShONTYpW0NIMl1bTkhdW0NIMl02

>  <s_glide_docking_method>  (1) 
confgen

>  <s_i_glide_gridfile>  (1) 
gpcr_5ht2c_6bqh_protein_autoprepared_prepared

>  <s_lp_Force_Field>  (1) 
S-OPLS

>  <s_lp_Variant>  (1) 
DiffSBDD_92_num_sample_100-1

>  <s_m_source_file>  (1) 
generated__ligand_DiffSBDD_2026-05-06_prepared.sdf

>  <GenAI_Model>  (1) 
DiffSBDD

>  <Protein>  (1) 
GPCR_5HT2C

$$$$
DiffSBDD_73_num_sample_100
     RDKit          3D

  0  0  0  0  0  0  0  0  0  0999 V3000
M  V30 BEGIN CTAB
M  V30 COUNTS 28 27 0 0 1
M  V30 BEGIN ATOM
M  V30 1 C 36.245079 31.688489 60.289475 0
M  V30 2 N 36.667420 31.035868 59.196177 0
M  V30 3 C 38.401681 28.336030 52.064027 0
M  V30 4 O 36.736870 31.526114 61.404900 0
M  V30 5 C 38.142545 29.708312 57.714554 0
M  V30 6 C 35.099015 32.684406 60.097380 0
M  V30 7 Cl 39.342029 28.017053 50.653547 0
M  V30 8 C 38.811614 29.186920 53.018393 0
M  V30 9 C 37.761092 30.072968 59.158407 0
M  V30 10 C 38.432091 30.946124 56.854051 0
M  V30 11 N 35.527081 33.926990 59.453540 0
M  V30 12 S 37.918839 29.579641 54.499349 0
M  V30 13 C 39.051581 30.587368 55.497813 0
M  V30 14 H 36.176634 31.221383 58.332912 0
M  V30 15 H 37.467371 27.798384 52.110870 0
M  V30 16 H 37.336807 29.130218 57.260172 0
M  V30 17 H 39.021262 29.061780 57.720487 0
M  V30 18 H 34.311985 32.223817 59.498813 0
M  V30 19 H 34.667466 32.914440 61.071964 0
M  V30 20 H 39.759446 29.694021 52.910835 0
M  V30 21 H 37.490021 29.177562 59.720719 0
M  V30 22 H 38.617304 30.513401 59.669990 0
M  V30 23 H 39.105464 31.613632 57.393378 0
M  V30 24 H 37.507540 31.502328 56.694245 0
M  V30 25 H 35.867299 33.752977 58.518181 0
M  V30 26 H 34.758708 34.575320 59.356421 0
M  V30 27 H 39.979377 30.033994 55.646361 0
M  V30 28 H 39.295013 31.496765 54.947409 0
M  V30 END ATOM
M  V30 BEGIN BOND
M  V30 1 1 2 1
M  V30 2 2 4 1
M  V30 3 1 6 1
M  V30 4 1 7 3
M  V30 5 2 8 3
M  V30 6 1 9 2
M  V30 7 1 9 5
M  V30 8 1 10 5
M  V30 9 1 11 6
M  V30 10 1 12 8
M  V30 11 1 13 10
M  V30 12 1 13 12
M  V30 13 1 14 2
M  V30 14 1 15 3
M  V30 15 1 16 5
M  V30 16 1 17 5
M  V30 17 1 18 6
M  V30 18 1 19 6
M  V30 19 1 20 8
M  V30 20 1 21 9
M  V30 21 1 22 9
M  V30 22 1 23 10
M  V30 23 1 24 10
M  V30 24 1 25 11
M  V30 25 1 26 11
M  V30 26 1 27 13
M  V30 27 1 28 13
M  V30 END BOND
M  V30 END CTAB
M  END
>  <i_epik_Tot_Q>  (1) 
0

>  <i_epik_Tot_abs_Q>  (1) 
0

>  <i_i_glide_confnum>  (1) 
223

>  <i_i_glide_lignum>  (1) 
184

>  <i_i_glide_posenum>  (1) 
177

>  <i_i_glide_rotatable_bonds>  (1) 
8

>  <i_lp_mmshare_version>  (1) 
72125

>  <i_m_source_file_index>  (1) 
74

>  <i_f3d_flags>  (1) 
0

>  <num_sample>  (1) 
100

>  <b_lp_Chiralities_Consistent>  (1) 
1

>  <r_epik_Charging_Adjusted_Penalty>  (1) 
0.66702128766523683

>  <r_epik_Ionization_Penalty>  (1) 
0.66702135281148944

>  <r_epik_Ionization_Penalty_Charging>  (1) 
0

>  <r_epik_Ionization_Penalty_Neutral>  (1) 
0.66702135281148944

>  <r_epik_State_Penalty>  (1) 
0.66702128766523683

>  <r_glide_ring_energy>  (1) 
0

>  <r_i_docking_score>  (1) 
-0.83789174012022438

>  <r_i_glide_ecoul>  (1) 
-7.2223512418959697

>  <r_i_glide_eff_state_penalty>  (1) 
0.66702128766523683

>  <r_i_glide_einternal>  (1) 
4.2157428698236199

>  <r_i_glide_emodel>  (1) 
-33.69701418140388

>  <r_i_glide_emodel_strain>  (1) 
0

>  <r_i_glide_energy>  (1) 
-32.504264277586174

>  <r_i_glide_erotb>  (1) 
4.7714226567050355

>  <r_i_glide_esite>  (1) 
-0.16996705246044885

>  <r_i_glide_evdw>  (1) 
-25.281913035690206

>  <r_i_glide_gscore>  (1) 
-1.5049130277854612

>  <r_i_glide_gscore_strain>  (1) 
0

>  <r_i_glide_hbond>  (1) 
-0.45599999999999996

>  <r_i_glide_ligand_efficiency>  (1) 
-0.064453210778478792

>  <r_i_glide_ligand_efficiency_ln>  (1) 
-0.23503608497733466

>  <r_i_glide_ligand_efficiency_sa>  (1) 
-0.15155107023841463

>  <r_i_glide_lipo>  (1) 
-1.1938986267427838

>  <r_i_glide_metal>  (1) 
-0

>  <r_i_glide_rewards>  (1) 
-2.1090216672183586

>  <r_lp_Energy>  (1) 
-0.222306

>  <s_epik_cmdline>  (1) 
J2VwaWtfcHl0aG9uJywgJy1waHQnLCAnMS4wJywgJy1waCcsICc3LjQnLCAnLXRuJywgJzgnLCAnLW1hJywgJzUwMCcsICctaW1hZScsICc8aW5maWxlLm1hZT4nLCAnLW9tYWUnLCAnPG91dGZpbGUubWFlPic=

>  <s_epik_input>  (1) 
W05IMl1bQ0gyXUMoPU8pW05IXVtDSDJdW0NIMl1bQ0gyXVtDSDJdU1xbQ0hdPVtDSF1cQ2w=

>  <s_glide_docking_method>  (1) 
confgen

>  <s_i_glide_gridfile>  (1) 
gpcr_5ht2c_6bqh_protein_autoprepared_prepared

>  <s_lp_Force_Field>  (1) 
S-OPLS

>  <s_lp_Variant>  (1) 
DiffSBDD_73_num_sample_100-3

>  <s_m_source_file>  (1) 
generated__ligand_DiffSBDD_2026-05-06_prepared.sdf

>  <GenAI_Model>  (1) 
DiffSBDD

>  <Protein>  (1) 
GPCR_5HT2C

$$$$
DiffSBDD_93_num_sample_100
     RDKit          3D

  0  0  0  0  0  0  0  0  0  0999 V3000
M  V30 BEGIN CTAB
M  V30 COUNTS 74 77 0 0 1
M  V30 BEGIN ATOM
M  V30 1 C 52.141976 44.674493 51.124626 0
M  V30 2 S 50.692675 42.872881 55.823579 0
M  V30 3 C 49.936211 43.559429 50.527841 0 CFG=2
M  V30 4 O 46.321909 44.772825 54.138079 0
M  V30 5 C 53.976263 39.650075 56.154727 0
M  V30 6 C 48.888296 46.045414 54.618458 0 CFG=1
M  V30 7 C 52.905366 41.374179 53.723736 0
M  V30 8 C 53.417846 43.277188 55.178041 0
M  V30 9 C 50.765458 42.405149 49.960066 0
M  V30 10 N 51.936022 45.246181 55.488914 0
M  V30 11 C 53.296816 38.629429 55.249193 0
M  V30 12 C 50.816045 44.480031 51.355021 0
M  V30 13 C 52.972459 45.582659 51.999006 0
M  V30 14 C 51.452832 45.399145 54.116278 0 CFG=2
M  V30 15 C 51.905890 42.984015 49.135338 0
M  V30 16 Cl 53.505470 45.042877 48.693469 0
M  V30 17 O 54.383590 39.045560 53.135973 0
M  V30 18 C 52.811916 43.950126 49.930026 0 CFG=1
M  V30 19 C 54.256377 46.173171 51.435539 0
M  V30 20 C 49.370655 44.042950 56.242673 0
M  V30 21 C 47.887010 46.493800 53.529055 0
M  V30 22 C 52.638571 45.907597 53.293114 0
M  V30 23 C 52.183247 40.056009 53.581189 0
M  V30 24 C 48.608030 44.557658 54.996893 0 CFG=1
M  V30 25 C 52.208759 43.885889 55.958361 0 CFG=1
M  V30 26 C 53.128560 38.894690 53.772209 0 CFG=2
M  V30 27 C 47.094511 44.363154 55.255718 0
M  V30 28 C 46.435554 46.164318 53.893466 0
M  V30 29 C 53.974117 41.007848 56.030711 0
M  V30 30 S 52.798182 44.085271 57.661583 0
M  V30 31 N 53.381184 41.821368 55.038705 0
M  V30 32 C 48.749132 43.029379 51.339688 0
M  V30 33 C 50.329095 46.463238 54.180273 0
M  V30 34 H 49.535053 44.155768 49.706941 0
M  V30 35 H 54.489240 39.225437 57.005935 0
M  V30 36 H 48.656059 46.632962 55.508182 0
M  V30 37 H 52.205219 42.128220 53.359347 0
M  V30 38 H 53.741243 41.429801 53.025660 0
M  V30 39 H 54.363653 43.579585 55.629298 0
M  V30 40 H 53.473358 43.686453 54.173491 0
M  V30 41 H 51.160954 41.785853 50.766530 0
M  V30 42 H 50.144790 41.758201 49.338562 0
M  V30 43 H 51.280355 45.688120 56.115497 0
M  V30 44 H 52.327155 38.394951 55.693455 0
M  V30 45 H 53.875346 37.710153 55.348648 0
M  V30 46 H 50.318263 44.995653 52.135739 0
M  V30 47 H 51.117921 44.424249 53.782688 0
M  V30 48 H 52.504206 42.189622 48.690895 0
M  V30 49 H 51.457143 43.518695 48.297191 0
M  V30 50 H 54.869027 39.704535 53.609645 0
M  V30 51 H 53.644091 43.379297 50.343347 0
M  V30 52 H 54.036627 46.892405 50.646816 0
M  V30 53 H 54.825092 46.703772 52.199699 0
M  V30 54 H 54.910859 45.394676 51.044368 0
M  V30 55 H 48.699152 43.463051 56.870476 0
M  V30 56 H 49.726462 44.850909 56.880873 0
M  V30 57 H 48.127240 46.014825 52.579436 0
M  V30 58 H 47.973440 47.566499 53.357710 0
M  V30 59 H 53.291867 46.586293 53.823438 0
M  V30 60 H 51.768103 40.004391 52.573170 0
M  V30 61 H 51.328413 40.002319 54.259170 0
M  V30 62 H 48.859582 43.929121 54.143101 0
M  V30 63 H 52.668244 38.020977 53.318833 0
M  V30 64 H 46.878278 43.310962 55.449415 0
M  V30 65 H 46.775588 44.910966 56.145073 0
M  V30 66 H 45.772467 46.433138 53.070516 0
M  V30 67 H 46.108715 46.732636 54.765498 0
M  V30 68 H 54.477541 41.598156 56.783245 0
M  V30 69 H 51.710319 44.700130 58.130271 0
M  V30 70 H 48.138392 43.839115 51.737573 0
M  V30 71 H 48.101609 42.419620 50.711494 0
M  V30 72 H 49.085642 42.414545 52.172991 0
M  V30 73 H 50.266093 46.919038 53.191133 0
M  V30 74 H 50.653053 47.298973 54.803274 0
M  V30 END ATOM
M  V30 BEGIN BOND
M  V30 1 1 9 3
M  V30 2 1 11 5
M  V30 3 2 12 1
M  V30 4 1 12 3
M  V30 5 1 13 1
M  V30 6 1 14 10
M  V30 7 1 15 9
M  V30 8 1 18 1
M  V30 9 1 18 15
M  V30 10 1 18 16
M  V30 11 1 19 13
M  V30 12 1 20 2
M  V30 13 1 21 6
M  V30 14 2 22 13
M  V30 15 1 22 14
M  V30 16 1 23 7
M  V30 17 1 24 6
M  V30 18 1 24 20
M  V30 19 1 25 2
M  V30 20 1 25 8
M  V30 21 1 25 10
M  V30 22 1 26 11
M  V30 23 1 26 17
M  V30 24 1 26 23
M  V30 25 1 27 4
M  V30 26 1 27 24
M  V30 27 1 28 4
M  V30 28 1 28 21
M  V30 29 2 29 5
M  V30 30 1 25 30 CFG=1
M  V30 31 1 31 7
M  V30 32 1 31 8
M  V30 33 1 31 29
M  V30 34 1 32 3
M  V30 35 1 33 6
M  V30 36 1 33 14
M  V30 37 1 3 34 CFG=3
M  V30 38 1 35 5
M  V30 39 1 6 36 CFG=1
M  V30 40 1 37 7
M  V30 41 1 38 7
M  V30 42 1 39 8
M  V30 43 1 40 8
M  V30 44 1 41 9
M  V30 45 1 42 9
M  V30 46 1 43 10
M  V30 47 1 44 11
M  V30 48 1 45 11
M  V30 49 1 46 12
M  V30 50 1 14 47 CFG=3
M  V30 51 1 48 15
M  V30 52 1 49 15
M  V30 53 1 50 17
M  V30 54 1 18 51 CFG=1
M  V30 55 1 52 19
M  V30 56 1 53 19
M  V30 57 1 54 19
M  V30 58 1 55 20
M  V30 59 1 56 20
M  V30 60 1 57 21
M  V30 61 1 58 21
M  V30 62 1 59 22
M  V30 63 1 60 23
M  V30 64 1 61 23
M  V30 65 1 24 62 CFG=3
M  V30 66 1 26 63 CFG=3
M  V30 67 1 64 27
M  V30 68 1 65 27
M  V30 69 1 66 28
M  V30 70 1 67 28
M  V30 71 1 68 29
M  V30 72 1 69 30
M  V30 73 1 70 32
M  V30 74 1 71 32
M  V30 75 1 72 32
M  V30 76 1 73 33
M  V30 77 1 74 33
M  V30 END BOND
M  V30 END CTAB
M  END
>  <i_epik_Tot_Q>  (1) 
0

>  <i_epik_Tot_abs_Q>  (1) 
0

>  <i_i_glide_confnum>  (1) 
79

>  <i_i_glide_lignum>  (1) 
256

>  <i_i_glide_posenum>  (1) 
210

>  <i_i_glide_rotatable_bonds>  (1) 
6

>  <i_lp_mmshare_version>  (1) 
72125

>  <i_m_source_file_index>  (1) 
94

>  <i_f3d_flags>  (1) 
0

>  <num_sample>  (1) 
100

>  <b_lp_Chiralities_Consistent>  (1) 
1

>  <r_epik_Charging_Adjusted_Penalty>  (1) 
0.20325292957253988

>  <r_epik_Ionization_Penalty>  (1) 
0.031936562948065232

>  <r_epik_Ionization_Penalty_Charging>  (1) 
3.6030848355623751e-07

>  <r_epik_Ionization_Penalty_Neutral>  (1) 
0.031936202639581676

>  <r_epik_State_Penalty>  (1) 
0.20325256926405633

>  <r_glide_ring_energy>  (1) 
0

>  <r_i_docking_score>  (1) 
-0.584611979753072

>  <r_i_glide_ecoul>  (1) 
-0.014196948620281133

>  <r_i_glide_eff_state_penalty>  (1) 
0.20325256926405633

>  <r_i_glide_einternal>  (1) 
27.900270759574767

>  <r_i_glide_emodel>  (1) 
2.3811169488633972

>  <r_i_glide_emodel_strain>  (1) 
0.07874558174492563

>  <r_i_glide_energy>  (1) 
-10.947286018647844

>  <r_i_glide_erotb>  (1) 
0.31140238833871409

>  <r_i_glide_esite>  (1) 
0

>  <r_i_glide_evdw>  (1) 
-10.933089070027563

>  <r_i_glide_gscore>  (1) 
-0.78786454901712832

>  <r_i_glide_gscore_strain>  (1) 
0

>  <r_i_glide_hbond>  (1) 
0

>  <r_i_glide_ligand_efficiency>  (1) 
-0.017715514537971877

>  <r_i_glide_ligand_efficiency_ln>  (1) 
-0.13001467733825139

>  <r_i_glide_ligand_efficiency_sa>  (1) 
-0.056823121054084956

>  <r_i_glide_lipo>  (1) 
-0.55048294156142197

>  <r_i_glide_metal>  (1) 
-0

>  <r_i_glide_rewards>  (1) 
0

>  <r_lp_Energy>  (1) 
35.986021999999998

>  <s_epik_Chemistry_Notes>  (1) 
This compound has an imine and may undergo hydrolysis.

>  <s_epik_cmdline>  (1) 
J2VwaWtfcHl0aG9uJywgJy1waHQnLCAnMS4wJywgJy1waCcsICc3LjQnLCAnLXRuJywgJzgnLCAnLW1hJywgJzUwMCcsICctaW1hZScsICc8aW5maWxlLm1hZT4nLCAnLW9tYWUnLCAnPG91dGZpbGUubWFlPic=

>  <s_epik_input>  (1) 
Q2xbQ0BIXTFbQ0gyXVtDSDJdW0NAQEhdKFtDSDNdKVtDSF09QzEvQyhbQ0gzXSk9W0NIXVxbQ0BASF0oW0NIMl0yKVtOSF1bQ0BAXShbU0hdKShTW0NIMl1bQ0BIXShbQ0BASF0yMylbQ0gyXU9bQ0gyXVtDSDJdMylbQ0gyXU4oW0NIMl1bQ0gyXTQpW0NIXT1bQ0hdW0NIMl1bQ0BASF00W09IXQ==

>  <s_glide_docking_method>  (1) 
confgen

>  <s_i_glide_gridfile>  (1) 
gpcr_5ht2c_6bqh_protein_autoprepared_prepared

>  <s_lp_Force_Field>  (1) 
S-OPLS

>  <s_lp_Variant>  (1) 
DiffSBDD_93_num_sample_100-8

>  <s_m_source_file>  (1) 
generated__ligand_DiffSBDD_2026-05-06_prepared.sdf

>  <GenAI_Model>  (1) 
DiffSBDD

>  <Protein>  (1) 
GPCR_5HT2C

$$$$
DiffSBDD_9_num_sample_100
     RDKit          3D

  0  0  0  0  0  0  0  0  0  0999 V3000
M  V30 BEGIN CTAB
M  V30 COUNTS 13 12 0 0 1
M  V30 BEGIN ATOM
M  V30 1 C 38.533269 28.226695 51.798876 0
M  V30 2 C 39.823018 29.004865 51.622771 0
M  V30 3 O 41.094677 30.421420 50.135457 0
M  V30 4 C 37.671058 28.421508 52.808428 0
M  V30 5 C 39.860054 29.762542 50.290799 0
M  V30 6 H 38.317415 27.474352 51.053502 0
M  V30 7 H 40.653627 28.300583 51.667863 0
M  V30 8 H 39.951956 29.699930 52.453690 0
M  V30 9 H 41.115110 31.175133 50.707002 0
M  V30 10 H 36.765446 27.837766 52.886276 0
M  V30 11 H 37.860239 29.166107 53.568257 0
M  V30 12 H 39.067403 30.507526 50.253501 0
M  V30 13 H 39.715054 29.079495 49.453502 0
M  V30 END ATOM
M  V30 BEGIN BOND
M  V30 1 1 2 1
M  V30 2 2 4 1
M  V30 3 1 5 2
M  V30 4 1 5 3
M  V30 5 1 6 1
M  V30 6 1 7 2
M  V30 7 1 8 2
M  V30 8 1 9 3
M  V30 9 1 10 4
M  V30 10 1 11 4
M  V30 11 1 12 5
M  V30 12 1 13 5
M  V30 END BOND
M  V30 END CTAB
M  END
>  <i_epik_Tot_Q>  (1) 
0

>  <i_epik_Tot_abs_Q>  (1) 
0

>  <i_i_glide_confnum>  (1) 
9

>  <i_i_glide_lignum>  (1) 
28

>  <i_i_glide_posenum>  (1) 
191

>  <i_i_glide_rotatable_bonds>  (1) 
3

>  <i_lp_mmshare_version>  (1) 
72125

>  <i_m_source_file_index>  (1) 
10

>  <i_f3d_flags>  (1) 
0

>  <num_sample>  (1) 
100

>  <b_lp_Chiralities_Consistent>  (1) 
1

>  <r_epik_Charging_Adjusted_Penalty>  (1) 
0

>  <r_epik_Ionization_Penalty>  (1) 
1.9109875336178571e-07

>  <r_epik_Ionization_Penalty_Charging>  (1) 
0

>  <r_epik_Ionization_Penalty_Neutral>  (1) 
1.9109875336178571e-07

>  <r_epik_State_Penalty>  (1) 
-0

>  <r_glide_ring_energy>  (1) 
0

>  <r_i_docking_score>  (1) 
-0.51326288983044788

>  <r_i_glide_ecoul>  (1) 
-1.2983586722101295

>  <r_i_glide_eff_state_penalty>  (1) 
-0

>  <r_i_glide_einternal>  (1) 
1.0342898744991318

>  <r_i_glide_emodel>  (1) 
-13.642204361916388

>  <r_i_glide_emodel_strain>  (1) 
4.7594682639484631e-09

>  <r_i_glide_energy>  (1) 
-13.735173091479325

>  <r_i_glide_erotb>  (1) 
3.9483316319645314

>  <r_i_glide_esite>  (1) 
0

>  <r_i_glide_evdw>  (1) 
-12.436814419269195

>  <r_i_glide_gscore>  (1) 
-0.51326288983044788

>  <r_i_glide_gscore_strain>  (1) 
0

>  <r_i_glide_hbond>  (1) 
0

>  <r_i_glide_ligand_efficiency>  (1) 
-0.10265257796608958

>  <r_i_glide_ligand_efficiency_ln>  (1) 
-0.19669480825151076

>  <r_i_glide_ligand_efficiency_sa>  (1) 
-0.17553343918636746

>  <r_i_glide_lipo>  (1) 
-1.3200000000000001

>  <r_i_glide_metal>  (1) 
-0

>  <r_i_glide_rewards>  (1) 
-2.3250000000000002

>  <r_lp_Energy>  (1) 
-1.2663519999999999

>  <r_lp_tautomer_probability>  (1) 
1

>  <s_epik_cmdline>  (1) 
J2VwaWtfcHl0aG9uJywgJy1waHQnLCAnMS4wJywgJy1waCcsICc3LjQnLCAnLXRuJywgJzgnLCAnLW1hJywgJzUwMCcsICctaW1hZScsICc8aW5maWxlLm1hZT4nLCAnLW9tYWUnLCAnPG91dGZpbGUubWFlPic=

>  <s_epik_input>  (1) 
W0NIMl09W0NIXVtDSDJdW0NIMl1bT0hd

>  <s_glide_docking_method>  (1) 
confgen

>  <s_i_glide_gridfile>  (1) 
gpcr_5ht2c_6bqh_protein_autoprepared_prepared

>  <s_lp_Force_Field>  (1) 
S-OPLS

>  <s_lp_Variant>  (1) 
DiffSBDD_9_num_sample_100-1

>  <s_m_source_file>  (1) 
generated__ligand_DiffSBDD_2026-05-06_prepared.sdf

>  <GenAI_Model>  (1) 
DiffSBDD

>  <Protein>  (1) 
GPCR_5HT2C

$$$$
DiffSBDD_93_num_sample_100
     RDKit          3D

  0  0  0  0  0  0  0  0  0  0999 V3000
M  V30 BEGIN CTAB
M  V30 COUNTS 74 77 0 0 1
M  V30 BEGIN ATOM
M  V30 1 C 41.469055 33.854405 63.168798 0
M  V30 2 S 35.748982 33.405634 60.840513 0
M  V30 3 C 41.707113 34.206139 65.662331 0 CFG=2
M  V30 4 O 37.425493 28.822169 58.653409 0
M  V30 5 C 35.439916 38.478515 62.678361 0
M  V30 6 C 38.134796 31.034850 60.315620 0 CFG=1
M  V30 7 C 38.230010 37.528067 61.920240 0
M  V30 8 C 37.151607 35.347357 62.147482 0
M  V30 9 C 41.277613 35.688760 65.448186 0
M  V30 10 N 38.432714 33.951147 60.601254 0 CHG=1
M  V30 11 C 35.826948 39.309122 61.497229 0
M  V30 12 C 41.650999 33.349698 64.398864 0
M  V30 13 C 41.492193 32.971457 62.010970 0
M  V30 14 C 38.971364 33.048198 61.667600 0 CFG=2
M  V30 15 C 40.566080 35.987390 64.109368 0
M  V30 16 Cl 40.981348 35.855870 61.346401 0
M  V30 17 O 37.467260 40.780428 60.409229 0
M  V30 18 C 41.366495 35.344830 62.989382 0 CFG=2
M  V30 19 C 42.772287 32.421423 61.554912 0
M  V30 20 C 36.042687 32.272896 59.453532 0
M  V30 21 C 38.940234 29.717587 60.274468 0
M  V30 22 C 40.378748 32.644988 61.331656 0
M  V30 23 C 38.200478 38.779922 61.053564 0
M  V30 24 C 36.689950 30.901457 59.801441 0 CFG=1
M  V30 25 C 37.126649 34.623527 60.797050 0 CFG=1
M  V30 26 C 37.235185 39.891006 61.447102 0 CFG=2
M  V30 27 C 36.675812 30.024841 58.522419 0
M  V30 28 C 38.799022 29.038402 58.912733 0
M  V30 29 C 35.985743 37.313986 62.941041 0
M  V30 30 S 36.998402 35.795160 59.453443 0 CHG=-1
M  V30 31 N 37.013759 36.767312 62.224556 0
M  V30 32 C 40.927567 33.573361 66.810684 0
M  V30 33 C 38.228837 31.700172 61.717921 0
M  V30 34 H 42.754432 34.201820 65.962932 0
M  V30 35 H 34.623214 38.821593 63.282279 0
M  V30 36 H 38.610981 31.653729 59.554083 0
M  V30 37 H 38.751088 37.730288 62.850320 0
M  V30 38 H 38.835428 36.852533 61.344434 0
M  V30 39 H 38.091807 35.220033 62.653468 0
M  V30 40 H 36.267402 34.957177 62.653490 0
M  V30 41 H 40.643904 36.033868 66.264407 0
M  V30 42 H 42.176676 36.304594 65.513935 0
M  V30 43 H 38.382932 33.459183 59.722914 0
M  V30 44 H 35.067333 40.021486 61.453472 0
M  V30 45 H 35.660424 38.634454 60.653583 0
M  V30 46 H 41.771565 32.284024 64.528539 0
M  V30 47 H 38.968115 33.474952 62.660954 0
M  V30 48 H 39.546340 35.621339 64.124154 0
M  V30 49 H 40.493795 37.055601 63.933405 0
M  V30 50 H 36.845640 40.467217 59.746330 0
M  V30 51 H 42.376873 35.724128 63.120436 0
M  V30 52 H 43.067384 31.643739 62.256428 0
M  V30 53 H 42.667784 32.021436 60.552952 0
M  V30 54 H 43.467399 33.221402 61.500179 0
M  V30 55 H 35.046367 32.082675 59.053501 0
M  V30 56 H 36.598673 32.786748 58.667323 0
M  V30 57 H 38.667200 29.030628 61.069929 0
M  V30 58 H 39.998284 29.912246 60.447987 0
M  V30 59 H 40.485599 32.014587 60.472044 0
M  V30 60 H 37.975415 38.454595 60.035985 0
M  V30 61 H 39.213866 39.186037 61.012839 0
M  V30 62 H 36.090722 30.414262 60.566829 0
M  V30 63 H 37.416940 40.584601 62.253487 0
M  V30 64 H 35.649798 29.761686 58.264840 0
M  V30 65 H 37.071318 30.578516 57.669445 0
M  V30 66 H 39.312578 28.077401 58.927324 0
M  V30 67 H 39.250518 29.637850 58.117896 0
M  V30 68 H 35.627620 36.685853 63.747196 0
M  V30 69 H 41.112097 32.501679 66.896148 0
M  V30 70 H 41.186689 34.031476 67.766605 0
M  V30 71 H 39.867612 33.736232 66.653700 0
M  V30 72 H 37.263208 31.789421 62.209286 0
M  V30 73 H 38.770451 31.042608 62.400733 0
M  V30 74 H 39.090287 34.709158 60.485405 0
M  V30 END ATOM
M  V30 BEGIN BOND
M  V30 1 1 9 3
M  V30 2 1 11 5
M  V30 3 2 12 1
M  V30 4 1 12 3
M  V30 5 1 13 1
M  V30 6 1 14 10
M  V30 7 1 15 9
M  V30 8 1 18 1
M  V30 9 1 18 15
M  V30 10 1 18 16
M  V30 11 1 19 13
M  V30 12 1 20 2
M  V30 13 1 21 6
M  V30 14 2 22 13
M  V30 15 1 22 14
M  V30 16 1 23 7
M  V30 17 1 24 6
M  V30 18 1 24 20
M  V30 19 1 25 2
M  V30 20 1 25 8
M  V30 21 1 25 10
M  V30 22 1 26 11
M  V30 23 1 26 17
M  V30 24 1 26 23
M  V30 25 1 27 4
M  V30 26 1 27 24
M  V30 27 1 28 4
M  V30 28 1 28 21
M  V30 29 2 29 5
M  V30 30 1 25 30 CFG=3
M  V30 31 1 31 7
M  V30 32 1 31 8
M  V30 33 1 31 29
M  V30 34 1 32 3
M  V30 35 1 33 6
M  V30 36 1 33 14
M  V30 37 1 3 34 CFG=1
M  V30 38 1 35 5
M  V30 39 1 6 36 CFG=3
M  V30 40 1 37 7
M  V30 41 1 38 7
M  V30 42 1 39 8
M  V30 43 1 40 8
M  V30 44 1 41 9
M  V30 45 1 42 9
M  V30 46 1 43 10
M  V30 47 1 44 11
M  V30 48 1 45 11
M  V30 49 1 46 12
M  V30 50 1 14 47 CFG=1
M  V30 51 1 48 15
M  V30 52 1 49 15
M  V30 53 1 50 17
M  V30 54 1 18 51 CFG=1
M  V30 55 1 52 19
M  V30 56 1 53 19
M  V30 57 1 54 19
M  V30 58 1 55 20
M  V30 59 1 56 20
M  V30 60 1 57 21
M  V30 61 1 58 21
M  V30 62 1 59 22
M  V30 63 1 60 23
M  V30 64 1 61 23
M  V30 65 1 24 62 CFG=1
M  V30 66 1 26 63 CFG=1
M  V30 67 1 64 27
M  V30 68 1 65 27
M  V30 69 1 66 28
M  V30 70 1 67 28
M  V30 71 1 68 29
M  V30 72 1 69 32
M  V30 73 1 70 32
M  V30 74 1 71 32
M  V30 75 1 72 33
M  V30 76 1 73 33
M  V30 77 1 74 10
M  V30 END BOND
M  V30 END CTAB
M  END
>  <i_epik_Tot_Q>  (1) 
0

>  <i_epik_Tot_abs_Q>  (1) 
2

>  <i_i_glide_confnum>  (1) 
28

>  <i_i_glide_lignum>  (1) 
260

>  <i_i_glide_posenum>  (1) 
236

>  <i_i_glide_rotatable_bonds>  (1) 
5

>  <i_lp_mmshare_version>  (1) 
72125

>  <i_m_source_file_index>  (1) 
94

>  <i_f3d_flags>  (1) 
0

>  <num_sample>  (1) 
100

>  <b_lp_Chiralities_Consistent>  (1) 
1

>  <r_epik_Charging_Adjusted_Penalty>  (1) 
0.80501984278308969

>  <r_epik_Ionization_Penalty>  (1) 
0.072421558423421364

>  <r_epik_Ionization_Penalty_Charging>  (1) 
0.072408791886815996

>  <r_epik_Ionization_Penalty_Neutral>  (1) 
1.2766536605372598e-05

>  <r_epik_State_Penalty>  (1) 
0.73261105089627365

>  <r_glide_ring_energy>  (1) 
1.2305908303780115

>  <r_i_docking_score>  (1) 
-0.37414704738122639

>  <r_i_glide_ecoul>  (1) 
-10.104278995635983

>  <r_i_glide_eff_state_penalty>  (1) 
0.73261105089627365

>  <r_i_glide_einternal>  (1) 
8.9548720348542652

>  <r_i_glide_emodel>  (1) 
12.625196231842159

>  <r_i_glide_emodel_strain>  (1) 
24.203468534362045

>  <r_i_glide_energy>  (1) 
-13.662410949957684

>  <r_i_glide_erotb>  (1) 
0.31140238833871409

>  <r_i_glide_esite>  (1) 
0

>  <r_i_glide_evdw>  (1) 
-3.5581319543216998

>  <r_i_glide_gscore>  (1) 
-1.1067580982775

>  <r_i_glide_gscore_strain>  (1) 
5.0508671335905113

>  <r_i_glide_hbond>  (1) 
-0.60799999999999998

>  <r_i_glide_ligand_efficiency>  (1) 
-0.011337789314582618

>  <r_i_glide_ligand_efficiency_ln>  (1) 
-0.083208366107851719

>  <r_i_glide_ligand_efficiency_sa>  (1) 
-0.036366348452783602

>  <r_i_glide_lipo>  (1) 
-3.544143634728016

>  <r_i_glide_metal>  (1) 
-0

>  <r_i_glide_rewards>  (1) 
-0.62333553841722789

>  <r_lp_Energy>  (1) 
39.266486

>  <s_epik_Chemistry_Notes>  (1) 
This compound has an imine and may undergo hydrolysis.

>  <s_epik_cmdline>  (1) 
J2VwaWtfcHl0aG9uJywgJy1waHQnLCAnMS4wJywgJy1waCcsICc3LjQnLCAnLXRuJywgJzgnLCAnLW1hJywgJzUwMCcsICctaW1hZScsICc8aW5maWxlLm1hZT4nLCAnLW9tYWUnLCAnPG91dGZpbGUubWFlPic=

>  <s_epik_input>  (1) 
Q2xbQ0BIXTFbQ0gyXVtDSDJdW0NAQEhdKFtDSDNdKVtDSF09QzEvQyhbQ0gzXSk9W0NIXVxbQ0BASF0oW0NIMl0yKVtOSF1bQ0BAXShbU0hdKShTW0NIMl1bQ0BIXShbQ0BASF0yMylbQ0gyXU9bQ0gyXVtDSDJdMylbQ0gyXU4oW0NIMl1bQ0gyXTQpW0NIXT1bQ0hdW0NIMl1bQ0BASF00W09IXQ==

>  <s_glide_docking_method>  (1) 
confgen

>  <s_i_glide_gridfile>  (1) 
gpcr_5ht2c_6bqh_protein_autoprepared_prepared

>  <s_lp_Force_Field>  (1) 
S-OPLS

>  <s_lp_Variant>  (1) 
DiffSBDD_93_num_sample_100-12

>  <s_m_source_file>  (1) 
generated__ligand_DiffSBDD_2026-05-06_prepared.sdf

>  <GenAI_Model>  (1) 
DiffSBDD

>  <Protein>  (1) 
GPCR_5HT2C

$$$$
DiffSBDD_55_num_sample_100
     RDKit          3D

  0  0  0  0  0  0  0  0  0  0999 V3000
M  V30 BEGIN CTAB
M  V30 COUNTS 31 30 0 0 1
M  V30 BEGIN ATOM
M  V30 1 O 39.867408 29.566645 49.853541 0
M  V30 2 C 36.228582 31.905462 60.532104 0
M  V30 3 C 38.473834 31.262463 54.088746 0
M  V30 4 C 40.002505 30.469712 50.930628 0
M  V30 5 C 37.747147 30.331114 58.403661 0
M  V30 6 C 37.675473 31.411025 60.537836 0
M  V30 7 C 39.467410 29.851126 52.235029 0
M  V30 8 O 35.467421 31.621433 61.453501 0
M  V30 9 C 38.551794 32.266010 55.222360 0
M  V30 10 O 38.215526 31.395837 59.222894 0
M  V30 11 C 39.540786 30.841896 53.383067 0
M  V30 12 N 37.867405 31.802759 56.445042 0 CHG=1
M  V30 13 C 38.358732 30.533983 57.017276 0
M  V30 14 H 38.978827 29.621430 49.514568 0
M  V30 15 H 35.938187 32.510202 59.672586 0
M  V30 16 H 37.491521 30.882718 53.853497 0
M  V30 17 H 41.056903 30.727391 51.040270 0
M  V30 18 H 39.473541 31.391410 50.683448 0
M  V30 19 H 36.658960 30.314185 58.333082 0
M  V30 20 H 38.064017 29.374964 58.822640 0
M  V30 21 H 37.738175 30.421426 60.991251 0
M  V30 22 H 38.267257 32.089187 61.152693 0
M  V30 23 H 38.442917 29.502408 52.107767 0
M  V30 24 H 40.050901 28.968842 52.486797 0
M  V30 25 H 39.592310 32.496282 55.453500 0
M  V30 26 H 38.079308 33.194749 54.899927 0
M  V30 27 H 40.522774 31.221429 53.625446 0
M  V30 28 H 38.004101 32.511525 57.151468 0
M  V30 29 H 38.085819 29.704182 56.364315 0
M  V30 30 H 39.447317 30.551935 57.087187 0
M  V30 31 H 36.851959 31.743673 56.314393 0
M  V30 END ATOM
M  V30 BEGIN BOND
M  V30 1 1 4 1
M  V30 2 1 6 2
M  V30 3 1 7 4
M  V30 4 2 8 2
M  V30 5 1 9 3
M  V30 6 1 10 5
M  V30 7 1 10 6
M  V30 8 2 11 3
M  V30 9 1 11 7
M  V30 10 1 12 9
M  V30 11 1 13 5
M  V30 12 1 13 12
M  V30 13 1 14 1
M  V30 14 1 15 2
M  V30 15 1 16 3
M  V30 16 1 17 4
M  V30 17 1 18 4
M  V30 18 1 19 5
M  V30 19 1 20 5
M  V30 20 1 21 6
M  V30 21 1 22 6
M  V30 22 1 23 7
M  V30 23 1 24 7
M  V30 24 1 25 9
M  V30 25 1 26 9
M  V30 26 1 27 11
M  V30 27 1 28 12
M  V30 28 1 29 13
M  V30 29 1 30 13
M  V30 30 1 31 12
M  V30 END BOND
M  V30 END CTAB
M  END
>  <i_epik_Tot_Q>  (1) 
1

>  <i_epik_Tot_abs_Q>  (1) 
1

>  <i_i_glide_confnum>  (1) 
189

>  <i_i_glide_lignum>  (1) 
143

>  <i_i_glide_posenum>  (1) 
105

>  <i_i_glide_rotatable_bonds>  (1) 
10

>  <i_lp_mmshare_version>  (1) 
72125

>  <i_m_source_file_index>  (1) 
56

>  <i_f3d_flags>  (1) 
0

>  <num_sample>  (1) 
100

>  <b_lp_Chiralities_Consistent>  (1) 
1

>  <r_epik_Charging_Adjusted_Penalty>  (1) 
0.030434772791752211

>  <r_epik_Ionization_Penalty>  (1) 
0.015753410346001584

>  <r_epik_Ionization_Penalty_Charging>  (1) 
0.015217386395876106

>  <r_epik_Ionization_Penalty_Neutral>  (1) 
0.00053602395012547943

>  <r_epik_State_Penalty>  (1) 
0.015217386395876104

>  <r_glide_ring_energy>  (1) 
0

>  <r_i_docking_score>  (1) 
0.049317942314678336

>  <r_i_glide_ecoul>  (1) 
-9.9283219411899992

>  <r_i_glide_eff_state_penalty>  (1) 
0.015217386395876104

>  <r_i_glide_einternal>  (1) 
3.3982137297163839

>  <r_i_glide_emodel>  (1) 
-27.811106731215013

>  <r_i_glide_emodel_strain>  (1) 
0.15326235398026133

>  <r_i_glide_energy>  (1) 
-29.75319320842117

>  <r_i_glide_erotb>  (1) 
7.2241488501301259

>  <r_i_glide_esite>  (1) 
-0.16087503274713935

>  <r_i_glide_evdw>  (1) 
-19.82487126723117

>  <r_i_glide_gscore>  (1) 
0.034100555918802233

>  <r_i_glide_gscore_strain>  (1) 
0

>  <r_i_glide_hbond>  (1) 
-0.78057829944312629

>  <r_i_glide_ligand_efficiency>  (1) 
0.0037936878703598719

>  <r_i_glide_ligand_efficiency_ln>  (1) 
0.013834121433297372

>  <r_i_glide_ligand_efficiency_sa>  (1) 
0.0089202298839626566

>  <r_i_glide_lipo>  (1) 
-0.97419933762634281

>  <r_i_glide_metal>  (1) 
-0

>  <r_i_glide_rewards>  (1) 
-2.7939037698546567

>  <r_lp_Energy>  (1) 
4.0370939999999997

>  <r_lp_tautomer_probability>  (1) 
0.99990000499974985

>  <s_epik_cmdline>  (1) 
J2VwaWtfcHl0aG9uJywgJy1waHQnLCAnMS4wJywgJy1waCcsICc3LjQnLCAnLXRuJywgJzgnLCAnLW1hJywgJzUwMCcsICctaW1hZScsICc8aW5maWxlLm1hZT4nLCAnLW9tYWUnLCAnPG91dGZpbGUubWFlPic=

>  <s_epik_input>  (1) 
W09IXVtDSDJdW0NIMl1cW0NIXT1bQ0hdXFtDSDJdW05IXVtDSDJdW0NIMl1PW0NIMl1bQ0hdPU8=

>  <s_glide_docking_method>  (1) 
confgen

>  <s_i_glide_gridfile>  (1) 
gpcr_5ht2c_6bqh_protein_autoprepared_prepared

>  <s_lp_Force_Field>  (1) 
S-OPLS

>  <s_lp_Variant>  (1) 
DiffSBDD_55_num_sample_100-1

>  <s_m_source_file>  (1) 
generated__ligand_DiffSBDD_2026-05-06_prepared.sdf

>  <GenAI_Model>  (1) 
DiffSBDD

>  <Protein>  (1) 
GPCR_5HT2C

$$$$
DiffSBDD_55_num_sample_100
     RDKit          3D

  0  0  0  0  0  0  0  0  0  0999 V3000
M  V30 BEGIN CTAB
M  V30 COUNTS 31 30 0 0 1
M  V30 BEGIN ATOM
M  V30 1 O 39.867402 30.028343 50.277367 0
M  V30 2 C 36.233483 32.006845 60.461884 0
M  V30 3 C 38.267403 30.692700 53.916507 0
M  V30 4 C 40.075149 28.914119 51.122345 0
M  V30 5 C 37.820728 30.546417 58.329995 0
M  V30 6 C 37.747415 31.811170 60.363740 0
M  V30 7 C 39.124820 28.912068 52.335676 0
M  V30 8 O 35.615892 31.621436 61.452604 0
M  V30 9 C 38.417530 31.918547 54.800743 0
M  V30 10 O 38.178842 31.744584 59.008782 0
M  V30 11 C 39.278712 30.133458 53.227201 0
M  V30 12 N 37.867403 31.720256 56.159790 0 CHG=1
M  V30 13 C 38.440355 30.598016 56.930920 0
M  V30 14 H 39.037346 29.932242 49.825788 0
M  V30 15 H 35.763573 32.499383 59.610239 0
M  V30 16 H 37.278435 30.264328 53.853502 0
M  V30 17 H 39.939464 28.002628 50.538733 0
M  V30 18 H 41.113416 28.921683 51.453500 0
M  V30 19 H 36.738905 30.421444 58.259851 0
M  V30 20 H 38.212208 29.685206 58.873530 0
M  V30 21 H 38.047809 30.913178 60.905067 0
M  V30 22 H 38.235004 32.658920 60.845067 0
M  V30 23 H 38.088438 28.821412 52.006625 0
M  V30 24 H 39.333598 28.029307 52.940708 0
M  V30 25 H 39.467394 32.204145 54.873763 0
M  V30 26 H 37.888890 32.751537 54.335157 0
M  V30 27 H 40.269457 30.559688 53.293939 0
M  V30 28 H 38.040110 32.564077 56.687545 0
M  V30 29 H 38.243430 29.656258 56.417837 0
M  V30 30 H 39.522681 30.711414 56.999821 0
M  V30 31 H 36.848710 31.621434 56.144158 0
M  V30 END ATOM
M  V30 BEGIN BOND
M  V30 1 1 4 1
M  V30 2 1 6 2
M  V30 3 1 7 4
M  V30 4 2 8 2
M  V30 5 1 9 3
M  V30 6 1 10 5
M  V30 7 1 10 6
M  V30 8 2 11 3
M  V30 9 1 11 7
M  V30 10 1 12 9
M  V30 11 1 13 5
M  V30 12 1 13 12
M  V30 13 1 14 1
M  V30 14 1 15 2
M  V30 15 1 16 3
M  V30 16 1 17 4
M  V30 17 1 18 4
M  V30 18 1 19 5
M  V30 19 1 20 5
M  V30 20 1 21 6
M  V30 21 1 22 6
M  V30 22 1 23 7
M  V30 23 1 24 7
M  V30 24 1 25 9
M  V30 25 1 26 9
M  V30 26 1 27 11
M  V30 27 1 28 12
M  V30 28 1 29 13
M  V30 29 1 30 13
M  V30 30 1 31 12
M  V30 END BOND
M  V30 END CTAB
M  END
>  <i_epik_Tot_Q>  (1) 
1

>  <i_epik_Tot_abs_Q>  (1) 
1

>  <i_i_glide_confnum>  (1) 
182

>  <i_i_glide_lignum>  (1) 
143

>  <i_i_glide_posenum>  (1) 
344

>  <i_i_glide_rotatable_bonds>  (1) 
10

>  <i_lp_mmshare_version>  (1) 
72125

>  <i_m_source_file_index>  (1) 
56

>  <i_f3d_flags>  (1) 
0

>  <num_sample>  (1) 
100

>  <b_lp_Chiralities_Consistent>  (1) 
1

>  <r_epik_Charging_Adjusted_Penalty>  (1) 
0.030434772791752211

>  <r_epik_Ionization_Penalty>  (1) 
0.015753410346001584

>  <r_epik_Ionization_Penalty_Charging>  (1) 
0.015217386395876106

>  <r_epik_Ionization_Penalty_Neutral>  (1) 
0.00053602395012547943

>  <r_epik_State_Penalty>  (1) 
0.015217386395876104

>  <r_glide_ring_energy>  (1) 
0

>  <r_i_docking_score>  (1) 
0.072397415003330523

>  <r_i_glide_ecoul>  (1) 
-8.415213372056666

>  <r_i_glide_eff_state_penalty>  (1) 
0.015217386395876104

>  <r_i_glide_einternal>  (1) 
6.1654102567631366

>  <r_i_glide_emodel>  (1) 
-25.764822037453762

>  <r_i_glide_emodel_strain>  (1) 
0.16310754424294149

>  <r_i_glide_energy>  (1) 
-29.161073178361988

>  <r_i_glide_erotb>  (1) 
7.2241488501301259

>  <r_i_glide_esite>  (1) 
-0.16219576629986407

>  <r_i_glide_evdw>  (1) 
-20.745859806305322

>  <r_i_glide_gscore>  (1) 
0.057180028607454414

>  <r_i_glide_gscore_strain>  (1) 
0

>  <r_i_glide_hbond>  (1) 
-0.80334047828162181

>  <r_i_glide_ligand_efficiency>  (1) 
0.0055690319233331169

>  <r_i_glide_ligand_efficiency_ln>  (1) 
0.020308118782052471

>  <r_i_glide_ligand_efficiency_sa>  (1) 
0.013094657938357407

>  <r_i_glide_lipo>  (1) 
-0.95855773456419657

>  <r_i_glide_metal>  (1) 
-0

>  <r_i_glide_rewards>  (1) 
-2.9432998462532232

>  <r_lp_Energy>  (1) 
4.0370939999999997

>  <r_lp_tautomer_probability>  (1) 
0.99990000499974985

>  <s_epik_cmdline>  (1) 
J2VwaWtfcHl0aG9uJywgJy1waHQnLCAnMS4wJywgJy1waCcsICc3LjQnLCAnLXRuJywgJzgnLCAnLW1hJywgJzUwMCcsICctaW1hZScsICc8aW5maWxlLm1hZT4nLCAnLW9tYWUnLCAnPG91dGZpbGUubWFlPic=

>  <s_epik_input>  (1) 
W09IXVtDSDJdW0NIMl1cW0NIXT1bQ0hdXFtDSDJdW05IXVtDSDJdW0NIMl1PW0NIMl1bQ0hdPU8=

>  <s_glide_docking_method>  (1) 
confgen

>  <s_i_glide_gridfile>  (1) 
gpcr_5ht2c_6bqh_protein_autoprepared_prepared

>  <s_lp_Force_Field>  (1) 
S-OPLS

>  <s_lp_Variant>  (1) 
DiffSBDD_55_num_sample_100-1

>  <s_m_source_file>  (1) 
generated__ligand_DiffSBDD_2026-05-06_prepared.sdf

>  <GenAI_Model>  (1) 
DiffSBDD

>  <Protein>  (1) 
GPCR_5HT2C

$$$$
DiffSBDD_55_num_sample_100
     RDKit          3D

  0  0  0  0  0  0  0  0  0  0999 V3000
M  V30 BEGIN CTAB
M  V30 COUNTS 31 30 0 0 1
M  V30 BEGIN ATOM
M  V30 1 O 39.867450 29.391237 50.040655 0
M  V30 2 C 36.869717 33.073095 60.873569 0
M  V30 3 C 39.400002 31.008340 54.016512 0
M  V30 4 C 39.932586 28.537934 51.167284 0
M  V30 5 C 37.867414 32.658321 58.064473 0
M  V30 6 C 38.015636 33.807945 60.164888 0
M  V30 7 C 39.131752 29.111309 52.347322 0
M  V30 8 O 37.067398 32.005148 61.453226 0
M  V30 9 C 38.419874 30.435959 55.022227 0
M  V30 10 O 38.668299 32.993627 59.189705 0
M  V30 11 C 39.710149 30.431141 52.840371 0
M  V30 12 N 37.867406 31.513922 55.871755 0 CHG=1
M  V30 13 C 38.709570 31.918240 57.018386 0
M  V30 14 H 38.975749 29.429633 49.714888 0
M  V30 15 H 35.895765 33.559923 60.822814 0
M  V30 16 H 39.867434 31.943276 54.283163 0
M  V30 17 H 39.557282 27.551874 50.889603 0
M  V30 18 H 40.978729 28.421407 51.452885 0
M  V30 19 H 37.420073 33.554648 57.630519 0
M  V30 20 H 37.066682 31.997115 58.385108 0
M  V30 21 H 38.747291 34.110706 60.914025 0
M  V30 22 H 37.636450 34.717741 59.698150 0
M  V30 23 H 38.085770 29.221440 52.062918 0
M  V30 24 H 39.146751 28.393962 53.168618 0
M  V30 25 H 37.594732 29.955956 54.494820 0
M  V30 26 H 38.902925 29.670517 55.630791 0
M  V30 27 H 40.417470 30.920151 52.184363 0
M  V30 28 H 37.655691 32.324497 55.305432 0
M  V30 29 H 39.145710 31.033512 57.483500 0
M  V30 30 H 39.533353 32.542432 56.670675 0
M  V30 31 H 36.966353 31.221360 56.253498 0
M  V30 END ATOM
M  V30 BEGIN BOND
M  V30 1 1 4 1
M  V30 2 1 6 2
M  V30 3 1 7 4
M  V30 4 2 8 2
M  V30 5 1 9 3
M  V30 6 1 10 5
M  V30 7 1 10 6
M  V30 8 2 11 3
M  V30 9 1 11 7
M  V30 10 1 12 9
M  V30 11 1 13 5
M  V30 12 1 13 12
M  V30 13 1 14 1
M  V30 14 1 15 2
M  V30 15 1 16 3
M  V30 16 1 17 4
M  V30 17 1 18 4
M  V30 18 1 19 5
M  V30 19 1 20 5
M  V30 20 1 21 6
M  V30 21 1 22 6
M  V30 22 1 23 7
M  V30 23 1 24 7
M  V30 24 1 25 9
M  V30 25 1 26 9
M  V30 26 1 27 11
M  V30 27 1 28 12
M  V30 28 1 29 13
M  V30 29 1 30 13
M  V30 30 1 31 12
M  V30 END BOND
M  V30 END CTAB
M  END
>  <i_epik_Tot_Q>  (1) 
1

>  <i_epik_Tot_abs_Q>  (1) 
1

>  <i_i_glide_confnum>  (1) 
81

>  <i_i_glide_lignum>  (1) 
144

>  <i_i_glide_posenum>  (1) 
164

>  <i_i_glide_rotatable_bonds>  (1) 
10

>  <i_lp_mmshare_version>  (1) 
72125

>  <i_m_source_file_index>  (1) 
56

>  <i_f3d_flags>  (1) 
0

>  <num_sample>  (1) 
100

>  <b_lp_Chiralities_Consistent>  (1) 
1

>  <r_epik_Charging_Adjusted_Penalty>  (1) 
0.030434772791752211

>  <r_epik_Ionization_Penalty>  (1) 
0.015753410346001584

>  <r_epik_Ionization_Penalty_Charging>  (1) 
0.015217386395876106

>  <r_epik_Ionization_Penalty_Neutral>  (1) 
0.00053602395012547943

>  <r_epik_State_Penalty>  (1) 
0.015217386395876104

>  <r_glide_ring_energy>  (1) 
0

>  <r_i_docking_score>  (1) 
0.1628821686404926

>  <r_i_glide_ecoul>  (1) 
-8.5448860052394195

>  <r_i_glide_eff_state_penalty>  (1) 
0.015217386395876104

>  <r_i_glide_einternal>  (1) 
10.355556210953031

>  <r_i_glide_emodel>  (1) 
-23.869033461507378

>  <r_i_glide_emodel_strain>  (1) 
0.4449860693437131

>  <r_i_glide_energy>  (1) 
-29.87643621510038

>  <r_i_glide_erotb>  (1) 
7.2241488501301259

>  <r_i_glide_esite>  (1) 
-0.10000000000000001

>  <r_i_glide_evdw>  (1) 
-21.331550209860961

>  <r_i_glide_gscore>  (1) 
0.14766478224461649

>  <r_i_glide_gscore_strain>  (1) 
0

>  <r_i_glide_hbond>  (1) 
-0.64178767822371696

>  <r_i_glide_ligand_efficiency>  (1) 
0.012529397587730199

>  <r_i_glide_ligand_efficiency_ln>  (1) 
0.045689896912441616

>  <r_i_glide_ligand_efficiency_sa>  (1) 
0.029460807164274808

>  <r_i_glide_lipo>  (1) 
-1.4016358381916714

>  <r_i_glide_metal>  (1) 
-0

>  <r_i_glide_rewards>  (1) 
-2.5847501401911606

>  <r_lp_Energy>  (1) 
5.3250869999999999

>  <r_lp_tautomer_probability>  (1) 
0.99990000499974985

>  <s_epik_cmdline>  (1) 
J2VwaWtfcHl0aG9uJywgJy1waHQnLCAnMS4wJywgJy1waCcsICc3LjQnLCAnLXRuJywgJzgnLCAnLW1hJywgJzUwMCcsICctaW1hZScsICc8aW5maWxlLm1hZT4nLCAnLW9tYWUnLCAnPG91dGZpbGUubWFlPic=

>  <s_epik_input>  (1) 
W09IXVtDSDJdW0NIMl0vW0NIXT1bQ0hdXFtDSDJdW05IXVtDSDJdW0NIMl1PW0NIMl1bQ0hdPU8=

>  <s_glide_docking_method>  (1) 
confgen

>  <s_i_glide_gridfile>  (1) 
gpcr_5ht2c_6bqh_protein_autoprepared_prepared

>  <s_lp_Force_Field>  (1) 
S-OPLS

>  <s_lp_Variant>  (1) 
DiffSBDD_55_num_sample_100-2

>  <s_m_source_file>  (1) 
generated__ligand_DiffSBDD_2026-05-06_prepared.sdf

>  <GenAI_Model>  (1) 
DiffSBDD

>  <Protein>  (1) 
GPCR_5HT2C

$$$$
DiffSBDD_66_num_sample_100
     RDKit          3D

  0  0  0  0  0  0  0  0  0  0999 V3000
M  V30 BEGIN CTAB
M  V30 COUNTS 112 116 0 0 1
M  V30 BEGIN ATOM
M  V30 1 C 43.755948 28.367639 67.771613 0
M  V30 2 C 39.466799 28.520306 61.618006 0
M  V30 3 C 41.825929 35.479465 66.202325 0
M  V30 4 C 37.867537 31.947390 56.826901 0
M  V30 5 C 39.220382 30.004314 51.746578 0
M  V30 6 C 40.157861 29.040915 49.653435 0
M  V30 7 C 42.325562 33.159069 65.652682 0
M  V30 8 S 38.256965 31.512568 60.928005 0
M  V30 9 C 39.767133 29.776499 62.405131 0 CFG=1
M  V30 10 C 43.271629 29.737039 68.054379 0
M  V30 11 C 40.938207 28.375696 66.610476 0
M  V30 12 C 41.154086 29.704659 66.645572 0
M  V30 13 C 39.283166 27.686695 53.053087 0
M  V30 14 C 45.128536 26.696201 67.396440 0
M  V30 15 C 39.221075 27.377661 58.028148 0 CFG=2
M  V30 16 C 41.573006 27.373192 67.503960 0
M  V30 17 C 40.407463 30.605624 65.656955 0
M  V30 18 O 40.667386 25.621347 53.055099 0
M  V30 19 C 41.378781 32.037727 63.553815 0 CFG=1
M  V30 20 N 45.027000 28.013407 67.767533 0 CHG=1
M  V30 21 C 42.450518 34.259005 66.517020 0
M  V30 22 C 41.554794 33.265173 64.475436 0
M  V30 23 C 39.866612 29.065274 52.722879 0
M  V30 24 C 43.308479 24.887940 66.780806 0
M  V30 25 C 42.132316 30.317560 67.571821 0
M  V30 26 C 38.399858 28.587198 57.535063 0
M  V30 27 C 40.082108 30.294834 50.516516 0 CFG=1
M  V30 28 C 40.666880 27.376542 57.495399 0
M  V30 29 C 41.241159 30.673859 64.324952 0 CFG=2
M  V30 30 C 40.916355 29.480973 63.387426 0 CFG=2
M  V30 31 C 36.618618 30.566122 58.652994 0
M  V30 32 C 40.653034 27.534519 56.007398 0
M  V30 33 N 43.011471 27.323353 67.466025 0
M  V30 34 C 40.943283 34.506557 64.156476 0
M  V30 35 C 43.829705 26.235825 67.191454 0
M  V30 36 C 38.445203 26.095714 57.606185 0
M  V30 37 O 39.467400 31.306776 49.763803 0
M  V30 38 C 39.256386 27.284455 59.542529 0
M  V30 39 C 38.991412 30.004373 57.813736 0
M  V30 40 C 37.976642 31.135400 58.134457 0
M  V30 41 C 39.892879 31.083013 61.591490 0 CFG=2
M  V30 42 N 39.611358 28.468296 60.336869 0 CHG=1
M  V30 43 C 40.299670 26.560691 55.168441 0
M  V30 44 C 38.467155 32.128916 59.222297 0
M  V30 45 C 41.079867 35.603136 65.022040 0
M  V30 46 C 42.158625 28.811395 62.768511 0
M  V30 47 C 38.001806 27.352059 52.807516 0
M  V30 48 C 40.267454 26.715877 53.694440 0 CFG=2
M  V30 49 C 40.249593 32.250760 62.516201 0
M  V30 50 H 39.117900 27.624387 62.121093 0
M  V30 51 H 41.919890 36.324572 66.864642 0
M  V30 52 H 38.833549 32.323972 56.476639 0
M  V30 53 H 37.239252 32.826322 56.945071 0
M  V30 54 H 37.465194 31.341878 56.014310 0
M  V30 55 H 38.267892 29.616735 51.412932 0
M  V30 56 H 39.077616 30.931798 52.303027 0
M  V30 57 H 40.657823 28.234888 50.181740 0
M  V30 58 H 40.664558 29.221899 48.705345 0
M  V30 59 H 39.153174 28.673170 49.453926 0
M  V30 60 H 42.808781 32.232650 65.897538 0
M  V30 61 H 43.926252 30.345608 68.658713 0
M  V30 62 H 40.223097 27.981541 65.910156 0
M  V30 63 H 46.083240 26.193927 67.305204 0
M  V30 64 H 41.339000 27.623908 68.534997 0
M  V30 65 H 41.128522 26.400494 67.344801 0
M  V30 66 H 39.397562 30.233427 65.479289 0
M  V30 67 H 40.269874 31.578605 66.127637 0
M  V30 68 H 40.119742 24.896401 53.316905 0
M  V30 69 H 42.306731 31.962173 62.982231 0
M  V30 70 H 43.032457 34.167145 67.423126 0
M  V30 71 H 40.820059 28.866745 52.253450 0
M  V30 72 H 40.054520 29.622135 53.644982 0
M  V30 73 H 43.639040 24.116852 67.475235 0
M  V30 74 H 43.688119 24.636426 65.791959 0
M  V30 75 H 42.226529 24.827590 66.693417 0
M  V30 76 H 41.970100 31.352570 67.837894 0
M  V30 77 H 38.212354 28.518639 56.463895 0
M  V30 78 H 37.416615 28.420337 57.956697 0
M  V30 79 H 41.076644 30.638498 50.803737 0
M  V30 80 H 41.262930 28.180754 57.922532 0
M  V30 81 H 41.177728 26.449199 57.755875 0
M  V30 82 H 42.262167 30.489122 64.657725 0
M  V30 83 H 40.508157 28.687726 64.005858 0
M  V30 84 H 36.754881 29.859536 59.475314 0
M  V30 85 H 36.049555 30.022921 57.897446 0
M  V30 86 H 35.972844 31.354513 59.048302 0
M  V30 87 H 40.937964 28.499882 55.620923 0
M  V30 88 H 40.357189 34.619157 63.261268 0
M  V30 89 H 37.510420 25.974746 58.159286 0
M  V30 90 H 39.030677 25.195429 57.774862 0
M  V30 91 H 38.140242 26.109119 56.560746 0
M  V30 92 H 38.705536 30.928739 49.345931 0
M  V30 93 H 38.267595 27.034903 59.865180 0
M  V30 94 H 39.867517 26.453647 59.843974 0
M  V30 95 H 39.769581 30.014671 58.558140 0
M  V30 96 H 39.583930 30.260382 56.934589 0
M  V30 97 H 40.629533 30.995549 60.791974 0
M  V30 98 H 40.017974 25.593930 55.558299 0
M  V30 99 H 39.467449 32.496574 59.036196 0
M  V30 100 H 37.831530 33.015752 59.173089 0
M  V30 101 H 40.601418 36.542681 64.780932 0
M  V30 102 H 41.986844 28.556148 61.725026 0
M  V30 103 H 42.368018 27.865617 63.270202 0
M  V30 104 H 43.057993 29.424666 62.836442 0
M  V30 105 H 37.629611 26.369508 53.054563 0
M  V30 106 H 37.313671 28.049767 52.362129 0
M  V30 107 H 41.247769 26.821395 53.276099 0
M  V30 108 H 40.507721 33.082519 61.860343 0
M  V30 109 H 39.347829 32.542628 63.060409 0
M  V30 110 H 45.803047 28.627514 67.977407 0
M  V30 111 H 38.890736 29.939484 63.031675 0
M  V30 112 H 39.923135 29.292809 59.834004 0
M  V30 END ATOM
M  V30 BEGIN BOND
M  V30 1 1 9 2
M  V30 2 1 10 1
M  V30 3 2 12 11
M  V30 4 1 16 11
M  V30 5 1 17 12
M  V30 6 2 20 1
M  V30 7 1 20 14
M  V30 8 2 21 3
M  V30 9 1 21 7
M  V30 10 2 22 7
M  V30 11 1 22 19
M  V30 12 1 23 5
M  V30 13 1 23 13
M  V30 14 2 25 10
M  V30 15 1 25 12
M  V30 16 1 26 15
M  V30 17 1 27 5
M  V30 18 1 27 6
M  V30 19 1 15 28 CFG=3
M  V30 20 1 29 17
M  V30 21 1 29 19
M  V30 22 1 30 9
M  V30 23 1 30 29
M  V30 24 1 32 28
M  V30 25 1 33 1
M  V30 26 1 33 16
M  V30 27 1 34 22
M  V30 28 2 35 14
M  V30 29 1 35 24
M  V30 30 1 35 33
M  V30 31 1 36 15
M  V30 32 1 37 27
M  V30 33 1 38 15
M  V30 34 1 39 26
M  V30 35 1 40 4
M  V30 36 1 40 31
M  V30 37 1 40 39
M  V30 38 1 41 8
M  V30 39 1 41 9
M  V30 40 2 42 2
M  V30 41 1 42 38
M  V30 42 2 43 32
M  V30 43 1 44 8
M  V30 44 1 44 40
M  V30 45 1 45 3
M  V30 46 2 45 34
M  V30 47 1 46 30
M  V30 48 2 47 13
M  V30 49 1 48 13
M  V30 50 1 48 18
M  V30 51 1 48 43
M  V30 52 1 49 19
M  V30 53 1 49 41
M  V30 54 1 50 2
M  V30 55 1 51 3
M  V30 56 1 52 4
M  V30 57 1 53 4
M  V30 58 1 54 4
M  V30 59 1 55 5
M  V30 60 1 56 5
M  V30 61 1 57 6
M  V30 62 1 58 6
M  V30 63 1 59 6
M  V30 64 1 60 7
M  V30 65 1 61 10
M  V30 66 1 62 11
M  V30 67 1 63 14
M  V30 68 1 64 16
M  V30 69 1 65 16
M  V30 70 1 66 17
M  V30 71 1 67 17
M  V30 72 1 68 18
M  V30 73 1 19 69 CFG=3
M  V30 74 1 70 21
M  V30 75 1 71 23
M  V30 76 1 72 23
M  V30 77 1 73 24
M  V30 78 1 74 24
M  V30 79 1 75 24
M  V30 80 1 76 25
M  V30 81 1 77 26
M  V30 82 1 78 26
M  V30 83 1 27 79 CFG=1
M  V30 84 1 80 28
M  V30 85 1 81 28
M  V30 86 1 29 82 CFG=1
M  V30 87 1 30 83 CFG=1
M  V30 88 1 84 31
M  V30 89 1 85 31
M  V30 90 1 86 31
M  V30 91 1 87 32
M  V30 92 1 88 34
M  V30 93 1 89 36
M  V30 94 1 90 36
M  V30 95 1 91 36
M  V30 96 1 92 37
M  V30 97 1 93 38
M  V30 98 1 94 38
M  V30 99 1 95 39
M  V30 100 1 96 39
M  V30 101 1 41 97 CFG=3
M  V30 102 1 98 43
M  V30 103 1 99 44
M  V30 104 1 100 44
M  V30 105 1 101 45
M  V30 106 1 102 46
M  V30 107 1 103 46
M  V30 108 1 104 46
M  V30 109 1 105 47
M  V30 110 1 106 47
M  V30 111 1 48 107 CFG=1
M  V30 112 1 108 49
M  V30 113 1 109 49
M  V30 114 1 110 20
M  V30 115 1 9 111 CFG=1
M  V30 116 1 112 42
M  V30 END BOND
M  V30 END CTAB
M  END
>  <i_epik_Tot_Q>  (1) 
2

>  <i_epik_Tot_abs_Q>  (1) 
2

>  <i_i_glide_confnum>  (1) 
1062

>  <i_i_glide_lignum>  (1) 
164

>  <i_i_glide_posenum>  (1) 
143

>  <i_i_glide_rotatable_bonds>  (1) 
12

>  <i_lp_mmshare_version>  (1) 
72125

>  <i_m_source_file_index>  (1) 
67

>  <i_f3d_flags>  (1) 
0

>  <num_sample>  (1) 
100

>  <b_lp_Chiralities_Consistent>  (1) 
1

>  <r_epik_Charging_Adjusted_Penalty>  (1) 
0.52025287817150023

>  <r_epik_Ionization_Penalty>  (1) 
3.4472135568412994

>  <r_epik_Ionization_Penalty_Charging>  (1) 
0.14055655438482481

>  <r_epik_Ionization_Penalty_Neutral>  (1) 
3.3066570024564745

>  <r_epik_State_Penalty>  (1) 
0.37969632378667539

>  <r_glide_ring_energy>  (1) 
0

>  <r_i_docking_score>  (1) 
0.18120754534490546

>  <r_i_glide_ecoul>  (1) 
-5.8995361815733567

>  <r_i_glide_eff_state_penalty>  (1) 
0.37969632378667539

>  <r_i_glide_einternal>  (1) 
22.353086007345226

>  <r_i_glide_emodel>  (1) 
27.506592709825817

>  <r_i_glide_emodel_strain>  (1) 
28.234596602806207

>  <r_i_glide_energy>  (1) 
-7.4392090020126238

>  <r_i_glide_erotb>  (1) 
0.28524200512041686

>  <r_i_glide_esite>  (1) 
0

>  <r_i_glide_evdw>  (1) 
-1.5396728204392673

>  <r_i_glide_gscore>  (1) 
-0.19848877844176993

>  <r_i_glide_gscore_strain>  (1) 
6.0586491507015516

>  <r_i_glide_hbond>  (1) 
-0.32000000000000001

>  <r_i_glide_ligand_efficiency>  (1) 
0.0036981131703041933

>  <r_i_glide_ligand_efficiency_ln>  (1) 
0.037042968527460716

>  <r_i_glide_ligand_efficiency_sa>  (1) 
0.013532526640405289

>  <r_i_glide_lipo>  (1) 
-4.5772551237736447

>  <r_i_glide_metal>  (1) 
-0

>  <r_i_glide_rewards>  (1) 
-0.68321074223212608

>  <r_lp_Energy>  (1) 
65.322982999999994

>  <s_epik_Chemistry_Notes>  (1) 
This compound has an imine and may undergo hydrolysis.

>  <s_epik_cmdline>  (1) 
J2VwaWtfcHl0aG9uJywgJy1waHQnLCAnMS4wJywgJy1waCcsICc3LjQnLCAnLXRuJywgJzgnLCAnLW1hJywgJzUwMCcsICctaW1hZScsICc8aW5maWxlLm1hZT4nLCAnLW9tYWUnLCAnPG91dGZpbGUubWFlPic=

>  <s_epik_input>  (1) 
bjFbY0hdYyhbQ0gzXSluKGMxMilbQ0gyXVtDSF09QyhbQ0hdPVtDSF0yKVtDSDJdW0NAQEhdKFtDQEBIXTNbQ0gzXSlbQ0BIXShjNFtjSF1bY0hdW2NIXVtjSF1bY0hdNClbQ0gyXVtDQEBIXShbQ0BIXTM1KVNbQ0gyXUMoW0NIM10pKFtDSDNdKVtDSDJdW0NIMl1bQ0BdKFtDSDNdKShbQ0gyXVxOPVtDSF1cNSlbQ0gyXS9bQ0hdPVtDSF0vW0NAQEhdKFtPSF0pQyg9W0NIMl0pW0NIMl1bQ0gyXVtDQEBIXShbQ0gzXSlbT0hd

>  <s_glide_docking_method>  (1) 
confgen

>  <s_i_glide_gridfile>  (1) 
gpcr_5ht2c_6bqh_protein_autoprepared_prepared

>  <s_lp_Force_Field>  (1) 
S-OPLS

>  <s_lp_Variant>  (1) 
DiffSBDD_66_num_sample_100-1

>  <s_m_source_file>  (1) 
generated__ligand_DiffSBDD_2026-05-06_prepared.sdf

>  <GenAI_Model>  (1) 
DiffSBDD

>  <Protein>  (1) 
GPCR_5HT2C

$$$$
DiffSBDD_93_num_sample_100
     RDKit          3D

  0  0  0  0  0  0  0  0  0  0999 V3000
M  V30 BEGIN CTAB
M  V30 COUNTS 74 77 0 0 1
M  V30 BEGIN ATOM
M  V30 1 C 45.482895 23.642651 70.704556 0
M  V30 2 S 41.869298 27.446364 68.343448 0
M  V30 3 C 45.886955 21.261757 69.873985 0 CFG=2
M  V30 4 O 39.088906 24.480169 71.431544 0
M  V30 5 C 44.849869 30.713460 72.006092 0
M  V30 6 C 41.784714 25.548475 71.398764 0 CFG=1
M  V30 7 C 42.471398 30.380399 69.975894 0
M  V30 8 C 44.119146 29.116887 68.635640 0
M  V30 9 C 44.371839 21.127572 69.597795 0
M  V30 10 N 44.350186 26.625940 69.266037 0 CHG=1
M  V30 11 C 43.626275 31.180704 72.781497 0
M  V30 12 C 46.218751 22.504275 70.717105 0
M  V30 13 C 45.855213 24.773345 71.637904 0
M  V30 14 C 44.162239 26.579558 70.741248 0 CFG=2
M  V30 15 C 43.559240 22.356229 70.025265 0
M  V30 16 Cl 44.668969 23.847793 68.074073 0
M  V30 17 O 41.476659 32.099891 73.055356 0
M  V30 18 C 44.281666 23.679592 69.808379 0 CFG=2
M  V30 19 C 46.940023 24.542132 72.664388 0
M  V30 20 C 41.473361 25.713227 68.740124 0
M  V30 21 C 40.866464 25.608952 72.628412 0
M  V30 22 C 45.268885 26.020282 71.635460 0
M  V30 23 C 41.768511 30.484474 71.315112 0
M  V30 24 C 40.862547 25.540081 70.159534 0 CFG=1
M  V30 25 C 43.684161 27.631592 68.396623 0 CFG=1
M  V30 26 C 42.375899 31.646568 72.067616 0 CFG=2
M  V30 27 C 39.859446 24.373205 70.241398 0
M  V30 28 C 39.865679 24.443947 72.618419 0
M  V30 29 C 44.878184 30.109690 70.786259 0
M  V30 30 S 44.410120 27.199077 66.808681 0 CHG=-1
M  V30 31 N 43.814443 29.789599 69.911278 0
M  V30 32 C 46.666730 21.133181 68.546049 0
M  V30 33 C 42.768511 26.734213 71.403103 0
M  V30 34 H 46.187694 20.412104 70.488930 0
M  V30 35 H 45.798854 30.861097 72.516917 0
M  V30 36 H 42.303867 24.607060 71.536692 0
M  V30 37 H 42.528924 31.369391 69.520034 0
M  V30 38 H 41.804242 29.832803 69.317200 0
M  V30 39 H 43.698349 29.724855 67.833165 0
M  V30 40 H 45.197448 29.165682 68.478049 0
M  V30 41 H 44.199149 20.954126 68.534939 0
M  V30 42 H 43.980619 20.238689 70.093828 0
M  V30 43 H 44.113409 25.729261 68.869003 0
M  V30 44 H 43.968556 32.010931 73.398824 0
M  V30 45 H 43.373533 30.373890 73.470019 0
M  V30 46 H 47.067437 22.421179 71.360591 0
M  V30 47 H 44.502117 27.591163 70.899804 0
M  V30 48 H 42.667255 22.411030 69.451919 0
M  V30 49 H 43.261738 22.257873 71.069823 0
M  V30 50 H 40.687051 32.394471 72.627528 0
M  V30 51 H 43.573884 24.420708 70.043127 0
M  V30 52 H 46.798354 25.212419 73.507899 0
M  V30 53 H 46.985479 23.537120 73.076776 0
M  V30 54 H 47.866943 24.821044 72.199253 0
M  V30 55 H 40.709515 25.446379 68.010351 0
M  V30 56 H 42.293946 25.051368 68.511014 0
M  V30 57 H 40.325439 26.556179 72.656186 0
M  V30 58 H 41.470038 25.563833 73.531320 0
M  V30 59 H 45.630292 26.729047 72.368673 0
M  V30 60 H 41.804521 29.558419 71.885728 0
M  V30 61 H 40.707767 30.668733 71.122715 0
M  V30 62 H 40.266780 26.421639 70.319762 0
M  V30 63 H 42.586198 32.491258 71.410425 0
M  V30 64 H 39.151853 24.420886 69.414707 0
M  V30 65 H 40.357205 23.404359 70.194500 0
M  V30 66 H 39.183424 24.528967 73.460650 0
M  V30 67 H 40.377269 23.485231 72.708693 0
M  V30 68 H 45.825635 29.806596 70.385747 0
M  V30 69 H 47.741753 21.189456 68.654383 0
M  V30 70 H 46.470428 20.162939 68.093037 0
M  V30 71 H 46.382081 21.880788 67.809859 0
M  V30 72 H 42.263671 27.611670 71.012081 0
M  V30 73 H 42.958931 27.011936 72.440595 0
M  V30 74 H 45.335683 26.755351 69.089331 0
M  V30 END ATOM
M  V30 BEGIN BOND
M  V30 1 1 9 3
M  V30 2 1 11 5
M  V30 3 2 12 1
M  V30 4 1 12 3
M  V30 5 1 13 1
M  V30 6 1 14 10
M  V30 7 1 15 9
M  V30 8 1 18 1
M  V30 9 1 18 15
M  V30 10 1 18 16
M  V30 11 1 19 13
M  V30 12 1 20 2
M  V30 13 1 21 6
M  V30 14 2 22 13
M  V30 15 1 22 14
M  V30 16 1 23 7
M  V30 17 1 24 6
M  V30 18 1 24 20
M  V30 19 1 25 2
M  V30 20 1 25 8
M  V30 21 1 25 10
M  V30 22 1 26 11
M  V30 23 1 26 17
M  V30 24 1 26 23
M  V30 25 1 27 4
M  V30 26 1 27 24
M  V30 27 1 28 4
M  V30 28 1 28 21
M  V30 29 2 29 5
M  V30 30 1 25 30 CFG=3
M  V30 31 1 31 7
M  V30 32 1 31 8
M  V30 33 1 31 29
M  V30 34 1 32 3
M  V30 35 1 33 6
M  V30 36 1 33 14
M  V30 37 1 3 34 CFG=1
M  V30 38 1 35 5
M  V30 39 1 6 36 CFG=1
M  V30 40 1 37 7
M  V30 41 1 38 7
M  V30 42 1 39 8
M  V30 43 1 40 8
M  V30 44 1 41 9
M  V30 45 1 42 9
M  V30 46 1 43 10
M  V30 47 1 44 11
M  V30 48 1 45 11
M  V30 49 1 46 12
M  V30 50 1 14 47 CFG=1
M  V30 51 1 48 15
M  V30 52 1 49 15
M  V30 53 1 50 17
M  V30 54 1 18 51 CFG=1
M  V30 55 1 52 19
M  V30 56 1 53 19
M  V30 57 1 54 19
M  V30 58 1 55 20
M  V30 59 1 56 20
M  V30 60 1 57 21
M  V30 61 1 58 21
M  V30 62 1 59 22
M  V30 63 1 60 23
M  V30 64 1 61 23
M  V30 65 1 24 62 CFG=1
M  V30 66 1 26 63 CFG=3
M  V30 67 1 64 27
M  V30 68 1 65 27
M  V30 69 1 66 28
M  V30 70 1 67 28
M  V30 71 1 68 29
M  V30 72 1 69 32
M  V30 73 1 70 32
M  V30 74 1 71 32
M  V30 75 1 72 33
M  V30 76 1 73 33
M  V30 77 1 74 10
M  V30 END BOND
M  V30 END CTAB
M  END
>  <i_epik_Tot_Q>  (1) 
0

>  <i_epik_Tot_abs_Q>  (1) 
2

>  <i_i_glide_confnum>  (1) 
122

>  <i_i_glide_lignum>  (1) 
260

>  <i_i_glide_posenum>  (1) 
379

>  <i_i_glide_rotatable_bonds>  (1) 
5

>  <i_lp_mmshare_version>  (1) 
72125

>  <i_m_source_file_index>  (1) 
94

>  <i_f3d_flags>  (1) 
0

>  <num_sample>  (1) 
100

>  <b_lp_Chiralities_Consistent>  (1) 
1

>  <r_epik_Charging_Adjusted_Penalty>  (1) 
0.80501984278308969

>  <r_epik_Ionization_Penalty>  (1) 
0.072421558423421364

>  <r_epik_Ionization_Penalty_Charging>  (1) 
0.072408791886815996

>  <r_epik_Ionization_Penalty_Neutral>  (1) 
1.2766536605372598e-05

>  <r_epik_State_Penalty>  (1) 
0.73261105089627365

>  <r_glide_ring_energy>  (1) 
0

>  <r_i_docking_score>  (1) 
0.19369891811291406

>  <r_i_glide_ecoul>  (1) 
0.47299278742688816

>  <r_i_glide_eff_state_penalty>  (1) 
0.73261105089627365

>  <r_i_glide_einternal>  (1) 
9.5983448258176143

>  <r_i_glide_emodel>  (1) 
-1.4294339065466533

>  <r_i_glide_emodel_strain>  (1) 
4.6466804929152943

>  <r_i_glide_energy>  (1) 
-9.709921957979267

>  <r_i_glide_erotb>  (1) 
0.31140238833871409

>  <r_i_glide_esite>  (1) 
0

>  <r_i_glide_evdw>  (1) 
-10.182914745406155

>  <r_i_glide_gscore>  (1) 
-0.53891213278335959

>  <r_i_glide_gscore_strain>  (1) 
0.16167012322882357

>  <r_i_glide_hbond>  (1) 
0

>  <r_i_glide_ligand_efficiency>  (1) 
0.0058696641852398201

>  <r_i_glide_ligand_efficiency_ln>  (1) 
0.043077636468989183

>  <r_i_glide_ligand_efficiency_sa>  (1) 
0.018827149379703707

>  <r_i_glide_lipo>  (1) 
-0.55299614827522026

>  <r_i_glide_metal>  (1) 
-0

>  <r_i_glide_rewards>  (1) 
-0.020791676919402417

>  <r_lp_Energy>  (1) 
39.266486

>  <s_epik_Chemistry_Notes>  (1) 
This compound has an imine and may undergo hydrolysis.

>  <s_epik_cmdline>  (1) 
J2VwaWtfcHl0aG9uJywgJy1waHQnLCAnMS4wJywgJy1waCcsICc3LjQnLCAnLXRuJywgJzgnLCAnLW1hJywgJzUwMCcsICctaW1hZScsICc8aW5maWxlLm1hZT4nLCAnLW9tYWUnLCAnPG91dGZpbGUubWFlPic=

>  <s_epik_input>  (1) 
Q2xbQ0BIXTFbQ0gyXVtDSDJdW0NAQEhdKFtDSDNdKVtDSF09QzEvQyhbQ0gzXSk9W0NIXVxbQ0BASF0oW0NIMl0yKVtOSF1bQ0BAXShbU0hdKShTW0NIMl1bQ0BIXShbQ0BASF0yMylbQ0gyXU9bQ0gyXVtDSDJdMylbQ0gyXU4oW0NIMl1bQ0gyXTQpW0NIXT1bQ0hdW0NIMl1bQ0BASF00W09IXQ==

>  <s_glide_docking_method>  (1) 
confgen

>  <s_i_glide_gridfile>  (1) 
gpcr_5ht2c_6bqh_protein_autoprepared_prepared

>  <s_lp_Force_Field>  (1) 
S-OPLS

>  <s_lp_Variant>  (1) 
DiffSBDD_93_num_sample_100-12

>  <s_m_source_file>  (1) 
generated__ligand_DiffSBDD_2026-05-06_prepared.sdf

>  <GenAI_Model>  (1) 
DiffSBDD

>  <Protein>  (1) 
GPCR_5HT2C

$$$$
DiffSBDD_55_num_sample_100
     RDKit          3D

  0  0  0  0  0  0  0  0  0  0999 V3000
M  V30 BEGIN CTAB
M  V30 COUNTS 31 30 0 0 1
M  V30 BEGIN ATOM
M  V30 1 O 39.467405 31.221430 49.853501 0
M  V30 2 C 36.185101 32.021430 60.308456 0
M  V30 3 C 38.731557 30.726563 53.588096 0
M  V30 4 C 40.401921 30.283973 50.342073 0
M  V30 5 C 37.629153 29.730813 57.825841 0
M  V30 6 C 36.386027 30.716065 59.553481 0
M  V30 7 C 39.896293 29.613945 51.631640 0
M  V30 8 O 35.740167 32.019692 61.453500 0
M  V30 9 C 38.639981 31.726620 54.727124 0
M  V30 10 O 37.467550 30.867811 58.653501 0
M  V30 11 C 39.805669 30.596745 52.788766 0
M  V30 12 N 37.867403 31.208117 55.873102 0 CHG=1
M  V30 13 C 38.520187 30.133358 56.648433 0
M  V30 14 H 38.752310 30.749466 49.438719 0
M  V30 15 H 36.458926 32.927616 59.767749 0
M  V30 16 H 37.867401 30.099306 53.427248 0
M  V30 17 H 40.577640 29.537724 49.566953 0
M  V30 18 H 41.352862 30.788869 50.519247 0
M  V30 19 H 36.667395 29.376571 57.453402 0
M  V30 20 H 38.079110 28.917866 58.397275 0
M  V30 21 H 35.467413 30.478848 59.016286 0
M  V30 22 H 36.590739 29.906824 60.253495 0
M  V30 23 H 38.930061 29.136647 51.461489 0
M  V30 24 H 40.593531 28.818735 51.889891 0
M  V30 25 H 39.633134 32.043650 55.048166 0
M  V30 26 H 38.122599 32.611682 54.354616 0
M  V30 27 H 40.667516 31.221430 52.954671 0
M  V30 28 H 37.683522 31.971754 56.513473 0
M  V30 29 H 38.699891 29.269493 56.007516 0
M  V30 30 H 39.489638 30.476803 57.011474 0
M  V30 31 H 36.950782 30.906539 55.567991 0
M  V30 END ATOM
M  V30 BEGIN BOND
M  V30 1 1 4 1
M  V30 2 1 6 2
M  V30 3 1 7 4
M  V30 4 2 8 2
M  V30 5 1 9 3
M  V30 6 1 10 5
M  V30 7 1 10 6
M  V30 8 2 11 3
M  V30 9 1 11 7
M  V30 10 1 12 9
M  V30 11 1 13 5
M  V30 12 1 13 12
M  V30 13 1 14 1
M  V30 14 1 15 2
M  V30 15 1 16 3
M  V30 16 1 17 4
M  V30 17 1 18 4
M  V30 18 1 19 5
M  V30 19 1 20 5
M  V30 20 1 21 6
M  V30 21 1 22 6
M  V30 22 1 23 7
M  V30 23 1 24 7
M  V30 24 1 25 9
M  V30 25 1 26 9
M  V30 26 1 27 11
M  V30 27 1 28 12
M  V30 28 1 29 13
M  V30 29 1 30 13
M  V30 30 1 31 12
M  V30 END BOND
M  V30 END CTAB
M  END
>  <i_epik_Tot_Q>  (1) 
1

>  <i_epik_Tot_abs_Q>  (1) 
1

>  <i_i_glide_confnum>  (1) 
182

>  <i_i_glide_lignum>  (1) 
143

>  <i_i_glide_posenum>  (1) 
344

>  <i_i_glide_rotatable_bonds>  (1) 
10

>  <i_lp_mmshare_version>  (1) 
72125

>  <i_m_source_file_index>  (1) 
56

>  <i_f3d_flags>  (1) 
0

>  <num_sample>  (1) 
100

>  <b_lp_Chiralities_Consistent>  (1) 
1

>  <r_epik_Charging_Adjusted_Penalty>  (1) 
0.030434772791752211

>  <r_epik_Ionization_Penalty>  (1) 
0.015753410346001584

>  <r_epik_Ionization_Penalty_Charging>  (1) 
0.015217386395876106

>  <r_epik_Ionization_Penalty_Neutral>  (1) 
0.00053602395012547943

>  <r_epik_State_Penalty>  (1) 
0.015217386395876104

>  <r_glide_ring_energy>  (1) 
0

>  <r_i_docking_score>  (1) 
0.20345559769899141

>  <r_i_glide_ecoul>  (1) 
-6.9406662192033748

>  <r_i_glide_eff_state_penalty>  (1) 
0.015217386395876104

>  <r_i_glide_einternal>  (1) 
5.9840093813070796

>  <r_i_glide_emodel>  (1) 
-23.410428535194569

>  <r_i_glide_emodel_strain>  (1) 
0.66635266920052283

>  <r_i_glide_energy>  (1) 
-27.564033429381205

>  <r_i_glide_erotb>  (1) 
7.2241488501301259

>  <r_i_glide_esite>  (1) 
-0.16904099100957176

>  <r_i_glide_evdw>  (1) 
-20.623367210177829

>  <r_i_glide_gscore>  (1) 
0.1882382113031153

>  <r_i_glide_gscore_strain>  (1) 
0

>  <r_i_glide_hbond>  (1) 
-0.59355602270034757

>  <r_i_glide_ligand_efficiency>  (1) 
0.015650430592230109

>  <r_i_glide_ligand_efficiency_ln>  (1) 
0.057071104607181379

>  <r_i_glide_ligand_efficiency_sa>  (1) 
0.036799400329276775

>  <r_i_glide_lipo>  (1) 
-1.2704263783567755

>  <r_i_glide_metal>  (1) 
-0

>  <r_i_glide_rewards>  (1) 
-2.9306189533709173

>  <r_lp_Energy>  (1) 
4.0370939999999997

>  <r_lp_tautomer_probability>  (1) 
0.99990000499974985

>  <s_epik_cmdline>  (1) 
J2VwaWtfcHl0aG9uJywgJy1waHQnLCAnMS4wJywgJy1waCcsICc3LjQnLCAnLXRuJywgJzgnLCAnLW1hJywgJzUwMCcsICctaW1hZScsICc8aW5maWxlLm1hZT4nLCAnLW9tYWUnLCAnPG91dGZpbGUubWFlPic=

>  <s_epik_input>  (1) 
W09IXVtDSDJdW0NIMl1cW0NIXT1bQ0hdXFtDSDJdW05IXVtDSDJdW0NIMl1PW0NIMl1bQ0hdPU8=

>  <s_glide_docking_method>  (1) 
confgen

>  <s_i_glide_gridfile>  (1) 
gpcr_5ht2c_6bqh_protein_autoprepared_prepared

>  <s_lp_Force_Field>  (1) 
S-OPLS

>  <s_lp_Variant>  (1) 
DiffSBDD_55_num_sample_100-1

>  <s_m_source_file>  (1) 
generated__ligand_DiffSBDD_2026-05-06_prepared.sdf

>  <GenAI_Model>  (1) 
DiffSBDD

>  <Protein>  (1) 
GPCR_5HT2C

$$$$
DiffSBDD_55_num_sample_100
     RDKit          3D

  0  0  0  0  0  0  0  0  0  0999 V3000
M  V30 BEGIN CTAB
M  V30 COUNTS 31 30 0 0 1
M  V30 BEGIN ATOM
M  V30 1 O 38.667569 27.221412 51.307453 0
M  V30 2 C 36.198175 31.862485 60.249229 0
M  V30 3 C 39.215080 31.221634 54.110720 0
M  V30 4 C 39.242412 28.483409 51.554523 0
M  V30 5 C 37.950371 33.108344 58.053001 0
M  V30 6 C 37.195059 31.186221 59.308754 0
M  V30 7 C 38.817669 28.995543 52.938948 0
M  V30 8 O 36.211461 31.621502 61.453578 0
M  V30 9 C 37.819716 31.350067 54.692368 0
M  V30 10 O 38.266892 32.069589 58.975974 0
M  V30 11 C 39.649845 30.199284 53.348356 0
M  V30 12 N 37.867404 31.528483 56.156344 0 CHG=1
M  V30 13 C 38.503083 32.761084 56.662255 0
M  V30 14 H 37.722109 27.288990 51.286263 0
M  V30 15 H 35.497084 32.551966 59.778777 0
M  V30 16 H 39.893101 32.021641 54.339009 0
M  V30 17 H 40.325822 28.370693 51.497729 0
M  V30 18 H 38.950208 29.182842 50.770216 0
M  V30 19 H 38.425841 34.020699 58.410207 0
M  V30 20 H 36.883519 33.327817 58.004763 0
M  V30 21 H 36.674991 30.822226 58.422531 0
M  V30 22 H 37.609953 30.314250 59.814842 0
M  V30 23 H 37.751071 29.208354 52.924384 0
M  V30 24 H 38.983437 28.214767 53.682519 0
M  V30 25 H 37.329063 32.218853 54.254096 0
M  V30 26 H 37.183757 30.492347 54.488288 0
M  V30 27 H 40.667236 30.214025 52.990926 0
M  V30 28 H 36.883907 31.604211 56.446848 0
M  V30 29 H 39.585513 32.635513 56.692165 0
M  V30 30 H 38.291052 33.590773 55.985681 0
M  V30 31 H 38.268592 30.719303 56.606026 0
M  V30 END ATOM
M  V30 BEGIN BOND
M  V30 1 1 4 1
M  V30 2 1 6 2
M  V30 3 1 7 4
M  V30 4 2 8 2
M  V30 5 1 9 3
M  V30 6 1 10 5
M  V30 7 1 10 6
M  V30 8 2 11 3
M  V30 9 1 11 7
M  V30 10 1 12 9
M  V30 11 1 13 5
M  V30 12 1 13 12
M  V30 13 1 14 1
M  V30 14 1 15 2
M  V30 15 1 16 3
M  V30 16 1 17 4
M  V30 17 1 18 4
M  V30 18 1 19 5
M  V30 19 1 20 5
M  V30 20 1 21 6
M  V30 21 1 22 6
M  V30 22 1 23 7
M  V30 23 1 24 7
M  V30 24 1 25 9
M  V30 25 1 26 9
M  V30 26 1 27 11
M  V30 27 1 28 12
M  V30 28 1 29 13
M  V30 29 1 30 13
M  V30 30 1 31 12
M  V30 END BOND
M  V30 END CTAB
M  END
>  <i_epik_Tot_Q>  (1) 
1

>  <i_epik_Tot_abs_Q>  (1) 
1

>  <i_i_glide_confnum>  (1) 
7

>  <i_i_glide_lignum>  (1) 
144

>  <i_i_glide_posenum>  (1) 
324

>  <i_i_glide_rotatable_bonds>  (1) 
10

>  <i_lp_mmshare_version>  (1) 
72125

>  <i_m_source_file_index>  (1) 
56

>  <i_f3d_flags>  (1) 
0

>  <num_sample>  (1) 
100

>  <b_lp_Chiralities_Consistent>  (1) 
1

>  <r_epik_Charging_Adjusted_Penalty>  (1) 
0.030434772791752211

>  <r_epik_Ionization_Penalty>  (1) 
0.015753410346001584

>  <r_epik_Ionization_Penalty_Charging>  (1) 
0.015217386395876106

>  <r_epik_Ionization_Penalty_Neutral>  (1) 
0.00053602395012547943

>  <r_epik_State_Penalty>  (1) 
0.015217386395876104

>  <r_glide_ring_energy>  (1) 
0

>  <r_i_docking_score>  (1) 
0.21547921470778786

>  <r_i_glide_ecoul>  (1) 
-10.046064846545995

>  <r_i_glide_eff_state_penalty>  (1) 
0.015217386395876104

>  <r_i_glide_einternal>  (1) 
9.0011851039264048

>  <r_i_glide_emodel>  (1) 
-25.759341724639491

>  <r_i_glide_emodel_strain>  (1) 
0.22026733355181705

>  <r_i_glide_energy>  (1) 
-31.00184545680122

>  <r_i_glide_erotb>  (1) 
7.2241488501301259

>  <r_i_glide_esite>  (1) 
-0.17166697653135823

>  <r_i_glide_evdw>  (1) 
-20.955780610255225

>  <r_i_glide_gscore>  (1) 
0.20026182831191175

>  <r_i_glide_gscore_strain>  (1) 
0

>  <r_i_glide_hbond>  (1) 
-0.67713925942714692

>  <r_i_glide_ligand_efficiency>  (1) 
0.016575324208291373

>  <r_i_glide_ligand_efficiency_ln>  (1) 
0.060443836111383729

>  <r_i_glide_ligand_efficiency_sa>  (1) 
0.038974134771173112

>  <r_i_glide_lipo>  (1) 
-1.1716067452736336

>  <r_i_glide_metal>  (1) 
-0

>  <r_i_glide_rewards>  (1) 
-2.4487752830914147

>  <r_lp_Energy>  (1) 
5.3250869999999999

>  <r_lp_tautomer_probability>  (1) 
0.99990000499974985

>  <s_epik_cmdline>  (1) 
J2VwaWtfcHl0aG9uJywgJy1waHQnLCAnMS4wJywgJy1waCcsICc3LjQnLCAnLXRuJywgJzgnLCAnLW1hJywgJzUwMCcsICctaW1hZScsICc8aW5maWxlLm1hZT4nLCAnLW9tYWUnLCAnPG91dGZpbGUubWFlPic=

>  <s_epik_input>  (1) 
W09IXVtDSDJdW0NIMl0vW0NIXT1bQ0hdXFtDSDJdW05IXVtDSDJdW0NIMl1PW0NIMl1bQ0hdPU8=

>  <s_glide_docking_method>  (1) 
confgen

>  <s_i_glide_gridfile>  (1) 
gpcr_5ht2c_6bqh_protein_autoprepared_prepared

>  <s_lp_Force_Field>  (1) 
S-OPLS

>  <s_lp_Variant>  (1) 
DiffSBDD_55_num_sample_100-2

>  <s_m_source_file>  (1) 
generated__ligand_DiffSBDD_2026-05-06_prepared.sdf

>  <GenAI_Model>  (1) 
DiffSBDD

>  <Protein>  (1) 
GPCR_5HT2C

$$$$
DiffSBDD_55_num_sample_100
     RDKit          3D

  0  0  0  0  0  0  0  0  0  0999 V3000
M  V30 BEGIN CTAB
M  V30 COUNTS 31 30 0 0 1
M  V30 BEGIN ATOM
M  V30 1 O 40.028970 29.699284 50.025087 0
M  V30 2 C 39.696218 29.646531 61.208174 0
M  V30 3 C 38.300325 31.375802 54.165317 0
M  V30 4 C 40.037196 30.658181 51.060776 0
M  V30 5 C 38.464527 30.303201 58.488833 0
M  V30 6 C 39.252197 28.692192 60.095439 0
M  V30 7 C 39.470574 30.046194 52.353718 0
M  V30 8 O 40.667498 30.386046 61.053635 0
M  V30 9 C 38.252884 32.403946 55.283800 0
M  V30 10 O 39.391959 29.271790 58.801830 0
M  V30 11 C 39.416390 31.063678 53.480774 0
M  V30 12 N 37.867406 31.828216 56.592134 0 CHG=1
M  V30 13 C 38.685173 30.668327 57.017603 0
M  V30 14 H 39.146766 29.625083 49.684338 0
M  V30 15 H 39.098137 29.618210 62.119340 0
M  V30 16 H 37.370757 30.883320 53.923836 0
M  V30 17 H 41.064681 30.987309 51.219750 0
M  V30 18 H 39.467827 31.533516 50.743057 0
M  V30 19 H 38.635493 31.176401 59.119667 0
M  V30 20 H 37.439702 29.964674 58.650716 0
M  V30 21 H 38.222125 28.383168 60.253459 0
M  V30 22 H 39.866553 27.793578 60.143458 0
M  V30 23 H 38.480892 29.621421 52.187979 0
M  V30 24 H 40.109507 29.220519 52.653196 0
M  V30 25 H 39.229955 32.880143 55.383887 0
M  V30 26 H 37.544146 33.186861 55.012677 0
M  V30 27 H 40.344023 31.554933 53.727597 0
M  V30 28 H 37.997633 32.562376 57.271947 0
M  V30 29 H 38.459972 29.805409 56.389613 0
M  V30 30 H 39.739902 30.905881 56.866487 0
M  V30 31 H 36.859656 31.621830 56.611925 0
M  V30 END ATOM
M  V30 BEGIN BOND
M  V30 1 1 4 1
M  V30 2 1 6 2
M  V30 3 1 7 4
M  V30 4 2 8 2
M  V30 5 1 9 3
M  V30 6 1 10 5
M  V30 7 1 10 6
M  V30 8 2 11 3
M  V30 9 1 11 7
M  V30 10 1 12 9
M  V30 11 1 13 5
M  V30 12 1 13 12
M  V30 13 1 14 1
M  V30 14 1 15 2
M  V30 15 1 16 3
M  V30 16 1 17 4
M  V30 17 1 18 4
M  V30 18 1 19 5
M  V30 19 1 20 5
M  V30 20 1 21 6
M  V30 21 1 22 6
M  V30 22 1 23 7
M  V30 23 1 24 7
M  V30 24 1 25 9
M  V30 25 1 26 9
M  V30 26 1 27 11
M  V30 27 1 28 12
M  V30 28 1 29 13
M  V30 29 1 30 13
M  V30 30 1 31 12
M  V30 END BOND
M  V30 END CTAB
M  END
>  <i_epik_Tot_Q>  (1) 
1

>  <i_epik_Tot_abs_Q>  (1) 
1

>  <i_i_glide_confnum>  (1) 
189

>  <i_i_glide_lignum>  (1) 
143

>  <i_i_glide_posenum>  (1) 
105

>  <i_i_glide_rotatable_bonds>  (1) 
10

>  <i_lp_mmshare_version>  (1) 
72125

>  <i_m_source_file_index>  (1) 
56

>  <i_f3d_flags>  (1) 
0

>  <num_sample>  (1) 
100

>  <b_lp_Chiralities_Consistent>  (1) 
1

>  <r_epik_Charging_Adjusted_Penalty>  (1) 
0.030434772791752211

>  <r_epik_Ionization_Penalty>  (1) 
0.015753410346001584

>  <r_epik_Ionization_Penalty_Charging>  (1) 
0.015217386395876106

>  <r_epik_Ionization_Penalty_Neutral>  (1) 
0.00053602395012547943

>  <r_epik_State_Penalty>  (1) 
0.015217386395876104

>  <r_glide_ring_energy>  (1) 
0

>  <r_i_docking_score>  (1) 
0.26878668047421667

>  <r_i_glide_ecoul>  (1) 
-9.5443143452309371

>  <r_i_glide_eff_state_penalty>  (1) 
0.015217386395876104

>  <r_i_glide_einternal>  (1) 
5.0262744043810059

>  <r_i_glide_emodel>  (1) 
-24.712784511636869

>  <r_i_glide_emodel_strain>  (1) 
0.1089325891839687

>  <r_i_glide_energy>  (1) 
-28.001985417387107

>  <r_i_glide_erotb>  (1) 
7.2241488501301259

>  <r_i_glide_esite>  (1) 
-0.10000000000000001

>  <r_i_glide_evdw>  (1) 
-18.45767107215617

>  <r_i_glide_gscore>  (1) 
0.25356929407834056

>  <r_i_glide_gscore_strain>  (1) 
0

>  <r_i_glide_hbond>  (1) 
-0.7915321655826868

>  <r_i_glide_ligand_efficiency>  (1) 
0.020675898498016668

>  <r_i_glide_ligand_efficiency_ln>  (1) 
0.075397054354121126

>  <r_i_glide_ligand_efficiency_sa>  (1) 
0.048615957338180103

>  <r_i_glide_lipo>  (1) 
-1.0809502126551191

>  <r_i_glide_metal>  (1) 
-0

>  <r_i_glide_rewards>  (1) 
-2.6435664724215298

>  <r_lp_Energy>  (1) 
4.0370939999999997

>  <r_lp_tautomer_probability>  (1) 
0.99990000499974985

>  <s_epik_cmdline>  (1) 
J2VwaWtfcHl0aG9uJywgJy1waHQnLCAnMS4wJywgJy1waCcsICc3LjQnLCAnLXRuJywgJzgnLCAnLW1hJywgJzUwMCcsICctaW1hZScsICc8aW5maWxlLm1hZT4nLCAnLW9tYWUnLCAnPG91dGZpbGUubWFlPic=

>  <s_epik_input>  (1) 
W09IXVtDSDJdW0NIMl1cW0NIXT1bQ0hdXFtDSDJdW05IXVtDSDJdW0NIMl1PW0NIMl1bQ0hdPU8=

>  <s_glide_docking_method>  (1) 
confgen

>  <s_i_glide_gridfile>  (1) 
gpcr_5ht2c_6bqh_protein_autoprepared_prepared

>  <s_lp_Force_Field>  (1) 
S-OPLS

>  <s_lp_Variant>  (1) 
DiffSBDD_55_num_sample_100-1

>  <s_m_source_file>  (1) 
generated__ligand_DiffSBDD_2026-05-06_prepared.sdf

>  <GenAI_Model>  (1) 
DiffSBDD

>  <Protein>  (1) 
GPCR_5HT2C

$$$$
DiffSBDD_55_num_sample_100
     RDKit          3D

  0  0  0  0  0  0  0  0  0  0999 V3000
M  V30 BEGIN CTAB
M  V30 COUNTS 31 30 0 0 1
M  V30 BEGIN ATOM
M  V30 1 O 39.867430 29.431418 49.857000 0
M  V30 2 C 39.467404 30.385150 61.779598 0
M  V30 3 C 39.004938 31.577430 54.002753 0
M  V30 4 C 39.700398 29.439099 51.258323 0
M  V30 5 C 38.022546 31.082948 58.470707 0
M  V30 6 C 38.663500 31.160060 60.741686 0
M  V30 7 C 40.054045 30.821429 51.824388 0
M  V30 8 O 40.667405 30.170575 61.610899 0
M  V30 9 C 38.907944 31.629011 55.512745 0
M  V30 10 O 38.543034 30.365272 59.574951 0
M  V30 11 C 39.939205 30.873487 53.337632 0
M  V30 12 N 37.764856 30.821430 55.987492 0 CHG=1
M  V30 13 C 37.992672 30.124051 57.271390 0
M  V30 14 H 39.106741 29.829372 49.450908 0
M  V30 15 H 38.909863 30.047947 62.653465 0
M  V30 16 H 38.271066 32.149012 53.453501 0
M  V30 17 H 38.672605 29.164964 51.499515 0
M  V30 18 H 40.350294 28.676277 51.688499 0
M  V30 19 H 38.667405 31.938614 58.265697 0
M  V30 20 H 37.024350 31.465152 58.688462 0
M  V30 21 H 39.183668 32.092701 60.519647 0
M  V30 22 H 37.677816 31.406141 61.137536 0
M  V30 23 H 41.075984 31.068374 51.553828 0
M  V30 24 H 39.467403 31.611213 51.362852 0
M  V30 25 H 39.842426 31.252397 55.932425 0
M  V30 26 H 38.802641 32.662868 55.844097 0
M  V30 27 H 40.667403 30.302360 53.893196 0
M  V30 28 H 36.924581 31.395668 56.091844 0
M  V30 29 H 37.194780 29.395245 57.418180 0
M  V30 30 H 38.922356 29.556085 57.211972 0
M  V30 31 H 37.575641 30.117095 55.290224 0
M  V30 END ATOM
M  V30 BEGIN BOND
M  V30 1 1 4 1
M  V30 2 1 6 2
M  V30 3 1 7 4
M  V30 4 2 8 2
M  V30 5 1 9 3
M  V30 6 1 10 5
M  V30 7 1 10 6
M  V30 8 2 11 3
M  V30 9 1 11 7
M  V30 10 1 12 9
M  V30 11 1 13 5
M  V30 12 1 13 12
M  V30 13 1 14 1
M  V30 14 1 15 2
M  V30 15 1 16 3
M  V30 16 1 17 4
M  V30 17 1 18 4
M  V30 18 1 19 5
M  V30 19 1 20 5
M  V30 20 1 21 6
M  V30 21 1 22 6
M  V30 22 1 23 7
M  V30 23 1 24 7
M  V30 24 1 25 9
M  V30 25 1 26 9
M  V30 26 1 27 11
M  V30 27 1 28 12
M  V30 28 1 29 13
M  V30 29 1 30 13
M  V30 30 1 31 12
M  V30 END BOND
M  V30 END CTAB
M  END
>  <i_epik_Tot_Q>  (1) 
1

>  <i_epik_Tot_abs_Q>  (1) 
1

>  <i_i_glide_confnum>  (1) 
85

>  <i_i_glide_lignum>  (1) 
143

>  <i_i_glide_posenum>  (1) 
9

>  <i_i_glide_rotatable_bonds>  (1) 
10

>  <i_lp_mmshare_version>  (1) 
72125

>  <i_m_source_file_index>  (1) 
56

>  <i_f3d_flags>  (1) 
0

>  <num_sample>  (1) 
100

>  <b_lp_Chiralities_Consistent>  (1) 
1

>  <r_epik_Charging_Adjusted_Penalty>  (1) 
0.030434772791752211

>  <r_epik_Ionization_Penalty>  (1) 
0.015753410346001584

>  <r_epik_Ionization_Penalty_Charging>  (1) 
0.015217386395876106

>  <r_epik_Ionization_Penalty_Neutral>  (1) 
0.00053602395012547943

>  <r_epik_State_Penalty>  (1) 
0.015217386395876104

>  <r_glide_ring_energy>  (1) 
0

>  <r_i_docking_score>  (1) 
0.2831722166805673

>  <r_i_glide_ecoul>  (1) 
-7.5519546382581435

>  <r_i_glide_eff_state_penalty>  (1) 
0.015217386395876104

>  <r_i_glide_einternal>  (1) 
4.8499012907638006

>  <r_i_glide_emodel>  (1) 
-23.582067796162477

>  <r_i_glide_emodel_strain>  (1) 
0.45571761230479824

>  <r_i_glide_energy>  (1) 
-27.167714963775737

>  <r_i_glide_erotb>  (1) 
7.2241488501301259

>  <r_i_glide_esite>  (1) 
-0.096065627724692793

>  <r_i_glide_evdw>  (1) 
-19.615760325517595

>  <r_i_glide_gscore>  (1) 
0.26795483028469119

>  <r_i_glide_gscore_strain>  (1) 
0

>  <r_i_glide_hbond>  (1) 
-0.78195875348639188

>  <r_i_glide_ligand_efficiency>  (1) 
0.021782478206197484

>  <r_i_glide_ligand_efficiency_ln>  (1) 
0.079432325199200959

>  <r_i_glide_ligand_efficiency_sa>  (1) 
0.051217896590753577

>  <r_i_glide_lipo>  (1) 
-1.1930487960928851

>  <r_i_glide_metal>  (1) 
-0

>  <r_i_glide_rewards>  (1) 
-2.7715396305268634

>  <r_lp_Energy>  (1) 
4.0370939999999997

>  <r_lp_tautomer_probability>  (1) 
0.99990000499974985

>  <s_epik_cmdline>  (1) 
J2VwaWtfcHl0aG9uJywgJy1waHQnLCAnMS4wJywgJy1waCcsICc3LjQnLCAnLXRuJywgJzgnLCAnLW1hJywgJzUwMCcsICctaW1hZScsICc8aW5maWxlLm1hZT4nLCAnLW9tYWUnLCAnPG91dGZpbGUubWFlPic=

>  <s_epik_input>  (1) 
W09IXVtDSDJdW0NIMl1cW0NIXT1bQ0hdXFtDSDJdW05IXVtDSDJdW0NIMl1PW0NIMl1bQ0hdPU8=

>  <s_glide_docking_method>  (1) 
confgen

>  <s_i_glide_gridfile>  (1) 
gpcr_5ht2c_6bqh_protein_autoprepared_prepared

>  <s_lp_Force_Field>  (1) 
S-OPLS

>  <s_lp_Variant>  (1) 
DiffSBDD_55_num_sample_100-1

>  <s_m_source_file>  (1) 
generated__ligand_DiffSBDD_2026-05-06_prepared.sdf

>  <GenAI_Model>  (1) 
DiffSBDD

>  <Protein>  (1) 
GPCR_5HT2C

$$$$
DiffSBDD_55_num_sample_100
     RDKit          3D

  0  0  0  0  0  0  0  0  0  0999 V3000
M  V30 BEGIN CTAB
M  V30 COUNTS 31 30 0 0 1
M  V30 BEGIN ATOM
M  V30 1 O 39.467405 31.221125 49.853138 0
M  V30 2 C 40.026015 27.354133 58.241419 0
M  V30 3 C 38.578596 29.393128 53.172132 0
M  V30 4 C 40.591992 30.447474 50.214556 0
M  V30 5 C 39.007699 25.486651 55.213194 0
M  V30 6 C 40.188018 26.453520 57.021129 0
M  V30 7 C 40.183944 29.335734 51.191207 0
M  V30 8 O 39.067212 27.221571 58.998576 0
M  V30 9 C 37.782184 28.160946 52.760551 0
M  V30 10 O 38.914871 26.170034 56.451969 0
M  V30 11 C 39.626106 29.902842 52.490321 0
M  V30 12 N 37.792431 27.158397 53.843910 0 CHG=1
M  V30 13 C 39.102983 26.511801 54.075853 0
M  V30 14 H 38.842677 30.675458 49.385875 0
M  V30 15 H 40.807130 28.101516 58.381823 0
M  V30 16 H 38.263122 29.879395 54.084914 0
M  V30 17 H 41.037242 30.021675 49.315423 0
M  V30 18 H 41.342864 31.098915 50.661644 0
M  V30 19 H 38.126520 24.858225 55.077808 0
M  V30 20 H 39.866084 24.817078 55.205699 0
M  V30 21 H 40.665885 25.524117 57.329234 0
M  V30 22 H 40.843180 26.945962 56.301896 0
M  V30 23 H 39.491519 28.674640 50.677103 0
M  V30 24 H 41.063409 28.739888 51.437954 0
M  V30 25 H 36.748309 28.459677 52.587591 0
M  V30 26 H 38.118120 27.684587 51.843158 0
M  V30 27 H 40.124334 30.781272 52.876220 0
M  V30 28 H 37.493500 27.598252 54.704337 0
M  V30 29 H 39.421204 26.021690 53.157882 0
M  V30 30 H 39.867308 27.254786 54.302135 0
M  V30 31 H 37.121818 26.441096 53.601809 0
M  V30 END ATOM
M  V30 BEGIN BOND
M  V30 1 1 4 1
M  V30 2 1 6 2
M  V30 3 1 7 4
M  V30 4 2 8 2
M  V30 5 1 9 3
M  V30 6 1 10 5
M  V30 7 1 10 6
M  V30 8 2 11 3
M  V30 9 1 11 7
M  V30 10 1 12 9
M  V30 11 1 13 5
M  V30 12 1 13 12
M  V30 13 1 14 1
M  V30 14 1 15 2
M  V30 15 1 16 3
M  V30 16 1 17 4
M  V30 17 1 18 4
M  V30 18 1 19 5
M  V30 19 1 20 5
M  V30 20 1 21 6
M  V30 21 1 22 6
M  V30 22 1 23 7
M  V30 23 1 24 7
M  V30 24 1 25 9
M  V30 25 1 26 9
M  V30 26 1 27 11
M  V30 27 1 28 12
M  V30 28 1 29 13
M  V30 29 1 30 13
M  V30 30 1 31 12
M  V30 END BOND
M  V30 END CTAB
M  END
>  <i_epik_Tot_Q>  (1) 
1

>  <i_epik_Tot_abs_Q>  (1) 
1

>  <i_i_glide_confnum>  (1) 
76

>  <i_i_glide_lignum>  (1) 
144

>  <i_i_glide_posenum>  (1) 
319

>  <i_i_glide_rotatable_bonds>  (1) 
10

>  <i_lp_mmshare_version>  (1) 
72125

>  <i_m_source_file_index>  (1) 
56

>  <i_f3d_flags>  (1) 
0

>  <num_sample>  (1) 
100

>  <b_lp_Chiralities_Consistent>  (1) 
1

>  <r_epik_Charging_Adjusted_Penalty>  (1) 
0.030434772791752211

>  <r_epik_Ionization_Penalty>  (1) 
0.015753410346001584

>  <r_epik_Ionization_Penalty_Charging>  (1) 
0.015217386395876106

>  <r_epik_Ionization_Penalty_Neutral>  (1) 
0.00053602395012547943

>  <r_epik_State_Penalty>  (1) 
0.015217386395876104

>  <r_glide_ring_energy>  (1) 
0

>  <r_i_docking_score>  (1) 
0.37584255386626364

>  <r_i_glide_ecoul>  (1) 
-4.3736532142019486

>  <r_i_glide_eff_state_penalty>  (1) 
0.015217386395876104

>  <r_i_glide_einternal>  (1) 
2.8241342092963744

>  <r_i_glide_emodel>  (1) 
-24.118871455450542

>  <r_i_glide_emodel_strain>  (1) 
0.0133919312576678

>  <r_i_glide_energy>  (1) 
-26.483690234261921

>  <r_i_glide_erotb>  (1) 
7.2241488501301259

>  <r_i_glide_esite>  (1) 
0

>  <r_i_glide_evdw>  (1) 
-22.110037020059973

>  <r_i_glide_gscore>  (1) 
0.36062516747038753

>  <r_i_glide_gscore_strain>  (1) 
0

>  <r_i_glide_hbond>  (1) 
-0.32000000000000001

>  <r_i_glide_ligand_efficiency>  (1) 
0.028910965682020281

>  <r_i_glide_ligand_efficiency_ln>  (1) 
0.10542717895265885

>  <r_i_glide_ligand_efficiency_sa>  (1) 
0.067979356463638702

>  <r_i_glide_lipo>  (1) 
-2.2122825851881944

>  <r_i_glide_metal>  (1) 
-0

>  <r_i_glide_rewards>  (1) 
-2.5696912643382523

>  <r_lp_Energy>  (1) 
5.3250869999999999

>  <r_lp_tautomer_probability>  (1) 
0.99990000499974985

>  <s_epik_cmdline>  (1) 
J2VwaWtfcHl0aG9uJywgJy1waHQnLCAnMS4wJywgJy1waCcsICc3LjQnLCAnLXRuJywgJzgnLCAnLW1hJywgJzUwMCcsICctaW1hZScsICc8aW5maWxlLm1hZT4nLCAnLW9tYWUnLCAnPG91dGZpbGUubWFlPic=

>  <s_epik_input>  (1) 
W09IXVtDSDJdW0NIMl0vW0NIXT1bQ0hdXFtDSDJdW05IXVtDSDJdW0NIMl1PW0NIMl1bQ0hdPU8=

>  <s_glide_docking_method>  (1) 
confgen

>  <s_i_glide_gridfile>  (1) 
gpcr_5ht2c_6bqh_protein_autoprepared_prepared

>  <s_lp_Force_Field>  (1) 
S-OPLS

>  <s_lp_Variant>  (1) 
DiffSBDD_55_num_sample_100-2

>  <s_m_source_file>  (1) 
generated__ligand_DiffSBDD_2026-05-06_prepared.sdf

>  <GenAI_Model>  (1) 
DiffSBDD

>  <Protein>  (1) 
GPCR_5HT2C

$$$$
DiffSBDD_55_num_sample_100
     RDKit          3D

  0  0  0  0  0  0  0  0  0  0999 V3000
M  V30 BEGIN CTAB
M  V30 COUNTS 31 30 0 0 1
M  V30 BEGIN ATOM
M  V30 1 O 39.467406 31.221441 49.853501 0
M  V30 2 C 37.547324 24.806059 57.453505 0
M  V30 3 C 38.408605 29.457056 53.160270 0
M  V30 4 C 40.574012 30.461815 50.284530 0
M  V30 5 C 39.307067 25.653879 55.103806 0
M  V30 6 C 38.911939 25.496160 57.452761 0
M  V30 7 C 40.111315 29.373658 51.261138 0
M  V30 8 O 36.667424 25.148878 56.664168 0
M  V30 9 C 37.670244 28.186326 52.758678 0
M  V30 10 O 39.045356 26.341880 56.318257 0
M  V30 11 C 39.473446 29.972934 52.510134 0
M  V30 12 N 37.837707 27.144834 53.792019 0 CHG=1
M  V30 13 C 39.232131 26.690085 53.985748 0
M  V30 14 H 38.858582 30.661036 49.382902 0
M  V30 15 H 37.423080 24.010310 58.187434 0
M  V30 16 H 38.034846 29.965752 54.037937 0
M  V30 17 H 41.063571 30.020122 49.417111 0
M  V30 18 H 41.299965 31.124577 50.755597 0
M  V30 19 H 38.609772 24.837911 54.909582 0
M  V30 20 H 40.301385 25.221470 55.158082 0
M  V30 21 H 39.714529 24.757666 57.482401 0
M  V30 22 H 38.989991 26.102779 58.355314 0
M  V30 23 H 39.451149 28.697444 50.724947 0
M  V30 24 H 40.978129 28.787238 51.564687 0
M  V30 25 H 36.609319 28.421300 52.672217 0
M  V30 26 H 37.962759 27.775286 51.796629 0
M  V30 27 H 39.926836 30.880646 52.885530 0
M  V30 28 H 37.499791 27.498759 54.677435 0
M  V30 29 H 39.620544 26.285709 53.051130 0
M  V30 30 H 39.867404 27.531232 54.256631 0
M  V30 31 H 37.269786 26.349846 53.532223 0
M  V30 END ATOM
M  V30 BEGIN BOND
M  V30 1 1 4 1
M  V30 2 1 6 2
M  V30 3 1 7 4
M  V30 4 2 8 2
M  V30 5 1 9 3
M  V30 6 1 10 5
M  V30 7 1 10 6
M  V30 8 2 11 3
M  V30 9 1 11 7
M  V30 10 1 12 9
M  V30 11 1 13 5
M  V30 12 1 13 12
M  V30 13 1 14 1
M  V30 14 1 15 2
M  V30 15 1 16 3
M  V30 16 1 17 4
M  V30 17 1 18 4
M  V30 18 1 19 5
M  V30 19 1 20 5
M  V30 20 1 21 6
M  V30 21 1 22 6
M  V30 22 1 23 7
M  V30 23 1 24 7
M  V30 24 1 25 9
M  V30 25 1 26 9
M  V30 26 1 27 11
M  V30 27 1 28 12
M  V30 28 1 29 13
M  V30 29 1 30 13
M  V30 30 1 31 12
M  V30 END BOND
M  V30 END CTAB
M  END
>  <i_epik_Tot_Q>  (1) 
1

>  <i_epik_Tot_abs_Q>  (1) 
1

>  <i_i_glide_confnum>  (1) 
66

>  <i_i_glide_lignum>  (1) 
144

>  <i_i_glide_posenum>  (1) 
228

>  <i_i_glide_rotatable_bonds>  (1) 
10

>  <i_lp_mmshare_version>  (1) 
72125

>  <i_m_source_file_index>  (1) 
56

>  <i_f3d_flags>  (1) 
0

>  <num_sample>  (1) 
100

>  <b_lp_Chiralities_Consistent>  (1) 
1

>  <r_epik_Charging_Adjusted_Penalty>  (1) 
0.030434772791752211

>  <r_epik_Ionization_Penalty>  (1) 
0.015753410346001584

>  <r_epik_Ionization_Penalty_Charging>  (1) 
0.015217386395876106

>  <r_epik_Ionization_Penalty_Neutral>  (1) 
0.00053602395012547943

>  <r_epik_State_Penalty>  (1) 
0.015217386395876104

>  <r_glide_ring_energy>  (1) 
0

>  <r_i_docking_score>  (1) 
0.40883091509882458

>  <r_i_glide_ecoul>  (1) 
-3.0960519436432632

>  <r_i_glide_eff_state_penalty>  (1) 
0.015217386395876104

>  <r_i_glide_einternal>  (1) 
4.125184447716542

>  <r_i_glide_emodel>  (1) 
-23.889697861238741

>  <r_i_glide_emodel_strain>  (1) 
0.075593398782210386

>  <r_i_glide_energy>  (1) 
-27.053171612603347

>  <r_i_glide_erotb>  (1) 
7.2241488501301259

>  <r_i_glide_esite>  (1) 
0

>  <r_i_glide_evdw>  (1) 
-23.957119668960082

>  <r_i_glide_gscore>  (1) 
0.39361352870294847

>  <r_i_glide_gscore_strain>  (1) 
0

>  <r_i_glide_hbond>  (1) 
-0.32000000000000001

>  <r_i_glide_ligand_efficiency>  (1) 
0.031448531930678814

>  <r_i_glide_ligand_efficiency_ln>  (1) 
0.11468070766366716

>  <r_i_glide_ligand_efficiency_sa>  (1) 
0.073946024006498953

>  <r_i_glide_lipo>  (1) 
-2.272694569159956

>  <r_i_glide_metal>  (1) 
-0

>  <r_i_glide_rewards>  (1) 
-2.5755769772727275

>  <r_lp_Energy>  (1) 
5.3250869999999999

>  <r_lp_tautomer_probability>  (1) 
0.99990000499974985

>  <s_epik_cmdline>  (1) 
J2VwaWtfcHl0aG9uJywgJy1waHQnLCAnMS4wJywgJy1waCcsICc3LjQnLCAnLXRuJywgJzgnLCAnLW1hJywgJzUwMCcsICctaW1hZScsICc8aW5maWxlLm1hZT4nLCAnLW9tYWUnLCAnPG91dGZpbGUubWFlPic=

>  <s_epik_input>  (1) 
W09IXVtDSDJdW0NIMl0vW0NIXT1bQ0hdXFtDSDJdW05IXVtDSDJdW0NIMl1PW0NIMl1bQ0hdPU8=

>  <s_glide_docking_method>  (1) 
confgen

>  <s_i_glide_gridfile>  (1) 
gpcr_5ht2c_6bqh_protein_autoprepared_prepared

>  <s_lp_Force_Field>  (1) 
S-OPLS

>  <s_lp_Variant>  (1) 
DiffSBDD_55_num_sample_100-2

>  <s_m_source_file>  (1) 
generated__ligand_DiffSBDD_2026-05-06_prepared.sdf

>  <GenAI_Model>  (1) 
DiffSBDD

>  <Protein>  (1) 
GPCR_5HT2C

$$$$
DiffSBDD_55_num_sample_100
     RDKit          3D

  0  0  0  0  0  0  0  0  0  0999 V3000
M  V30 BEGIN CTAB
M  V30 COUNTS 31 30 0 0 1
M  V30 BEGIN ATOM
M  V30 1 O 38.667405 27.221426 51.500870 0
M  V30 2 C 36.033129 32.125110 60.352747 0
M  V30 3 C 39.226490 31.226778 54.317515 0
M  V30 4 C 39.227683 28.491590 51.749369 0
M  V30 5 C 38.340325 32.878694 58.412199 0
M  V30 6 C 36.626739 33.482583 59.973123 0
M  V30 7 C 38.809153 29.005243 53.136961 0
M  V30 8 O 36.267419 31.621450 61.451185 0
M  V30 9 C 37.831654 31.364482 54.908224 0
M  V30 10 O 37.067422 33.473445 58.621292 0
M  V30 11 C 39.650806 30.203810 53.548526 0
M  V30 12 N 37.867404 31.520261 56.379454 0 CHG=1
M  V30 13 C 38.577268 32.710822 56.902894 0
M  V30 14 H 37.722483 27.283024 51.453462 0
M  V30 15 H 35.405484 31.655836 59.594839 0
M  V30 16 H 39.913531 32.021429 54.544293 0
M  V30 17 H 40.311894 28.391639 51.685315 0
M  V30 18 H 38.922687 29.187108 50.966402 0
M  V30 19 H 38.435748 31.917531 58.919906 0
M  V30 20 H 39.099125 33.539450 58.833964 0
M  V30 21 H 37.440350 33.753694 60.647044 0
M  V30 22 H 35.846855 34.236536 60.081260 0
M  V30 23 H 37.743039 29.221425 53.126908 0
M  V30 24 H 38.974715 28.221979 53.877874 0
M  V30 25 H 37.357698 32.244440 54.472417 0
M  V30 26 H 37.184360 30.519807 54.686218 0
M  V30 27 H 40.667404 30.214174 53.186770 0
M  V30 28 H 36.878699 31.621439 56.653503 0
M  V30 29 H 39.645520 32.596509 56.721056 0
M  V30 30 H 38.253851 33.608130 56.372149 0
M  V30 31 H 38.228531 30.679827 56.804078 0
M  V30 END ATOM
M  V30 BEGIN BOND
M  V30 1 1 4 1
M  V30 2 1 6 2
M  V30 3 1 7 4
M  V30 4 2 8 2
M  V30 5 1 9 3
M  V30 6 1 10 5
M  V30 7 1 10 6
M  V30 8 2 11 3
M  V30 9 1 11 7
M  V30 10 1 12 9
M  V30 11 1 13 5
M  V30 12 1 13 12
M  V30 13 1 14 1
M  V30 14 1 15 2
M  V30 15 1 16 3
M  V30 16 1 17 4
M  V30 17 1 18 4
M  V30 18 1 19 5
M  V30 19 1 20 5
M  V30 20 1 21 6
M  V30 21 1 22 6
M  V30 22 1 23 7
M  V30 23 1 24 7
M  V30 24 1 25 9
M  V30 25 1 26 9
M  V30 26 1 27 11
M  V30 27 1 28 12
M  V30 28 1 29 13
M  V30 29 1 30 13
M  V30 30 1 31 12
M  V30 END BOND
M  V30 END CTAB
M  END
>  <i_epik_Tot_Q>  (1) 
1

>  <i_epik_Tot_abs_Q>  (1) 
1

>  <i_i_glide_confnum>  (1) 
19

>  <i_i_glide_lignum>  (1) 
144

>  <i_i_glide_posenum>  (1) 
209

>  <i_i_glide_rotatable_bonds>  (1) 
10

>  <i_lp_mmshare_version>  (1) 
72125

>  <i_m_source_file_index>  (1) 
56

>  <i_f3d_flags>  (1) 
0

>  <num_sample>  (1) 
100

>  <b_lp_Chiralities_Consistent>  (1) 
1

>  <r_epik_Charging_Adjusted_Penalty>  (1) 
0.030434772791752211

>  <r_epik_Ionization_Penalty>  (1) 
0.015753410346001584

>  <r_epik_Ionization_Penalty_Charging>  (1) 
0.015217386395876106

>  <r_epik_Ionization_Penalty_Neutral>  (1) 
0.00053602395012547943

>  <r_epik_State_Penalty>  (1) 
0.015217386395876104

>  <r_glide_ring_energy>  (1) 
0

>  <r_i_docking_score>  (1) 
0.41861429630443847

>  <r_i_glide_ecoul>  (1) 
-8.7100994377649918

>  <r_i_glide_eff_state_penalty>  (1) 
0.015217386395876104

>  <r_i_glide_einternal>  (1) 
6.0977978704139968

>  <r_i_glide_emodel>  (1) 
-25.794536443875028

>  <r_i_glide_emodel_strain>  (1) 
0.1804391526485345

>  <r_i_glide_energy>  (1) 
-30.07464650152578

>  <r_i_glide_erotb>  (1) 
7.2241488501301259

>  <r_i_glide_esite>  (1) 
-0.16483625375773561

>  <r_i_glide_evdw>  (1) 
-21.364547063760789

>  <r_i_glide_gscore>  (1) 
0.40339690990856236

>  <r_i_glide_gscore_strain>  (1) 
0

>  <r_i_glide_hbond>  (1) 
-0.67775899039663046

>  <r_i_glide_ligand_efficiency>  (1) 
0.032201099715726038

>  <r_i_glide_ligand_efficiency_ln>  (1) 
0.11742503310131665

>  <r_i_glide_ligand_efficiency_sa>  (1) 
0.075715562744341658

>  <r_i_glide_lipo>  (1) 
-1.1610160852309173

>  <r_i_glide_metal>  (1) 
-0

>  <r_i_glide_rewards>  (1) 
-2.4423983419834912

>  <r_lp_Energy>  (1) 
5.3250869999999999

>  <r_lp_tautomer_probability>  (1) 
0.99990000499974985

>  <s_epik_cmdline>  (1) 
J2VwaWtfcHl0aG9uJywgJy1waHQnLCAnMS4wJywgJy1waCcsICc3LjQnLCAnLXRuJywgJzgnLCAnLW1hJywgJzUwMCcsICctaW1hZScsICc8aW5maWxlLm1hZT4nLCAnLW9tYWUnLCAnPG91dGZpbGUubWFlPic=

>  <s_epik_input>  (1) 
W09IXVtDSDJdW0NIMl0vW0NIXT1bQ0hdXFtDSDJdW05IXVtDSDJdW0NIMl1PW0NIMl1bQ0hdPU8=

>  <s_glide_docking_method>  (1) 
confgen

>  <s_i_glide_gridfile>  (1) 
gpcr_5ht2c_6bqh_protein_autoprepared_prepared

>  <s_lp_Force_Field>  (1) 
S-OPLS

>  <s_lp_Variant>  (1) 
DiffSBDD_55_num_sample_100-2

>  <s_m_source_file>  (1) 
generated__ligand_DiffSBDD_2026-05-06_prepared.sdf

>  <GenAI_Model>  (1) 
DiffSBDD

>  <Protein>  (1) 
GPCR_5HT2C

$$$$
DiffSBDD_86_num_sample_100
     RDKit          3D

  0  0  0  0  0  0  0  0  0  0999 V3000
M  V30 BEGIN CTAB
M  V30 COUNTS 33 32 0 0 1
M  V30 BEGIN ATOM
M  V30 1 C 40.391453 29.510808 51.287055 0
M  V30 2 C 38.825925 28.608831 53.841285 0
M  V30 3 C 38.962982 28.518395 56.422862 0
M  V30 4 C 38.574329 31.060514 56.073980 0
M  V30 5 C 38.124728 29.764494 56.772728 0
M  V30 6 C 38.593778 27.786343 55.116493 0
M  V30 7 C 39.007552 27.748967 52.579197 0
M  V30 8 C 40.540705 30.312040 49.987097 0
M  V30 9 O 39.467627 31.221435 49.853477 0
M  V30 10 C 39.164896 28.580612 51.294455 0
M  V30 11 N 37.867482 32.227042 56.620698 0 CHG=1
M  V30 12 H 41.289913 28.915815 51.453501 0
M  V30 13 H 40.338395 30.219663 52.113008 0
M  V30 14 H 39.709032 29.229120 53.987084 0
M  V30 15 H 37.984622 29.284802 53.688795 0
M  V30 16 H 38.842442 27.800687 57.235555 0
M  V30 17 H 40.024116 28.771665 56.421378 0
M  V30 18 H 39.647674 31.215308 56.189937 0
M  V30 19 H 38.367510 31.024960 55.006654 0
M  V30 20 H 37.067828 29.578715 56.576790 0
M  V30 21 H 38.201777 29.917488 57.850156 0
M  V30 22 H 37.559568 27.441475 55.150030 0
M  V30 23 H 39.205669 26.884415 55.066647 0
M  V30 24 H 38.142069 27.094399 52.466048 0
M  V30 25 H 39.868502 27.090943 52.697228 0
M  V30 26 H 40.577180 29.651917 49.119353 0
M  V30 27 H 41.473410 30.876889 50.003608 0
M  V30 28 H 38.736845 30.761256 49.452897 0
M  V30 29 H 38.267391 29.176157 51.150736 0
M  V30 30 H 39.219590 27.904656 50.440023 0
M  V30 31 H 38.009122 33.038173 56.037368 0
M  V30 32 H 36.856176 32.023049 56.653564 0
M  V30 33 H 38.171598 32.421196 57.561818 0
M  V30 END ATOM
M  V30 BEGIN BOND
M  V30 1 1 5 3
M  V30 2 1 5 4
M  V30 3 1 6 2
M  V30 4 1 6 3
M  V30 5 1 7 2
M  V30 6 1 8 1
M  V30 7 1 9 8
M  V30 8 1 10 1
M  V30 9 1 10 7
M  V30 10 1 11 4
M  V30 11 1 12 1
M  V30 12 1 13 1
M  V30 13 1 14 2
M  V30 14 1 15 2
M  V30 15 1 16 3
M  V30 16 1 17 3
M  V30 17 1 18 4
M  V30 18 1 19 4
M  V30 19 1 20 5
M  V30 20 1 21 5
M  V30 21 1 22 6
M  V30 22 1 23 6
M  V30 23 1 24 7
M  V30 24 1 25 7
M  V30 25 1 26 8
M  V30 26 1 27 8
M  V30 27 1 28 9
M  V30 28 1 29 10
M  V30 29 1 30 10
M  V30 30 1 31 11
M  V30 31 1 32 11
M  V30 32 1 33 11
M  V30 END BOND
M  V30 END CTAB
M  END
>  <i_epik_Tot_Q>  (1) 
1

>  <i_epik_Tot_abs_Q>  (1) 
1

>  <i_i_glide_confnum>  (1) 
204

>  <i_i_glide_lignum>  (1) 
224

>  <i_i_glide_posenum>  (1) 
7

>  <i_i_glide_rotatable_bonds>  (1) 
9

>  <i_lp_mmshare_version>  (1) 
72125

>  <i_m_source_file_index>  (1) 
87

>  <i_f3d_flags>  (1) 
0

>  <num_sample>  (1) 
100

>  <b_lp_Chiralities_Consistent>  (1) 
1

>  <r_epik_Charging_Adjusted_Penalty>  (1) 
0.00087520377799151221

>  <r_epik_Ionization_Penalty>  (1) 
0.00087550358421122272

>  <r_epik_Ionization_Penalty_Charging>  (1) 
0.00087520377799151221

>  <r_epik_Ionization_Penalty_Neutral>  (1) 
2.9980621971047925e-07

>  <r_epik_State_Penalty>  (1) 
-0

>  <r_glide_ring_energy>  (1) 
0

>  <r_i_docking_score>  (1) 
1.0569736186666803

>  <r_i_glide_ecoul>  (1) 
-8.6648866135512641

>  <r_i_glide_eff_state_penalty>  (1) 
-0

>  <r_i_glide_einternal>  (1) 
5.7865922018203495

>  <r_i_glide_emodel>  (1) 
-19.85402266944957

>  <r_i_glide_emodel_strain>  (1) 
0.27221647361128554

>  <r_i_glide_energy>  (1) 
-25.443418826824136

>  <r_i_glide_erotb>  (1) 
8.221785673329066

>  <r_i_glide_esite>  (1) 
-0.10000000000000001

>  <r_i_glide_evdw>  (1) 
-16.778532213272872

>  <r_i_glide_gscore>  (1) 
1.0569736186666803

>  <r_i_glide_gscore_strain>  (1) 
0

>  <r_i_glide_hbond>  (1) 
-0.52000000000000002

>  <r_i_glide_ligand_efficiency>  (1) 
0.096088510787880027

>  <r_i_glide_ligand_efficiency_ln>  (1) 
0.31106715593273687

>  <r_i_glide_ligand_efficiency_sa>  (1) 
0.2136989349247001

>  <r_i_glide_lipo>  (1) 
-1.8918097179761102

>  <r_i_glide_metal>  (1) 
-0

>  <r_i_glide_rewards>  (1) 
-2.5143427339899413

>  <r_lp_Energy>  (1) 
9.926715999999999

>  <r_lp_tautomer_probability>  (1) 
1

>  <s_epik_cmdline>  (1) 
J2VwaWtfcHl0aG9uJywgJy1waHQnLCAnMS4wJywgJy1waCcsICc3LjQnLCAnLXRuJywgJzgnLCAnLW1hJywgJzUwMCcsICctaW1hZScsICc8aW5maWxlLm1hZT4nLCAnLW9tYWUnLCAnPG91dGZpbGUubWFlPic=

>  <s_epik_input>  (1) 
W09IXVtDSDJdW0NIMl1bQ0gyXVtDSDJdW0NIMl1bQ0gyXVtDSDJdW0NIMl1bQ0gyXVtOSDJd

>  <s_glide_docking_method>  (1) 
confgen

>  <s_i_glide_gridfile>  (1) 
gpcr_5ht2c_6bqh_protein_autoprepared_prepared

>  <s_lp_Force_Field>  (1) 
S-OPLS

>  <s_lp_Variant>  (1) 
DiffSBDD_86_num_sample_100-1

>  <s_m_source_file>  (1) 
generated__ligand_DiffSBDD_2026-05-06_prepared.sdf

>  <GenAI_Model>  (1) 
DiffSBDD

>  <Protein>  (1) 
GPCR_5HT2C

$$$$
DiffSBDD_93_num_sample_100
     RDKit          3D

  0  0  0  0  0  0  0  0  0  0999 V3000
M  V30 BEGIN CTAB
M  V30 COUNTS 74 77 0 0 1
M  V30 BEGIN ATOM
M  V30 1 C 37.423919 32.216344 60.591350 0
M  V30 2 S 40.032580 29.118535 55.857912 0
M  V30 3 C 39.699110 32.939155 61.481700 0 CFG=2
M  V30 4 O 38.267538 33.982737 55.452762 0
M  V30 5 C 39.098315 24.422235 55.145214 0
M  V30 6 C 38.553894 31.747474 57.172131 0 CFG=1
M  V30 7 C 37.766859 25.261611 57.805282 0
M  V30 8 C 39.353714 27.110399 57.593471 0
M  V30 9 C 39.290492 34.416080 61.230809 0
M  V30 10 N 37.715363 29.011252 57.448993 0 CHG=1
M  V30 11 C 37.640531 24.026779 54.975975 0
M  V30 12 C 38.630818 31.908804 61.114414 0
M  V30 13 C 36.455295 31.153041 60.295072 0
M  V30 14 C 38.080673 29.733470 58.720072 0 CFG=2
M  V30 15 C 37.775275 34.684485 61.248684 0
M  V30 16 Cl 35.320998 34.021820 60.187045 0
M  V30 17 O 35.467627 23.621073 55.453586 0
M  V30 18 C 37.038722 33.686566 60.355340 0 CFG=2
M  V30 19 C 35.067535 31.268889 60.913930 0
M  V30 20 C 39.092568 30.373244 54.965990 0
M  V30 21 C 38.894993 33.160234 57.562024 0
M  V30 22 C 36.748619 30.059385 59.497073 0
M  V30 23 C 36.523406 25.175774 56.947940 0
M  V30 24 C 39.082440 31.692732 55.704358 0 CFG=1
M  V30 25 C 38.715047 28.200597 56.666784 0 CFG=1
M  V30 26 C 36.661445 23.905246 56.126477 0 CFG=2
M  V30 27 C 38.212238 32.674065 54.891427 0
M  V30 28 C 37.889852 34.027740 56.816266 0
M  V30 29 C 39.620609 25.203494 56.104185 0
M  V30 30 S 37.867424 27.596859 55.167978 0 CHG=-1
M  V30 31 N 38.956534 25.798820 57.161450 0
M  V30 32 C 40.226491 32.699450 62.902867 0
M  V30 33 C 39.067182 30.810075 58.275482 0
M  V30 34 H 40.543136 32.735263 60.819516 0
M  V30 35 H 39.756662 24.086266 54.370502 0
M  V30 36 H 37.469234 31.629444 57.163046 0
M  V30 37 H 38.004604 24.296165 58.251622 0
M  V30 38 H 37.530286 25.901293 58.649021 0
M  V30 39 H 39.115281 27.235879 58.646644 0
M  V30 40 H 40.440586 27.166265 57.551406 0
M  V30 41 H 39.785585 35.084258 61.933136 0
M  V30 42 H 39.673734 34.714384 60.252742 0
M  V30 43 H 37.321820 29.692063 56.815112 0
M  V30 44 H 37.641940 23.067043 54.461834 0
M  V30 45 H 37.249294 24.742912 54.251040 0
M  V30 46 H 38.883705 30.873649 61.298453 0
M  V30 47 H 38.608953 29.067308 59.397609 0
M  V30 48 H 37.375580 34.651826 62.253278 0
M  V30 49 H 37.582353 35.700043 60.899272 0
M  V30 50 H 35.546310 22.773811 55.044786 0
M  V30 51 H 37.304979 33.959569 59.356182 0
M  V30 52 H 34.351383 31.621535 60.169412 0
M  V30 53 H 34.682646 30.421441 61.453554 0
M  V30 54 H 35.091554 32.008206 61.713478 0
M  V30 55 H 39.598804 30.505353 54.008668 0
M  V30 56 H 38.073951 30.093812 54.717990 0
M  V30 57 H 39.919542 33.323493 57.274748 0
M  V30 58 H 38.959922 33.335221 58.618648 0
M  V30 59 H 35.964872 29.328040 59.364097 0
M  V30 60 H 36.326008 26.019686 56.311888 0
M  V30 61 H 35.666011 25.221667 57.614410 0
M  V30 62 H 40.122536 32.021170 55.667902 0
M  V30 63 H 36.885092 23.063814 56.779335 0
M  V30 64 H 38.541423 32.706603 53.856476 0
M  V30 65 H 37.179228 32.328599 54.854599 0
M  V30 66 H 37.867400 35.055873 57.150735 0
M  V30 67 H 36.878852 33.677190 57.005186 0
M  V30 68 H 40.666713 25.478124 56.063983 0
M  V30 69 H 40.677153 31.708830 62.985676 0
M  V30 70 H 40.988754 33.429770 63.178931 0
M  V30 71 H 39.435633 32.777020 63.642064 0
M  V30 72 H 39.976848 30.323945 57.989665 0
M  V30 73 H 39.467479 31.349687 59.092787 0
M  V30 74 H 36.978762 28.361623 57.669582 0
M  V30 END ATOM
M  V30 BEGIN BOND
M  V30 1 1 9 3
M  V30 2 1 11 5
M  V30 3 2 12 1
M  V30 4 1 12 3
M  V30 5 1 13 1
M  V30 6 1 14 10
M  V30 7 1 15 9
M  V30 8 1 18 1
M  V30 9 1 18 15
M  V30 10 1 18 16
M  V30 11 1 19 13
M  V30 12 1 20 2
M  V30 13 1 21 6
M  V30 14 2 22 13
M  V30 15 1 22 14
M  V30 16 1 23 7
M  V30 17 1 24 6
M  V30 18 1 24 20
M  V30 19 1 25 2
M  V30 20 1 25 8
M  V30 21 1 25 10
M  V30 22 1 26 11
M  V30 23 1 26 17
M  V30 24 1 26 23
M  V30 25 1 27 4
M  V30 26 1 27 24
M  V30 27 1 28 4
M  V30 28 1 28 21
M  V30 29 2 29 5
M  V30 30 1 25 30 CFG=3
M  V30 31 1 31 7
M  V30 32 1 31 8
M  V30 33 1 31 29
M  V30 34 1 32 3
M  V30 35 1 33 6
M  V30 36 1 33 14
M  V30 37 1 3 34 CFG=3
M  V30 38 1 35 5
M  V30 39 1 6 36 CFG=3
M  V30 40 1 37 7
M  V30 41 1 38 7
M  V30 42 1 39 8
M  V30 43 1 40 8
M  V30 44 1 41 9
M  V30 45 1 42 9
M  V30 46 1 43 10
M  V30 47 1 44 11
M  V30 48 1 45 11
M  V30 49 1 46 12
M  V30 50 1 14 47 CFG=1
M  V30 51 1 48 15
M  V30 52 1 49 15
M  V30 53 1 50 17
M  V30 54 1 18 51 CFG=3
M  V30 55 1 52 19
M  V30 56 1 53 19
M  V30 57 1 54 19
M  V30 58 1 55 20
M  V30 59 1 56 20
M  V30 60 1 57 21
M  V30 61 1 58 21
M  V30 62 1 59 22
M  V30 63 1 60 23
M  V30 64 1 61 23
M  V30 65 1 24 62 CFG=1
M  V30 66 1 26 63 CFG=1
M  V30 67 1 64 27
M  V30 68 1 65 27
M  V30 69 1 66 28
M  V30 70 1 67 28
M  V30 71 1 68 29
M  V30 72 1 69 32
M  V30 73 1 70 32
M  V30 74 1 71 32
M  V30 75 1 72 33
M  V30 76 1 73 33
M  V30 77 1 74 10
M  V30 END BOND
M  V30 END CTAB
M  END
>  <i_epik_Tot_Q>  (1) 
0

>  <i_epik_Tot_abs_Q>  (1) 
2

>  <i_i_glide_confnum>  (1) 
45

>  <i_i_glide_lignum>  (1) 
260

>  <i_i_glide_posenum>  (1) 
261

>  <i_i_glide_rotatable_bonds>  (1) 
5

>  <i_lp_mmshare_version>  (1) 
72125

>  <i_m_source_file_index>  (1) 
94

>  <i_f3d_flags>  (1) 
0

>  <num_sample>  (1) 
100

>  <b_lp_Chiralities_Consistent>  (1) 
1

>  <r_epik_Charging_Adjusted_Penalty>  (1) 
0.80501984278308969

>  <r_epik_Ionization_Penalty>  (1) 
0.072421558423421364

>  <r_epik_Ionization_Penalty_Charging>  (1) 
0.072408791886815996

>  <r_epik_Ionization_Penalty_Neutral>  (1) 
1.2766536605372598e-05

>  <r_epik_State_Penalty>  (1) 
0.73261105089627365

>  <r_glide_ring_energy>  (1) 
1.2305908303780115

>  <r_i_docking_score>  (1) 
1.1587395337403374

>  <r_i_glide_ecoul>  (1) 
-0.88152355548054029

>  <r_i_glide_eff_state_penalty>  (1) 
0.73261105089627365

>  <r_i_glide_einternal>  (1) 
18.384167076368261

>  <r_i_glide_emodel>  (1) 
25.380008931561726

>  <r_i_glide_emodel_strain>  (1) 
25.21358991033199

>  <r_i_glide_energy>  (1) 
-9.9471415577417943

>  <r_i_glide_erotb>  (1) 
0.31140238833871409

>  <r_i_glide_esite>  (1) 
-0.024465631274414739

>  <r_i_glide_evdw>  (1) 
-9.0656180022612549

>  <r_i_glide_gscore>  (1) 
0.42612848284406368

>  <r_i_glide_gscore_strain>  (1) 
5.3033974775829975

>  <r_i_glide_hbond>  (1) 
0

>  <r_i_glide_ligand_efficiency>  (1) 
0.035113319204252647

>  <r_i_glide_ligand_efficiency_ln>  (1) 
0.25769767267163873

>  <r_i_glide_ligand_efficiency_sa>  (1) 
0.11262717678774212

>  <r_i_glide_lipo>  (1) 
-3.321592400200839

>  <r_i_glide_metal>  (1) 
-0

>  <r_i_glide_rewards>  (1) 
-1.2571039181672501

>  <r_lp_Energy>  (1) 
39.266486

>  <s_epik_Chemistry_Notes>  (1) 
This compound has an imine and may undergo hydrolysis.

>  <s_epik_cmdline>  (1) 
J2VwaWtfcHl0aG9uJywgJy1waHQnLCAnMS4wJywgJy1waCcsICc3LjQnLCAnLXRuJywgJzgnLCAnLW1hJywgJzUwMCcsICctaW1hZScsICc8aW5maWxlLm1hZT4nLCAnLW9tYWUnLCAnPG91dGZpbGUubWFlPic=

>  <s_epik_input>  (1) 
Q2xbQ0BIXTFbQ0gyXVtDSDJdW0NAQEhdKFtDSDNdKVtDSF09QzEvQyhbQ0gzXSk9W0NIXVxbQ0BASF0oW0NIMl0yKVtOSF1bQ0BAXShbU0hdKShTW0NIMl1bQ0BIXShbQ0BASF0yMylbQ0gyXU9bQ0gyXVtDSDJdMylbQ0gyXU4oW0NIMl1bQ0gyXTQpW0NIXT1bQ0hdW0NIMl1bQ0BASF00W09IXQ==

>  <s_glide_docking_method>  (1) 
confgen

>  <s_i_glide_gridfile>  (1) 
gpcr_5ht2c_6bqh_protein_autoprepared_prepared

>  <s_lp_Force_Field>  (1) 
S-OPLS

>  <s_lp_Variant>  (1) 
DiffSBDD_93_num_sample_100-12

>  <s_m_source_file>  (1) 
generated__ligand_DiffSBDD_2026-05-06_prepared.sdf

>  <GenAI_Model>  (1) 
DiffSBDD

>  <Protein>  (1) 
GPCR_5HT2C

$$$$
DiffSBDD_86_num_sample_100
     RDKit          3D

  0  0  0  0  0  0  0  0  0  0999 V3000
M  V30 BEGIN CTAB
M  V30 COUNTS 33 32 0 0 1
M  V30 BEGIN ATOM
M  V30 1 C 40.580873 29.246780 51.239266 0
M  V30 2 C 38.383812 28.901890 53.528907 0
M  V30 3 C 37.875394 29.743323 55.869300 0
M  V30 4 C 38.776588 32.154070 56.140900 0
M  V30 5 C 39.091573 30.651067 56.157177 0
M  V30 6 C 38.236146 28.519031 55.008116 0
M  V30 7 C 38.984847 27.796530 52.643756 0
M  V30 8 C 40.759809 30.021391 49.927826 0
M  V30 9 O 39.790733 31.039772 49.853501 0
M  V30 10 C 39.350930 28.315138 51.243279 0
M  V30 11 N 37.867405 32.539259 57.229833 0 CHG=1
M  V30 12 H 41.467399 28.650919 51.453471 0
M  V30 13 H 40.538685 29.977456 52.044030 0
M  V30 14 H 38.992784 29.799343 53.468415 0
M  V30 15 H 37.413017 29.191592 53.129438 0
M  V30 16 H 37.079973 30.304368 55.375058 0
M  V30 17 H 37.452080 29.412007 56.818353 0
M  V30 18 H 39.702239 32.720399 56.251953 0
M  V30 19 H 38.339362 32.448298 55.185427 0
M  V30 20 H 39.541431 30.366780 57.109104 0
M  V30 21 H 39.871534 30.477635 55.415575 0
M  V30 22 H 37.467600 27.752411 55.099734 0
M  V30 23 H 39.156795 28.067823 55.380871 0
M  V30 24 H 38.259962 26.986538 52.550728 0
M  V30 25 H 39.866478 27.357814 53.111718 0
M  V30 26 H 40.667407 29.367181 49.059905 0
M  V30 27 H 41.746767 30.484703 49.895727 0
M  V30 28 H 38.972831 30.658397 49.555795 0
M  V30 29 H 38.485982 28.824355 50.821187 0
M  V30 30 H 39.547828 27.467888 50.584792 0
M  V30 31 H 37.776608 33.543980 57.258243 0
M  V30 32 H 36.926451 32.156707 57.053542 0
M  V30 33 H 38.200949 32.198187 58.117627 0
M  V30 END ATOM
M  V30 BEGIN BOND
M  V30 1 1 5 3
M  V30 2 1 5 4
M  V30 3 1 6 2
M  V30 4 1 6 3
M  V30 5 1 7 2
M  V30 6 1 8 1
M  V30 7 1 9 8
M  V30 8 1 10 1
M  V30 9 1 10 7
M  V30 10 1 11 4
M  V30 11 1 12 1
M  V30 12 1 13 1
M  V30 13 1 14 2
M  V30 14 1 15 2
M  V30 15 1 16 3
M  V30 16 1 17 3
M  V30 17 1 18 4
M  V30 18 1 19 4
M  V30 19 1 20 5
M  V30 20 1 21 5
M  V30 21 1 22 6
M  V30 22 1 23 6
M  V30 23 1 24 7
M  V30 24 1 25 7
M  V30 25 1 26 8
M  V30 26 1 27 8
M  V30 27 1 28 9
M  V30 28 1 29 10
M  V30 29 1 30 10
M  V30 30 1 31 11
M  V30 31 1 32 11
M  V30 32 1 33 11
M  V30 END BOND
M  V30 END CTAB
M  END
>  <i_epik_Tot_Q>  (1) 
1

>  <i_epik_Tot_abs_Q>  (1) 
1

>  <i_i_glide_confnum>  (1) 
198

>  <i_i_glide_lignum>  (1) 
224

>  <i_i_glide_posenum>  (1) 
206

>  <i_i_glide_rotatable_bonds>  (1) 
9

>  <i_lp_mmshare_version>  (1) 
72125

>  <i_m_source_file_index>  (1) 
87

>  <i_f3d_flags>  (1) 
0

>  <num_sample>  (1) 
100

>  <b_lp_Chiralities_Consistent>  (1) 
1

>  <r_epik_Charging_Adjusted_Penalty>  (1) 
0.00087520377799151221

>  <r_epik_Ionization_Penalty>  (1) 
0.00087550358421122272

>  <r_epik_Ionization_Penalty_Charging>  (1) 
0.00087520377799151221

>  <r_epik_Ionization_Penalty_Neutral>  (1) 
2.9980621971047925e-07

>  <r_epik_State_Penalty>  (1) 
-0

>  <r_glide_ring_energy>  (1) 
0

>  <r_i_docking_score>  (1) 
1.3716382016875914

>  <r_i_glide_ecoul>  (1) 
-6.6583558863849301

>  <r_i_glide_eff_state_penalty>  (1) 
-0

>  <r_i_glide_einternal>  (1) 
8.799274184332452

>  <r_i_glide_emodel>  (1) 
-16.06680060682006

>  <r_i_glide_emodel_strain>  (1) 
2.0388964429906498

>  <r_i_glide_energy>  (1) 
-25.650815978012396

>  <r_i_glide_erotb>  (1) 
8.221785673329066

>  <r_i_glide_esite>  (1) 
-0.10000000000000001

>  <r_i_glide_evdw>  (1) 
-18.992460091627468

>  <r_i_glide_gscore>  (1) 
1.3716382016875914

>  <r_i_glide_gscore_strain>  (1) 
0

>  <r_i_glide_hbond>  (1) 
-0.52000000000000002

>  <r_i_glide_ligand_efficiency>  (1) 
0.12469438197159922

>  <r_i_glide_ligand_efficiency_ln>  (1) 
0.40367288911702243

>  <r_i_glide_ligand_efficiency_sa>  (1) 
0.27731782291068208

>  <r_i_glide_lipo>  (1) 
-1.6978090287635415

>  <r_i_glide_metal>  (1) 
-0

>  <r_i_glide_rewards>  (1) 
-2.5839620553388198

>  <r_lp_Energy>  (1) 
9.926715999999999

>  <r_lp_tautomer_probability>  (1) 
1

>  <s_epik_cmdline>  (1) 
J2VwaWtfcHl0aG9uJywgJy1waHQnLCAnMS4wJywgJy1waCcsICc3LjQnLCAnLXRuJywgJzgnLCAnLW1hJywgJzUwMCcsICctaW1hZScsICc8aW5maWxlLm1hZT4nLCAnLW9tYWUnLCAnPG91dGZpbGUubWFlPic=

>  <s_epik_input>  (1) 
W09IXVtDSDJdW0NIMl1bQ0gyXVtDSDJdW0NIMl1bQ0gyXVtDSDJdW0NIMl1bQ0gyXVtOSDJd

>  <s_glide_docking_method>  (1) 
confgen

>  <s_i_glide_gridfile>  (1) 
gpcr_5ht2c_6bqh_protein_autoprepared_prepared

>  <s_lp_Force_Field>  (1) 
S-OPLS

>  <s_lp_Variant>  (1) 
DiffSBDD_86_num_sample_100-1

>  <s_m_source_file>  (1) 
generated__ligand_DiffSBDD_2026-05-06_prepared.sdf

>  <GenAI_Model>  (1) 
DiffSBDD

>  <Protein>  (1) 
GPCR_5HT2C

$$$$
DiffSBDD_89_num_sample_100
     RDKit          3D

  0  0  0  0  0  0  0  0  0  0999 V3000
M  V30 BEGIN CTAB
M  V30 COUNTS 106 110 0 0 1
M  V30 BEGIN ATOM
M  V30 1 O 41.191762 33.152489 61.496625 0
M  V30 2 O 45.275285 31.994203 73.469489 0 CHG=-1
M  V30 3 C 39.830259 30.025497 66.972770 0
M  V30 4 C 40.076541 32.678814 61.696253 0
M  V30 5 C 45.467203 30.484156 66.957814 0
M  V30 6 C 44.225310 26.584312 63.439572 0
M  V30 7 O 38.067949 26.155576 56.051207 0
M  V30 8 C 44.394226 26.959179 65.993428 0
M  V30 9 C 38.887709 33.161245 60.847419 0 CFG=2
M  V30 10 C 37.271792 35.270141 59.812216 0
M  V30 11 C 42.245586 29.466893 66.866896 0
M  V30 12 O 38.106954 33.997864 61.701019 0
M  V30 13 C 42.436689 27.911702 64.518541 0
M  V30 14 C 38.025122 31.974099 60.317458 0 CFG=2
M  V30 15 O 45.275968 32.670742 67.784891 0
M  V30 16 C 37.800485 30.890994 61.420631 0
M  V30 17 C 43.475321 32.211837 69.543163 0
M  V30 18 C 43.155752 34.542724 71.951007 0 CFG=1
M  V30 19 C 41.876702 34.744259 71.122693 0
M  V30 20 O 45.582616 34.190642 73.251288 0
M  V30 21 C 38.559105 28.082732 57.444456 0
M  V30 22 C 39.782212 29.429078 55.237162 0
M  V30 23 C 39.872009 29.441478 61.857230 0
M  V30 24 C 39.445085 29.342664 57.566093 0 CFG=1
M  V30 25 O 42.938541 29.268968 64.569381 0
M  V30 26 N 39.028486 30.506477 62.127626 0
M  V30 27 C 45.468398 28.966894 67.259776 0
M  V30 28 C 39.768336 31.610384 62.777697 0 CFG=1
M  V30 29 C 45.000318 33.104822 72.983189 0
M  V30 30 F 37.696851 28.547747 54.655783 0
M  V30 31 C 37.345403 35.071962 61.316090 0
M  V30 32 C 44.058002 32.020035 68.155286 0 CFG=2
M  V30 33 S 41.462228 29.795675 62.266644 0
M  V30 34 C 39.537687 28.270743 61.315160 0
M  V30 35 N 45.272690 31.227034 68.191988 0
M  V30 36 C 39.870641 30.484013 65.608985 0
M  V30 37 C 40.932871 29.579845 67.576549 0
M  V30 38 C 38.935409 28.163881 54.970373 0 CFG=2
M  V30 39 C 42.637295 25.522428 65.036094 0
M  V30 40 N 42.200501 30.058813 65.523603 0
M  V30 41 O 36.770752 35.832226 62.091006 0
M  V30 42 F 40.872380 29.221492 68.861851 0
M  V30 43 F 42.833952 34.898915 73.193576 0
M  V30 44 C 44.466479 32.771197 70.582811 0
M  V30 45 C 41.085600 31.036877 63.455993 0 CFG=2
M  V30 46 C 40.999581 30.482157 64.909358 0
M  V30 47 C 45.430105 28.098340 65.981112 0
M  V30 48 C 38.936709 27.261937 56.211383 0 CFG=2
M  V30 49 O 39.317242 30.133097 56.390099 0
M  V30 50 C 39.161025 30.108481 58.869599 0
M  V30 51 C 43.463517 26.792437 64.759293 0
M  V30 52 C 43.850173 33.157417 71.946760 0 CFG=2
M  V30 53 C 38.403643 31.444113 58.890134 0
M  V30 54 H 38.899304 30.058536 67.516609 0
M  V30 55 H 46.395057 30.819369 66.503972 0
M  V30 56 H 44.697581 30.715985 66.227030 0
M  V30 57 H 44.666111 25.624316 63.364137 0
M  V30 58 H 43.555881 26.516209 62.596649 0
M  V30 59 H 44.992349 27.329714 63.212959 0
M  V30 60 H 38.039081 25.667278 56.860823 0
M  V30 61 H 43.807098 26.959700 66.903781 0
M  V30 62 H 44.940362 26.034610 66.130670 0
M  V30 63 H 39.286065 33.740417 60.015769 0
M  V30 64 H 38.267503 35.425345 59.453456 0
M  V30 65 H 36.808855 34.430690 59.295711 0
M  V30 66 H 36.685235 36.163270 59.582650 0
M  V30 67 H 43.001958 29.903620 67.487462 0
M  V30 68 H 42.436313 28.409086 66.870974 0
M  V30 69 H 41.534742 27.761655 65.113517 0
M  V30 70 H 42.039458 27.699491 63.528032 0
M  V30 71 H 37.028882 32.382001 60.156517 0
M  V30 72 H 37.125813 31.316623 62.166264 0
M  V30 73 H 37.277582 30.029480 61.010813 0
M  V30 74 H 42.613417 32.853489 69.418563 0
M  V30 75 H 43.088877 31.253389 69.900553 0
M  V30 76 H 43.915396 35.231745 71.617164 0
M  V30 77 H 42.069554 34.730702 70.053596 0
M  V30 78 H 41.116773 34.006992 71.364178 0
M  V30 79 H 41.451162 35.727569 71.319336 0
M  V30 80 H 37.506862 28.366440 57.405983 0
M  V30 81 H 38.687493 27.462614 58.331000 0
M  V30 82 H 39.769947 30.077893 54.362141 0
M  V30 83 H 40.823608 29.165418 55.431288 0
M  V30 84 H 40.480132 28.999449 57.638572 0
M  V30 85 H 44.650355 28.729659 67.932161 0
M  V30 86 H 46.340227 28.695523 67.857610 0
M  V30 87 H 39.123208 32.117339 63.481691 0
M  V30 88 H 43.340548 31.913247 67.347458 0
M  V30 89 H 40.293256 27.520202 61.131819 0
M  V30 90 H 38.536117 28.040355 61.038360 0
M  V30 91 H 38.997951 30.819855 65.158589 0
M  V30 92 H 39.301507 27.610686 54.104448 0
M  V30 93 H 43.272856 24.655468 65.206786 0
M  V30 94 H 42.036988 25.659696 65.933314 0
M  V30 95 H 41.949781 25.285735 64.225157 0
M  V30 96 H 45.234693 32.012719 70.731742 0
M  V30 97 H 45.009883 33.625701 70.191650 0
M  V30 98 H 41.866729 31.793585 63.488383 0
M  V30 99 H 46.403676 27.619890 65.873874 0
M  V30 100 H 45.326907 28.726038 65.097977 0
M  V30 101 H 39.941179 26.859268 56.350307 0
M  V30 102 H 38.525679 29.432869 59.408964 0
M  V30 103 H 40.082496 30.203505 59.441223 0
M  V30 104 H 43.129939 32.392473 72.240049 0
M  V30 105 H 38.949967 32.206449 58.336875 0
M  V30 106 H 37.481103 31.290042 58.330449 0
M  V30 END ATOM
M  V30 BEGIN BOND
M  V30 1 2 4 1
M  V30 2 1 9 4
M  V30 3 1 12 9
M  V30 4 1 14 9
M  V30 5 1 16 14
M  V30 6 1 19 18
M  V30 7 1 24 21
M  V30 8 1 25 13
M  V30 9 1 26 16
M  V30 10 1 26 23
M  V30 11 1 27 5
M  V30 12 1 28 4
M  V30 13 1 28 26
M  V30 14 1 29 2
M  V30 15 2 29 20
M  V30 16 1 31 10
M  V30 17 1 31 12
M  V30 18 1 32 15
M  V30 19 1 32 17
M  V30 20 1 33 23
M  V30 21 2 34 23
M  V30 22 1 35 5
M  V30 23 1 35 15
M  V30 24 1 35 32
M  V30 25 1 36 3
M  V30 26 2 37 3
M  V30 27 1 37 11
M  V30 28 1 38 22
M  V30 29 1 38 30
M  V30 30 1 40 11
M  V30 31 1 40 25
M  V30 32 2 41 31
M  V30 33 1 42 37
M  V30 34 1 43 18
M  V30 35 1 44 17
M  V30 36 1 45 28
M  V30 37 1 45 33
M  V30 38 2 46 36
M  V30 39 1 46 40
M  V30 40 1 46 45
M  V30 41 1 47 8
M  V30 42 1 47 27
M  V30 43 1 48 7
M  V30 44 1 48 21
M  V30 45 1 48 38
M  V30 46 1 49 22
M  V30 47 1 49 24
M  V30 48 1 50 24
M  V30 49 1 51 6
M  V30 50 1 51 8
M  V30 51 1 51 13
M  V30 52 1 51 39
M  V30 53 1 52 18
M  V30 54 1 52 29
M  V30 55 1 52 44
M  V30 56 1 53 14
M  V30 57 1 53 50
M  V30 58 1 54 3
M  V30 59 1 55 5
M  V30 60 1 56 5
M  V30 61 1 57 6
M  V30 62 1 58 6
M  V30 63 1 59 6
M  V30 64 1 60 7
M  V30 65 1 61 8
M  V30 66 1 62 8
M  V30 67 1 9 63 CFG=3
M  V30 68 1 64 10
M  V30 69 1 65 10
M  V30 70 1 66 10
M  V30 71 1 67 11
M  V30 72 1 68 11
M  V30 73 1 69 13
M  V30 74 1 70 13
M  V30 75 1 14 71 CFG=3
M  V30 76 1 72 16
M  V30 77 1 73 16
M  V30 78 1 74 17
M  V30 79 1 75 17
M  V30 80 1 18 76 CFG=3
M  V30 81 1 77 19
M  V30 82 1 78 19
M  V30 83 1 79 19
M  V30 84 1 80 21
M  V30 85 1 81 21
M  V30 86 1 82 22
M  V30 87 1 83 22
M  V30 88 1 24 84 CFG=1
M  V30 89 1 85 27
M  V30 90 1 86 27
M  V30 91 1 28 87 CFG=1
M  V30 92 1 32 88 CFG=3
M  V30 93 1 89 34
M  V30 94 1 90 34
M  V30 95 1 91 36
M  V30 96 1 38 92 CFG=3
M  V30 97 1 93 39
M  V30 98 1 94 39
M  V30 99 1 95 39
M  V30 100 1 96 44
M  V30 101 1 97 44
M  V30 102 1 45 98 CFG=1
M  V30 103 1 99 47
M  V30 104 1 100 47
M  V30 105 1 48 101 CFG=1
M  V30 106 1 102 50
M  V30 107 1 103 50
M  V30 108 1 52 104 CFG=1
M  V30 109 1 105 53
M  V30 110 1 106 53
M  V30 END BOND
M  V30 END CTAB
M  END
>  <i_epik_Tot_Q>  (1) 
-1

>  <i_epik_Tot_abs_Q>  (1) 
1

>  <i_i_glide_confnum>  (1) 
8344

>  <i_i_glide_lignum>  (1) 
228

>  <i_i_glide_posenum>  (1) 
52

>  <i_i_glide_rotatable_bonds>  (1) 
20

>  <i_lp_mmshare_version>  (1) 
72125

>  <i_m_source_file_index>  (1) 
90

>  <i_f3d_flags>  (1) 
0

>  <num_sample>  (1) 
100

>  <b_lp_Chiralities_Consistent>  (1) 
1

>  <r_epik_Charging_Adjusted_Penalty>  (1) 
0.0083304435614461898

>  <r_epik_Ionization_Penalty>  (1) 
0.0083323926460460752

>  <r_epik_Ionization_Penalty_Charging>  (1) 
0.00022185446221055619

>  <r_epik_Ionization_Penalty_Neutral>  (1) 
0.0081105381838355185

>  <r_epik_State_Penalty>  (1) 
0.008108589099235633

>  <r_glide_ring_energy>  (1) 
0

>  <r_i_docking_score>  (1) 
1.6757064302904849

>  <r_i_glide_ecoul>  (1) 
-3.2125259182901345

>  <r_i_glide_eff_state_penalty>  (1) 
0.008108589099235633

>  <r_i_glide_einternal>  (1) 
62.385187083627855

>  <r_i_glide_emodel>  (1) 
29.435506318848429

>  <r_i_glide_emodel_strain>  (1) 
23.590903324160791

>  <r_i_glide_energy>  (1) 
-28.245893147180418

>  <r_i_glide_erotb>  (1) 
0.38281117644627216

>  <r_i_glide_esite>  (1) 
-0.06364023973176644

>  <r_i_glide_evdw>  (1) 
-25.033367228890285

>  <r_i_glide_gscore>  (1) 
1.6675978411912493

>  <r_i_glide_gscore_strain>  (1) 
4.8977258310401979

>  <r_i_glide_hbond>  (1) 
0

>  <r_i_glide_ligand_efficiency>  (1) 
0.031617102458311036

>  <r_i_glide_ligand_efficiency_ln>  (1) 
0.33714446946696669

>  <r_i_glide_ligand_efficiency_sa>  (1) 
0.11876287155390181

>  <r_i_glide_lipo>  (1) 
-2.9838888482697814

>  <r_i_glide_metal>  (1) 
-0

>  <r_i_glide_rewards>  (1) 
1.1681371708943611

>  <r_lp_Energy>  (1) 
27.140322999999999

>  <r_lp_tautomer_probability>  (1) 
0.99999998000000001

>  <s_epik_Chemistry_Notes>  (1) 
This compound has an ester and may undergo hydrolysis at high or low pH. This compound has an imine and may undergo hydrolysis. This compound contains an acetal/aminal-like group ( X-CH(R)-Y where X, Y are N, S, or O) that may be acid/base labile, releasing an aldehyde. This compound has a N-S or N-O group and may undergo hydrolysis at high or low pH.

>  <s_epik_cmdline>  (1) 
J2VwaWtfcHl0aG9uJywgJy1waHQnLCAnMS4wJywgJy1waCcsICc3LjQnLCAnLXRuJywgJzgnLCAnLW1hJywgJzUwMCcsICctaW1hZScsICc8aW5maWxlLm1hZT4nLCAnLW9tYWUnLCAnPG91dGZpbGUubWFlPic=

>  <s_epik_input>  (1) 
TzFbQ0gyXVtDQEhdKEYpW0NASF0oW09IXSlbQ0gyXVtDQEBIXTFbQ0gyXVtDSDJdW0NAQEhdKFtDSDJdMilbQ0BASF0oT0MoPU8pW0NIM10pQyg9TylbQ0BASF0oTjIzKVtDQEhdKFNDMz1bQ0gyXSlDKD1bQ0hdW0NIXT1DNEYpTihbQ0gyXTQpT1tDSDJdQyhbQ0gzXSkoW0NIM10pW0NIMl1bQ0gyXVtDSDJdW0NIMl1bTkBdNU9bQ0hdNVtDSDJdW0NIMl1bQ0BIXShbQ0BIXShGKVtDSDNdKUMoPU8pW09IXQ==

>  <s_glide_docking_method>  (1) 
confgen

>  <s_i_glide_gridfile>  (1) 
gpcr_5ht2c_6bqh_protein_autoprepared_prepared

>  <s_lp_Force_Field>  (1) 
S-OPLS

>  <s_lp_Variant>  (1) 
DiffSBDD_89_num_sample_100-1

>  <s_m_source_file>  (1) 
generated__ligand_DiffSBDD_2026-05-06_prepared.sdf

>  <GenAI_Model>  (1) 
DiffSBDD

>  <Protein>  (1) 
GPCR_5HT2C

$$$$
DiffSBDD_86_num_sample_100
     RDKit          3D

  0  0  0  0  0  0  0  0  0  0999 V3000
M  V30 BEGIN CTAB
M  V30 COUNTS 33 32 0 0 1
M  V30 BEGIN ATOM
M  V30 1 C 39.732181 29.697849 51.879379 0
M  V30 2 C 39.161555 31.501403 55.345997 0
M  V30 3 C 38.565895 32.231124 57.730040 0
M  V30 4 C 37.171211 31.014639 59.582585 0
M  V30 5 C 38.422315 31.833423 59.217869 0
M  V30 6 C 38.760588 31.046519 56.761192 0
M  V30 7 C 39.240521 30.347835 54.328900 0
M  V30 8 C 40.479040 30.063064 50.586957 0
M  V30 9 O 39.791630 31.048862 49.855549 0
M  V30 10 C 39.772241 30.803663 52.959946 0
M  V30 11 N 35.934405 31.803030 59.453311 0 CHG=1
M  V30 12 H 38.701317 29.419598 51.656721 0
M  V30 13 H 40.190082 28.788440 52.261075 0
M  V30 14 H 40.125579 32.008349 55.400747 0
M  V30 15 H 38.447916 32.242883 54.984524 0
M  V30 16 H 39.430087 32.892976 57.646527 0
M  V30 17 H 37.711852 32.830870 57.407690 0
M  V30 18 H 37.094498 30.110478 58.976214 0
M  V30 19 H 37.254981 30.685292 60.619298 0
M  V30 20 H 39.295596 31.255811 59.522567 0
M  V30 21 H 38.451719 32.739288 59.827511 0
M  V30 22 H 37.840201 30.464705 56.706570 0
M  V30 23 H 39.530922 30.378079 57.146110 0
M  V30 24 H 38.249211 29.910446 54.208937 0
M  V30 25 H 39.884678 29.558733 54.714692 0
M  V30 26 H 40.568397 29.189980 49.944013 0
M  V30 27 H 41.489615 30.412932 50.799698 0
M  V30 28 H 39.015458 30.660549 49.468216 0
M  V30 29 H 40.788012 31.173344 53.080499 0
M  V30 30 H 39.197724 31.667003 52.631729 0
M  V30 31 H 35.145301 31.253613 59.758698 0
M  V30 32 H 35.992323 32.662157 59.979039 0
M  V30 33 H 35.801600 32.021329 58.448329 0
M  V30 END ATOM
M  V30 BEGIN BOND
M  V30 1 1 5 3
M  V30 2 1 5 4
M  V30 3 1 6 2
M  V30 4 1 6 3
M  V30 5 1 7 2
M  V30 6 1 8 1
M  V30 7 1 9 8
M  V30 8 1 10 1
M  V30 9 1 10 7
M  V30 10 1 11 4
M  V30 11 1 12 1
M  V30 12 1 13 1
M  V30 13 1 14 2
M  V30 14 1 15 2
M  V30 15 1 16 3
M  V30 16 1 17 3
M  V30 17 1 18 4
M  V30 18 1 19 4
M  V30 19 1 20 5
M  V30 20 1 21 5
M  V30 21 1 22 6
M  V30 22 1 23 6
M  V30 23 1 24 7
M  V30 24 1 25 7
M  V30 25 1 26 8
M  V30 26 1 27 8
M  V30 27 1 28 9
M  V30 28 1 29 10
M  V30 29 1 30 10
M  V30 30 1 31 11
M  V30 31 1 32 11
M  V30 32 1 33 11
M  V30 END BOND
M  V30 END CTAB
M  END
>  <i_epik_Tot_Q>  (1) 
1

>  <i_epik_Tot_abs_Q>  (1) 
1

>  <i_i_glide_confnum>  (1) 
16

>  <i_i_glide_lignum>  (1) 
224

>  <i_i_glide_posenum>  (1) 
275

>  <i_i_glide_rotatable_bonds>  (1) 
9

>  <i_lp_mmshare_version>  (1) 
72125

>  <i_m_source_file_index>  (1) 
87

>  <i_f3d_flags>  (1) 
0

>  <num_sample>  (1) 
100

>  <b_lp_Chiralities_Consistent>  (1) 
1

>  <r_epik_Charging_Adjusted_Penalty>  (1) 
0.00087520377799151221

>  <r_epik_Ionization_Penalty>  (1) 
0.00087550358421122272

>  <r_epik_Ionization_Penalty_Charging>  (1) 
0.00087520377799151221

>  <r_epik_Ionization_Penalty_Neutral>  (1) 
2.9980621971047925e-07

>  <r_epik_State_Penalty>  (1) 
-0

>  <r_glide_ring_energy>  (1) 
0

>  <r_i_docking_score>  (1) 
1.9525354789161447

>  <r_i_glide_ecoul>  (1) 
-7.5951995961338907

>  <r_i_glide_eff_state_penalty>  (1) 
-0

>  <r_i_glide_einternal>  (1) 
5.3813895369663616

>  <r_i_glide_emodel>  (1) 
-16.128571771049533

>  <r_i_glide_emodel_strain>  (1) 
0.0094392934993514643

>  <r_i_glide_energy>  (1) 
-23.306318716363215

>  <r_i_glide_erotb>  (1) 
8.221785673329066

>  <r_i_glide_esite>  (1) 
-0.10000000000000001

>  <r_i_glide_evdw>  (1) 
-15.711119120229325

>  <r_i_glide_gscore>  (1) 
1.9525354789161447

>  <r_i_glide_gscore_strain>  (1) 
0

>  <r_i_glide_hbond>  (1) 
-0.52000000000000002

>  <r_i_glide_ligand_efficiency>  (1) 
0.17750322535601315

>  <r_i_glide_ligand_efficiency_ln>  (1) 
0.57463085885755227

>  <r_i_glide_ligand_efficiency_sa>  (1) 
0.39476363920361179

>  <r_i_glide_lipo>  (1) 
-1.2862208458273194

>  <r_i_glide_metal>  (1) 
-0

>  <r_i_glide_rewards>  (1) 
-2.4381934531540517

>  <r_lp_Energy>  (1) 
9.926715999999999

>  <r_lp_tautomer_probability>  (1) 
1

>  <s_epik_cmdline>  (1) 
J2VwaWtfcHl0aG9uJywgJy1waHQnLCAnMS4wJywgJy1waCcsICc3LjQnLCAnLXRuJywgJzgnLCAnLW1hJywgJzUwMCcsICctaW1hZScsICc8aW5maWxlLm1hZT4nLCAnLW9tYWUnLCAnPG91dGZpbGUubWFlPic=

>  <s_epik_input>  (1) 
W09IXVtDSDJdW0NIMl1bQ0gyXVtDSDJdW0NIMl1bQ0gyXVtDSDJdW0NIMl1bQ0gyXVtOSDJd

>  <s_glide_docking_method>  (1) 
confgen

>  <s_i_glide_gridfile>  (1) 
gpcr_5ht2c_6bqh_protein_autoprepared_prepared

>  <s_lp_Force_Field>  (1) 
S-OPLS

>  <s_lp_Variant>  (1) 
DiffSBDD_86_num_sample_100-1

>  <s_m_source_file>  (1) 
generated__ligand_DiffSBDD_2026-05-06_prepared.sdf

>  <GenAI_Model>  (1) 
DiffSBDD

>  <Protein>  (1) 
GPCR_5HT2C

$$$$
DiffSBDD_86_num_sample_100
     RDKit          3D

  0  0  0  0  0  0  0  0  0  0999 V3000
M  V30 BEGIN CTAB
M  V30 COUNTS 33 32 0 0 1
M  V30 BEGIN ATOM
M  V30 1 C 39.683626 29.096149 51.406935 0
M  V30 2 C 38.282707 30.680595 54.679045 0
M  V30 3 C 39.110209 32.452187 56.333983 0
M  V30 4 C 37.637212 33.329163 58.231747 0
M  V30 5 C 38.265655 32.101252 57.563984 0
M  V30 6 C 39.471902 31.218061 55.498019 0
M  V30 7 C 38.654953 29.548339 53.712564 0
M  V30 8 C 40.493300 29.721239 50.267547 0
M  V30 9 O 39.867403 30.910215 49.853501 0
M  V30 10 C 39.671720 29.993350 52.653503 0
M  V30 11 N 36.489580 32.921852 59.053501 0 CHG=1
M  V30 12 H 38.666163 28.911211 51.060427 0
M  V30 13 H 40.100007 28.121981 51.663896 0
M  V30 14 H 37.833462 31.497882 54.112820 0
M  V30 15 H 37.500824 30.316729 55.345262 0
M  V30 16 H 40.021403 32.954072 56.653500 0
M  V30 17 H 38.580937 33.166671 55.701318 0
M  V30 18 H 38.368390 33.864872 58.837776 0
M  V30 19 H 37.267879 34.021427 57.474572 0
M  V30 20 H 37.467450 31.428807 57.255242 0
M  V30 21 H 38.860908 31.539923 58.284139 0
M  V30 22 H 39.867401 30.430316 56.139613 0
M  V30 23 H 40.280943 31.502450 54.826403 0
M  V30 24 H 37.739888 29.213893 53.221914 0
M  V30 25 H 39.038341 28.686676 54.260350 0
M  V30 26 H 40.543063 29.049720 49.411649 0
M  V30 27 H 41.511734 29.943669 50.587792 0
M  V30 28 H 39.025134 30.690279 49.472169 0
M  V30 29 H 40.667363 30.021996 53.089957 0
M  V30 30 H 39.467403 31.023915 52.364302 0
M  V30 31 H 36.013858 33.730393 59.425171 0
M  V30 32 H 35.867399 32.421447 58.410658 0
M  V30 33 H 36.782538 32.301351 59.791629 0
M  V30 END ATOM
M  V30 BEGIN BOND
M  V30 1 1 5 3
M  V30 2 1 5 4
M  V30 3 1 6 2
M  V30 4 1 6 3
M  V30 5 1 7 2
M  V30 6 1 8 1
M  V30 7 1 9 8
M  V30 8 1 10 1
M  V30 9 1 10 7
M  V30 10 1 11 4
M  V30 11 1 12 1
M  V30 12 1 13 1
M  V30 13 1 14 2
M  V30 14 1 15 2
M  V30 15 1 16 3
M  V30 16 1 17 3
M  V30 17 1 18 4
M  V30 18 1 19 4
M  V30 19 1 20 5
M  V30 20 1 21 5
M  V30 21 1 22 6
M  V30 22 1 23 6
M  V30 23 1 24 7
M  V30 24 1 25 7
M  V30 25 1 26 8
M  V30 26 1 27 8
M  V30 27 1 28 9
M  V30 28 1 29 10
M  V30 29 1 30 10
M  V30 30 1 31 11
M  V30 31 1 32 11
M  V30 32 1 33 11
M  V30 END BOND
M  V30 END CTAB
M  END
>  <i_epik_Tot_Q>  (1) 
1

>  <i_epik_Tot_abs_Q>  (1) 
1

>  <i_i_glide_confnum>  (1) 
136

>  <i_i_glide_lignum>  (1) 
224

>  <i_i_glide_posenum>  (1) 
144

>  <i_i_glide_rotatable_bonds>  (1) 
9

>  <i_lp_mmshare_version>  (1) 
72125

>  <i_m_source_file_index>  (1) 
87

>  <i_f3d_flags>  (1) 
0

>  <num_sample>  (1) 
100

>  <b_lp_Chiralities_Consistent>  (1) 
1

>  <r_epik_Charging_Adjusted_Penalty>  (1) 
0.00087520377799151221

>  <r_epik_Ionization_Penalty>  (1) 
0.00087550358421122272

>  <r_epik_Ionization_Penalty_Charging>  (1) 
0.00087520377799151221

>  <r_epik_Ionization_Penalty_Neutral>  (1) 
2.9980621971047925e-07

>  <r_epik_State_Penalty>  (1) 
-0

>  <r_glide_ring_energy>  (1) 
0

>  <r_i_docking_score>  (1) 
2.0370941908943467

>  <r_i_glide_ecoul>  (1) 
-5.8940954497278639

>  <r_i_glide_eff_state_penalty>  (1) 
-0

>  <r_i_glide_einternal>  (1) 
5.9990790589710166

>  <r_i_glide_emodel>  (1) 
-15.55766715601777

>  <r_i_glide_emodel_strain>  (1) 
0.69339115603817669

>  <r_i_glide_energy>  (1) 
-23.922123297647804

>  <r_i_glide_erotb>  (1) 
8.221785673329066

>  <r_i_glide_esite>  (1) 
-0.10000000000000001

>  <r_i_glide_evdw>  (1) 
-18.02802784791994

>  <r_i_glide_gscore>  (1) 
2.0370941908943467

>  <r_i_glide_gscore_strain>  (1) 
0

>  <r_i_glide_hbond>  (1) 
-0.52000000000000002

>  <r_i_glide_ligand_efficiency>  (1) 
0.18519038099039517

>  <r_i_glide_ligand_efficiency_ln>  (1) 
0.59951647338932768

>  <r_i_glide_ligand_efficiency_sa>  (1) 
0.41185972028758511

>  <r_i_glide_lipo>  (1) 
-1.3251967677368031

>  <r_i_glide_metal>  (1) 
-0

>  <r_i_glide_rewards>  (1) 
-2.4539790048427395

>  <r_lp_Energy>  (1) 
9.926715999999999

>  <r_lp_tautomer_probability>  (1) 
1

>  <s_epik_cmdline>  (1) 
J2VwaWtfcHl0aG9uJywgJy1waHQnLCAnMS4wJywgJy1waCcsICc3LjQnLCAnLXRuJywgJzgnLCAnLW1hJywgJzUwMCcsICctaW1hZScsICc8aW5maWxlLm1hZT4nLCAnLW9tYWUnLCAnPG91dGZpbGUubWFlPic=

>  <s_epik_input>  (1) 
W09IXVtDSDJdW0NIMl1bQ0gyXVtDSDJdW0NIMl1bQ0gyXVtDSDJdW0NIMl1bQ0gyXVtOSDJd

>  <s_glide_docking_method>  (1) 
confgen

>  <s_i_glide_gridfile>  (1) 
gpcr_5ht2c_6bqh_protein_autoprepared_prepared

>  <s_lp_Force_Field>  (1) 
S-OPLS

>  <s_lp_Variant>  (1) 
DiffSBDD_86_num_sample_100-1

>  <s_m_source_file>  (1) 
generated__ligand_DiffSBDD_2026-05-06_prepared.sdf

>  <GenAI_Model>  (1) 
DiffSBDD

>  <Protein>  (1) 
GPCR_5HT2C

$$$$
DiffSBDD_86_num_sample_100
     RDKit          3D

  0  0  0  0  0  0  0  0  0  0999 V3000
M  V30 BEGIN CTAB
M  V30 COUNTS 33 32 0 0 1
M  V30 BEGIN ATOM
M  V30 1 C 39.530793 29.866367 52.163333 0
M  V30 2 C 39.026715 31.539222 55.665746 0
M  V30 3 C 38.270121 32.030859 58.078734 0
M  V30 4 C 36.491944 30.984355 59.675844 0
M  V30 5 C 37.954169 31.421012 59.462796 0
M  V30 6 C 38.524855 30.969006 56.993566 0
M  V30 7 C 39.066012 30.439396 54.596283 0
M  V30 8 C 40.141134 30.337405 50.840104 0
M  V30 9 O 39.867891 29.376974 49.848443 0
M  V30 10 C 39.628727 30.928883 53.262455 0
M  V30 11 N 36.039690 30.021427 58.659682 0 CHG=1
M  V30 12 H 38.486299 29.594957 52.018758 0
M  V30 13 H 40.024133 28.951423 52.482409 0
M  V30 14 H 40.017657 31.973578 55.800923 0
M  V30 15 H 38.370427 32.345924 55.337302 0
M  V30 16 H 39.162343 32.649458 58.168902 0
M  V30 17 H 37.475380 32.709911 57.767213 0
M  V30 18 H 36.381788 30.534679 60.662743 0
M  V30 19 H 35.828439 31.850171 59.645819 0
M  V30 20 H 38.624823 30.584245 59.663240 0
M  V30 21 H 38.187518 32.168019 60.222859 0
M  V30 22 H 37.607557 30.429126 56.777187 0
M  V30 23 H 39.241415 30.231758 57.356726 0
M  V30 24 H 38.056356 30.057881 54.440623 0
M  V30 25 H 39.664583 29.598352 54.950915 0
M  V30 26 H 41.221509 30.460222 50.937522 0
M  V30 27 H 39.731138 31.299835 50.528110 0
M  V30 28 H 38.979804 29.505913 49.531285 0
M  V30 29 H 40.669822 31.220516 53.396291 0
M  V30 30 H 39.083265 31.822226 52.955048 0
M  V30 31 H 35.177529 29.574897 58.930151 0
M  V30 32 H 35.867293 30.615268 57.838197 0
M  V30 33 H 36.757269 29.342383 58.459426 0
M  V30 END ATOM
M  V30 BEGIN BOND
M  V30 1 1 5 3
M  V30 2 1 5 4
M  V30 3 1 6 2
M  V30 4 1 6 3
M  V30 5 1 7 2
M  V30 6 1 8 1
M  V30 7 1 9 8
M  V30 8 1 10 1
M  V30 9 1 10 7
M  V30 10 1 11 4
M  V30 11 1 12 1
M  V30 12 1 13 1
M  V30 13 1 14 2
M  V30 14 1 15 2
M  V30 15 1 16 3
M  V30 16 1 17 3
M  V30 17 1 18 4
M  V30 18 1 19 4
M  V30 19 1 20 5
M  V30 20 1 21 5
M  V30 21 1 22 6
M  V30 22 1 23 6
M  V30 23 1 24 7
M  V30 24 1 25 7
M  V30 25 1 26 8
M  V30 26 1 27 8
M  V30 27 1 28 9
M  V30 28 1 29 10
M  V30 29 1 30 10
M  V30 30 1 31 11
M  V30 31 1 32 11
M  V30 32 1 33 11
M  V30 END BOND
M  V30 END CTAB
M  END
>  <i_epik_Tot_Q>  (1) 
1

>  <i_epik_Tot_abs_Q>  (1) 
1

>  <i_i_glide_confnum>  (1) 
4

>  <i_i_glide_lignum>  (1) 
224

>  <i_i_glide_posenum>  (1) 
140

>  <i_i_glide_rotatable_bonds>  (1) 
9

>  <i_lp_mmshare_version>  (1) 
72125

>  <i_m_source_file_index>  (1) 
87

>  <i_f3d_flags>  (1) 
0

>  <num_sample>  (1) 
100

>  <b_lp_Chiralities_Consistent>  (1) 
1

>  <r_epik_Charging_Adjusted_Penalty>  (1) 
0.00087520377799151221

>  <r_epik_Ionization_Penalty>  (1) 
0.00087550358421122272

>  <r_epik_Ionization_Penalty_Charging>  (1) 
0.00087520377799151221

>  <r_epik_Ionization_Penalty_Neutral>  (1) 
2.9980621971047925e-07

>  <r_epik_State_Penalty>  (1) 
-0

>  <r_glide_ring_energy>  (1) 
0

>  <r_i_docking_score>  (1) 
2.0471571078734669

>  <r_i_glide_ecoul>  (1) 
-7.7132306186676374

>  <r_i_glide_eff_state_penalty>  (1) 
-0

>  <r_i_glide_einternal>  (1) 
4.7651398926657151

>  <r_i_glide_emodel>  (1) 
-16.204847642574393

>  <r_i_glide_emodel_strain>  (1) 
0.56604362354005566

>  <r_i_glide_energy>  (1) 
-23.848063251384616

>  <r_i_glide_erotb>  (1) 
8.221785673329066

>  <r_i_glide_esite>  (1) 
-0.10000000000000001

>  <r_i_glide_evdw>  (1) 
-16.134832632716979

>  <r_i_glide_gscore>  (1) 
2.0471571078734669

>  <r_i_glide_gscore_strain>  (1) 
0

>  <r_i_glide_hbond>  (1) 
-0.52000000000000002

>  <r_i_glide_ligand_efficiency>  (1) 
0.18610519162486064

>  <r_i_glide_ligand_efficiency_ln>  (1) 
0.60247798814220377

>  <r_i_glide_ligand_efficiency_sa>  (1) 
0.41389424092527743

>  <r_i_glide_lipo>  (1) 
-1.1222995354744585

>  <r_i_glide_metal>  (1) 
-0

>  <r_i_glide_rewards>  (1) 
-2.4686028055451459

>  <r_lp_Energy>  (1) 
9.926715999999999

>  <r_lp_tautomer_probability>  (1) 
1

>  <s_epik_cmdline>  (1) 
J2VwaWtfcHl0aG9uJywgJy1waHQnLCAnMS4wJywgJy1waCcsICc3LjQnLCAnLXRuJywgJzgnLCAnLW1hJywgJzUwMCcsICctaW1hZScsICc8aW5maWxlLm1hZT4nLCAnLW9tYWUnLCAnPG91dGZpbGUubWFlPic=

>  <s_epik_input>  (1) 
W09IXVtDSDJdW0NIMl1bQ0gyXVtDSDJdW0NIMl1bQ0gyXVtDSDJdW0NIMl1bQ0gyXVtOSDJd

>  <s_glide_docking_method>  (1) 
confgen

>  <s_i_glide_gridfile>  (1) 
gpcr_5ht2c_6bqh_protein_autoprepared_prepared

>  <s_lp_Force_Field>  (1) 
S-OPLS

>  <s_lp_Variant>  (1) 
DiffSBDD_86_num_sample_100-1

>  <s_m_source_file>  (1) 
generated__ligand_DiffSBDD_2026-05-06_prepared.sdf

>  <GenAI_Model>  (1) 
DiffSBDD

>  <Protein>  (1) 
GPCR_5HT2C

$$$$
DiffSBDD_79_num_sample_100
     RDKit          3D

  0  0  0  0  0  0  0  0  0  0999 V3000
M  V30 BEGIN CTAB
M  V30 COUNTS 84 86 0 0 1
M  V30 BEGIN ATOM
M  V30 1 C 36.858130 35.145353 60.793618 0
M  V30 2 C 38.582741 31.783772 61.944064 0
M  V30 3 C 39.919721 26.854189 56.278271 0
M  V30 4 C 42.779619 34.559247 64.378583 0
M  V30 5 C 36.397585 34.326526 58.580944 0
M  V30 6 C 38.110130 25.191677 56.197555 0
M  V30 7 C 36.394997 33.900170 60.033131 0
M  V30 8 C 38.292450 31.068748 57.168335 0
M  V30 9 F 38.005181 24.347429 57.222279 0
M  V30 10 C 42.210276 35.859258 63.813548 0
M  V30 11 C 37.169964 32.189066 61.876236 0
M  V30 12 C 37.881832 28.627626 57.772720 0
M  V30 13 F 36.887173 25.474599 55.760818 0
M  V30 14 C 38.692483 26.485675 56.682425 0
M  V30 15 C 39.930228 29.350741 56.636715 0
M  V30 16 C 40.328576 30.144922 62.206070 0
M  V30 17 C 42.229811 32.692802 65.839120 0
M  V30 18 N 41.893450 33.535068 64.825048 0
M  V30 19 C 35.288031 33.015673 60.548159 0
M  V30 20 C 38.751646 29.634451 57.168457 0
M  V30 21 C 40.743293 33.327745 63.977685 0
M  V30 22 C 38.627673 29.682505 60.722113 0 CFG=2
M  V30 23 C 36.677967 32.441644 60.507829 0
M  V30 24 C 34.158633 32.605721 59.626560 0
M  V30 25 O 37.343116 30.023717 60.237978 0
M  V30 26 O 43.263198 32.810807 66.502459 0
M  V30 27 C 38.927255 28.134062 60.759174 0
M  V30 28 C 34.658303 33.334223 61.841970 0
M  V30 29 C 41.288500 31.555868 66.137858 0
M  V30 30 N 38.907444 30.363212 61.942271 0
M  V30 31 F 38.786172 24.618385 55.210568 0
M  V30 32 C 37.860533 27.290422 57.568312 0
M  V30 33 C 41.253078 32.449360 62.832274 0
M  V30 34 C 40.640295 28.058841 56.713716 0
M  V30 35 C 40.968394 31.011401 63.223435 0
M  V30 36 C 38.300804 31.730339 58.574645 0
M  V30 37 C 37.146191 31.302507 59.558170 0 CFG=2
M  V30 38 H 36.345604 36.024055 60.402600 0
M  V30 39 H 36.687099 35.134218 61.864798 0
M  V30 40 H 37.921679 35.299189 60.631981 0
M  V30 41 H 38.881353 32.219641 62.882493 0
M  V30 42 H 39.065411 32.328627 61.147588 0
M  V30 43 H 40.474037 26.200930 55.623725 0
M  V30 44 H 43.602916 34.707612 65.040928 0
M  V30 45 H 43.158801 34.051205 63.506715 0
M  V30 46 H 35.558853 34.988882 58.371978 0
M  V30 47 H 37.325746 34.847454 58.339392 0
M  V30 48 H 36.317483 33.491171 57.905111 0
M  V30 49 H 38.926040 31.665432 56.510951 0
M  V30 50 H 37.322756 31.095230 56.706668 0
M  V30 51 H 43.038070 36.555932 63.727044 0
M  V30 52 H 41.826295 35.718089 62.805656 0
M  V30 53 H 41.441772 36.337960 64.404022 0
M  V30 54 H 36.452677 31.616165 62.425461 0
M  V30 55 H 37.175233 33.139044 62.369427 0
M  V30 56 H 37.116507 28.985381 58.407218 0
M  V30 57 H 40.479228 30.152802 56.178687 0
M  V30 58 H 40.374855 29.176479 62.689777 0
M  V30 59 H 40.931956 30.109621 61.303137 0
M  V30 60 H 40.344254 34.252386 63.565218 0
M  V30 61 H 39.875170 32.907707 64.474044 0
M  V30 62 H 39.335312 30.008258 59.986734 0
M  V30 63 H 33.367032 33.362421 59.561641 0
M  V30 64 H 34.531566 32.489344 58.671553 0
M  V30 65 H 33.730849 31.632572 59.841760 0
M  V30 66 H 39.891562 27.885003 61.206160 0
M  V30 67 H 38.267550 27.594041 61.409534 0
M  V30 68 H 38.958761 27.676393 59.786065 0
M  V30 69 H 33.910807 33.941537 61.477121 0
M  V30 70 H 34.282767 32.465129 62.349073 0
M  V30 71 H 35.174869 33.969774 62.534659 0
M  V30 72 H 41.889660 30.692435 66.446142 0
M  V30 73 H 41.016130 31.369556 67.152274 0
M  V30 74 H 40.402674 32.105710 66.458859 0
M  V30 75 H 37.072467 26.759628 58.089926 0
M  V30 76 H 42.296271 32.552343 62.554396 0
M  V30 77 H 40.789686 32.785607 61.925243 0
M  V30 78 H 41.553551 28.169872 56.135376 0
M  V30 79 H 41.007900 27.929931 57.736909 0
M  V30 80 H 40.258461 30.999656 64.043360 0
M  V30 81 H 41.879395 30.545585 63.585767 0
M  V30 82 H 39.274653 31.673856 59.044122 0
M  V30 83 H 38.277543 32.793671 58.366711 0
M  V30 84 H 36.293046 31.053111 58.949832 0
M  V30 END ATOM
M  V30 BEGIN BOND
M  V30 1 1 7 1
M  V30 2 1 7 5
M  V30 3 1 9 6
M  V30 4 1 10 4
M  V30 5 1 11 2
M  V30 6 1 13 6
M  V30 7 2 14 3
M  V30 8 1 14 6
M  V30 9 1 18 4
M  V30 10 1 18 17
M  V30 11 1 19 7
M  V30 12 1 20 8
M  V30 13 1 20 12
M  V30 14 2 20 15
M  V30 15 1 21 18
M  V30 16 1 23 7
M  V30 17 1 23 11
M  V30 18 1 23 19
M  V30 19 1 24 19
M  V30 20 1 25 22
M  V30 21 2 26 17
M  V30 22 1 27 22
M  V30 23 1 28 19
M  V30 24 1 29 17
M  V30 25 1 30 2
M  V30 26 1 30 16
M  V30 27 1 30 22
M  V30 28 1 31 6
M  V30 29 2 32 12
M  V30 30 1 32 14
M  V30 31 1 33 21
M  V30 32 1 34 3
M  V30 33 1 34 15
M  V30 34 1 35 16
M  V30 35 1 35 33
M  V30 36 1 36 8
M  V30 37 1 37 23
M  V30 38 1 37 25
M  V30 39 1 37 36
M  V30 40 1 38 1
M  V30 41 1 39 1
M  V30 42 1 40 1
M  V30 43 1 41 2
M  V30 44 1 42 2
M  V30 45 1 43 3
M  V30 46 1 44 4
M  V30 47 1 45 4
M  V30 48 1 46 5
M  V30 49 1 47 5
M  V30 50 1 48 5
M  V30 51 1 49 8
M  V30 52 1 50 8
M  V30 53 1 51 10
M  V30 54 1 52 10
M  V30 55 1 53 10
M  V30 56 1 54 11
M  V30 57 1 55 11
M  V30 58 1 56 12
M  V30 59 1 57 15
M  V30 60 1 58 16
M  V30 61 1 59 16
M  V30 62 1 60 21
M  V30 63 1 61 21
M  V30 64 1 22 62 CFG=3
M  V30 65 1 63 24
M  V30 66 1 64 24
M  V30 67 1 65 24
M  V30 68 1 66 27
M  V30 69 1 67 27
M  V30 70 1 68 27
M  V30 71 1 69 28
M  V30 72 1 70 28
M  V30 73 1 71 28
M  V30 74 1 72 29
M  V30 75 1 73 29
M  V30 76 1 74 29
M  V30 77 1 75 32
M  V30 78 1 76 33
M  V30 79 1 77 33
M  V30 80 1 78 34
M  V30 81 1 79 34
M  V30 82 1 80 35
M  V30 83 1 81 35
M  V30 84 1 82 36
M  V30 85 1 83 36
M  V30 86 1 37 84 CFG=3
M  V30 END BOND
M  V30 END CTAB
M  END
>  <i_epik_Tot_Q>  (1) 
0

>  <i_epik_Tot_abs_Q>  (1) 
0

>  <i_i_glide_confnum>  (1) 
2001

>  <i_i_glide_lignum>  (1) 
200

>  <i_i_glide_posenum>  (1) 
112

>  <i_i_glide_rotatable_bonds>  (1) 
11

>  <i_lp_mmshare_version>  (1) 
72125

>  <i_m_source_file_index>  (1) 
80

>  <i_f3d_flags>  (1) 
0

>  <num_sample>  (1) 
100

>  <b_lp_Chiralities_Consistent>  (1) 
1

>  <r_epik_Charging_Adjusted_Penalty>  (1) 
0.2050768058510691

>  <r_epik_Ionization_Penalty>  (1) 
0.20507783400789523

>  <r_epik_Ionization_Penalty_Charging>  (1) 
0

>  <r_epik_Ionization_Penalty_Neutral>  (1) 
0.20507783400789523

>  <r_epik_State_Penalty>  (1) 
0.2050768058510691

>  <r_glide_ring_energy>  (1) 
0.00060120837358353487

>  <r_i_docking_score>  (1) 
2.3332748063316511

>  <r_i_glide_ecoul>  (1) 
-0.38841905082599704

>  <r_i_glide_eff_state_penalty>  (1) 
0.2050768058510691

>  <r_i_glide_einternal>  (1) 
15.934127139337143

>  <r_i_glide_emodel>  (1) 
40.362896791816141

>  <r_i_glide_emodel_strain>  (1) 
31.384754121808015

>  <r_i_glide_energy>  (1) 
-3.09975806826067

>  <r_i_glide_erotb>  (1) 
0.59792730839384334

>  <r_i_glide_esite>  (1) 
0

>  <r_i_glide_evdw>  (1) 
-2.711339017434673

>  <r_i_glide_gscore>  (1) 
2.1281980004805821

>  <r_i_glide_gscore_strain>  (1) 
6.8461885304520038

>  <r_i_glide_hbond>  (1) 
0

>  <r_i_glide_ligand_efficiency>  (1) 
0.063061481252206786

>  <r_i_glide_ligand_efficiency_ln>  (1) 
0.50603260577102482

>  <r_i_glide_ligand_efficiency_sa>  (1) 
0.21013484582576508

>  <r_i_glide_lipo>  (1) 
-2.6762120550011388

>  <r_i_glide_metal>  (1) 
-0

>  <r_i_glide_rewards>  (1) 
-2.4458759748684935

>  <r_lp_Energy>  (1) 
53.665700999999999

>  <s_epik_Chemistry_Notes>  (1) 
This compound contains an acetal/aminal-like group ( X-CH(R)-Y where X, Y are N, S, or O) that may be acid/base labile, releasing an aldehyde.

>  <s_epik_cmdline>  (1) 
J2VwaWtfcHl0aG9uJywgJy1waHQnLCAnMS4wJywgJy1waCcsICc3LjQnLCAnLXRuJywgJzgnLCAnLW1hJywgJzUwMCcsICctaW1hZScsICc8aW5maWxlLm1hZT4nLCAnLW9tYWUnLCAnPG91dGZpbGUubWFlPic=

>  <s_epik_input>  (1) 
W0NIM11bQ0gyXU4oQyg9TylbQ0gzXSlbQ0gyXVtDSDJdW0NIMl1bQ0gyXU4oW0NIMl1bQ0gyXUMxMkMoW0NIM10pKFtDSDNdKUMxKFtDSDNdKVtDSDNdKVtDQEBIXShbQ0gzXSlPW0NASF0yW0NIMl1bQ0gyXUMoW0NIXT1bQ0hdMyk9W0NIXVtDSDJdW0NIXT1DM0MoRikoRilG

>  <s_glide_docking_method>  (1) 
confgen

>  <s_i_glide_gridfile>  (1) 
gpcr_5ht2c_6bqh_protein_autoprepared_prepared

>  <s_lp_Force_Field>  (1) 
S-OPLS

>  <s_lp_Variant>  (1) 
DiffSBDD_79_num_sample_100-2

>  <s_m_source_file>  (1) 
generated__ligand_DiffSBDD_2026-05-06_prepared.sdf

>  <GenAI_Model>  (1) 
DiffSBDD

>  <Protein>  (1) 
GPCR_5HT2C

$$$$
DiffSBDD_89_num_sample_100
     RDKit          3D

  0  0  0  0  0  0  0  0  0  0999 V3000
M  V30 BEGIN CTAB
M  V30 COUNTS 106 110 0 0 1
M  V30 BEGIN ATOM
M  V30 1 O 37.327110 29.147510 58.054565 0
M  V30 2 O 37.469074 38.793413 60.985673 0 CHG=-1
M  V30 3 C 41.246470 28.008866 63.361116 0
M  V30 4 C 37.960322 28.096810 58.126131 0
M  V30 5 C 41.668389 36.020849 64.947140 0
M  V30 6 C 39.304624 33.255763 63.015854 0
M  V30 7 O 40.667598 30.346949 50.397351 0
M  V30 8 C 41.761784 33.779629 62.710894 0
M  V30 9 C 37.799795 27.026708 57.041339 0 CFG=2
M  V30 10 C 36.635402 24.781782 55.665026 0
M  V30 11 C 39.914620 30.043513 63.927276 0
M  V30 12 O 37.327739 25.862260 57.690951 0
M  V30 13 C 40.800073 31.666566 61.857354 0
M  V30 14 C 39.181688 26.762121 56.402648 0 CFG=2
M  V30 15 O 39.364734 36.421434 65.496821 0
M  V30 16 C 40.110325 26.255532 57.539662 0
M  V30 17 C 38.629462 37.436617 63.222677 0
M  V30 18 C 36.963394 35.102777 60.449863 0 CFG=1
M  V30 19 C 35.627538 34.831286 59.755090 0
M  V30 20 O 37.467533 37.545734 59.145954 0
M  V30 21 C 39.671922 29.942675 52.599740 0
M  V30 22 C 38.165703 27.744224 51.517857 0
M  V30 23 C 41.157958 28.170179 58.656432 0
M  V30 24 C 38.642766 29.087953 53.394730 0 CFG=1
M  V30 25 O 39.484666 31.103195 61.804508 0
M  V30 26 N 40.183360 27.219866 58.645195 0
M  V30 27 C 42.350803 34.653694 65.157774 0
M  V30 28 C 38.934512 27.711015 59.284235 0 CFG=1
M  V30 29 C 37.391786 37.698033 60.383276 0
M  V30 30 F 40.267066 27.656019 50.653956 0
M  V30 31 C 37.190074 24.687261 57.080873 0
M  V30 32 C 39.601249 37.297942 64.391380 0 CFG=2
M  V30 33 S 40.595847 29.621345 59.366546 0
M  V30 34 C 42.401746 28.023406 58.173794 0
M  V30 35 N 40.308559 36.021806 64.415597 0
M  V30 36 C 40.667725 27.998727 62.030995 0
M  V30 37 C 40.914597 28.949697 64.248240 0
M  V30 38 C 39.198074 28.418360 50.610029 0 CFG=2
M  V30 39 C 40.061430 33.638501 60.703353 0
M  V30 40 N 39.411662 29.905658 62.523201 0
M  V30 41 O 37.467395 23.621569 57.589134 0
M  V30 42 F 41.480566 28.924501 65.465076 0
M  V30 43 F 37.866801 34.952509 59.491650 0
M  V30 44 C 38.269086 36.265553 62.329203 0
M  V30 45 C 39.217273 28.973128 60.216848 0 CFG=2
M  V30 46 C 39.811390 28.913668 61.646865 0
M  V30 47 C 41.957314 33.487369 64.237767 0
M  V30 48 C 39.523788 29.837054 51.059609 0 CFG=2
M  V30 49 O 38.580580 27.766899 52.874995 0
M  V30 50 C 38.847449 29.017531 54.933379 0
M  V30 51 C 40.509141 33.120739 62.078932 0
M  V30 52 C 37.171551 36.435795 61.247406 0 CFG=2
M  V30 53 C 39.785168 27.899184 55.502553 0
M  V30 54 H 41.961564 27.248964 63.635762 0
M  V30 55 H 41.759187 36.619185 65.854307 0
M  V30 56 H 42.286718 36.421869 64.151783 0
M  V30 57 H 39.273725 34.227375 63.421758 0
M  V30 58 H 38.328639 33.043017 62.581607 0
M  V30 59 H 39.389932 32.602094 63.853608 0
M  V30 60 H 40.754224 31.271075 50.588611 0
M  V30 61 H 42.634483 33.392092 62.184053 0
M  V30 62 H 41.733730 34.849104 62.519209 0
M  V30 63 H 37.067404 27.284255 56.292581 0
M  V30 64 H 35.997128 25.651363 55.587600 0
M  V30 65 H 37.424878 24.844756 54.918498 0
M  V30 66 H 36.031938 23.901200 55.448226 0
M  V30 67 H 39.077416 30.021657 64.621028 0
M  V30 68 H 40.415604 30.959117 64.203197 0
M  V30 69 H 41.500130 31.276671 62.591909 0
M  V30 70 H 41.368684 31.525442 60.945383 0
M  V30 71 H 39.094594 25.930181 55.708316 0
M  V30 72 H 39.782534 25.300908 57.952603 0
M  V30 73 H 41.067395 26.027834 57.096368 0
M  V30 74 H 37.687203 37.840786 63.598699 0
M  V30 75 H 39.143573 38.118502 62.553914 0
M  V30 76 H 37.120745 34.270081 61.130794 0
M  V30 77 H 34.897416 34.421589 60.450842 0
M  V30 78 H 35.245107 35.726063 59.271363 0
M  V30 79 H 35.747016 34.070993 58.979633 0
M  V30 80 H 40.667322 29.622136 52.856777 0
M  V30 81 H 39.610760 30.990565 52.900953 0
M  V30 82 H 38.055982 26.719653 51.190083 0
M  V30 83 H 37.186639 28.209288 51.453355 0
M  V30 84 H 37.667005 29.549738 53.247011 0
M  V30 85 H 42.197521 34.353352 66.194949 0
M  V30 86 H 43.424775 34.802850 65.052104 0
M  V30 87 H 38.462010 26.917239 59.853381 0
M  V30 88 H 39.867297 38.255779 64.811776 0
M  V30 89 H 43.110162 28.836610 58.218787 0
M  V30 90 H 42.730166 27.096991 57.733836 0
M  V30 91 H 40.959482 27.246312 61.327336 0
M  V30 92 H 38.875248 28.420949 49.570435 0
M  V30 93 H 40.275655 34.685543 60.499478 0
M  V30 94 H 40.323700 33.029618 59.853028 0
M  V30 95 H 39.004775 33.450703 60.628608 0
M  V30 96 H 39.167151 35.827628 61.909416 0
M  V30 97 H 37.834149 35.621476 63.050684 0
M  V30 98 H 38.381858 29.675738 60.207648 0
M  V30 99 H 41.088031 33.084793 64.732353 0
M  V30 100 H 42.667543 32.671135 64.350014 0
M  V30 101 H 38.709844 30.420581 50.653376 0
M  V30 102 H 39.205285 29.987648 55.282362 0
M  V30 103 H 37.856262 28.955798 55.369522 0
M  V30 104 H 36.268005 36.638357 61.809292 0
M  V30 105 H 40.267140 27.385607 54.672952 0
M  V30 106 H 40.600331 28.393798 56.025757 0
M  V30 END ATOM
M  V30 BEGIN BOND
M  V30 1 2 4 1
M  V30 2 1 9 4
M  V30 3 1 12 9
M  V30 4 1 14 9
M  V30 5 1 16 14
M  V30 6 1 19 18
M  V30 7 1 24 21
M  V30 8 1 25 13
M  V30 9 1 26 16
M  V30 10 1 26 23
M  V30 11 1 27 5
M  V30 12 1 28 4
M  V30 13 1 28 26
M  V30 14 1 29 2
M  V30 15 2 29 20
M  V30 16 1 31 10
M  V30 17 1 31 12
M  V30 18 1 32 15
M  V30 19 1 32 17
M  V30 20 1 33 23
M  V30 21 2 34 23
M  V30 22 1 35 5
M  V30 23 1 35 15
M  V30 24 1 35 32
M  V30 25 1 36 3
M  V30 26 2 37 3
M  V30 27 1 37 11
M  V30 28 1 38 22
M  V30 29 1 38 30
M  V30 30 1 40 11
M  V30 31 1 40 25
M  V30 32 2 41 31
M  V30 33 1 42 37
M  V30 34 1 43 18
M  V30 35 1 44 17
M  V30 36 1 45 28
M  V30 37 1 45 33
M  V30 38 2 46 36
M  V30 39 1 46 40
M  V30 40 1 46 45
M  V30 41 1 47 8
M  V30 42 1 47 27
M  V30 43 1 48 7
M  V30 44 1 48 21
M  V30 45 1 48 38
M  V30 46 1 49 22
M  V30 47 1 49 24
M  V30 48 1 50 24
M  V30 49 1 51 6
M  V30 50 1 51 8
M  V30 51 1 51 13
M  V30 52 1 51 39
M  V30 53 1 52 18
M  V30 54 1 52 29
M  V30 55 1 52 44
M  V30 56 1 53 14
M  V30 57 1 53 50
M  V30 58 1 54 3
M  V30 59 1 55 5
M  V30 60 1 56 5
M  V30 61 1 57 6
M  V30 62 1 58 6
M  V30 63 1 59 6
M  V30 64 1 60 7
M  V30 65 1 61 8
M  V30 66 1 62 8
M  V30 67 1 9 63 CFG=3
M  V30 68 1 64 10
M  V30 69 1 65 10
M  V30 70 1 66 10
M  V30 71 1 67 11
M  V30 72 1 68 11
M  V30 73 1 69 13
M  V30 74 1 70 13
M  V30 75 1 14 71 CFG=3
M  V30 76 1 72 16
M  V30 77 1 73 16
M  V30 78 1 74 17
M  V30 79 1 75 17
M  V30 80 1 18 76 CFG=1
M  V30 81 1 77 19
M  V30 82 1 78 19
M  V30 83 1 79 19
M  V30 84 1 80 21
M  V30 85 1 81 21
M  V30 86 1 82 22
M  V30 87 1 83 22
M  V30 88 1 24 84 CFG=1
M  V30 89 1 85 27
M  V30 90 1 86 27
M  V30 91 1 28 87 CFG=1
M  V30 92 1 32 88 CFG=1
M  V30 93 1 89 34
M  V30 94 1 90 34
M  V30 95 1 91 36
M  V30 96 1 38 92 CFG=3
M  V30 97 1 93 39
M  V30 98 1 94 39
M  V30 99 1 95 39
M  V30 100 1 96 44
M  V30 101 1 97 44
M  V30 102 1 45 98 CFG=1
M  V30 103 1 99 47
M  V30 104 1 100 47
M  V30 105 1 48 101 CFG=3
M  V30 106 1 102 50
M  V30 107 1 103 50
M  V30 108 1 52 104 CFG=1
M  V30 109 1 105 53
M  V30 110 1 106 53
M  V30 END BOND
M  V30 END CTAB
M  END
>  <i_epik_Tot_Q>  (1) 
-1

>  <i_epik_Tot_abs_Q>  (1) 
1

>  <i_i_glide_confnum>  (1) 
10504

>  <i_i_glide_lignum>  (1) 
228

>  <i_i_glide_posenum>  (1) 
339

>  <i_i_glide_rotatable_bonds>  (1) 
20

>  <i_lp_mmshare_version>  (1) 
72125

>  <i_m_source_file_index>  (1) 
90

>  <i_f3d_flags>  (1) 
0

>  <num_sample>  (1) 
100

>  <b_lp_Chiralities_Consistent>  (1) 
1

>  <r_epik_Charging_Adjusted_Penalty>  (1) 
0.0083304435614461898

>  <r_epik_Ionization_Penalty>  (1) 
0.0083323926460460752

>  <r_epik_Ionization_Penalty_Charging>  (1) 
0.00022185446221055619

>  <r_epik_Ionization_Penalty_Neutral>  (1) 
0.0081105381838355185

>  <r_epik_State_Penalty>  (1) 
0.008108589099235633

>  <r_glide_ring_energy>  (1) 
0

>  <r_i_docking_score>  (1) 
3.3818283466015382

>  <r_i_glide_ecoul>  (1) 
-4.6656467686424365

>  <r_i_glide_eff_state_penalty>  (1) 
0.008108589099235633

>  <r_i_glide_einternal>  (1) 
47.673118674933534

>  <r_i_glide_emodel>  (1) 
55.772779863698005

>  <r_i_glide_emodel_strain>  (1) 
32.954032281679915

>  <r_i_glide_energy>  (1) 
-6.8805629629795639

>  <r_i_glide_erotb>  (1) 
0.38281117644627216

>  <r_i_glide_esite>  (1) 
-0.072150989399377599

>  <r_i_glide_evdw>  (1) 
-2.2149161943371278

>  <r_i_glide_gscore>  (1) 
3.3737197575023026

>  <r_i_glide_gscore_strain>  (1) 
7.2385080704199787

>  <r_i_glide_hbond>  (1) 
-0.035215247571077059

>  <r_i_glide_ligand_efficiency>  (1) 
0.06380808201134977

>  <r_i_glide_ligand_efficiency_ln>  (1) 
0.68040839560762223

>  <r_i_glide_ligand_efficiency_sa>  (1) 
0.23968138946340306

>  <r_i_glide_lipo>  (1) 
-6.1075614684139357

>  <r_i_glide_metal>  (1) 
-0

>  <r_i_glide_rewards>  (1) 
2.7779210410336637

>  <r_lp_Energy>  (1) 
27.140322999999999

>  <r_lp_tautomer_probability>  (1) 
0.99999998000000001

>  <s_epik_Chemistry_Notes>  (1) 
This compound has an ester and may undergo hydrolysis at high or low pH. This compound has an imine and may undergo hydrolysis. This compound contains an acetal/aminal-like group ( X-CH(R)-Y where X, Y are N, S, or O) that may be acid/base labile, releasing an aldehyde. This compound has a N-S or N-O group and may undergo hydrolysis at high or low pH.

>  <s_epik_cmdline>  (1) 
J2VwaWtfcHl0aG9uJywgJy1waHQnLCAnMS4wJywgJy1waCcsICc3LjQnLCAnLXRuJywgJzgnLCAnLW1hJywgJzUwMCcsICctaW1hZScsICc8aW5maWxlLm1hZT4nLCAnLW9tYWUnLCAnPG91dGZpbGUubWFlPic=

>  <s_epik_input>  (1) 
TzFbQ0gyXVtDQEhdKEYpW0NASF0oW09IXSlbQ0gyXVtDQEBIXTFbQ0gyXVtDSDJdW0NAQEhdKFtDSDJdMilbQ0BASF0oT0MoPU8pW0NIM10pQyg9TylbQ0BASF0oTjIzKVtDQEhdKFNDMz1bQ0gyXSlDKD1bQ0hdW0NIXT1DNEYpTihbQ0gyXTQpT1tDSDJdQyhbQ0gzXSkoW0NIM10pW0NIMl1bQ0gyXVtDSDJdW0NIMl1bTkBdNU9bQ0hdNVtDSDJdW0NIMl1bQ0BIXShbQ0BIXShGKVtDSDNdKUMoPU8pW09IXQ==

>  <s_glide_docking_method>  (1) 
confgen

>  <s_i_glide_gridfile>  (1) 
gpcr_5ht2c_6bqh_protein_autoprepared_prepared

>  <s_lp_Force_Field>  (1) 
S-OPLS

>  <s_lp_Variant>  (1) 
DiffSBDD_89_num_sample_100-1

>  <s_m_source_file>  (1) 
generated__ligand_DiffSBDD_2026-05-06_prepared.sdf

>  <GenAI_Model>  (1) 
DiffSBDD

>  <Protein>  (1) 
GPCR_5HT2C

$$$$
DiffSBDD_44_num_sample_100
     RDKit          3D

  0  0  0  0  0  0  0  0  0  0999 V3000
M  V30 BEGIN CTAB
M  V30 COUNTS 58 59 0 0 1
M  V30 BEGIN ATOM
M  V30 1 C 39.631286 30.305819 53.511969 0
M  V30 2 O 39.466649 30.282801 57.626520 0 CHG=-1
M  V30 3 C 36.723299 33.294029 61.556097 0
M  V30 4 C 38.718636 28.948542 55.337602 0 CFG=1
M  V30 5 N 38.582082 30.413678 55.614585 0 CFG=2 CHG=1
M  V30 6 C 36.811381 35.353760 60.318233 0
M  V30 7 N 39.093229 33.691077 59.314375 0
M  V30 8 C 37.462380 34.194056 61.007456 0
M  V30 9 O 39.700331 35.193626 60.911613 0
M  V30 10 C 39.010684 28.931898 53.834392 0 CFG=1
M  V30 11 C 37.763960 28.671088 53.014182 0
M  V30 12 C 38.755438 32.347945 57.274114 0 CFG=1
M  V30 13 C 38.657917 32.618778 58.788857 0
M  V30 14 C 39.610792 31.079665 54.808305 0
M  V30 15 C 40.175655 35.397588 62.222904 0
M  V30 16 C 34.837324 32.589414 60.075579 0
M  V30 17 C 38.460892 30.836036 57.005830 0 CFG=2
M  V30 18 C 38.975515 34.000588 60.707929 0 CFG=2
M  V30 19 F 33.732045 33.964337 58.664877 0
M  V30 20 C 34.637408 33.993052 59.590002 0 CFG=2
M  V30 21 C 35.622342 32.566915 61.416565 0
M  V30 22 C 37.893019 33.292287 56.429021 0
M  V30 23 C 37.989344 31.497524 59.623772 0
M  V30 24 C 39.920395 28.244871 56.047120 0
M  V30 25 C 35.840621 34.887172 59.189716 0
M  V30 26 H 39.055924 30.870104 52.787316 0
M  V30 27 H 40.646741 30.270173 53.132573 0
M  V30 28 H 37.799352 28.409916 55.591991 0
M  V30 29 H 36.245846 35.823530 61.126499 0
M  V30 30 H 37.497095 36.106685 59.971135 0
M  V30 31 H 39.709926 28.142251 53.601552 0
M  V30 32 H 37.053848 29.420140 53.326416 0
M  V30 33 H 37.961929 28.755507 51.941464 0
M  V30 34 H 37.329842 27.695439 53.233775 0
M  V30 35 H 39.780307 32.585587 56.960686 0
M  V30 36 H 39.504967 32.140937 54.623669 0
M  V30 37 H 40.543487 30.994433 55.346916 0
M  V30 38 H 40.667877 36.368294 62.322615 0
M  V30 39 H 39.357010 35.357769 62.934754 0
M  V30 40 H 40.909531 34.635888 62.476401 0
M  V30 41 H 35.169116 32.056312 59.197699 0
M  V30 42 H 33.981444 31.980706 60.148636 0
M  V30 43 H 37.388073 30.563009 57.123118 0
M  V30 44 H 39.433051 33.217977 61.290703 0
M  V30 45 H 34.099118 34.421326 60.371410 0
M  V30 46 H 35.370043 31.782945 62.114468 0
M  V30 47 H 38.013532 34.339498 56.667310 0
M  V30 48 H 37.870794 33.134642 55.348585 0
M  V30 49 H 36.918023 33.102997 56.753222 0
M  V30 50 H 37.548213 30.597194 59.177898 0
M  V30 51 H 38.471585 31.235507 60.579137 0
M  V30 52 H 37.070544 31.941107 59.590645 0
M  V30 53 H 40.218012 27.276878 55.677654 0
M  V30 54 H 40.784199 28.917542 56.023650 0
M  V30 55 H 39.694788 28.073254 57.103242 0
M  V30 56 H 35.406147 35.783308 58.745665 0
M  V30 57 H 36.394184 34.387932 58.402878 0
M  V30 58 H 37.687839 30.688501 55.239658 0
M  V30 END ATOM
M  V30 BEGIN BOND
M  V30 1 1 5 4
M  V30 2 2 8 3
M  V30 3 1 8 6
M  V30 4 1 10 1
M  V30 5 1 10 4
M  V30 6 1 11 10
M  V30 7 2 13 7
M  V30 8 1 13 12
M  V30 9 1 14 1
M  V30 10 1 14 5
M  V30 11 1 15 9
M  V30 12 1 17 2
M  V30 13 1 17 5
M  V30 14 1 17 12
M  V30 15 1 18 7
M  V30 16 1 18 8
M  V30 17 1 18 9
M  V30 18 1 20 16
M  V30 19 1 20 19
M  V30 20 2 21 3
M  V30 21 1 21 16
M  V30 22 1 22 12
M  V30 23 1 23 13
M  V30 24 1 24 4
M  V30 25 1 25 6
M  V30 26 1 25 20
M  V30 27 1 26 1
M  V30 28 1 27 1
M  V30 29 1 4 28 CFG=3
M  V30 30 1 29 6
M  V30 31 1 30 6
M  V30 32 1 10 31 CFG=1
M  V30 33 1 32 11
M  V30 34 1 33 11
M  V30 35 1 34 11
M  V30 36 1 12 35 CFG=3
M  V30 37 1 36 14
M  V30 38 1 37 14
M  V30 39 1 38 15
M  V30 40 1 39 15
M  V30 41 1 40 15
M  V30 42 1 41 16
M  V30 43 1 42 16
M  V30 44 1 17 43 CFG=1
M  V30 45 1 18 44 CFG=1
M  V30 46 1 20 45 CFG=1
M  V30 47 1 46 21
M  V30 48 1 47 22
M  V30 49 1 48 22
M  V30 50 1 49 22
M  V30 51 1 50 23
M  V30 52 1 51 23
M  V30 53 1 52 23
M  V30 54 1 53 24
M  V30 55 1 54 24
M  V30 56 1 55 24
M  V30 57 1 56 25
M  V30 58 1 57 25
M  V30 59 1 5 58 CFG=3
M  V30 END BOND
M  V30 END CTAB
M  END
>  <i_epik_Tot_Q>  (1) 
0

>  <i_epik_Tot_abs_Q>  (1) 
2

>  <i_i_glide_confnum>  (1) 
20

>  <i_i_glide_lignum>  (1) 
117

>  <i_i_glide_posenum>  (1) 
41

>  <i_i_glide_rotatable_bonds>  (1) 
6

>  <i_lp_mmshare_version>  (1) 
72125

>  <i_m_source_file_index>  (1) 
45

>  <i_f3d_flags>  (1) 
0

>  <num_sample>  (1) 
100

>  <b_lp_Chiralities_Consistent>  (1) 
1

>  <r_epik_Charging_Adjusted_Penalty>  (1) 
0.41733257654759531

>  <r_epik_Ionization_Penalty>  (1) 
0.0069177268181324029

>  <r_epik_Ionization_Penalty_Charging>  (1) 
0.0066527375949913311

>  <r_epik_Ionization_Penalty_Neutral>  (1) 
0.00026498922314107146

>  <r_epik_State_Penalty>  (1) 
0.41067983895260396

>  <r_glide_ring_energy>  (1) 
0

>  <r_i_docking_score>  (1) 
3.646669225291832

>  <r_i_glide_ecoul>  (1) 
-2.122527101019716

>  <r_i_glide_eff_state_penalty>  (1) 
0.41067983895260396

>  <r_i_glide_einternal>  (1) 
8.5547102463361071

>  <r_i_glide_emodel>  (1) 
36.755173897284145

>  <r_i_glide_emodel_strain>  (1) 
35.513817888630449

>  <r_i_glide_energy>  (1) 
-11.235833042935695

>  <r_i_glide_erotb>  (1) 
0.61440649929112812

>  <r_i_glide_esite>  (1) 
-0.088749827694351399

>  <r_i_glide_evdw>  (1) 
-9.1133059419159803

>  <r_i_glide_gscore>  (1) 
3.2359893863392282

>  <r_i_glide_gscore_strain>  (1) 
7.8784544721576122

>  <r_i_glide_hbond>  (1) 
0

>  <r_i_glide_ligand_efficiency>  (1) 
0.14586676901167328

>  <r_i_glide_ligand_efficiency_ln>  (1) 
0.86436988825234151

>  <r_i_glide_ligand_efficiency_sa>  (1) 
0.4265170200059315

>  <r_i_glide_lipo>  (1) 
-2.1602360324398808

>  <r_i_glide_metal>  (1) 
-0

>  <r_i_glide_rewards>  (1) 
-2.2338413627265243

>  <r_lp_Energy>  (1) 
9.8008069999999989

>  <r_lp_tautomer_probability>  (1) 
0.49999399997599986

>  <s_epik_Chemistry_Notes>  (1) 
This compound has an imine and may undergo hydrolysis. This compound contains an acetal/aminal-like group ( X-CH(R)-Y where X, Y are N, S, or O) that may be acid/base labile, releasing an aldehyde.

>  <s_epik_cmdline>  (1) 
J2VwaWtfcHl0aG9uJywgJy1waHQnLCAnMS4wJywgJy1waCcsICc3LjQnLCAnLXRuJywgJzgnLCAnLW1hJywgJzUwMCcsICctaW1hZScsICc8aW5maWxlLm1hZT4nLCAnLW9tYWUnLCAnPG91dGZpbGUubWFlPic=

>  <s_epik_input>  (1) 
W0NIM11bQ0BIXTFbQ0gyXVtDSDJdTihbQ0BASF0xW0NIM10pW0NAQEhdKFtPSF0pW0NAQEhdKFtDSDNdKVxDKFtDSDNdKT1OXFtDQEBIXShPW0NIM10pQzI9Qz1bQ0hdW0NIMl1bQ0BASF0oRilbQ0gyXVtDSDJdMg==

>  <s_glide_docking_method>  (1) 
confgen

>  <s_i_glide_gridfile>  (1) 
gpcr_5ht2c_6bqh_protein_autoprepared_prepared

>  <s_lp_Force_Field>  (1) 
S-OPLS

>  <s_lp_Variant>  (1) 
DiffSBDD_44_num_sample_100-10

>  <s_m_source_file>  (1) 
generated__ligand_DiffSBDD_2026-05-06_prepared.sdf

>  <GenAI_Model>  (1) 
DiffSBDD

>  <Protein>  (1) 
GPCR_5HT2C

$$$$
